data_PCOD8168443
_publ_section_title
;
Structure prediction by ZEFSAII (Michael W. Deem and Ramdas Pophale) SiO2 
 PCOD8168443
Probable space group: P M A 2
;
_chemical_formula_sum "Si O2"
_cell_formula_units_Z 32
_cell_length_a 15.262396
_cell_length_b 8.501047
_cell_length_c 11.957923
_cell_angle_alpha 90.000000
_cell_angle_beta 90.000000
_cell_angle_gamma 90.000000
_cell_volume 1551.496812
_symmetry_space_group_name_H-M "P M A 2"
_symmetry_group_IT_number 28
_symmetry_cell_setting 'orthorhombic'
loop_
_space_group_symop_operation_xyz
x,y,z
-x,-y,z
1/2-x,y,z
1/2+x,-y,z
loop_
_atom_site_type_symbol
_atom_site_label
_atom_site_fract_x
_atom_site_fract_y
_atom_site_fract_z
Si Si1 0.150180 0.663554 0.011680
Si Si2 0.508891 0.817762 0.417277
Si Si3 0.845366 0.204088 0.781186
Si Si4 0.151878 0.292486 0.574233
Si Si5 0.913003 0.889135 0.782651
Si Si6 0.082017 0.609740 0.585651
Si Si7 0.496996 0.317268 0.177448
Si Si8 0.352202 0.298563 0.998313
O O1 0.250000 0.702260 0.048296
O O2 0.085848 0.717124 0.109750
O O3 0.141037 0.483274 0.974139
O O4 0.118989 0.762860 0.905056
O O5 0.603774 0.760598 0.460670
O O6 0.430478 0.719850 0.476834
O O7 0.502364 0.791171 0.285743
O O8 0.500000 0.000000 0.446236
O O9 0.750000 0.281729 0.765152
O O10 0.910825 0.278135 0.692279
O O11 0.836178 0.016633 0.766321
O O12 0.250000 0.223200 0.577998
O O13 0.092688 0.229835 0.677870
O O14 0.160836 0.483846 0.573852
O O15 0.897064 0.792062 0.895771
O O16 0.000000 0.000000 0.786752
O O17 0.000000 0.500000 0.605585
O O18 0.500000 0.500000 0.212314
O O19 0.409751 0.267462 0.109253
O O20 0.250000 0.248026 0.015818
#
# Coordination Sequence:
#
# PCOD8168443 Si02
#       8
#     4   4   4   4   4   4   4   4
#     4   9  20  38  60  88 121 159 204 254 306 369
#     4  11  24  42  61  85 119 156 199 250 309 376
#     4  11  21  34  55  86 121 149 184 238 298 356
#     4  11  22  39  63  88 118 157 204 254 305 367
#     4  12  23  36  57  88 125 164 199 245 309 371
#     4  10  21  38  60  85 113 153 198 241 293 362
#     4  10  21  39  61  84 115 158 207 257 306 361
#     4  10  21  38  61  88 119 158 206 253 304 372
#
# _framework density 20.625243000000001
#
# number of rings (size 3 to 8) (size 9 to 14) (size 15 to 20)
#    0.000    1.500    0.000    6.750    0.000    4.500 
#    0.000    5.000    0.000    0.000    0.000    0.000 
#    0.000    0.000    0.000    0.000    0.000    0.000 
#
# Total GULP energy -396662.029210 kJ/mol
# GULP energy per Si atom -12395.688413 kJ/mol
# Density = 2.057830 g / cm^3
# Si number density = 20.625243 Si / 1000 Ang^3
#
#
#
# Elastic Constant Matrix: (Units=GPa)
#
#
# Indices 1 2 3 4 5 6 
#
# 1 116.7729 29.8286 55.1991 0.0000 0.0000 0.0000
# 2 29.8286 110.5793 59.0773 0.0000 0.0000 0.0000
# 3 55.1991 59.0773 131.7859 0.0000 0.0000 0.0000
# 4 0.0000 0.0000 0.0000 33.1992 0.0000 0.0000
# 5 0.0000 0.0000 0.0000 0.0000 22.8701 0.0000
# 6 0.0000 0.0000 0.0000 0.0000 0.0000 24.8272
#
#
#
# Elastic Compliance Matrix: (Units=1/GPa)
#
#
# Indices 1 2 3 4 5 6 
#
# 1 0.010713 -0.000648 -0.004197 0.000000 0.000000 0.000000
# 2 -0.000648 0.011930 -0.005077 0.000000 0.000000 0.000000
# 3 -0.004197 -0.005077 0.011622 0.000000 0.000000 0.000000
# 4 0.000000 0.000000 0.000000 0.030121 0.000000 0.000000
# 5 0.000000 0.000000 0.000000 0.000000 0.043725 0.000000
# 6 0.000000 0.000000 0.000000 0.000000 0.000000 0.040278
#
#
# Mechanical properties :
#
#
# Convention : Reuss Voigt Hill
#
# Bulk Modulus (GPa) = 69.33682 71.92756 70.63219
# Shear Modulus (GPa) = 28.89502 30.51482 29.70492
#
# Velocity S-wave (km/s) = 3.74699 3.85059 3.79914
# Velocity P-wave (km/s) = 7.23950 7.39720 7.31878
#
# Compressibility (1/GPa) = 0.01442235
#
# Stress axis : x y z
#
# Youngs Moduli (GPa) = 93.34512 83.82000 86.04510
#
# Poissons Ratio (x) = 0.05428 0.36112
# Poissons Ratio (y) = 0.06045 0.43684
# Poissons Ratio (z) = 0.39175 0.42555
#
# Static dielectric constant tensor:
#      x y z
#    x 4.100000 0.000000 0.000000 
#    y 0.000000 4.179240 0.000000 
#    z 0.000000 0.000000 3.516040 
# 
# 
# High freq. dielectric constant tensor:
#      x y z
#    x 1.814350 0.000000 0.000000 
#    y 0.000000 1.816250 0.000000 
#    z 0.000000 0.000000 1.794710 
# 
# From -- ./inp_files/5564.got.cif
#   From: 2010.03.12/outbox.cif.g09.slc.cpg/sg28_3_cif.got.tgz:5564.got - 2010.04.14 03:39:34.
