data_PCOD8168247
_publ_section_title
;
Structure prediction by ZEFSAII (Michael W. Deem and Ramdas Pophale) SiO2 
 PCOD8168247
Probable space group: P M A 2
;
_chemical_formula_sum "Si O2"
_cell_formula_units_Z 24
_cell_length_a 9.008132
_cell_length_b 13.923484
_cell_length_c 9.888467
_cell_angle_alpha 90.000000
_cell_angle_beta 90.000000
_cell_angle_gamma 90.000000
_cell_volume 1240.256838
_symmetry_space_group_name_H-M "P M A 2"
_symmetry_group_IT_number 28
_symmetry_cell_setting 'orthorhombic'
loop_
_space_group_symop_operation_xyz
x,y,z
-x,-y,z
1/2-x,y,z
1/2+x,-y,z
loop_
_atom_site_type_symbol
_atom_site_label
_atom_site_fract_x
_atom_site_fract_y
_atom_site_fract_z
Si Si1 0.920113 0.904313 0.268540
Si Si2 0.078737 0.796471 0.036929
Si Si3 0.421981 0.214617 0.532263
Si Si4 0.575041 0.402486 0.458569
Si Si5 0.422919 0.901069 0.762791
Si Si6 0.922648 0.404514 0.145366
O O1 0.750000 0.929820 0.243399
O O2 0.940699 0.822175 0.379769
O O3 0.987208 0.870136 0.127277
O O4 0.000000 0.000000 0.320447
O O5 0.250000 0.804423 0.081482
O O6 0.022091 0.687437 0.059770
O O7 0.055297 0.823355 0.881210
O O8 0.250000 0.226602 0.571882
O O9 0.505097 0.316113 0.544858
O O10 0.498519 0.138158 0.629624
O O11 0.500000 0.500000 0.511804
O O12 0.750000 0.406449 0.484656
O O13 0.535182 0.387191 0.301484
O O14 0.250000 0.919743 0.732717
O O15 0.500000 0.000000 0.806744
O O16 0.750000 0.421717 0.127258
O O17 0.000000 0.500000 0.087868
#
# Coordination Sequence:
#
# PCOD8168247 Si02
#       6
#     4   4   4   4   4   4
#     4  11  23  36  56  84 113 146 189 242 293 346
#     4  10  21  39  60  85 116 152 194 239 291 349
#     4  11  23  39  59  86 117 153 199 242 290 350
#     4  10  19  34  59  88 121 155 191 240 294 347
#     4  11  24  41  61  83 115 157 199 242 295 354
#     4   9  18  33  56  86 118 151 186 233 287 342
#
# _framework density 19.350829999999998
#
# number of rings (size 3 to 8) (size 9 to 14) (size 15 to 20)
#    0.000    1.667    1.667    3.000    0.000    7.333 
#    0.000    0.833    0.000    2.000    0.000    0.000 
#    0.000    0.000    0.000    0.000    0.000    0.000 
#
# Total GULP energy -297729.757736 kJ/mol
# GULP energy per Si atom -12405.406572 kJ/mol
# Density = 1.930679 g / cm^3
# Si number density = 19.350830 Si / 1000 Ang^3
#
#
#
# Elastic Constant Matrix: (Units=GPa)
#
#
# Indices 1 2 3 4 5 6 
#
# 1 112.8545 54.8663 33.1925 0.0000 0.0000 0.0000
# 2 54.8663 131.9336 17.6913 0.0000 0.0000 0.0000
# 3 33.1925 17.6913 52.0172 0.0000 0.0000 0.0000
# 4 0.0000 0.0000 0.0000 33.3272 0.0000 0.0000
# 5 0.0000 0.0000 0.0000 0.0000 22.7817 0.0000
# 6 0.0000 0.0000 0.0000 0.0000 0.0000 41.2952
#
#
#
# Elastic Compliance Matrix: (Units=1/GPa)
#
#
# Indices 1 2 3 4 5 6 
#
# 1 0.013056 -0.004518 -0.006794 0.000000 0.000000 0.000000
# 2 -0.004518 0.009506 -0.000350 0.000000 0.000000 0.000000
# 3 -0.006794 -0.000350 0.023679 0.000000 0.000000 0.000000
# 4 0.000000 0.000000 0.000000 0.030006 0.000000 0.000000
# 5 0.000000 0.000000 0.000000 0.000000 0.043895 0.000000
# 6 0.000000 0.000000 0.000000 0.000000 0.000000 0.024216
#
#
# Mechanical properties :
#
#
# Convention : Reuss Voigt Hill
#
# Bulk Modulus (GPa) = 43.63863 56.47840 50.05851
# Shear Modulus (GPa) = 28.51925 32.21782 30.36854
#
# Velocity S-wave (km/s) = 3.84318 4.08479 3.96582
# Velocity P-wave (km/s) = 6.50335 7.17616 6.84802
#
# Compressibility (1/GPa) = 0.02291548
#
# Stress axis : x y z
#
# Youngs Moduli (GPa) = 76.59281 105.20222 42.23175
#
# Poissons Ratio (x) = 0.47535 0.28694
# Poissons Ratio (y) = 0.34608 0.01476
# Poissons Ratio (z) = 0.52040 0.03678
#
# Static dielectric constant tensor:
#      x y z
#    x 3.598910 0.000000 0.000000 
#    y 0.000000 3.686830 0.000000 
#    z 0.000000 0.000000 3.224180 
# 
# 
# High freq. dielectric constant tensor:
#      x y z
#    x 1.762290 0.000000 0.000000 
#    y 0.000000 1.767530 0.000000 
#    z 0.000000 0.000000 1.728780 
# 
# From -- ./inp_files/2449.got.cif
#   From: 2010.03.12/outbox.cif.g09.slc.cpg/sg28_2_cif.got.tgz:2449.got - 2010.04.14 03:39:34.
