data_PCOD8168760
_publ_section_title
;
Structure prediction by ZEFSAII (Michael W. Deem and Ramdas Pophale) SiO2 
 PCOD8168760
Probable space group: P C A 21
;
_chemical_formula_sum "Si O2"
_cell_formula_units_Z 24
_cell_length_a 15.777338
_cell_length_b 12.176851
_cell_length_c 5.165846
_cell_angle_alpha 90.000000
_cell_angle_beta 90.000000
_cell_angle_gamma 90.000000
_cell_volume 992.453521
_symmetry_space_group_name_H-M "P C A 21"
_symmetry_group_IT_number 29
_symmetry_cell_setting 'orthorhombic'
loop_
_space_group_symop_operation_xyz
x,y,z
-x,-y,1/2+z
1/2-x,y,1/2+z
1/2+x,-y,z
loop_
_atom_site_type_symbol
_atom_site_label
_atom_site_fract_x
_atom_site_fract_y
_atom_site_fract_z
Si Si1 0.220275 0.659782 0.936790
Si Si2 0.192657 0.193336 0.063609
Si Si3 0.436145 0.375172 0.564954
Si Si4 0.946918 0.989707 0.642767
Si Si5 0.959795 0.369789 0.562836
Si Si6 0.707733 0.103913 0.335824
O O1 0.230516 0.592480 0.665730
O O2 0.125193 0.697844 0.002861
O O3 0.273996 0.766776 0.843862
O O4 0.247657 0.172648 0.318966
O O5 0.155022 0.316966 0.039537
O O6 0.109939 0.115753 0.074675
O O7 0.500748 0.337421 0.338306
O O8 0.425047 0.505509 0.546421
O O9 0.472404 0.341972 0.843746
O O10 0.986231 0.036117 0.374059
O O11 0.890344 0.086155 0.770159
O O12 0.764040 0.047538 0.105553
#
# Coordination Sequence:
#
# PCOD8168760 Si02
#       6
#     4   4   4   4   4   4
#     4  10  21  34  58  91 123 157 196 253 313 367
#     4  12  26  45  67  96 133 175 221 270 330 402
#     4  10  23  41  65  91 130 172 213 265 317 386
#     4  12  26  44  67  93 125 169 218 268 326 389
#     4  10  21  41  63  95 130 168 216 265 320 380
#     4  10  21  39  60  88 123 157 196 255 314 366
#
# _framework density 24.182492
#
# number of rings (size 3 to 8) (size 9 to 14) (size 15 to 20)
#    0.000    1.333    0.000    5.000    0.000    9.333 
#    0.000    0.000    0.000    0.000    0.000    0.000 
#    0.000    0.000    0.000    0.000    0.000    0.000 
#
# Total GULP energy -297476.723942 kJ/mol
# GULP energy per Si atom -12394.863498 kJ/mol
# Density = 2.412745 g / cm^3
# Si number density = 24.182492 Si / 1000 Ang^3
#
#
#
# Elastic Constant Matrix: (Units=GPa)
#
#
# Indices 1 2 3 4 5 6 
#
# 1 115.5934 31.9493 48.7613 0.0000 0.0000 0.0000
# 2 31.9493 46.4494 24.1405 0.0000 0.0000 0.0000
# 3 48.7613 24.1405 202.2550 0.0000 0.0000 0.0000
# 4 0.0000 0.0000 0.0000 20.8108 0.0000 0.0000
# 5 0.0000 0.0000 0.0000 0.0000 50.3727 0.0000
# 6 0.0000 0.0000 0.0000 0.0000 0.0000 37.4667
#
#
#
# Elastic Compliance Matrix: (Units=1/GPa)
#
#
# Indices 1 2 3 4 5 6 
#
# 1 0.011342 -0.006802 -0.001923 0.000000 0.000000 0.000000
# 2 -0.006802 0.027032 -0.001587 0.000000 0.000000 0.000000
# 3 -0.001923 -0.001587 0.005597 0.000000 0.000000 0.000000
# 4 0.000000 0.000000 0.000000 0.048052 0.000000 0.000000
# 5 0.000000 0.000000 0.000000 0.000000 0.019852 0.000000
# 6 0.000000 0.000000 0.000000 0.000000 0.000000 0.026690
#
#
# Mechanical properties :
#
#
# Convention : Reuss Voigt Hill
#
# Bulk Modulus (GPa) = 42.82892 63.77775 53.30334
# Shear Modulus (GPa) = 29.94527 39.02649 34.48588
#
# Velocity S-wave (km/s) = 3.52277 4.02161 3.78043
# Velocity P-wave (km/s) = 5.85626 6.92786 6.41448
#
# Compressibility (1/GPa) = 0.02334871
#
# Stress axis : x y z
#
# Youngs Moduli (GPa) = 88.16696 36.99299 178.66327
#
# Poissons Ratio (x) = 0.25164 0.34349
# Poissons Ratio (y) = 0.59973 0.28345
# Poissons Ratio (z) = 0.16951 0.05869
#
# Static dielectric constant tensor:
#      x y z
#    x 4.337140 0.000000 0.000000 
#    y 0.000000 4.158360 0.000000 
#    z 0.000000 0.000000 5.228530 
# 
# 
# High freq. dielectric constant tensor:
#      x y z
#    x 1.961470 0.000000 0.000000 
#    y 0.000000 1.934530 0.000000 
#    z 0.000000 0.000000 1.996150 
# 
# From -- ./inp_files/202.got.cif
#   From: 2010.03.12/outbox.cif.g09.slc.cpg/sg29_1_cif.got.tgz:202.got - 2010.04.14 03:43:10.
