data_PCOD8168917
_publ_section_title
;
Structure prediction by ZEFSAII (Michael W. Deem and Ramdas Pophale) SiO2 
 PCOD8168917
Probable space group: P C A 21
;
_chemical_formula_sum "Si O2"
_cell_formula_units_Z 32
_cell_length_a 9.077334
_cell_length_b 11.740783
_cell_length_c 13.330582
_cell_angle_alpha 90.000000
_cell_angle_beta 90.000000
_cell_angle_gamma 90.000000
_cell_volume 1420.706893
_symmetry_space_group_name_H-M "P C A 21"
_symmetry_group_IT_number 29
_symmetry_cell_setting 'orthorhombic'
loop_
_space_group_symop_operation_xyz
x,y,z
-x,-y,1/2+z
1/2-x,y,1/2+z
1/2+x,-y,z
loop_
_atom_site_type_symbol
_atom_site_label
_atom_site_fract_x
_atom_site_fract_y
_atom_site_fract_z
Si Si1 0.215890 0.629139 0.914120
Si Si2 0.931260 0.605728 0.186279
Si Si3 0.762786 0.380044 0.179970
Si Si4 0.952721 0.594529 0.424945
Si Si5 0.424263 0.843769 0.165149
Si Si6 0.643315 0.122596 0.895499
Si Si7 0.785811 0.764021 0.570418
Si Si8 0.129375 0.018289 0.495264
O O1 0.240195 0.629802 0.797372
O O2 0.099925 0.533839 0.948449
O O3 0.377491 0.606236 0.961480
O O4 0.149770 0.751317 0.943769
O O5 0.860966 0.487569 0.149160
O O6 0.930548 0.620472 0.306749
O O7 0.840761 0.708494 0.138115
O O8 0.096250 0.604848 0.141070
O O9 0.825529 0.264373 0.132608
O O10 0.852820 0.679664 0.488136
O O11 0.404234 0.876732 0.280461
O O12 0.593167 0.809846 0.148096
O O13 0.375624 0.951607 0.100253
O O14 0.801515 0.061967 0.908519
O O15 0.534271 0.047005 0.961395
O O16 0.721458 0.867195 0.506701
#
# Coordination Sequence:
#
# PCOD8168917 Si02
#       8
#     4   4   4   4   4   4   4   4
#     4   9  21  43  72 102 134 184 223 286 357 420
#     4  10  22  41  69 101 141 183 224 284 364 420
#     4   9  20  42  69 101 136 180 228 285 353 426
#     4  10  23  43  68 103 144 174 231 283 349 433
#     4  11  26  49  71 100 145 182 242 300 348 422
#     4  11  27  48  75  98 145 189 231 304 355 411
#     4  12  27  42  66 105 135 187 231 291 344 432
#     4  12  28  48  68 106 134 185 250 283 354 420
#
# _framework density 22.523997999999999
#
# number of rings (size 3 to 8) (size 9 to 14) (size 15 to 20)
#    0.000    1.500    1.250    1.500    7.000    5.000 
#    2.250    0.000    0.000    0.000    0.000    0.000 
#    0.000    0.000    0.000    0.000    0.000    0.000 
#
# Total GULP energy -396875.380319 kJ/mol
# GULP energy per Si atom -12402.355635 kJ/mol
# Density = 2.247273 g / cm^3
# Si number density = 22.523998 Si / 1000 Ang^3
#
#
#
# Elastic Constant Matrix: (Units=GPa)
#
#
# Indices 1 2 3 4 5 6 
#
# 1 95.5634 24.1318 -19.7241 0.0000 0.0000 0.0000
# 2 24.1318 126.1174 10.4486 0.0000 0.0000 0.0000
# 3 -19.7241 10.4486 59.3784 0.0000 0.0000 0.0000
# 4 0.0000 0.0000 0.0000 37.2825 0.0000 0.0000
# 5 0.0000 0.0000 0.0000 0.0000 10.3683 0.0000
# 6 0.0000 0.0000 0.0000 0.0000 0.0000 49.8476
#
#
#
# Elastic Compliance Matrix: (Units=1/GPa)
#
#
# Indices 1 2 3 4 5 6 
#
# 1 0.012066 -0.002680 0.004479 0.000000 0.000000 0.000000
# 2 -0.002680 0.008642 -0.002411 0.000000 0.000000 0.000000
# 3 0.004479 -0.002411 0.018753 0.000000 0.000000 0.000000
# 4 0.000000 0.000000 0.000000 0.026822 0.000000 0.000000
# 5 0.000000 0.000000 0.000000 0.000000 0.096448 0.000000
# 6 0.000000 0.000000 0.000000 0.000000 0.000000 0.020061
#
#
# Mechanical properties :
#
#
# Convention : Reuss Voigt Hill
#
# Bulk Modulus (GPa) = 26.15187 34.53019 30.34103
# Shear Modulus (GPa) = 25.41164 37.24653 31.32909
#
# Velocity S-wave (km/s) = 3.36252 4.07091 3.73355
# Velocity P-wave (km/s) = 5.16829 6.12046 5.66442
#
# Compressibility (1/GPa) = 0.03823819
#
# Stress axis : x y z
#
# Youngs Moduli (GPa) = 82.88091 115.71918 53.32384
#
# Poissons Ratio (x) = 0.31010 -0.23886
# Poissons Ratio (y) = 0.22210 0.12855
# Poissons Ratio (z) = -0.37126 0.27897
#
# Static dielectric constant tensor:
#      x y z
#    x 4.321650 0.000000 0.000000 
#    y 0.000000 4.420730 0.000000 
#    z 0.000000 0.000000 3.982490 
# 
# 
# High freq. dielectric constant tensor:
#      x y z
#    x 1.897800 0.000000 0.000000 
#    y 0.000000 1.898990 0.000000 
#    z 0.000000 0.000000 1.900670 
# 
# From -- ./inp_files/4270.got.cif
#   From: 2010.03.12/outbox.cif.g09.slc.cpg/sg29_3_cif.got.tgz:4270.got - 2010.04.14 03:43:10.
