data_PCOD8168246
_publ_section_title
;
Structure prediction by ZEFSAII (Michael W. Deem and Ramdas Pophale) SiO2 
 PCOD8168246
Probable space group: P M A 2
;
_chemical_formula_sum "Si O2"
_cell_formula_units_Z 16
_cell_length_a 17.532095
_cell_length_b 6.986356
_cell_length_c 6.591575
_cell_angle_alpha 90.000000
_cell_angle_beta 90.000000
_cell_angle_gamma 90.000000
_cell_volume 807.372077
_symmetry_space_group_name_H-M "P M A 2"
_symmetry_group_IT_number 28
_symmetry_cell_setting 'orthorhombic'
loop_
_space_group_symop_operation_xyz
x,y,z
-x,-y,z
1/2-x,y,z
1/2+x,-y,z
loop_
_atom_site_type_symbol
_atom_site_label
_atom_site_fract_x
_atom_site_fract_y
_atom_site_fract_z
Si Si1 0.076000 0.797395 0.763870
Si Si2 0.432882 0.195666 0.987249
Si Si3 0.162374 0.551156 0.031388
Si Si4 0.536813 0.298895 0.331424
O O1 0.146353 0.656690 0.815976
O O2 0.066913 0.823782 0.522965
O O3 0.996883 0.704093 0.845375
O O4 0.090414 0.996401 0.883763
O O5 0.358591 0.327772 0.006518
O O6 0.473382 0.174785 0.208922
O O7 0.250000 0.567263 0.094085
O O8 0.111325 0.658962 0.196998
O O9 0.500000 0.500000 0.401705
#
# Coordination Sequence:
#
# PCOD8168246 Si02
#       4
#     4   4   4   4
#     4  10  19  34  59  83 105 141 189 234 275 325
#     4   9  20  35  56  82 107 142 184 233 280 324
#     4  10  21  36  52  78 116 149 180 223 278 337
#     4   9  18  36  59  82 111 146 186 231 282 333
#
# _framework density 19.81738
#
# number of rings (size 3 to 8) (size 9 to 14) (size 15 to 20)
#    0.000    2.500    0.000    3.750    0.000   10.000 
#    0.000    0.000    0.000    0.000    0.000    0.000 
#    0.000    0.000    0.000    0.000    0.000    0.000 
#
# Total GULP energy -198240.965708 kJ/mol
# GULP energy per Si atom -12390.060357 kJ/mol
# Density = 1.977228 g / cm^3
# Si number density = 19.817380 Si / 1000 Ang^3
#
#
#
# Elastic Constant Matrix: (Units=GPa)
#
#
# Indices 1 2 3 4 5 6 
#
# 1 114.0494 37.0546 26.0698 0.0000 0.0000 0.0000
# 2 37.0546 96.8457 54.2200 0.0000 0.0000 0.0000
# 3 26.0698 54.2200 134.7755 0.0000 0.0000 0.0000
# 4 0.0000 0.0000 0.0000 29.2179 0.0000 0.0000
# 5 0.0000 0.0000 0.0000 0.0000 13.5340 0.0000
# 6 0.0000 0.0000 0.0000 0.0000 0.0000 20.3026
#
#
#
# Elastic Compliance Matrix: (Units=1/GPa)
#
#
# Indices 1 2 3 4 5 6 
#
# 1 0.010040 -0.003555 -0.000512 0.000000 0.000000 0.000000
# 2 -0.003555 0.014586 -0.005180 0.000000 0.000000 0.000000
# 3 -0.000512 -0.005180 0.009603 0.000000 0.000000 0.000000
# 4 0.000000 0.000000 0.000000 0.034226 0.000000 0.000000
# 5 0.000000 0.000000 0.000000 0.000000 0.073888 0.000000
# 6 0.000000 0.000000 0.000000 0.000000 0.000000 0.049255
#
#
# Mechanical properties :
#
#
# Convention : Reuss Voigt Hill
#
# Bulk Modulus (GPa) = 63.55377 64.48438 64.01908
# Shear Modulus (GPa) = 23.21947 27.83266 25.52606
#
# Velocity S-wave (km/s) = 3.42668 3.75167 3.59286
# Velocity P-wave (km/s) = 6.91343 7.16775 7.04174
#
# Compressibility (1/GPa) = 0.01573471
#
# Stress axis : x y z
#
# Youngs Moduli (GPa) = 99.60027 68.55827 104.13608
#
# Poissons Ratio (x) = 0.24372 0.05331
# Poissons Ratio (y) = 0.35407 0.53946
# Poissons Ratio (z) = 0.05099 0.35516
#
# Static dielectric constant tensor:
#      x y z
#    x 3.259410 0.000000 0.000000 
#    y 0.000000 3.513920 0.000000 
#    z 0.000000 0.000000 3.648390 
# 
# 
# High freq. dielectric constant tensor:
#      x y z
#    x 1.732690 0.000000 0.000000 
#    y 0.000000 1.778810 0.000000 
#    z 0.000000 0.000000 1.771680 
# 
# From -- ./inp_files/963.got.cif
#   From: 2010.03.12/outbox.cif.g09.slc.cpg/sg28_1_cif.got.tgz:963.got - 2010.04.14 03:39:34.
