data_PCOD8168472
_publ_section_title
;
Structure prediction by ZEFSAII (Michael W. Deem and Ramdas Pophale) SiO2 
 PCOD8168472
Probable space group: P M A 2
;
_chemical_formula_sum "Si O2"
_cell_formula_units_Z 32
_cell_length_a 8.781513
_cell_length_b 15.377408
_cell_length_c 11.862145
_cell_angle_alpha 90.000000
_cell_angle_beta 90.000000
_cell_angle_gamma 90.000000
_cell_volume 1601.827386
_symmetry_space_group_name_H-M "P M A 2"
_symmetry_group_IT_number 28
_symmetry_cell_setting 'orthorhombic'
loop_
_space_group_symop_operation_xyz
x,y,z
-x,-y,z
1/2-x,y,z
1/2+x,-y,z
loop_
_atom_site_type_symbol
_atom_site_label
_atom_site_fract_x
_atom_site_fract_y
_atom_site_fract_z
Si Si1 0.930140 0.649912 0.430970
Si Si2 0.074058 0.256612 0.783763
Si Si3 0.571032 0.412948 0.654202
Si Si4 0.570078 0.162234 0.426083
Si Si5 0.571790 0.755548 0.045118
Si Si6 0.070812 0.087039 0.642412
Si Si7 0.070529 0.409682 0.185643
Si Si8 0.928826 0.091978 0.183317
O O1 0.750000 0.645429 0.445776
O O2 0.985064 0.611206 0.311999
O O3 0.008466 0.593928 0.527597
O O4 0.980649 0.748789 0.442377
O O5 0.250000 0.280928 0.764251
O O6 0.033414 0.165145 0.727039
O O7 0.971816 0.330416 0.728688
O O8 0.032652 0.250937 0.914251
O O9 0.500000 0.500000 0.709310
O O10 0.750000 0.422290 0.650164
O O11 0.750000 0.179299 0.432632
O O12 0.515857 0.098442 0.524160
O O13 0.520122 0.119906 0.308253
O O14 0.750000 0.769236 0.067845
O O15 0.512929 0.667459 0.104620
O O16 0.483635 0.837395 0.093990
O O17 0.250000 0.077245 0.621363
O O18 0.000000 0.000000 0.697775
O O19 0.250000 0.418366 0.179504
O O20 0.000000 0.500000 0.143216
O O21 0.750000 0.082991 0.174711
O O22 0.000000 0.000000 0.150910
#
# Coordination Sequence:
#
# PCOD8168472 Si02
#       8
#     4   4   4   4   4   4   4   4
#     4  11  21  37  62  92 125 161 200 247 309 369
#     4  10  23  43  65  89 121 162 209 258 308 361
#     4  12  25  41  64  92 126 164 205 253 305 366
#     4  11  22  37  61  93 125 160 200 249 309 370
#     4  10  22  43  65  88 121 162 207 256 308 360
#     4  11  23  39  62  90 123 161 201 252 307 367
#     4  10  22  38  61  90 122 160 198 246 302 361
#     4  11  24  40  62  92 125 162 204 252 305 365
#
# _framework density 19.977183
#
# number of rings (size 3 to 8) (size 9 to 14) (size 15 to 20)
#    0.000    1.250    2.500    3.375    0.000    7.000 
#    0.000    2.500    0.000    0.000    0.000    0.000 
#    0.000    0.000    0.000    0.000    0.000    0.000 
#
# Total GULP energy -397005.726236 kJ/mol
# GULP energy per Si atom -12406.428945 kJ/mol
# Density = 1.993171 g / cm^3
# Si number density = 19.977183 Si / 1000 Ang^3
#
#
#
# Elastic Constant Matrix: (Units=GPa)
#
#
# Indices 1 2 3 4 5 6 
#
# 1 85.7286 46.8111 43.5968 0.0000 0.0000 0.0000
# 2 46.8111 149.7119 49.5876 0.0000 0.0000 0.0000
# 3 43.5968 49.5876 115.8955 0.0000 0.0000 0.0000
# 4 0.0000 0.0000 0.0000 2.0668 0.0000 0.0000
# 5 0.0000 0.0000 0.0000 0.0000 18.4193 0.0000
# 6 0.0000 0.0000 0.0000 0.0000 0.0000 40.4198
#
#
#
# Elastic Compliance Matrix: (Units=1/GPa)
#
#
# Indices 1 2 3 4 5 6 
#
# 1 0.015833 -0.003470 -0.004472 0.000000 0.000000 0.000000
# 2 -0.003470 0.008543 -0.002350 0.000000 0.000000 0.000000
# 3 -0.004472 -0.002350 0.011316 0.000000 0.000000 0.000000
# 4 0.000000 0.000000 0.000000 0.483834 0.000000 0.000000
# 5 0.000000 0.000000 0.000000 0.000000 0.054291 0.000000
# 6 0.000000 0.000000 0.000000 0.000000 0.000000 0.024740
#
#
# Mechanical properties :
#
#
# Convention : Reuss Voigt Hill
#
# Bulk Modulus (GPa) = 66.18226 70.14743 68.16485
# Shear Modulus (GPa) = 8.01056 26.27055 17.14056
#
# Velocity S-wave (km/s) = 2.00463 3.63027 2.93235
# Velocity P-wave (km/s) = 6.20958 7.26373 6.75724
#
# Compressibility (1/GPa) = 0.01510979
#
# Stress axis : x y z
#
# Youngs Moduli (GPa) = 63.15839 117.05904 88.37048
#
# Poissons Ratio (x) = 0.40615 0.39515
# Poissons Ratio (y) = 0.21913 0.20767
# Poissons Ratio (z) = 0.28241 0.27508
#
# Static dielectric constant tensor:
#      x y z
#    x 3.575940 0.000000 0.000000 
#    y 0.000000 3.756360 0.000000 
#    z 0.000000 0.000000 3.709030 
# 
# 
# High freq. dielectric constant tensor:
#      x y z
#    x 1.781680 0.000000 0.000000 
#    y 0.000000 1.797440 0.000000 
#    z 0.000000 0.000000 1.776840 
# 
# From -- ./inp_files/5010.got.cif
#   From: 2010.03.12/outbox.cif.g09.slc.cpg/sg28_3_cif.got.tgz:5010.got - 2010.04.14 03:39:34.
