data_PCOD8168098
_publ_section_title
;
Structure prediction by ZEFSAII (Michael W. Deem and Ramdas Pophale) SiO2 
 PCOD8168098
Probable space group: P M A 2
;
_chemical_formula_sum "Si O2"
_cell_formula_units_Z 32
_cell_length_a 9.005573
_cell_length_b 17.532843
_cell_length_c 11.523730
_cell_angle_alpha 90.000000
_cell_angle_beta 90.000000
_cell_angle_gamma 90.000000
_cell_volume 1819.519730
_symmetry_space_group_name_H-M "P M A 2"
_symmetry_group_IT_number 28
_symmetry_cell_setting 'orthorhombic'
loop_
_space_group_symop_operation_xyz
x,y,z
-x,-y,z
1/2-x,y,z
1/2+x,-y,z
loop_
_atom_site_type_symbol
_atom_site_label
_atom_site_fract_x
_atom_site_fract_y
_atom_site_fract_z
Si Si1 0.086569 0.196564 0.695760
Si Si2 0.075132 0.280267 0.474105
Si Si3 0.572871 0.422588 0.585340
Si Si4 0.924372 0.924648 0.107743
Si Si5 0.416139 0.362371 0.804765
Si Si6 0.583668 0.303831 0.009924
Si Si7 0.584714 0.138584 0.896451
Si Si8 0.576608 0.765946 0.215805
O O1 0.250000 0.158897 0.694022
O O2 0.030978 0.212923 0.564511
O O3 0.094659 0.276409 0.761664
O O4 0.977049 0.139743 0.764405
O O5 0.250000 0.299551 0.487172
O O6 0.032685 0.250268 0.347693
O O7 0.980787 0.355487 0.500488
O O8 0.500000 0.500000 0.536654
O O9 0.750000 0.427440 0.583875
O O10 0.516637 0.410744 0.716837
O O11 0.750000 0.936671 0.105562
O O12 0.971376 0.852516 0.186325
O O13 0.000000 0.000000 0.161892
O O14 0.980814 0.913792 0.976063
O O15 0.250000 0.397650 0.811960
O O16 0.491547 0.364007 0.932044
O O17 0.750000 0.335327 0.027244
O O18 0.507942 0.294796 0.135392
O O19 0.586657 0.223389 0.945709
O O20 0.750000 0.103792 0.894533
O O21 0.750000 0.755010 0.191908
#
# Coordination Sequence:
#
# PCOD8168098 Si02
#       8
#     4   4   4   4   4   4   4   4
#     4   8  14  25  43  66  91 118 149 189 234 278
#     4   9  18  33  51  72  98 131 172 211 247 293
#     4  11  21  33  50  73 100 129 162 203 252 302
#     4  10  19  31  48  70  96 126 160 201 250 301
#     4   9  16  28  46  68  94 123 154 189 234 286
#     4   9  16  26  43  69  97 122 152 193 238 282
#     4   9  16  26  42  65  92 119 149 187 232 284
#     4   9  18  32  50  71  97 132 172 209 248 296
#
# _framework density 17.587057999999999
#
# number of rings (size 3 to 8) (size 9 to 14) (size 15 to 20)
#    0.000    2.750    0.000    3.375    0.000    7.000 
#    0.000    0.000    0.000    1.500    0.000    3.500 
#    0.000    0.000    0.000    0.000    0.000    0.000 
#
# Total GULP energy -396709.341151 kJ/mol
# GULP energy per Si atom -12397.166911 kJ/mol
# Density = 1.754703 g / cm^3
# Si number density = 17.587058 Si / 1000 Ang^3
#
#
#
# Elastic Constant Matrix: (Units=GPa)
#
#
# Indices 1 2 3 4 5 6 
#
# 1 114.2237 38.1676 56.3205 0.0000 0.0000 0.0000
# 2 38.1676 55.1402 36.7801 0.0000 0.0000 0.0000
# 3 56.3205 36.7801 137.6971 0.0000 0.0000 0.0000
# 4 0.0000 0.0000 0.0000 12.5594 0.0000 0.0000
# 5 0.0000 0.0000 0.0000 0.0000 24.7846 0.0000
# 6 0.0000 0.0000 0.0000 0.0000 0.0000 22.7884
#
#
#
# Elastic Compliance Matrix: (Units=1/GPa)
#
#
# Indices 1 2 3 4 5 6 
#
# 1 0.012596 -0.006428 -0.003435 0.000000 0.000000 0.000000
# 2 -0.006428 0.025347 -0.004141 0.000000 0.000000 0.000000
# 3 -0.003435 -0.004141 0.009774 0.000000 0.000000 0.000000
# 4 0.000000 0.000000 0.000000 0.079622 0.000000 0.000000
# 5 0.000000 0.000000 0.000000 0.000000 0.040348 0.000000
# 6 0.000000 0.000000 0.000000 0.000000 0.000000 0.043882
#
#
# Mechanical properties :
#
#
# Convention : Reuss Voigt Hill
#
# Bulk Modulus (GPa) = 50.73959 63.28859 57.01409
# Shear Modulus (GPa) = 20.31310 23.74601 22.02955
#
# Velocity S-wave (km/s) = 3.40222 3.67849 3.54305
# Velocity P-wave (km/s) = 6.65933 7.35566 7.01614
#
# Compressibility (1/GPa) = 0.01970848
#
# Stress axis : x y z
#
# Youngs Moduli (GPa) = 79.38795 39.45209 102.31650
#
# Poissons Ratio (x) = 0.25359 0.35148
# Poissons Ratio (y) = 0.51028 0.42373
# Poissons Ratio (z) = 0.27272 0.16339
#
# Static dielectric constant tensor:
#      x y z
#    x 3.429660 0.000000 0.000000 
#    y 0.000000 2.979940 0.000000 
#    z 0.000000 0.000000 3.290470 
# 
# 
# High freq. dielectric constant tensor:
#      x y z
#    x 1.690390 0.000000 0.000000 
#    y 0.000000 1.639000 0.000000 
#    z 0.000000 0.000000 1.666990 
# 
# From -- ./inp_files/5181.got.cif
#   From: 2010.03.12/outbox.cif.g09.slc.cpg/sg28_3_cif.got.tgz:5181.got - 2010.04.14 03:39:34.
