data_PCOD8168084
_publ_section_title
;
Structure prediction by ZEFSAII (Michael W. Deem and Ramdas Pophale) SiO2 
 PCOD8168084
Probable space group: P M A 2
;
_chemical_formula_sum "Si O2"
_cell_formula_units_Z 32
_cell_length_a 8.955699
_cell_length_b 14.304088
_cell_length_c 15.591265
_cell_angle_alpha 90.000000
_cell_angle_beta 90.000000
_cell_angle_gamma 90.000000
_cell_volume 1997.289482
_symmetry_space_group_name_H-M "P M A 2"
_symmetry_group_IT_number 28
_symmetry_cell_setting 'orthorhombic'
loop_
_space_group_symop_operation_xyz
x,y,z
-x,-y,z
1/2-x,y,z
1/2+x,-y,z
loop_
_atom_site_type_symbol
_atom_site_label
_atom_site_fract_x
_atom_site_fract_y
_atom_site_fract_z
Si Si1 0.075545 0.593949 0.336760
Si Si2 0.572223 0.779993 0.582905
Si Si3 0.422499 0.097546 0.928190
Si Si4 0.424793 0.100078 0.743445
Si Si5 0.425683 0.101167 0.114412
Si Si6 0.926458 0.404785 0.535350
Si Si7 0.923949 0.210666 0.262689
Si Si8 0.574456 0.100317 0.434761
O O1 0.250000 0.580513 0.325971
O O2 0.033284 0.609969 0.435691
O O3 0.019756 0.684725 0.284824
O O4 0.000000 0.500000 0.299994
O O5 0.750000 0.776009 0.572774
O O6 0.519572 0.830261 0.670067
O O7 0.503957 0.676951 0.589056
O O8 0.501454 0.832303 0.502685
O O9 0.250000 0.075158 0.930093
O O10 0.463155 0.147820 0.837320
O O11 0.500000 0.000000 0.924746
O O12 0.465148 0.145108 0.019517
O O13 0.250000 0.082583 0.733946
O O14 0.500000 0.000000 0.730714
O O15 0.250000 0.087922 0.127927
O O16 0.484977 0.176461 0.181094
O O17 0.500000 0.000000 0.128470
O O18 0.750000 0.405600 0.551429
O O19 0.000000 0.500000 0.569250
O O20 0.750000 0.211336 0.240037
O O21 0.956325 0.141322 0.341060
O O22 0.750000 0.093470 0.454477
O O23 0.500000 0.000000 0.441595
#
# Coordination Sequence:
#
# PCOD8168084 Si02
#       8
#     4   4   4   4   4   4   4   4
#     4   9  18  33  50  69  90 118 152 192 235 275
#     4  11  21  32  48  71  95 126 162 195 236 281
#     4   8  15  29  46  65  91 120 153 194 235 277
#     4   9  18  31  47  68  95 126 159 194 234 278
#     4  10  19  30  47  70  94 124 159 194 235 278
#     4  10  19  34  52  71  94 122 157 198 241 282
#     4  10  20  34  48  66  94 125 157 192 233 277
#     4  11  22  35  46  62  93 131 165 195 230 274
#
# _framework density 16.021712000000001
#
# number of rings (size 3 to 8) (size 9 to 14) (size 15 to 20)
#    0.000    2.250    1.250    2.250    0.000    5.500 
#    0.000    0.000    0.000    0.000    0.000    0.875 
#    0.000    2.000    0.000    0.000    0.000    0.000 
#
# Total GULP energy -396592.380477 kJ/mol
# GULP energy per Si atom -12393.511890 kJ/mol
# Density = 1.598525 g / cm^3
# Si number density = 16.021712 Si / 1000 Ang^3
#
#
#
# Elastic Constant Matrix: (Units=GPa)
#
#
# Indices 1 2 3 4 5 6 
#
# 1 57.3281 38.7407 42.4912 0.0000 0.0000 0.0000
# 2 38.7407 109.9005 48.7545 0.0000 0.0000 0.0000
# 3 42.4912 48.7545 104.0963 0.0000 0.0000 0.0000
# 4 0.0000 0.0000 0.0000 8.9764 0.0000 0.0000
# 5 0.0000 0.0000 0.0000 0.0000 16.6396 0.0000
# 6 0.0000 0.0000 0.0000 0.0000 0.0000 29.1869
#
#
#
# Elastic Compliance Matrix: (Units=1/GPa)
#
#
# Indices 1 2 3 4 5 6 
#
# 1 0.027850 -0.006026 -0.008546 0.000000 0.000000 0.000000
# 2 -0.006026 0.012790 -0.003530 0.000000 0.000000 0.000000
# 3 -0.008546 -0.003530 0.014748 0.000000 0.000000 0.000000
# 4 0.000000 0.000000 0.000000 0.111403 0.000000 0.000000
# 5 0.000000 0.000000 0.000000 0.000000 0.060097 0.000000
# 6 0.000000 0.000000 0.000000 0.000000 0.000000 0.034262
#
#
# Mechanical properties :
#
#
# Convention : Reuss Voigt Hill
#
# Bulk Modulus (GPa) = 52.12865 59.03308 55.58087
# Shear Modulus (GPa) = 16.46098 20.38315 18.42207
#
# Velocity S-wave (km/s) = 3.20881 3.57069 3.39458
# Velocity P-wave (km/s) = 6.80702 7.34339 7.08029
#
# Compressibility (1/GPa) = 0.01918331
#
# Stress axis : x y z
#
# Youngs Moduli (GPa) = 35.90699 78.18898 67.80504
#
# Poissons Ratio (x) = 0.47118 0.57943
# Poissons Ratio (y) = 0.21638 0.23937
# Poissons Ratio (z) = 0.30685 0.27603
#
# Static dielectric constant tensor:
#      x y z
#    x 3.106430 0.000000 0.000000 
#    y 0.000000 3.000550 0.000000 
#    z 0.000000 0.000000 3.481330 
# 
# 
# High freq. dielectric constant tensor:
#      x y z
#    x 1.626300 0.000000 0.000000 
#    y 0.000000 1.596060 0.000000 
#    z 0.000000 0.000000 1.611300 
# 
# From -- ./inp_files/6387.got.cif
#   From: 2010.03.12/outbox.cif.g09.slc.cpg/sg28_4_cif.got.tgz:6387.got - 2010.04.14 03:39:34.
