data_PCOD8168316
_publ_section_title
;
Structure prediction by ZEFSAII (Michael W. Deem and Ramdas Pophale) SiO2 
 PCOD8168316
Probable space group: P M A 2
;
_chemical_formula_sum "Si O2"
_cell_formula_units_Z 32
_cell_length_a 8.949164
_cell_length_b 14.284056
_cell_length_c 12.714904
_cell_angle_alpha 90.000000
_cell_angle_beta 90.000000
_cell_angle_gamma 90.000000
_cell_volume 1625.350752
_symmetry_space_group_name_H-M "P M A 2"
_symmetry_group_IT_number 28
_symmetry_cell_setting 'orthorhombic'
loop_
_space_group_symop_operation_xyz
x,y,z
-x,-y,z
1/2-x,y,z
1/2+x,-y,z
loop_
_atom_site_type_symbol
_atom_site_label
_atom_site_fract_x
_atom_site_fract_y
_atom_site_fract_z
Si Si1 0.426257 0.706522 0.287130
Si Si2 0.924884 0.100882 0.818927
Si Si3 0.577299 0.095978 0.591559
Si Si4 0.423571 0.403055 0.708730
Si Si5 0.926516 0.599434 0.469986
Si Si6 0.575789 0.097559 0.361882
Si Si7 0.073253 0.398943 0.094443
Si Si8 0.074520 0.274164 0.895929
O O1 0.250000 0.685581 0.280870
O O2 0.490184 0.674477 0.398844
O O3 0.459352 0.818480 0.280289
O O4 0.512377 0.652693 0.196758
O O5 0.750000 0.088081 0.839787
O O6 0.955548 0.148756 0.702269
O O7 0.992057 0.174149 0.902809
O O8 0.000000 0.000000 0.835313
O O9 0.750000 0.076429 0.579898
O O10 0.520273 0.134672 0.478392
O O11 0.500000 0.000000 0.614180
O O12 0.500000 0.500000 0.736521
O O13 0.250000 0.421118 0.724333
O O14 0.459562 0.370013 0.590065
O O15 0.481243 0.326173 0.790594
O O16 0.750000 0.595045 0.445875
O O17 0.000000 0.500000 0.444994
O O18 0.750000 0.076095 0.363594
O O19 0.500000 0.000000 0.327574
O O20 0.250000 0.411497 0.104938
O O21 0.000000 0.500000 0.082330
O O22 0.027256 0.336620 0.995072
O O23 0.250000 0.255269 0.894401
#
# Coordination Sequence:
#
# PCOD8168316 Si02
#       8
#     4   4   4   4   4   4   4   4
#     4  11  23  38  59  85 116 152 194 241 288 345
#     4  10  20  34  56  84 118 157 196 240 285 340
#     4   8  15  29  48  75 109 147 187 225 272 325
#     4   9  19  35  55  82 115 148 184 230 288 351
#     4  10  20  35  55  82 115 150 186 230 287 350
#     4   9  19  35  55  81 115 152 191 235 282 336
#     4  11  24  43  66  88 114 148 192 245 295 348
#     4  10  22  39  59  85 116 150 192 240 292 347
#
# _framework density 19.688058999999999
#
# number of rings (size 3 to 8) (size 9 to 14) (size 15 to 20)
#    0.000    2.250    0.000    2.250    1.750    3.500 
#    0.000    0.625    0.000    1.500    0.000    0.000 
#    0.000    0.000    0.000    0.000    0.000    0.000 
#
# Total GULP energy -396529.771622 kJ/mol
# GULP energy per Si atom -12391.555363 kJ/mol
# Density = 1.964325 g / cm^3
# Si number density = 19.688059 Si / 1000 Ang^3
#
#
#
# Elastic Constant Matrix: (Units=GPa)
#
#
# Indices 1 2 3 4 5 6 
#
# 1 59.3950 48.5444 39.4096 0.0000 0.0000 0.0000
# 2 48.5444 127.4861 63.2707 0.0000 0.0000 0.0000
# 3 39.4096 63.2707 82.1720 0.0000 0.0000 0.0000
# 4 0.0000 0.0000 0.0000 29.7249 0.0000 0.0000
# 5 0.0000 0.0000 0.0000 0.0000 24.2534 0.0000
# 6 0.0000 0.0000 0.0000 0.0000 0.0000 33.5181
#
#
#
# Elastic Compliance Matrix: (Units=1/GPa)
#
#
# Indices 1 2 3 4 5 6 
#
# 1 0.027556 -0.006367 -0.008314 0.000000 0.000000 0.000000
# 2 -0.006367 0.014166 -0.007854 0.000000 0.000000 0.000000
# 3 -0.008314 -0.007854 0.022204 0.000000 0.000000 0.000000
# 4 0.000000 0.000000 0.000000 0.033642 0.000000 0.000000
# 5 0.000000 0.000000 0.000000 0.000000 0.041231 0.000000
# 6 0.000000 0.000000 0.000000 0.000000 0.000000 0.029835
#
#
# Mechanical properties :
#
#
# Convention : Reuss Voigt Hill
#
# Bulk Modulus (GPa) = 53.02901 63.50028 58.26464
# Shear Modulus (GPa) = 22.72824 25.35452 24.04138
#
# Velocity S-wave (km/s) = 3.40136 3.59250 3.49824
# Velocity P-wave (km/s) = 6.51297 7.03785 6.78049
#
# Compressibility (1/GPa) = 0.01885760
#
# Stress axis : x y z
#
# Youngs Moduli (GPa) = 36.28908 70.58924 45.03612
#
# Poissons Ratio (x) = 0.44944 0.37441
# Poissons Ratio (y) = 0.23105 0.35373
# Poissons Ratio (z) = 0.30169 0.55443
#
# Static dielectric constant tensor:
#      x y z
#    x 3.550340 0.000000 0.000000 
#    y 0.000000 3.484750 0.000000 
#    z 0.000000 0.000000 3.727540 
# 
# 
# High freq. dielectric constant tensor:
#      x y z
#    x 1.769750 0.000000 0.000000 
#    y 0.000000 1.765450 0.000000 
#    z 0.000000 0.000000 1.760780 
# 
# From -- ./inp_files/5044.got.cif
#   From: 2010.03.12/outbox.cif.g09.slc.cpg/sg28_3_cif.got.tgz:5044.got - 2010.04.14 03:39:34.
