data_PCOD8168594
_publ_section_title
;
Structure prediction by ZEFSAII (Michael W. Deem and Ramdas Pophale) SiO2 
 PCOD8168594
Probable space group: P C A 21
;
_chemical_formula_sum "Si O2"
_cell_formula_units_Z 32
_cell_length_a 9.223684
_cell_length_b 10.852846
_cell_length_c 17.536068
_cell_angle_alpha 90.000000
_cell_angle_beta 90.000000
_cell_angle_gamma 90.000000
_cell_volume 1755.416908
_symmetry_space_group_name_H-M "P C A 21"
_symmetry_group_IT_number 29
_symmetry_cell_setting 'orthorhombic'
loop_
_space_group_symop_operation_xyz
x,y,z
-x,-y,1/2+z
1/2-x,y,1/2+z
1/2+x,-y,z
loop_
_atom_site_type_symbol
_atom_site_label
_atom_site_fract_x
_atom_site_fract_y
_atom_site_fract_z
Si Si1 0.486502 0.834043 0.075720
Si Si2 0.189110 0.204805 0.560702
Si Si3 0.193306 0.641105 0.505022
Si Si4 0.717478 0.062980 0.288622
Si Si5 0.444406 0.052504 0.189909
Si Si6 0.991779 0.590626 0.984651
Si Si7 0.073115 0.020886 0.445860
Si Si8 0.135067 0.776082 0.891850
O O1 0.645668 0.776368 0.085442
O O2 0.375057 0.717947 0.075447
O O3 0.451952 0.921204 0.147035
O O4 0.476545 0.904787 0.995428
O O5 0.095401 0.160483 0.632537
O O6 0.120736 0.334065 0.536020
O O7 0.185604 0.103579 0.493795
O O8 0.077737 0.542493 0.472364
O O9 0.350187 0.580950 0.526771
O O10 0.218943 0.739940 0.437428
O O11 0.597554 0.091838 0.225423
O O12 0.813262 0.187475 0.306401
O O13 0.824621 0.958392 0.256207
O O14 0.646952 0.015142 0.366484
O O15 0.019530 0.662301 0.902654
O O16 0.929266 0.100920 0.430365
#
# Coordination Sequence:
#
# PCOD8168594 Si02
#       8
#     4   4   4   4   4   4   4   4
#     4  11  21  34  57  89 120 158 193 247 296 359
#     4  10  21  36  54  88 119 153 195 251 284 359
#     4  10  20  36  60  88 112 150 200 256 291 339
#     4  12  20  38  53  88 123 160 188 237 294 375
#     4  11  25  33  57  87 128 159 193 232 307 368
#     4   9  20  37  60  86 113 149 203 252 291 337
#     4  10  19  33  57  86 120 150 197 234 304 352
#     4   9  20  33  56  88 115 151 189 245 297 345
#
# _framework density 18.229289000000001
#
# number of rings (size 3 to 8) (size 9 to 14) (size 15 to 20)
#    0.750    1.000    3.750    1.500    3.500    0.000 
#    0.000    0.000    0.000    1.500    0.000    0.000 
#    0.000    0.000    0.000    0.000    0.000    0.000 
#
# Total GULP energy -396452.134050 kJ/mol
# GULP energy per Si atom -12389.129189 kJ/mol
# Density = 1.818780 g / cm^3
# Si number density = 18.229289 Si / 1000 Ang^3
#
#
#
# Elastic Constant Matrix: (Units=GPa)
#
#
# Indices 1 2 3 4 5 6 
#
# 1 96.6012 33.2891 18.1072 0.0000 0.0000 0.0000
# 2 33.2891 65.8368 25.3746 0.0000 0.0000 0.0000
# 3 18.1072 25.3746 72.0105 0.0000 0.0000 0.0000
# 4 0.0000 0.0000 0.0000 15.9731 0.0000 0.0000
# 5 0.0000 0.0000 0.0000 0.0000 29.2117 0.0000
# 6 0.0000 0.0000 0.0000 0.0000 0.0000 38.9749
#
#
#
# Elastic Compliance Matrix: (Units=1/GPa)
#
#
# Indices 1 2 3 4 5 6 
#
# 1 0.012607 -0.005962 -0.001069 0.000000 0.000000 0.000000
# 2 -0.005962 0.020396 -0.005688 0.000000 0.000000 0.000000
# 3 -0.001069 -0.005688 0.016160 0.000000 0.000000 0.000000
# 4 0.000000 0.000000 0.000000 0.062605 0.000000 0.000000
# 5 0.000000 0.000000 0.000000 0.000000 0.034233 0.000000
# 6 0.000000 0.000000 0.000000 0.000000 0.000000 0.025658
#
#
# Mechanical properties :
#
#
# Convention : Reuss Voigt Hill
#
# Bulk Modulus (GPa) = 42.15071 43.11003 42.63037
# Shear Modulus (GPa) = 24.38966 27.34380 25.86673
#
# Velocity S-wave (km/s) = 3.66175 3.87718 3.77100
# Velocity P-wave (km/s) = 6.40708 6.61388 6.51130
#
# Compressibility (1/GPa) = 0.02372439
#
# Stress axis : x y z
#
# Youngs Moduli (GPa) = 79.32177 49.02926 61.88161
#
# Poissons Ratio (x) = 0.29233 0.06615
# Poissons Ratio (y) = 0.47295 0.35197
# Poissons Ratio (z) = 0.08480 0.27887
#
# Static dielectric constant tensor:
#      x y z
#    x 3.536710 0.000000 0.000000 
#    y 0.000000 3.180020 0.000000 
#    z 0.000000 0.000000 3.206980 
# 
# 
# High freq. dielectric constant tensor:
#      x y z
#    x 1.727520 0.000000 0.000000 
#    y 0.000000 1.684800 0.000000 
#    z 0.000000 0.000000 1.677010 
# 
# From -- ./inp_files/5026.got.cif
#   From: 2010.03.12/outbox.cif.g09.slc.cpg/sg29_3_cif.got.tgz:5026.got - 2010.04.14 03:43:10.
