data_PCOD8168340
_publ_section_title
;
Structure prediction by ZEFSAII (Michael W. Deem and Ramdas Pophale) SiO2 
 PCOD8168340
Probable space group: P M A 2
;
_chemical_formula_sum "Si O2"
_cell_formula_units_Z 24
_cell_length_a 8.811236
_cell_length_b 9.510111
_cell_length_c 15.080487
_cell_angle_alpha 90.000000
_cell_angle_beta 90.000000
_cell_angle_gamma 90.000000
_cell_volume 1263.681961
_symmetry_space_group_name_H-M "P M A 2"
_symmetry_group_IT_number 28
_symmetry_cell_setting 'orthorhombic'
loop_
_space_group_symop_operation_xyz
x,y,z
-x,-y,z
1/2-x,y,z
1/2+x,-y,z
loop_
_atom_site_type_symbol
_atom_site_label
_atom_site_fract_x
_atom_site_fract_y
_atom_site_fract_z
Si Si1 0.071273 0.651638 0.713030
Si Si2 0.929078 0.147405 0.067230
Si Si3 0.069991 0.850526 0.553545
Si Si4 0.928020 0.144951 0.864643
Si Si5 0.571816 0.852442 0.369027
Si Si6 0.572039 0.651332 0.206785
O O1 0.250000 0.634707 0.715702
O O2 0.019571 0.738544 0.626998
O O3 0.012333 0.730193 0.801656
O O4 0.000000 0.500000 0.708395
O O5 0.750000 0.138992 0.081323
O O6 0.997264 0.274798 0.122472
O O7 0.974547 0.178463 0.965573
O O8 0.000000 0.000000 0.099352
O O9 0.250000 0.865529 0.546742
O O10 0.003692 0.798379 0.459803
O O11 0.000000 0.000000 0.580240
O O12 0.750000 0.126492 0.854518
O O13 0.000000 0.000000 0.831596
O O14 0.750000 0.873871 0.383739
O O15 0.534858 0.738609 0.294698
O O16 0.500000 0.000000 0.338688
O O17 0.500000 0.500000 0.219833
O O18 0.750000 0.637593 0.189592
#
# Coordination Sequence:
#
# PCOD8168340 Si02
#       6
#     4   4   4   4   4   4
#     4  10  22  37  53  78 111 145 180 218 265 319
#     4  10  20  36  59  84 111 143 182 227 271 321
#     4  10  20  35  57  82 107 138 178 223 267 315
#     4   9  19  36  57  82 109 140 180 223 267 316
#     4  10  21  37  58  82 107 139 179 222 269 320
#     4  11  24  39  56  80 111 147 183 223 274 327
#
# _framework density 18.992118999999999
#
# number of rings (size 3 to 8) (size 9 to 14) (size 15 to 20)
#    0.000    2.000    0.000    4.000    0.000    8.000 
#    0.000    5.000    0.000    0.000    0.000    0.000 
#    0.000    0.000    0.000    0.000    0.000    0.000 
#
# Total GULP energy -297685.357485 kJ/mol
# GULP energy per Si atom -12403.556562 kJ/mol
# Density = 1.894889 g / cm^3
# Si number density = 18.992119 Si / 1000 Ang^3
#
#
#
# Elastic Constant Matrix: (Units=GPa)
#
#
# Indices 1 2 3 4 5 6 
#
# 1 79.5382 59.0009 57.7169 0.0000 0.0000 0.0000
# 2 59.0009 161.0039 98.1891 0.0000 0.0000 0.0000
# 3 57.7169 98.1891 129.6868 0.0000 0.0000 0.0000
# 4 0.0000 0.0000 0.0000 19.0500 0.0000 0.0000
# 5 0.0000 0.0000 0.0000 0.0000 28.5899 0.0000
# 6 0.0000 0.0000 0.0000 0.0000 0.0000 37.8320
#
#
#
# Elastic Compliance Matrix: (Units=1/GPa)
#
#
# Indices 1 2 3 4 5 6 
#
# 1 0.019551 -0.003452 -0.006087 0.000000 0.000000 0.000000
# 2 -0.003452 0.012149 -0.007662 0.000000 0.000000 0.000000
# 3 -0.006087 -0.007662 0.016221 0.000000 0.000000 0.000000
# 4 0.000000 0.000000 0.000000 0.052494 0.000000 0.000000
# 5 0.000000 0.000000 0.000000 0.000000 0.034977 0.000000
# 6 0.000000 0.000000 0.000000 0.000000 0.000000 0.026433
#
#
# Mechanical properties :
#
#
# Convention : Reuss Voigt Hill
#
# Bulk Modulus (GPa) = 73.97572 88.89364 81.43468
# Shear Modulus (GPa) = 24.90890 27.44916 26.17903
#
# Velocity S-wave (km/s) = 3.62545 3.80582 3.71673
# Velocity P-wave (km/s) = 7.52067 8.13754 7.83518
#
# Compressibility (1/GPa) = 0.01351795
#
# Stress axis : x y z
#
# Youngs Moduli (GPa) = 51.14949 82.31432 61.64903
#
# Poissons Ratio (x) = 0.28415 0.37528
# Poissons Ratio (y) = 0.17657 0.47233
# Poissons Ratio (z) = 0.31136 0.63066
#
# Static dielectric constant tensor:
#      x y z
#    x 3.517570 0.000000 0.000000 
#    y 0.000000 3.524950 0.000000 
#    z 0.000000 0.000000 3.742350 
# 
# 
# High freq. dielectric constant tensor:
#      x y z
#    x 1.746260 0.000000 0.000000 
#    y 0.000000 1.735740 0.000000 
#    z 0.000000 0.000000 1.752490 
# 
# From -- ./inp_files/6041.got.cif
#   From: 2010.03.12/outbox.cif.g09.slc.cpg/sg28_4_cif.got.tgz:6041.got - 2010.04.14 03:39:34.
