data_PCOD8168160
_publ_section_title
;
Structure prediction by ZEFSAII (Michael W. Deem and Ramdas Pophale) SiO2 
 PCOD8168160
Probable space group: P M A 2
;
_chemical_formula_sum "Si O2"
_cell_formula_units_Z 32
_cell_length_a 8.984471
_cell_length_b 14.671223
_cell_length_c 12.236381
_cell_angle_alpha 90.000000
_cell_angle_beta 90.000000
_cell_angle_gamma 90.000000
_cell_volume 1612.916262
_symmetry_space_group_name_H-M "P M A 2"
_symmetry_group_IT_number 28
_symmetry_cell_setting 'orthorhombic'
loop_
_space_group_symop_operation_xyz
x,y,z
-x,-y,z
1/2-x,y,z
1/2+x,-y,z
loop_
_atom_site_type_symbol
_atom_site_label
_atom_site_fract_x
_atom_site_fract_y
_atom_site_fract_z
Si Si1 0.071221 0.899602 0.779010
Si Si2 0.918573 0.826413 0.206635
Si Si3 0.923966 0.778874 0.963312
Si Si4 0.578971 0.085969 0.388617
Si Si5 0.921178 0.408490 0.022355
Si Si6 0.076823 0.589836 0.501756
Si Si7 0.575869 0.218923 0.576700
Si Si8 0.082193 0.649900 0.262556
O O1 0.250000 0.909077 0.781387
O O2 0.010256 0.842369 0.674458
O O3 0.015032 0.842171 0.881590
O O4 0.000000 0.000000 0.777584
O O5 0.750000 0.846320 0.239534
O O6 0.020328 0.901625 0.265137
O O7 0.961201 0.728080 0.252529
O O8 0.942879 0.831101 0.077586
O O9 0.750000 0.770067 0.930926
O O10 0.995056 0.678324 0.970428
O O11 0.750000 0.063169 0.385046
O O12 0.540321 0.174191 0.459990
O O13 0.500000 0.000000 0.444861
O O14 0.750000 0.406129 0.982853
O O15 0.000000 0.500000 0.977958
O O16 0.929143 0.411838 0.154299
O O17 0.250000 0.581846 0.525322
O O18 0.011408 0.678169 0.566868
O O19 0.045032 0.593724 0.371666
O O20 0.000000 0.500000 0.550242
O O21 0.750000 0.224869 0.596716
O O22 0.250000 0.691812 0.271950
#
# Coordination Sequence:
#
# PCOD8168160 Si02
#       8
#     4   4   4   4   4   4   4   4
#     4  11  23  42  67  90 111 146 194 247 302 357
#     4  10  20  34  54  82 116 152 191 235 285 341
#     4  10  22  40  60  85 118 153 196 248 295 347
#     4  11  21  36  57  83 116 152 188 231 288 351
#     4  10  19  32  54  86 121 161 202 241 290 346
#     4  10  19  34  54  82 117 155 193 231 281 337
#     4   9  20  39  61  83 116 153 189 238 292 345
#     4   9  17  31  52  77 115 160 196 233 283 338
#
# _framework density 19.839839999999999
#
# number of rings (size 3 to 8) (size 9 to 14) (size 15 to 20)
#    0.000    2.000    1.250    2.625    0.000    3.000 
#    0.000    3.750    0.000    1.500    0.000    0.000 
#    0.000    0.000    0.000    0.000    0.000    0.000 
#
# Total GULP energy -396682.745780 kJ/mol
# GULP energy per Si atom -12396.335806 kJ/mol
# Density = 1.979468 g / cm^3
# Si number density = 19.839840 Si / 1000 Ang^3
#
#
#
# Elastic Constant Matrix: (Units=GPa)
#
#
# Indices 1 2 3 4 5 6 
#
# 1 97.5142 60.8652 47.9575 0.0000 0.0000 0.0000
# 2 60.8652 151.6926 53.9558 0.0000 0.0000 0.0000
# 3 47.9575 53.9558 80.6099 0.0000 0.0000 0.0000
# 4 0.0000 0.0000 0.0000 87.8967 0.0000 0.0000
# 5 0.0000 0.0000 0.0000 0.0000 19.5778 0.0000
# 6 0.0000 0.0000 0.0000 0.0000 0.0000 38.2992
#
#
#
# Elastic Compliance Matrix: (Units=1/GPa)
#
#
# Indices 1 2 3 4 5 6 
#
# 1 0.016175 -0.004026 -0.006929 0.000000 0.000000 0.000000
# 2 -0.004026 0.009654 -0.004067 0.000000 0.000000 0.000000
# 3 -0.006929 -0.004067 0.019250 0.000000 0.000000 0.000000
# 4 0.000000 0.000000 0.000000 0.011377 0.000000 0.000000
# 5 0.000000 0.000000 0.000000 0.000000 0.051078 0.000000
# 6 0.000000 0.000000 0.000000 0.000000 0.000000 0.026110
#
#
# Mechanical properties :
#
#
# Convention : Reuss Voigt Hill
#
# Bulk Modulus (GPa) = 66.50465 72.81932 69.66199
# Shear Modulus (GPa) = 29.63867 40.29063 34.96465
#
# Velocity S-wave (km/s) = 3.86929 4.51132 4.20258
# Velocity P-wave (km/s) = 7.31816 7.99495 7.66403
#
# Compressibility (1/GPa) = 0.01503654
#
# Stress axis : x y z
#
# Youngs Moduli (GPa) = 61.82361 103.58278 51.94915
#
# Poissons Ratio (x) = 0.41699 0.35993
# Poissons Ratio (y) = 0.24888 0.21127
# Poissons Ratio (z) = 0.42835 0.42126
#
# Static dielectric constant tensor:
#      x y z
#    x 3.578270 0.000000 0.000000 
#    y 0.000000 3.605420 0.000000 
#    z 0.000000 0.000000 3.575740 
# 
# 
# High freq. dielectric constant tensor:
#      x y z
#    x 1.769010 0.000000 0.000000 
#    y 0.000000 1.779900 0.000000 
#    z 0.000000 0.000000 1.756950 
# 
# From -- ./inp_files/5003.got.cif
#   From: 2010.03.12/outbox.cif.g09.slc.cpg/sg28_3_cif.got.tgz:5003.got - 2010.04.14 03:39:34.
