data_PCOD8168762
_publ_section_title
;
Structure prediction by ZEFSAII (Michael W. Deem and Ramdas Pophale) SiO2 
 PCOD8168762
Probable space group: P C A 21
;
_chemical_formula_sum "Si O2"
_cell_formula_units_Z 32
_cell_length_a 35.182891
_cell_length_b 9.002769
_cell_length_c 5.024186
_cell_angle_alpha 90.000000
_cell_angle_beta 90.000000
_cell_angle_gamma 90.000000
_cell_volume 1591.377959
_symmetry_space_group_name_H-M "P C A 21"
_symmetry_group_IT_number 29
_symmetry_cell_setting 'orthorhombic'
loop_
_space_group_symop_operation_xyz
x,y,z
-x,-y,1/2+z
1/2-x,y,1/2+z
1/2+x,-y,z
loop_
_atom_site_type_symbol
_atom_site_label
_atom_site_fract_x
_atom_site_fract_y
_atom_site_fract_z
Si Si1 0.455727 0.098948 0.940850
Si Si2 0.898434 0.325909 0.207508
Si Si3 0.455727 0.901052 0.427900
Si Si4 0.273475 0.174262 0.683000
Si Si5 0.726525 0.174262 0.185747
Si Si6 0.852163 0.325401 0.698403
Si Si7 0.898434 0.674091 0.161240
Si Si8 0.352163 0.325402 0.670344
O O1 0.500000 0.139323 0.934374
O O2 0.443518 0.999999 0.684376
O O3 0.434672 0.252441 0.013249
O O4 0.443890 0.000001 0.184376
O O5 0.934672 0.252441 0.355498
O O6 0.864154 0.279399 0.402209
O O7 0.907712 0.500000 0.184374
O O8 0.884627 0.274374 0.913465
O O9 0.241574 0.223780 0.470675
O O10 0.312459 0.251396 0.599910
O O11 0.281144 0.000000 0.684374
O O12 0.758426 0.223780 0.398071
O O13 0.687541 0.251396 0.268837
O O14 0.846505 0.500000 0.684374
O O15 0.884627 0.725626 0.455283
O O16 0.864154 0.720601 0.966539
#
# Coordination Sequence:
#
# PCOD8168762 Si02
#       8
#     4   4   4   4   4   4   4   4
#     4  10  21  38  59  85 116 149 189 235 282 338
#     4  10  21  38  57  83 115 147 187 232 279 334
#     4  10  21  38  59  85 116 149 189 235 282 338
#     4  10  21  36  53  77 108 141 181 227 274 328
#     4  10  21  36  53  77 108 141 181 227 274 328
#     4  10  21  36  56  81 110 144 185 230 275 331
#     4  10  21  38  57  83 115 147 187 232 279 334
#     4  10  21  36  56  81 110 144 185 230 275 331
#
# _framework density 20.108357999999999
#
# number of rings (size 3 to 8) (size 9 to 14) (size 15 to 20)
#    0.000    2.000    0.000    3.000    0.000    4.000 
#    0.000    7.500    0.000    0.000    0.000    0.000 
#    0.000    0.000    0.000    0.000    0.000    0.000 
#
# Total GULP energy -396425.917004 kJ/mol
# GULP energy per Si atom -12388.309906 kJ/mol
# Density = 2.006259 g / cm^3
# Si number density = 20.108358 Si / 1000 Ang^3
#
#
#
# Elastic Constant Matrix: (Units=GPa)
#
#
# Indices 1 2 3 4 5 6 
#
# 1 95.5772 53.5592 37.8932 0.0000 0.0000 0.0000
# 2 53.5592 56.2202 46.9809 0.0000 0.0000 0.0000
# 3 37.8932 46.9809 142.7626 0.0000 0.0000 0.0000
# 4 0.0000 0.0000 0.0000 22.9534 0.0000 0.0000
# 5 0.0000 0.0000 0.0000 0.0000 28.3743 0.0000
# 6 0.0000 0.0000 0.0000 0.0000 0.0000 26.4340
#
#
#
# Elastic Compliance Matrix: (Units=1/GPa)
#
#
# Indices 1 2 3 4 5 6 
#
# 1 0.022677 -0.022860 0.001504 0.000000 0.000000 0.000000
# 2 -0.022860 0.047579 -0.009590 0.000000 0.000000 0.000000
# 3 0.001504 -0.009590 0.009761 0.000000 0.000000 0.000000
# 4 0.000000 0.000000 0.000000 0.043567 0.000000 0.000000
# 5 0.000000 0.000000 0.000000 0.000000 0.035243 0.000000
# 6 0.000000 0.000000 0.000000 0.000000 0.000000 0.037830
#
#
# Mechanical properties :
#
#
# Convention : Reuss Voigt Hill
#
# Bulk Modulus (GPa) = 55.17229 63.49185 59.33207
# Shear Modulus (GPa) = 18.89709 25.96079 22.42894
#
# Velocity S-wave (km/s) = 3.06888 3.59701 3.34339
# Velocity P-wave (km/s) = 6.32886 6.99247 6.66893
#
# Compressibility (1/GPa) = 0.01812504
#
# Stress axis : x y z
#
# Youngs Moduli (GPa) = 44.09791 21.01758 102.44514
#
# Poissons Ratio (x) = 0.48047 -0.15406
# Poissons Ratio (y) = 1.00809 0.98243
# Poissons Ratio (z) = -0.06632 0.20155
#
# Static dielectric constant tensor:
#      x y z
#    x 3.482330 0.000000 0.000000 
#    y 0.000000 3.443360 0.000000 
#    z 0.000000 0.000000 4.140150 
# 
# 
# High freq. dielectric constant tensor:
#      x y z
#    x 1.777640 0.000000 0.000000 
#    y 0.000000 1.772330 0.000000 
#    z 0.000000 0.000000 1.810070 
# 
# From -- ./inp_files/913.got.cif
#   From: 2010.03.12/outbox.cif.g09.slc.cpg/sg29_1_cif.got.tgz:913.got - 2010.04.14 03:43:10.
