data_PCOD8168041
_publ_section_title
;
Structure prediction by ZEFSAII (Michael W. Deem and Ramdas Pophale) SiO2 
 PCOD8168041
Probable space group: P M A 2
;
_chemical_formula_sum "Si O2"
_cell_formula_units_Z 28
_cell_length_a 8.564350
_cell_length_b 9.312624
_cell_length_c 18.179137
_cell_angle_alpha 90.000000
_cell_angle_beta 90.000000
_cell_angle_gamma 90.000000
_cell_volume 1449.905637
_symmetry_space_group_name_H-M "P M A 2"
_symmetry_group_IT_number 28
_symmetry_cell_setting 'orthorhombic'
loop_
_space_group_symop_operation_xyz
x,y,z
-x,-y,z
1/2-x,y,z
1/2+x,-y,z
loop_
_atom_site_type_symbol
_atom_site_label
_atom_site_fract_x
_atom_site_fract_y
_atom_site_fract_z
Si Si1 0.565511 0.655758 0.468860
Si Si2 0.565616 0.341156 0.038484
Si Si3 0.935084 0.158739 0.898535
Si Si4 0.435245 0.160062 0.748663
Si Si5 0.065057 0.840333 0.599712
Si Si6 0.065427 0.841416 0.175729
Si Si7 0.934909 0.344119 0.313245
O O1 0.500000 0.500000 0.487686
O O2 0.750000 0.649085 0.466421
O O3 0.509433 0.762635 0.530929
O O4 0.502957 0.711341 0.390520
O O5 0.500000 0.500000 0.039498
O O6 0.750000 0.350414 0.042708
O O7 0.499518 0.252853 0.108185
O O8 0.510927 0.260001 0.965022
O O9 0.750000 0.149314 0.890397
O O10 0.007816 0.232281 0.824821
O O11 0.000000 0.000000 0.913617
O O12 0.250000 0.162619 0.741896
O O13 0.509948 0.235434 0.676257
O O14 0.500000 0.000000 0.753138
O O15 0.250000 0.838452 0.593608
O O16 0.000000 0.000000 0.599575
O O17 0.250000 0.849804 0.171772
O O18 0.010061 0.767913 0.251472
O O19 0.000000 0.000000 0.170683
O O20 0.750000 0.355004 0.319347
O O21 0.000000 0.500000 0.292343
#
# Coordination Sequence:
#
# PCOD8168041 Si02
#       7
#     4   4   4   4   4   4   4
#     4  11  22  38  58  82 112 148 187 227 276 330
#     4  10  22  38  56  80 110 144 182 223 269 323
#     4  10  19  33  54  80 108 140 181 226 273 324
#     4  10  18  31  52  79 109 143 182 224 275 328
#     4  11  21  36  57  83 113 146 186 231 278 328
#     4  10  22  38  57  83 112 142 180 225 271 322
#     4  10  20  36  57  81 109 143 184 226 272 327
#
# _framework density 19.311603000000002
#
# number of rings (size 3 to 8) (size 9 to 14) (size 15 to 20)
#    0.000    1.714    0.000    8.143    0.000    3.429 
#    0.000    2.143    0.000    1.714    0.000    0.000 
#    0.000    0.000    0.000    0.000    0.000    0.000 
#
# Total GULP energy -347205.097540 kJ/mol
# GULP energy per Si atom -12400.182055 kJ/mol
# Density = 1.926765 g / cm^3
# Si number density = 19.311603 Si / 1000 Ang^3
#
#
#
# Elastic Constant Matrix: (Units=GPa)
#
#
# Indices 1 2 3 4 5 6 
#
# 1 68.0640 13.8741 30.3958 0.0000 0.0000 0.0000
# 2 13.8741 98.8572 78.1125 0.0000 0.0000 0.0000
# 3 30.3958 78.1125 172.4825 0.0000 0.0000 0.0000
# 4 0.0000 0.0000 0.0000 20.8441 0.0000 0.0000
# 5 0.0000 0.0000 0.0000 0.0000 13.8243 0.0000
# 6 0.0000 0.0000 0.0000 0.0000 0.0000 30.8882
#
#
#
# Elastic Compliance Matrix: (Units=1/GPa)
#
#
# Indices 1 2 3 4 5 6 
#
# 1 0.015947 -0.000027 -0.002798 0.000000 0.000000 0.000000
# 2 -0.000027 0.015752 -0.007129 0.000000 0.000000 0.000000
# 3 -0.002798 -0.007129 0.009519 0.000000 0.000000 0.000000
# 4 0.000000 0.000000 0.000000 0.047975 0.000000 0.000000
# 5 0.000000 0.000000 0.000000 0.000000 0.072336 0.000000
# 6 0.000000 0.000000 0.000000 0.000000 0.000000 0.032375
#
#
# Mechanical properties :
#
#
# Convention : Reuss Voigt Hill
#
# Bulk Modulus (GPa) = 46.92560 64.90763 55.91661
# Shear Modulus (GPa) = 22.63292 27.57941 25.10616
#
# Velocity S-wave (km/s) = 3.42714 3.78316 3.60954
# Velocity P-wave (km/s) = 6.32553 7.26407 6.81098
#
# Compressibility (1/GPa) = 0.02131033
#
# Stress axis : x y z
#
# Youngs Moduli (GPa) = 62.70734 63.48200 105.04967
#
# Poissons Ratio (x) = 0.00173 0.29392
# Poissons Ratio (y) = 0.00171 0.74890
# Poissons Ratio (z) = 0.17545 0.45257
#
# Static dielectric constant tensor:
#      x y z
#    x 3.600450 0.000000 0.000000 
#    y 0.000000 3.344120 0.000000 
#    z 0.000000 0.000000 4.300390 
# 
# 
# High freq. dielectric constant tensor:
#      x y z
#    x 1.763130 0.000000 0.000000 
#    y 0.000000 1.726860 0.000000 
#    z 0.000000 0.000000 1.779020 
# 
# From -- ./inp_files/6849.got.cif
#   From: 2010.03.12/outbox.cif.g09.slc.cpg/sg28_4_cif.got.tgz:6849.got - 2010.04.14 03:39:34.
