data_PCOD8168898
_publ_section_title
;
Structure prediction by ZEFSAII (Michael W. Deem and Ramdas Pophale) SiO2 
 PCOD8168898
Probable space group: P C A 21
;
_chemical_formula_sum "Si O2"
_cell_formula_units_Z 28
_cell_length_a 19.214797
_cell_length_b 5.508201
_cell_length_c 10.978993
_cell_angle_alpha 90.000000
_cell_angle_beta 90.000000
_cell_angle_gamma 90.000000
_cell_volume 1162.005245
_symmetry_space_group_name_H-M "P C A 21"
_symmetry_group_IT_number 29
_symmetry_cell_setting 'orthorhombic'
loop_
_space_group_symop_operation_xyz
x,y,z
-x,-y,1/2+z
1/2-x,y,1/2+z
1/2+x,-y,z
loop_
_atom_site_type_symbol
_atom_site_label
_atom_site_fract_x
_atom_site_fract_y
_atom_site_fract_z
Si Si1 0.084101 0.194762 0.635940
Si Si2 0.714232 0.537873 0.648445
Si Si3 0.537300 0.448884 0.244068
Si Si4 0.936922 0.946348 0.880663
Si Si5 0.157712 0.715731 0.078272
Si Si6 0.294389 0.079029 0.775649
Si Si7 0.848604 0.157087 0.313378
O O1 0.161189 0.273036 0.585799
O O2 0.045864 0.054109 0.525033
O O3 0.034502 0.420821 0.670074
O O4 0.095906 0.030616 0.756387
O O5 0.766261 0.408485 0.553569
O O6 0.767875 0.652714 0.745085
O O7 0.658171 0.376583 0.720002
O O8 0.530845 0.706385 0.314156
O O9 0.603774 0.453523 0.153481
O O10 0.540466 0.207030 0.328676
O O11 0.853841 0.915253 0.875648
O O12 0.173729 0.960137 0.152644
O O13 0.123102 0.770690 0.947088
O O14 0.229315 0.939721 0.832403
#
# Coordination Sequence:
#
# PCOD8168898 Si02
#       7
#     4   4   4   4   4   4   4
#     4  11  28  43  71 106 141 193 242 306 363 436
#     4  10  22  40  65 105 138 179 246 286 372 415
#     4  11  27  48  72 104 141 200 240 291 375 428
#     4  11  26  48  75  98 149 186 245 291 364 444
#     4  10  22  42  69  98 144 186 240 303 358 438
#     4   9  21  41  62 100 132 189 229 292 367 420
#     4  10  24  40  66 105 139 181 242 305 357 429
#
# _framework density 24.096278999999999
#
# number of rings (size 3 to 8) (size 9 to 14) (size 15 to 20)
#    0.000    1.714    1.429    0.000   14.000    1.143 
#    2.571    0.000    0.000    0.000    0.000    0.000 
#    0.000    0.000    0.000    0.000    0.000    0.000 
#
# Total GULP energy -346945.085854 kJ/mol
# GULP energy per Si atom -12390.895923 kJ/mol
# Density = 2.404143 g / cm^3
# Si number density = 24.096279 Si / 1000 Ang^3
#
#
#
# Elastic Constant Matrix: (Units=GPa)
#
#
# Indices 1 2 3 4 5 6 
#
# 1 77.8016 6.9934 9.4350 0.0000 0.0000 0.0000
# 2 6.9934 81.6841 10.2870 0.0000 0.0000 0.0000
# 3 9.4350 10.2870 108.5284 0.0000 0.0000 0.0000
# 4 0.0000 0.0000 0.0000 17.2951 0.0000 0.0000
# 5 0.0000 0.0000 0.0000 0.0000 17.9344 0.0000
# 6 0.0000 0.0000 0.0000 0.0000 0.0000 33.0072
#
#
#
# Elastic Compliance Matrix: (Units=1/GPa)
#
#
# Indices 1 2 3 4 5 6 
#
# 1 0.013068 -0.000988 -0.001043 0.000000 0.000000 0.000000
# 2 -0.000988 0.012465 -0.001096 0.000000 0.000000 0.000000
# 3 -0.001043 -0.001096 0.009409 0.000000 0.000000 0.000000
# 4 0.000000 0.000000 0.000000 0.057820 0.000000 0.000000
# 5 0.000000 0.000000 0.000000 0.000000 0.055759 0.000000
# 6 0.000000 0.000000 0.000000 0.000000 0.000000 0.030296
#
#
# Mechanical properties :
#
#
# Convention : Reuss Voigt Hill
#
# Bulk Modulus (GPa) = 34.85477 35.71609 35.28543
# Shear Modulus (GPa) = 25.68952 29.73392 27.71172
#
# Velocity S-wave (km/s) = 3.26869 3.51659 3.39491
# Velocity P-wave (km/s) = 5.36116 5.59848 5.48110
#
# Compressibility (1/GPa) = 0.02869048
#
# Stress axis : x y z
#
# Youngs Moduli (GPa) = 76.52050 80.22578 106.28506
#
# Poissons Ratio (x) = 0.07923 0.11080
# Poissons Ratio (y) = 0.07557 0.11645
# Poissons Ratio (z) = 0.07977 0.08790
#
# Static dielectric constant tensor:
#      x y z
#    x 4.402200 0.000000 0.000000 
#    y 0.000000 4.361080 0.000000 
#    z 0.000000 0.000000 3.924590 
# 
# 
# High freq. dielectric constant tensor:
#      x y z
#    x 1.973550 0.000000 0.000000 
#    y 0.000000 1.950290 0.000000 
#    z 0.000000 0.000000 1.934920 
# 
# From -- ./inp_files/3736.got.cif
#   From: 2010.03.12/outbox.cif.g09.slc.cpg/sg29_2_cif.got.tgz:3736.got - 2010.04.14 03:43:10.
