data_PCOD8168301
_publ_section_title
;
Structure prediction by ZEFSAII (Michael W. Deem and Ramdas Pophale) SiO2 
 PCOD8168301
Probable space group: P M A 2
;
_chemical_formula_sum "Si O2"
_cell_formula_units_Z 24
_cell_length_a 8.772877
_cell_length_b 9.433737
_cell_length_c 15.279268
_cell_angle_alpha 90.000000
_cell_angle_beta 90.000000
_cell_angle_gamma 90.000000
_cell_volume 1264.527718
_symmetry_space_group_name_H-M "P M A 2"
_symmetry_group_IT_number 28
_symmetry_cell_setting 'orthorhombic'
loop_
_space_group_symop_operation_xyz
x,y,z
-x,-y,z
1/2-x,y,z
1/2+x,-y,z
loop_
_atom_site_type_symbol
_atom_site_label
_atom_site_fract_x
_atom_site_fract_y
_atom_site_fract_z
Si Si1 0.930960 0.652217 0.251970
Si Si2 0.429771 0.146946 0.098675
Si Si3 0.930231 0.655124 0.746477
Si Si4 0.070904 0.148203 0.902688
Si Si5 0.571225 0.155040 0.595822
Si Si6 0.571547 0.348306 0.430968
O O1 0.750000 0.646657 0.258207
O O2 0.989037 0.740481 0.168848
O O3 0.000000 0.500000 0.236338
O O4 0.996993 0.714729 0.342538
O O5 0.250000 0.133676 0.101125
O O6 0.500000 0.000000 0.128679
O O7 0.485502 0.188003 0.000686
O O8 0.750000 0.642809 0.736489
O O9 0.978916 0.724357 0.839084
O O10 0.000000 0.500000 0.739247
O O11 0.993435 0.755250 0.671442
O O12 0.250000 0.125792 0.899808
O O13 0.000000 0.000000 0.870549
O O14 0.750000 0.142986 0.614916
O O15 0.537030 0.234075 0.505230
O O16 0.500000 0.000000 0.591510
O O17 0.500000 0.500000 0.456871
O O18 0.750000 0.372234 0.416220
#
# Coordination Sequence:
#
# PCOD8168301 Si02
#       6
#     4   4   4   4   4   4
#     4  10  20  34  54  79 108 142 179 221 267 317
#     4   9  19  35  54  78 108 142 180 221 267 318
#     4  11  23  38  58  83 112 145 182 225 271 323
#     4   9  19  36  56  79 108 142 180 222 268 319
#     4  11  24  40  59  83 111 144 181 223 272 325
#     4  10  21  37  57  80 107 141 180 222 269 320
#
# _framework density 18.979417000000002
#
# number of rings (size 3 to 8) (size 9 to 14) (size 15 to 20)
#    0.000    2.000    0.000    4.000    0.000    9.333 
#    0.000    3.333    0.000    0.000    0.000    0.000 
#    0.000    0.000    0.000    0.000    0.000    0.000 
#
# Total GULP energy -297616.623463 kJ/mol
# GULP energy per Si atom -12400.692644 kJ/mol
# Density = 1.893622 g / cm^3
# Si number density = 18.979417 Si / 1000 Ang^3
#
#
#
# Elastic Constant Matrix: (Units=GPa)
#
#
# Indices 1 2 3 4 5 6 
#
# 1 79.7675 56.1267 62.3588 0.0000 0.0000 0.0000
# 2 56.1267 137.9980 97.7095 0.0000 0.0000 0.0000
# 3 62.3588 97.7095 148.8809 0.0000 0.0000 0.0000
# 4 0.0000 0.0000 0.0000 45.9446 0.0000 0.0000
# 5 0.0000 0.0000 0.0000 0.0000 12.7421 0.0000
# 6 0.0000 0.0000 0.0000 0.0000 0.0000 34.9269
#
#
#
# Elastic Compliance Matrix: (Units=1/GPa)
#
#
# Indices 1 2 3 4 5 6 
#
# 1 0.019794 -0.004073 -0.005618 0.000000 0.000000 0.000000
# 2 -0.004073 0.014375 -0.007728 0.000000 0.000000 0.000000
# 3 -0.005618 -0.007728 0.014142 0.000000 0.000000 0.000000
# 4 0.000000 0.000000 0.000000 0.021765 0.000000 0.000000
# 5 0.000000 0.000000 0.000000 0.000000 0.078480 0.000000
# 6 0.000000 0.000000 0.000000 0.000000 0.000000 0.028631
#
#
# Mechanical properties :
#
#
# Convention : Reuss Voigt Hill
#
# Bulk Modulus (GPa) = 74.22302 88.78182 81.50242
# Shear Modulus (GPa) = 23.09298 28.75281 25.92290
#
# Velocity S-wave (km/s) = 3.49196 3.89645 3.69974
# Velocity P-wave (km/s) = 7.44650 8.19284 7.82857
#
# Compressibility (1/GPa) = 0.01347291
#
# Stress axis : x y z
#
# Youngs Moduli (GPa) = 50.52052 69.56473 70.71295
#
# Poissons Ratio (x) = 0.28335 0.39723
# Poissons Ratio (y) = 0.20578 0.54649
# Poissons Ratio (z) = 0.28380 0.53761
#
# Static dielectric constant tensor:
#      x y z
#    x 3.558310 0.000000 0.000000 
#    y 0.000000 3.204150 0.000000 
#    z 0.000000 0.000000 3.993940 
# 
# 
# High freq. dielectric constant tensor:
#      x y z
#    x 1.745930 0.000000 0.000000 
#    y 0.000000 1.736380 0.000000 
#    z 0.000000 0.000000 1.754690 
# 
# From -- ./inp_files/6026.got.cif
#   From: 2010.03.12/outbox.cif.g09.slc.cpg/sg28_4_cif.got.tgz:6026.got - 2010.04.14 03:39:34.
