data_PCOD8168702
_publ_section_title
;
Structure prediction by ZEFSAII (Michael W. Deem and Ramdas Pophale) SiO2 
 PCOD8168702
Probable space group: P C A 21
;
_chemical_formula_sum "Si O2"
_cell_formula_units_Z 32
_cell_length_a 10.014905
_cell_length_b 17.760979
_cell_length_c 9.432924
_cell_angle_alpha 90.000000
_cell_angle_beta 90.000000
_cell_angle_gamma 90.000000
_cell_volume 1677.876804
_symmetry_space_group_name_H-M "P C A 21"
_symmetry_group_IT_number 29
_symmetry_cell_setting 'orthorhombic'
loop_
_space_group_symop_operation_xyz
x,y,z
-x,-y,1/2+z
1/2-x,y,1/2+z
1/2+x,-y,z
loop_
_atom_site_type_symbol
_atom_site_label
_atom_site_fract_x
_atom_site_fract_y
_atom_site_fract_z
Si Si1 0.877062 0.960100 0.368740
Si Si2 0.120674 0.559424 0.177104
Si Si3 0.399555 0.668379 0.440092
Si Si4 0.376403 0.215614 0.368683
Si Si5 0.610043 0.957659 0.535294
Si Si6 0.598376 0.329967 0.422450
Si Si7 0.881189 0.781628 0.044258
Si Si8 0.422159 0.572619 0.181330
O O1 0.905428 0.872123 0.386900
O O2 0.738397 0.981783 0.443804
O O3 0.875869 0.982584 0.201176
O O4 0.987408 0.003175 0.458403
O O5 0.091926 0.633951 0.267899
O O6 0.275317 0.534860 0.191959
O O7 0.031367 0.489172 0.222491
O O8 0.083612 0.588150 0.020354
O O9 0.247835 0.697422 0.460291
O O10 0.492548 0.735272 0.491052
O O11 0.433495 0.646674 0.279306
O O12 0.504677 0.257546 0.431555
O O13 0.247417 0.242443 0.454813
O O14 0.350135 0.237642 0.206540
O O15 0.585076 0.868916 0.524506
O O16 0.549032 0.396495 0.525216
#
# Coordination Sequence:
#
# PCOD8168702 Si02
#       8
#     4   4   4   4   4   4   4   4
#     4  10  21  39  61  89 121 157 197 242 293 349
#     4  10  20  38  56  78 113 146 189 240 289 344
#     4  10  21  38  57  82 115 151 191 238 289 341
#     4  10  22  39  60  86 118 152 192 239 285 340
#     4  10  21  39  61  89 121 157 197 242 293 349
#     4  10  21  38  57  82 115 151 191 238 289 341
#     4  10  22  39  60  86 118 152 192 239 285 340
#     4  10  22  34  56  84 109 148 189 236 291 346
#
# _framework density 19.071721
#
# number of rings (size 3 to 8) (size 9 to 14) (size 15 to 20)
#    0.000    2.000    1.250    1.500    1.750    4.000 
#    0.000    0.000    0.000    0.000    0.000    0.000 
#    0.000    0.000    0.000    0.000    0.000    0.000 
#
# Total GULP energy -396821.809398 kJ/mol
# GULP energy per Si atom -12400.681544 kJ/mol
# Density = 1.902831 g / cm^3
# Si number density = 19.071721 Si / 1000 Ang^3
#
#
#
# Elastic Constant Matrix: (Units=GPa)
#
#
# Indices 1 2 3 4 5 6 
#
# 1 139.8878 69.3010 68.9136 0.0000 0.0000 0.0000
# 2 69.3010 61.6764 36.8305 0.0000 0.0000 0.0000
# 3 68.9136 36.8305 101.0242 0.0000 0.0000 0.0000
# 4 0.0000 0.0000 0.0000 23.4699 0.0000 0.0000
# 5 0.0000 0.0000 0.0000 0.0000 34.4920 0.0000
# 6 0.0000 0.0000 0.0000 0.0000 0.0000 44.0281
#
#
#
# Elastic Compliance Matrix: (Units=1/GPa)
#
#
# Indices 1 2 3 4 5 6 
#
# 1 0.019073 -0.017464 -0.006644 0.000000 0.000000 0.000000
# 2 -0.017464 0.036716 -0.001473 0.000000 0.000000 0.000000
# 3 -0.006644 -0.001473 0.014968 0.000000 0.000000 0.000000
# 4 0.000000 0.000000 0.000000 0.042608 0.000000 0.000000
# 5 0.000000 0.000000 0.000000 0.000000 0.028992 0.000000
# 6 0.000000 0.000000 0.000000 0.000000 0.000000 0.022713
#
#
# Mechanical properties :
#
#
# Convention : Reuss Voigt Hill
#
# Bulk Modulus (GPa) = 51.03107 72.51984 61.77546
# Shear Modulus (GPa) = 22.44550 28.90088 25.67319
#
# Velocity S-wave (km/s) = 3.43432 3.89701 3.67296
# Velocity P-wave (km/s) = 6.52239 7.63913 7.10274
#
# Compressibility (1/GPa) = 0.01959591
#
# Stress axis : x y z
#
# Youngs Moduli (GPa) = 52.42960 27.23644 66.81031
#
# Poissons Ratio (x) = 0.47564 0.44389
# Poissons Ratio (y) = 0.91561 0.09839
# Poissons Ratio (z) = 0.34835 0.04011
#
# Static dielectric constant tensor:
#      x y z
#    x 3.573810 0.000000 0.000000 
#    y 0.000000 3.207360 0.000000 
#    z 0.000000 0.000000 3.753700 
# 
# 
# High freq. dielectric constant tensor:
#      x y z
#    x 1.746310 0.000000 0.000000 
#    y 0.000000 1.725400 0.000000 
#    z 0.000000 0.000000 1.762130 
# 
# From -- ./inp_files/1256.got.cif
#   From: 2010.03.12/outbox.cif.g09.slc.cpg/sg29_1_cif.got.tgz:1256.got - 2010.04.14 03:43:10.
