data_PCOD8168261
_publ_section_title
;
Structure prediction by ZEFSAII (Michael W. Deem and Ramdas Pophale) SiO2 
 PCOD8168261
Probable space group: P M A 2
;
_chemical_formula_sum "Si O2"
_cell_formula_units_Z 32
_cell_length_a 17.598888
_cell_length_b 18.367555
_cell_length_c 5.029679
_cell_angle_alpha 90.000000
_cell_angle_beta 90.000000
_cell_angle_gamma 90.000000
_cell_volume 1625.836410
_symmetry_space_group_name_H-M "P M A 2"
_symmetry_group_IT_number 28
_symmetry_cell_setting 'orthorhombic'
loop_
_space_group_symop_operation_xyz
x,y,z
-x,-y,z
1/2-x,y,z
1/2+x,-y,z
loop_
_atom_site_type_symbol
_atom_site_label
_atom_site_fract_x
_atom_site_fract_y
_atom_site_fract_z
Si Si1 0.163376 0.764086 0.648580
Si Si2 0.840898 0.916991 0.606071
Si Si3 0.663236 0.143237 0.156274
Si Si4 0.910266 0.992776 0.109776
Si Si5 0.618622 0.751116 0.712477
Si Si6 0.971649 0.333587 0.656363
Si Si7 0.165804 0.334407 0.212779
Si Si8 0.018465 0.417073 0.156981
O O1 0.250000 0.736725 0.648864
O O2 0.137293 0.794971 0.363762
O O3 0.112764 0.694206 0.716792
O O4 0.150742 0.827865 0.860544
O O5 0.750000 0.924652 0.571653
O O6 0.884478 0.935306 0.333214
O O7 0.864070 0.835489 0.680090
O O8 0.869987 0.971244 0.834342
O O9 0.750000 0.122521 0.214468
O O10 0.615047 0.071812 0.204826
O O11 0.000000 0.000000 0.070821
O O12 0.528785 0.735072 0.683049
O O13 0.663748 0.702086 0.501973
O O14 0.645660 0.728973 0.005204
O O15 0.973472 0.365941 0.361085
O O16 0.992538 0.397644 0.860173
O O17 0.250000 0.365482 0.162972
O O18 0.108662 0.402651 0.189035
O O19 0.000000 0.500000 0.218992
#
# Coordination Sequence:
#
# PCOD8168261 Si02
#       8
#     4   4   4   4   4   4   4   4
#     4  10  21  37  62  85 110 146 195 244 290 335
#     4  12  24  41  61  85 119 157 197 249 307 360
#     4  10  21  38  58  79 110 153 192 239 293 350
#     4  12  27  40  59  87 119 157 201 253 298 362
#     4  10  22  35  60  86 114 149 188 237 287 339
#     4  10  21  37  60  85 116 148 185 236 278 333
#     4  10  19  36  57  85 116 149 192 230 275 337
#     4  10  21  38  58  85 117 156 185 221 277 338
#
# _framework density 19.682178
#
# number of rings (size 3 to 8) (size 9 to 14) (size 15 to 20)
#    0.000    1.500    0.000    5.250    3.500    1.000 
#    0.000    1.250    0.000    0.000    0.000    0.000 
#    0.000    0.000    0.000    0.000    0.000    0.000 
#
# Total GULP energy -396946.240133 kJ/mol
# GULP energy per Si atom -12404.570004 kJ/mol
# Density = 1.963738 g / cm^3
# Si number density = 19.682178 Si / 1000 Ang^3
#
#
#
# Elastic Constant Matrix: (Units=GPa)
#
#
# Indices 1 2 3 4 5 6 
#
# 1 112.5643 59.0236 20.7823 0.0000 0.0000 0.0000
# 2 59.0236 78.5108 0.4837 0.0000 0.0000 0.0000
# 3 20.7823 0.4837 76.5331 0.0000 0.0000 0.0000
# 4 0.0000 0.0000 0.0000 17.0338 0.0000 0.0000
# 5 0.0000 0.0000 0.0000 0.0000 3.9291 0.0000
# 6 0.0000 0.0000 0.0000 0.0000 0.0000 24.0992
#
#
#
# Elastic Compliance Matrix: (Units=1/GPa)
#
#
# Indices 1 2 3 4 5 6 
#
# 1 0.015938 -0.011956 -0.004252 0.000000 0.000000 0.000000
# 2 -0.011956 0.021706 0.003109 0.000000 0.000000 0.000000
# 3 -0.004252 0.003109 0.014201 0.000000 0.000000 0.000000
# 4 0.000000 0.000000 0.000000 0.058707 0.000000 0.000000
# 5 0.000000 0.000000 0.000000 0.000000 0.254514 0.000000
# 6 0.000000 0.000000 0.000000 0.000000 0.000000 0.041495
#
#
# Mechanical properties :
#
#
# Convention : Reuss Voigt Hill
#
# Bulk Modulus (GPa) = 38.98950 47.57638 43.28294
# Shear Modulus (GPa) = 11.32995 21.50030 16.41512
#
# Velocity S-wave (km/s) = 2.40186 3.30869 2.89106
# Velocity P-wave (km/s) = 5.24828 6.23068 5.76046
#
# Compressibility (1/GPa) = 0.02564793
#
# Stress axis : x y z
#
# Youngs Moduli (GPa) = 62.74306 46.06971 70.41608
#
# Poissons Ratio (x) = 0.55080 0.29943
# Poissons Ratio (y) = 0.75015 -0.21895
# Poissons Ratio (z) = 0.26681 -0.14325
#
# Static dielectric constant tensor:
#      x y z
#    x 3.930650 0.000000 0.000000 
#    y 0.000000 3.251290 0.000000 
#    z 0.000000 0.000000 3.792500 
# 
# 
# High freq. dielectric constant tensor:
#      x y z
#    x 1.772430 0.000000 0.000000 
#    y 0.000000 1.746590 0.000000 
#    z 0.000000 0.000000 1.788340 
# 
# From -- ./inp_files/868.got.cif
#   From: 2010.03.12/outbox.cif.g09.slc.cpg/sg28_1_cif.got.tgz:868.got - 2010.04.14 03:39:34.
