data_PCOD8168802
_publ_section_title
;
Structure prediction by ZEFSAII (Michael W. Deem and Ramdas Pophale) SiO2 
 PCOD8168802
Probable space group: P C A 21
;
_chemical_formula_sum "Si O2"
_cell_formula_units_Z 32
_cell_length_a 5.016081
_cell_length_b 20.384076
_cell_length_c 14.063525
_cell_angle_alpha 90.000000
_cell_angle_beta 90.000000
_cell_angle_gamma 90.000000
_cell_volume 1437.969784
_symmetry_space_group_name_H-M "P C A 21"
_symmetry_group_IT_number 29
_symmetry_cell_setting 'orthorhombic'
loop_
_space_group_symop_operation_xyz
x,y,z
-x,-y,1/2+z
1/2-x,y,1/2+z
1/2+x,-y,z
loop_
_atom_site_type_symbol
_atom_site_label
_atom_site_fract_x
_atom_site_fract_y
_atom_site_fract_z
Si Si1 0.955839 0.264508 0.696170
Si Si2 0.730779 0.540219 0.335124
Si Si3 0.920523 0.958866 0.083684
Si Si4 0.556319 0.649108 0.196240
Si Si5 0.488689 0.182427 0.383966
Si Si6 0.420881 0.041113 0.308288
Si Si7 0.730825 0.540215 0.057363
Si Si8 0.490035 0.182476 0.008202
O O1 0.749346 0.326099 0.696247
O O2 0.919389 0.222840 0.600765
O O3 0.260318 0.287304 0.696214
O O4 0.919452 0.222728 0.791492
O O5 0.523501 0.483251 0.302945
O O6 0.632060 0.607470 0.289356
O O7 0.749983 0.553017 0.446244
O O8 0.913410 0.948950 0.195988
O O9 0.880269 0.888289 0.037616
O O10 0.689611 0.007171 0.048602
O O11 0.632046 0.607460 0.103132
O O12 0.379438 0.111635 0.354413
O O13 0.748751 0.175577 0.446399
O O14 0.248924 0.215933 0.445861
O O15 0.190838 0.992499 0.343270
O O16 0.523571 0.483240 0.089538
#
# Coordination Sequence:
#
# PCOD8168802 Si02
#       8
#     4   4   4   4   4   4   4   4
#     4  12  28  47  62  97 134 176 234 278 316 384
#     4  10  21  39  65 100 134 164 207 266 326 384
#     4  10  21  39  66  97 129 163 208 275 341 402
#     4  12  24  41  70  91 132 180 220 266 320 392
#     4  12  26  45  69  93 130 177 221 276 337 396
#     4  10  21  39  66  97 129 163 208 275 341 402
#     4  10  21  39  65 100 134 164 207 266 326 384
#     4  12  26  45  69  93 130 177 221 276 337 396
#
# _framework density 22.253596999999999
#
# number of rings (size 3 to 8) (size 9 to 14) (size 15 to 20)
#    0.000    1.000    1.250    5.250    0.000    6.000 
#    0.000    0.000    0.000    0.000    0.000    0.000 
#    0.000    0.000    0.000    0.000    0.000    0.000 
#
# Total GULP energy -396833.679688 kJ/mol
# GULP energy per Si atom -12401.052490 kJ/mol
# Density = 2.220295 g / cm^3
# Si number density = 22.253597 Si / 1000 Ang^3
#
#
#
# Elastic Constant Matrix: (Units=GPa)
#
#
# Indices 1 2 3 4 5 6 
#
# 1 108.8559 10.8852 50.4452 0.0000 0.0000 0.0000
# 2 10.8852 87.5144 54.2666 0.0000 0.0000 0.0000
# 3 50.4452 54.2666 88.4056 0.0000 0.0000 0.0000
# 4 0.0000 0.0000 0.0000 8.2312 0.0000 0.0000
# 5 0.0000 0.0000 0.0000 0.0000 23.0528 0.0000
# 6 0.0000 0.0000 0.0000 0.0000 0.0000 37.8789
#
#
#
# Elastic Compliance Matrix: (Units=1/GPa)
#
#
# Indices 1 2 3 4 5 6 
#
# 1 0.013768 0.005100 -0.010987 0.000000 0.000000 0.000000
# 2 0.005100 0.020338 -0.015395 0.000000 0.000000 0.000000
# 3 -0.010987 -0.015395 0.027031 0.000000 0.000000 0.000000
# 4 0.000000 0.000000 0.000000 0.121489 0.000000 0.000000
# 5 0.000000 0.000000 0.000000 0.000000 0.043379 0.000000
# 6 0.000000 0.000000 0.000000 0.000000 0.000000 0.026400
#
#
# Mechanical properties :
#
#
# Convention : Reuss Voigt Hill
#
# Bulk Modulus (GPa) = 53.83783 57.33000 55.58391
# Shear Modulus (GPa) = 16.60255 25.11117 20.85686
#
# Velocity S-wave (km/s) = 2.73438 3.36282 3.06475
# Velocity P-wave (km/s) = 5.84931 6.39501 6.12824
#
# Compressibility (1/GPa) = 0.01857430
#
# Stress axis : x y z
#
# Youngs Moduli (GPa) = 72.63260 49.16804 36.99505
#
# Poissons Ratio (x) = -0.25078 0.40646
# Poissons Ratio (y) = -0.37045 0.56953
# Poissons Ratio (z) = 0.79801 0.75693
#
# Static dielectric constant tensor:
#      x y z
#    x 4.255350 0.000000 0.000000 
#    y 0.000000 3.813810 0.000000 
#    z 0.000000 0.000000 3.531170 
# 
# 
# High freq. dielectric constant tensor:
#      x y z
#    x 1.893010 0.000000 0.000000 
#    y 0.000000 1.864450 0.000000 
#    z 0.000000 0.000000 1.898040 
# 
# From -- ./inp_files/4137.got.cif
#   From: 2010.03.12/outbox.cif.g09.slc.cpg/sg29_3_cif.got.tgz:4137.got - 2010.04.14 03:43:10.
