data_PCOD8168857
_publ_section_title
;
Structure prediction by ZEFSAII (Michael W. Deem and Ramdas Pophale) SiO2 
 PCOD8168857
Probable space group: P C A 21
;
_chemical_formula_sum "Si O2"
_cell_formula_units_Z 16
_cell_length_a 12.213420
_cell_length_b 7.633788
_cell_length_c 8.758114
_cell_angle_alpha 90.000000
_cell_angle_beta 90.000000
_cell_angle_gamma 90.000000
_cell_volume 816.559773
_symmetry_space_group_name_H-M "P C A 21"
_symmetry_group_IT_number 29
_symmetry_cell_setting 'orthorhombic'
loop_
_space_group_symop_operation_xyz
x,y,z
-x,-y,1/2+z
1/2-x,y,1/2+z
1/2+x,-y,z
loop_
_atom_site_type_symbol
_atom_site_label
_atom_site_fract_x
_atom_site_fract_y
_atom_site_fract_z
Si Si1 0.867036 0.538061 0.179940
Si Si2 0.985679 0.174793 0.168680
Si Si3 0.910528 0.848785 0.988372
Si Si4 0.311381 0.309968 0.494625
O O1 0.912568 0.346476 0.152617
O O2 0.867016 0.583517 0.358195
O O3 0.944045 0.678082 0.089690
O O4 0.743112 0.550550 0.112880
O O5 0.009226 0.131922 0.345187
O O6 0.099057 0.195310 0.080390
O O7 0.917163 0.017777 0.095864
O O8 0.783658 0.823422 0.934437
#
# Coordination Sequence:
#
# PCOD8168857 Si02
#       4
#     4   4   4   4
#     4  10  22  43  64  95 126 171 213 272 322 383
#     4  12  22  43  69  91 134 175 209 269 333 376
#     4  10  23  41  62  99 127 171 217 267 320 390
#     4  10  21  45  61  95 135 153 227 270 303 401
#
# _framework density 19.5944
#
# number of rings (size 3 to 8) (size 9 to 14) (size 15 to 20)
#    1.500    0.000    2.500    3.000    0.000    0.000 
#   18.000    0.000    0.000    0.000    0.000    0.000 
#    0.000    0.000    0.000    0.000    0.000    0.000 
#
# Total GULP energy -198338.945403 kJ/mol
# GULP energy per Si atom -12396.184088 kJ/mol
# Density = 1.954980 g / cm^3
# Si number density = 19.594400 Si / 1000 Ang^3
#
#
#
# Elastic Constant Matrix: (Units=GPa)
#
#
# Indices 1 2 3 4 5 6 
#
# 1 53.4735 24.9857 4.6919 0.0000 0.0000 0.0000
# 2 24.9857 137.1830 39.6548 0.0000 0.0000 0.0000
# 3 4.6919 39.6548 104.0713 0.0000 0.0000 0.0000
# 4 0.0000 0.0000 0.0000 30.8527 0.0000 0.0000
# 5 0.0000 0.0000 0.0000 0.0000 24.2152 0.0000
# 6 0.0000 0.0000 0.0000 0.0000 0.0000 25.2637
#
#
#
# Elastic Compliance Matrix: (Units=1/GPa)
#
#
# Indices 1 2 3 4 5 6 
#
# 1 0.020469 -0.003890 0.000559 0.000000 0.000000 0.000000
# 2 -0.003890 0.008931 -0.003228 0.000000 0.000000 0.000000
# 3 0.000559 -0.003228 0.010813 0.000000 0.000000 0.000000
# 4 0.000000 0.000000 0.000000 0.032412 0.000000 0.000000
# 5 0.000000 0.000000 0.000000 0.000000 0.041296 0.000000
# 6 0.000000 0.000000 0.000000 0.000000 0.000000 0.039582
#
#
# Mechanical properties :
#
#
# Convention : Reuss Voigt Hill
#
# Bulk Modulus (GPa) = 36.90385 48.15472 42.52929
# Shear Modulus (GPa) = 28.46512 31.09268 29.77890
#
# Velocity S-wave (km/s) = 3.81559 3.98781 3.90265
# Velocity P-wave (km/s) = 6.18760 6.76998 6.48533
#
# Compressibility (1/GPa) = 0.02709744
#
# Stress axis : x y z
#
# Youngs Moduli (GPa) = 48.85356 111.96935 92.47757
#
# Poissons Ratio (x) = 0.43554 -0.05173
# Poissons Ratio (y) = 0.19003 0.29849
# Poissons Ratio (z) = -0.02733 0.36140
#
# Static dielectric constant tensor:
#      x y z
#    x 3.380100 0.000000 0.000000 
#    y 0.000000 3.299210 0.000000 
#    z 0.000000 0.000000 3.614510 
# 
# 
# High freq. dielectric constant tensor:
#      x y z
#    x 1.749460 0.000000 0.000000 
#    y 0.000000 1.750940 0.000000 
#    z 0.000000 0.000000 1.778720 
# 
# From -- ./inp_files/1303.got.cif
#   From: 2010.03.12/outbox.cif.g09.slc.cpg/sg29_1_cif.got.tgz:1303.got - 2010.04.14 03:43:10.
