data_PCOD8168564
_publ_section_title
;
Structure prediction by ZEFSAII (Michael W. Deem and Ramdas Pophale) SiO2 
 PCOD8168564
Probable space group: P C A 21
;
_chemical_formula_sum "Si O2"
_cell_formula_units_Z 20
_cell_length_a 5.347369
_cell_length_b 8.437154
_cell_length_c 19.291316
_cell_angle_alpha 90.000000
_cell_angle_beta 90.000000
_cell_angle_gamma 90.000000
_cell_volume 870.358120
_symmetry_space_group_name_H-M "P C A 21"
_symmetry_group_IT_number 29
_symmetry_cell_setting 'orthorhombic'
loop_
_space_group_symop_operation_xyz
x,y,z
-x,-y,1/2+z
1/2-x,y,1/2+z
1/2+x,-y,z
loop_
_atom_site_type_symbol
_atom_site_label
_atom_site_fract_x
_atom_site_fract_y
_atom_site_fract_z
Si Si1 0.755598 0.813780 0.865660
Si Si2 0.232582 0.405496 0.989550
Si Si3 0.760470 0.595983 0.650981
Si Si4 0.244365 0.854269 0.310584
Si Si5 0.257328 0.050632 0.667995
O O1 0.508329 0.752389 0.823085
O O2 0.005505 0.750922 0.824781
O O3 0.758836 0.004604 0.867710
O O4 0.752015 0.752857 0.944273
O O5 0.469872 0.513512 0.970713
O O6 0.240548 0.359769 0.070033
O O7 0.510534 0.499896 0.671931
O O8 0.760554 0.765052 0.689505
O O9 0.249724 0.938785 0.236060
O O10 0.506096 0.997744 0.625459
#
# Coordination Sequence:
#
# PCOD8168564 Si02
#       5
#     4   4   4   4   4
#     4  10  18  35  57  82 110 155 185 236 302 341
#     4  10  21  39  60  83 119 157 196 243 295 363
#     4  10  23  43  63  89 125 163 204 254 308 364
#     4  10  19  35  58  78 119 148 184 247 295 336
#     4  12  21  40  66  88 125 161 205 258 306 354
#
# _framework density 22.979047000000001
#
# number of rings (size 3 to 8) (size 9 to 14) (size 15 to 20)
#    0.000    1.600    4.000    2.400    0.000    0.000 
#    7.200    2.000    0.000    0.000    0.000    0.000 
#    0.000    0.000    0.000    0.000    0.000    0.000 
#
# Total GULP energy -247765.405409 kJ/mol
# GULP energy per Si atom -12388.270270 kJ/mol
# Density = 2.292675 g / cm^3
# Si number density = 22.979047 Si / 1000 Ang^3
#
#
#
# Elastic Constant Matrix: (Units=GPa)
#
#
# Indices 1 2 3 4 5 6 
#
# 1 257.0703 33.1177 6.2653 0.0000 0.0000 0.0000
# 2 33.1177 64.6616 -0.9995 0.0000 0.0000 0.0000
# 3 6.2653 -0.9995 37.7441 0.0000 0.0000 0.0000
# 4 0.0000 0.0000 0.0000 40.4724 0.0000 0.0000
# 5 0.0000 0.0000 0.0000 0.0000 4.0687 0.0000
# 6 0.0000 0.0000 0.0000 0.0000 0.0000 31.6032
#
#
#
# Elastic Compliance Matrix: (Units=1/GPa)
#
#
# Indices 1 2 3 4 5 6 
#
# 1 0.004186 -0.002156 -0.000752 0.000000 0.000000 0.000000
# 2 -0.002156 0.016581 0.000797 0.000000 0.000000 0.000000
# 3 -0.000752 0.000797 0.026640 0.000000 0.000000 0.000000
# 4 0.000000 0.000000 0.000000 0.024708 0.000000 0.000000
# 5 0.000000 0.000000 0.000000 0.000000 0.245779 0.000000
# 6 0.000000 0.000000 0.000000 0.000000 0.000000 0.031642
#
#
# Mechanical properties :
#
#
# Convention : Reuss Voigt Hill
#
# Bulk Modulus (GPa) = 23.15547 48.47144 35.81346
# Shear Modulus (GPa) = 13.58130 36.63502 25.10816
#
# Velocity S-wave (km/s) = 2.43375 3.99717 3.30912
# Velocity P-wave (km/s) = 4.24219 6.51481 5.49722
#
# Compressibility (1/GPa) = 0.04318634
#
# Stress axis : x y z
#
# Youngs Moduli (GPa) = 238.89108 60.30836 37.53739
#
# Poissons Ratio (x) = 0.13000 0.02823
# Poissons Ratio (y) = 0.51495 -0.02991
# Poissons Ratio (z) = 0.17963 -0.04806
#
# Static dielectric constant tensor:
#      x y z
#    x 6.225720 0.000000 0.000000 
#    y 0.000000 3.679340 0.000000 
#    z 0.000000 0.000000 3.737630 
# 
# 
# High freq. dielectric constant tensor:
#      x y z
#    x 1.960520 0.000000 0.000000 
#    y 0.000000 1.867010 0.000000 
#    z 0.000000 0.000000 1.866420 
# 
# From -- ./inp_files/4882.got.cif
#   From: 2010.03.12/outbox.cif.g09.slc.cpg/sg29_3_cif.got.tgz:4882.got - 2010.04.14 03:43:10.
