data_PCOD8168014
_publ_section_title
;
Structure prediction by ZEFSAII (Michael W. Deem and Ramdas Pophale) SiO2 
 PCOD8168014
Probable space group: P M A 2
;
_chemical_formula_sum "Si O2"
_cell_formula_units_Z 24
_cell_length_a 18.718611
_cell_length_b 9.608663
_cell_length_c 7.517022
_cell_angle_alpha 90.000000
_cell_angle_beta 90.000000
_cell_angle_gamma 90.000000
_cell_volume 1352.017778
_symmetry_space_group_name_H-M "P M A 2"
_symmetry_group_IT_number 28
_symmetry_cell_setting 'orthorhombic'
loop_
_space_group_symop_operation_xyz
x,y,z
-x,-y,z
1/2-x,y,z
1/2+x,-y,z
loop_
_atom_site_type_symbol
_atom_site_label
_atom_site_fract_x
_atom_site_fract_y
_atom_site_fract_z
Si Si1 0.524270 0.209059 0.029240
Si Si2 0.976035 0.647992 0.350074
Si Si3 0.330173 0.011667 0.676103
Si Si4 0.463875 0.849548 0.642178
Si Si5 0.382308 0.036982 0.062461
Si Si6 0.669908 0.783743 0.367142
O O1 0.515410 0.343131 0.156943
O O2 0.455796 0.118262 0.074488
O O3 0.597271 0.126479 0.080159
O O4 0.524764 0.245400 0.818732
O O5 0.889685 0.663342 0.335510
O O6 0.000000 0.500000 0.431711
O O7 0.005202 0.773175 0.471683
O O8 0.250000 0.957358 0.649655
O O9 0.345387 0.148209 0.558326
O O10 0.380051 0.882427 0.617524
O O11 0.342343 0.062495 0.877154
O O12 0.500000 0.000000 0.675692
O O13 0.333024 0.091889 0.221904
O O14 0.750000 0.718198 0.359931
#
# Coordination Sequence:
#
# PCOD8168014 Si02
#       6
#     4   4   4   4   4   4
#     4   9  17  30  52  77 103 132 173 214 257 300
#     4  11  23  35  52  77 107 145 180 211 254 315
#     4  10  18  29  50  83 108 127 165 219 273 309
#     4  11  18  34  57  79 102 135 173 221 262 305
#     4   9  15  28  49  77 102 128 161 216 263 301
#     4  10  19  31  50  74 103 134 171 217 260 306
#
# _framework density 17.751245999999998
#
# number of rings (size 3 to 8) (size 9 to 14) (size 15 to 20)
#    0.000    2.000    5.000    1.500    2.333    0.667 
#    0.000    0.833    0.000    5.000    0.000    0.000 
#    0.000    0.000    0.000    0.000    0.000    0.000 
#
# Total GULP energy -297435.099276 kJ/mol
# GULP energy per Si atom -12393.129136 kJ/mol
# Density = 1.771084 g / cm^3
# Si number density = 17.751246 Si / 1000 Ang^3
#
#
#
# Elastic Constant Matrix: (Units=GPa)
#
#
# Indices 1 2 3 4 5 6 
#
# 1 102.1895 33.0058 37.7551 0.0000 0.0000 0.0000
# 2 33.0058 47.9193 24.8183 0.0000 0.0000 0.0000
# 3 37.7551 24.8183 86.4581 0.0000 0.0000 0.0000
# 4 0.0000 0.0000 0.0000 14.1979 0.0000 0.0000
# 5 0.0000 0.0000 0.0000 0.0000 18.8177 0.0000
# 6 0.0000 0.0000 0.0000 0.0000 0.0000 15.7776
#
#
#
# Elastic Compliance Matrix: (Units=1/GPa)
#
#
# Indices 1 2 3 4 5 6 
#
# 1 0.013577 -0.007378 -0.003811 0.000000 0.000000 0.000000
# 2 -0.007378 0.028522 -0.004966 0.000000 0.000000 0.000000
# 3 -0.003811 -0.004966 0.014656 0.000000 0.000000 0.000000
# 4 0.000000 0.000000 0.000000 0.070433 0.000000 0.000000
# 5 0.000000 0.000000 0.000000 0.000000 0.053141 0.000000
# 6 0.000000 0.000000 0.000000 0.000000 0.000000 0.063381
#
#
# Mechanical properties :
#
#
# Convention : Reuss Voigt Hill
#
# Bulk Modulus (GPa) = 40.90659 47.52505 44.21582
# Shear Modulus (GPa) = 17.59532 19.15782 18.37657
#
# Velocity S-wave (km/s) = 3.15177 3.28874 3.22098
# Velocity P-wave (km/s) = 6.02821 6.42277 6.22861
#
# Compressibility (1/GPa) = 0.02444594
#
# Stress axis : x y z
#
# Youngs Moduli (GPa) = 73.65622 35.06105 68.23189
#
# Poissons Ratio (x) = 0.25866 0.26003
# Poissons Ratio (y) = 0.54340 0.33882
# Poissons Ratio (z) = 0.28070 0.17410
#
# Static dielectric constant tensor:
#      x y z
#    x 3.480960 0.000000 0.000000 
#    y 0.000000 3.046950 0.000000 
#    z 0.000000 0.000000 3.532430 
# 
# 
# High freq. dielectric constant tensor:
#      x y z
#    x 1.690220 0.000000 0.000000 
#    y 0.000000 1.623630 0.000000 
#    z 0.000000 0.000000 1.705550 
# 
# From -- ./inp_files/3799.got.cif
#   From: 2010.03.12/outbox.cif.g09.slc.cpg/sg28_2_cif.got.tgz:3799.got - 2010.04.14 03:39:34.
