data_PCOD8168184
_publ_section_title
;
Structure prediction by ZEFSAII (Michael W. Deem and Ramdas Pophale) SiO2 
 PCOD8168184
Probable space group: P M A 2
;
_chemical_formula_sum "Si O2"
_cell_formula_units_Z 24
_cell_length_a 8.785245
_cell_length_b 9.101449
_cell_length_c 15.625912
_cell_angle_alpha 90.000000
_cell_angle_beta 90.000000
_cell_angle_gamma 90.000000
_cell_volume 1249.423849
_symmetry_space_group_name_H-M "P M A 2"
_symmetry_group_IT_number 28
_symmetry_cell_setting 'orthorhombic'
loop_
_space_group_symop_operation_xyz
x,y,z
-x,-y,z
1/2-x,y,z
1/2+x,-y,z
loop_
_atom_site_type_symbol
_atom_site_label
_atom_site_fract_x
_atom_site_fract_y
_atom_site_fract_z
Si Si1 0.571192 0.341442 0.983690
Si Si2 0.069348 0.340349 0.664348
Si Si3 0.930544 0.159312 0.817586
Si Si4 0.569562 0.161464 0.146964
Si Si5 0.928635 0.840461 0.315089
Si Si6 0.927444 0.841561 0.502883
O O1 0.500000 0.500000 0.977660
O O2 0.750000 0.359864 0.988141
O O3 0.521270 0.250760 0.900765
O O4 0.510713 0.258604 0.068015
O O5 0.250000 0.350245 0.672667
O O6 0.016173 0.275547 0.572814
O O7 0.000000 0.500000 0.676575
O O8 0.004421 0.233304 0.735563
O O9 0.750000 0.149935 0.805924
O O10 0.000000 0.000000 0.829447
O O11 0.750000 0.149086 0.148922
O O12 0.509705 0.240640 0.234812
O O13 0.500000 0.000000 0.137107
O O14 0.750000 0.848594 0.296870
O O15 0.964253 0.771655 0.408792
O O16 0.000000 0.000000 0.317930
O O17 0.750000 0.870098 0.512461
O O18 0.000000 0.000000 0.518607
#
# Coordination Sequence:
#
# PCOD8168184 Si02
#       6
#     4   4   4   4   4   4
#     4  10  23  39  56  79 110 144 180 219 267 321
#     4  11  23  39  57  81 112 147 183 224 272 326
#     4  11  23  40  61  86 111 141 180 224 270 322
#     4  10  19  33  53  80 108 139 179 223 267 317
#     4   9  16  29  50  77 106 139 177 222 269 315
#     4   9  19  34  54  79 108 140 180 224 269 319
#
# _framework density 19.208853999999999
#
# number of rings (size 3 to 8) (size 9 to 14) (size 15 to 20)
#    0.000    2.000    0.000    4.500    0.000    7.333 
#    0.000    0.833    0.000    4.000    0.000    0.000 
#    0.000    0.000    0.000    0.000    0.000    0.000 
#
# Total GULP energy -297529.565938 kJ/mol
# GULP energy per Si atom -12397.065247 kJ/mol
# Density = 1.916513 g / cm^3
# Si number density = 19.208854 Si / 1000 Ang^3
#
#
#
# Elastic Constant Matrix: (Units=GPa)
#
#
# Indices 1 2 3 4 5 6 
#
# 1 72.5211 38.2183 56.1361 0.0000 0.0000 0.0000
# 2 38.2183 111.9452 68.8125 0.0000 0.0000 0.0000
# 3 56.1361 68.8125 184.6966 0.0000 0.0000 0.0000
# 4 0.0000 0.0000 0.0000 10.3163 0.0000 0.0000
# 5 0.0000 0.0000 0.0000 0.0000 32.6702 0.0000
# 6 0.0000 0.0000 0.0000 0.0000 0.0000 27.2378
#
#
#
# Elastic Compliance Matrix: (Units=1/GPa)
#
#
# Indices 1 2 3 4 5 6 
#
# 1 0.019234 -0.003856 -0.004409 0.000000 0.000000 0.000000
# 2 -0.003856 0.012360 -0.003433 0.000000 0.000000 0.000000
# 3 -0.004409 -0.003433 0.008033 0.000000 0.000000 0.000000
# 4 0.000000 0.000000 0.000000 0.096934 0.000000 0.000000
# 5 0.000000 0.000000 0.000000 0.000000 0.030609 0.000000
# 6 0.000000 0.000000 0.000000 0.000000 0.000000 0.036714
#
#
# Mechanical properties :
#
#
# Convention : Reuss Voigt Hill
#
# Bulk Modulus (GPa) = 61.61162 77.27743 69.44452
# Shear Modulus (GPa) = 21.48775 27.77792 24.63284
#
# Velocity S-wave (km/s) = 3.34823 3.80689 3.58490
# Velocity P-wave (km/s) = 6.86234 7.72274 7.30522
#
# Compressibility (1/GPa) = 0.01623071
#
# Stress axis : x y z
#
# Youngs Moduli (GPa) = 51.99014 80.90884 124.48063
#
# Poissons Ratio (x) = 0.31201 0.54887
# Poissons Ratio (y) = 0.20049 0.42731
# Poissons Ratio (z) = 0.22924 0.27774
#
# Static dielectric constant tensor:
#      x y z
#    x 3.564680 0.000000 0.000000 
#    y 0.000000 3.299610 0.000000 
#    z 0.000000 0.000000 4.541380 
# 
# 
# High freq. dielectric constant tensor:
#      x y z
#    x 1.754750 0.000000 0.000000 
#    y 0.000000 1.723230 0.000000 
#    z 0.000000 0.000000 1.777110 
# 
# From -- ./inp_files/6102.got.cif
#   From: 2010.03.12/outbox.cif.g09.slc.cpg/sg28_4_cif.got.tgz:6102.got - 2010.04.14 03:39:34.
