data_PCOD8168841
_publ_section_title
;
Structure prediction by ZEFSAII (Michael W. Deem and Ramdas Pophale) SiO2 
 PCOD8168841
Probable space group: P C A 21
;
_chemical_formula_sum "Si O2"
_cell_formula_units_Z 32
_cell_length_a 5.043934
_cell_length_b 17.590020
_cell_length_c 14.905885
_cell_angle_alpha 90.000000
_cell_angle_beta 90.000000
_cell_angle_gamma 90.000000
_cell_volume 1322.493343
_symmetry_space_group_name_H-M "P C A 21"
_symmetry_group_IT_number 29
_symmetry_cell_setting 'orthorhombic'
loop_
_space_group_symop_operation_xyz
x,y,z
-x,-y,1/2+z
1/2-x,y,1/2+z
1/2+x,-y,z
loop_
_atom_site_type_symbol
_atom_site_label
_atom_site_fract_x
_atom_site_fract_y
_atom_site_fract_z
Si Si1 0.118292 0.953959 0.313290
Si Si2 0.623111 0.255627 0.777317
Si Si3 0.457325 0.448991 0.286881
Si Si4 0.735950 0.126878 0.144606
Si Si5 0.241381 0.185962 0.068452
Si Si6 0.548571 0.550415 0.990214
Si Si7 0.410377 0.207101 0.372314
Si Si8 0.180459 0.344456 0.155472
O O1 0.143256 0.944817 0.204604
O O2 0.032598 0.877020 0.361952
O O3 0.410920 0.980874 0.342797
O O4 0.767924 0.198156 0.710942
O O5 0.349563 0.219055 0.812681
O O6 0.563983 0.335872 0.727067
O O7 0.850844 0.268070 0.852979
O O8 0.745341 0.483952 0.271155
O O9 0.421292 0.416422 0.388774
O O10 0.416023 0.385654 0.209737
O O11 0.520477 0.141981 0.066643
O O12 0.025185 0.122729 0.099536
O O13 0.261120 0.257387 0.135885
O O14 0.174131 0.221147 0.973408
O O15 0.255143 0.517983 0.005070
O O16 0.596014 0.615143 0.063813
#
# Coordination Sequence:
#
# PCOD8168841 Si02
#       8
#     4   4   4   4   4   4   4   4
#     4  11  21  38  66  90 119 174 222 254 320 408
#     4  10  22  39  64  91 128 173 209 273 330 398
#     4  10  23  42  62  90 129 171 212 277 331 385
#     4  10  21  42  59  91 128 163 211 273 329 381
#     4  11  24  40  65  94 133 170 213 286 340 386
#     4  10  23  42  61  91 130 166 214 279 327 382
#     4  11  23  43  61  95 140 166 213 282 340 385
#     4  11  23  40  68  96 123 175 230 260 333 411
#
# _framework density 24.196717
#
# number of rings (size 3 to 8) (size 9 to 14) (size 15 to 20)
#    0.000    1.500    0.000    6.750    1.750    6.000 
#    4.500    3.750    0.000    0.000    0.000    0.000 
#    0.000    0.000    0.000    0.000    0.000    0.000 
#
# Total GULP energy -396620.229498 kJ/mol
# GULP energy per Si atom -12394.382172 kJ/mol
# Density = 2.414164 g / cm^3
# Si number density = 24.196717 Si / 1000 Ang^3
#
#
#
# Elastic Constant Matrix: (Units=GPa)
#
#
# Indices 1 2 3 4 5 6 
#
# 1 116.0771 31.4729 15.7613 0.0000 0.0000 0.0000
# 2 31.4729 43.3060 26.3056 0.0000 0.0000 0.0000
# 3 15.7613 26.3056 97.7053 0.0000 0.0000 0.0000
# 4 0.0000 0.0000 0.0000 30.7786 0.0000 0.0000
# 5 0.0000 0.0000 0.0000 0.0000 28.6958 0.0000
# 6 0.0000 0.0000 0.0000 0.0000 0.0000 28.2329
#
#
#
# Elastic Compliance Matrix: (Units=1/GPa)
#
#
# Indices 1 2 3 4 5 6 
#
# 1 0.010745 -0.008077 0.000441 0.000000 0.000000 0.000000
# 2 -0.008077 0.033678 -0.007764 0.000000 0.000000 0.000000
# 3 0.000441 -0.007764 0.012254 0.000000 0.000000 0.000000
# 4 0.000000 0.000000 0.000000 0.032490 0.000000 0.000000
# 5 0.000000 0.000000 0.000000 0.000000 0.034848 0.000000
# 6 0.000000 0.000000 0.000000 0.000000 0.000000 0.035420
#
#
# Mechanical properties :
#
#
# Convention : Reuss Voigt Hill
#
# Bulk Modulus (GPa) = 38.64459 44.90754 41.77606
# Shear Modulus (GPa) = 25.14323 29.77804 27.46063
#
# Velocity S-wave (km/s) = 3.22703 3.51189 3.37247
# Velocity P-wave (km/s) = 5.46723 5.91981 5.69802
#
# Compressibility (1/GPa) = 0.02587685
#
# Stress axis : x y z
#
# Youngs Moduli (GPa) = 93.06619 29.69313 81.60546
#
# Poissons Ratio (x) = 0.23983 -0.03601
# Poissons Ratio (y) = 0.75170 0.63361
# Poissons Ratio (z) = -0.04107 0.23055
#
# Static dielectric constant tensor:
#      x y z
#    x 4.593890 0.000000 0.000000 
#    y 0.000000 4.093950 0.000000 
#    z 0.000000 0.000000 4.525260 
# 
# 
# High freq. dielectric constant tensor:
#      x y z
#    x 1.977330 0.000000 0.000000 
#    y 0.000000 1.938080 0.000000 
#    z 0.000000 0.000000 1.959090 
# 
# From -- ./inp_files/4144.got.cif
#   From: 2010.03.12/outbox.cif.g09.slc.cpg/sg29_3_cif.got.tgz:4144.got - 2010.04.14 03:43:10.
