data_PCOD8168413
_publ_section_title
;
Structure prediction by ZEFSAII (Michael W. Deem and Ramdas Pophale) SiO2 
 PCOD8168413
Probable space group: P M A 2
;
_chemical_formula_sum "Si O2"
_cell_formula_units_Z 28
_cell_length_a 8.782662
_cell_length_b 9.458151
_cell_length_c 17.987762
_cell_angle_alpha 90.000000
_cell_angle_beta 90.000000
_cell_angle_gamma 90.000000
_cell_volume 1494.202798
_symmetry_space_group_name_H-M "P M A 2"
_symmetry_group_IT_number 28
_symmetry_cell_setting 'orthorhombic'
loop_
_space_group_symop_operation_xyz
x,y,z
-x,-y,z
1/2-x,y,z
1/2+x,-y,z
loop_
_atom_site_type_symbol
_atom_site_label
_atom_site_fract_x
_atom_site_fract_y
_atom_site_fract_z
Si Si1 0.071828 0.145635 0.616920
Si Si2 0.572676 0.847254 0.187726
Si Si3 0.569066 0.156657 0.877408
Si Si4 0.930305 0.654453 0.749025
Si Si5 0.930217 0.653118 0.319824
Si Si6 0.929660 0.853358 0.450014
Si Si7 0.928118 0.847279 0.024567
O O1 0.250000 0.120480 0.617336
O O2 0.025932 0.273900 0.670575
O O3 0.013603 0.182254 0.533688
O O4 0.000000 0.000000 0.646543
O O5 0.750000 0.871123 0.200717
O O6 0.506493 0.740159 0.249005
O O7 0.543419 0.777398 0.105722
O O8 0.500000 0.000000 0.197621
O O9 0.750000 0.148466 0.873653
O O10 0.506708 0.255176 0.813228
O O11 0.500000 0.000000 0.868948
O O12 0.514941 0.228188 0.955852
O O13 0.750000 0.647752 0.761604
O O14 0.000000 0.500000 0.749097
O O15 0.750000 0.640222 0.316596
O O16 0.985216 0.729613 0.395361
O O17 0.000000 0.500000 0.318016
O O18 0.750000 0.869804 0.446807
O O19 0.000000 0.000000 0.421896
O O20 0.750000 0.856699 0.005268
O O21 0.000000 0.000000 0.031332
#
# Coordination Sequence:
#
# PCOD8168413 Si02
#       7
#     4   4   4   4   4   4   4
#     4   9  19  35  56  80 105 134 170 213 258 306
#     4   9  18  32  52  77 103 133 171 216 260 305
#     4  11  21  35  56  81 107 137 175 217 263 312
#     4  11  23  38  54  76 107 141 177 216 261 312
#     4  10  21  35  50  73 106 140 174 211 253 303
#     4   9  18  34  55  79 105 133 170 214 257 303
#     4   9  16  29  50  76 104 132 168 215 263 307
#
# _framework density 18.739090000000001
#
# number of rings (size 3 to 8) (size 9 to 14) (size 15 to 20)
#    0.000    2.286    0.000    3.857    0.000    4.571 
#    0.000    0.714    0.000    1.714    0.000    0.000 
#    0.000    0.000    0.000    0.000    0.000    0.000 
#
# Total GULP energy -347093.491364 kJ/mol
# GULP energy per Si atom -12396.196120 kJ/mol
# Density = 1.869644 g / cm^3
# Si number density = 18.739090 Si / 1000 Ang^3
#
#
#
# Elastic Constant Matrix: (Units=GPa)
#
#
# Indices 1 2 3 4 5 6 
#
# 1 75.6780 48.1403 57.1951 0.0000 0.0000 0.0000
# 2 48.1403 130.9331 89.3282 0.0000 0.0000 0.0000
# 3 57.1951 89.3282 156.9426 0.0000 0.0000 0.0000
# 4 0.0000 0.0000 0.0000 -2.0818 0.0000 0.0000
# 5 0.0000 0.0000 0.0000 0.0000 20.6277 0.0000
# 6 0.0000 0.0000 0.0000 0.0000 0.0000 31.2157
#
#
#
# Elastic Compliance Matrix: (Units=1/GPa)
#
#
# Indices 1 2 3 4 5 6 
#
# 1 0.019305 -0.003757 -0.004897 0.000000 0.000000 0.000000
# 2 -0.003757 0.013217 -0.006154 0.000000 0.000000 0.000000
# 3 -0.004897 -0.006154 0.011659 0.000000 0.000000 0.000000
# 4 0.000000 0.000000 0.000000 -0.480357 0.000000 0.000000
# 5 0.000000 0.000000 0.000000 0.000000 0.048479 0.000000
# 6 0.000000 0.000000 0.000000 0.000000 0.000000 0.032035
#
#
# Mechanical properties :
#
#
# Convention : Reuss Voigt Hill
#
# Bulk Modulus (GPa) = 68.65490 83.65344 76.15417
# Shear Modulus (GPa) = -15.56702 21.21165 2.82232
#
# Velocity S-wave (km/s) = -2.88536 3.36809 1.22857
# Velocity P-wave (km/s) = 5.06127 7.73715 6.53758
#
# Compressibility (1/GPa) = 0.01456560
#
# Stress axis : x y z
#
# Youngs Moduli (GPa) = 51.80100 75.65923 85.77088
#
# Poissons Ratio (x) = 0.28424 0.42002
# Poissons Ratio (y) = 0.19461 0.52782
# Poissons Ratio (z) = 0.25367 0.46559
#
# Static dielectric constant tensor:
#      x y z
#    x 3.445340 0.000000 0.000000 
#    y 0.000000 3.357840 0.000000 
#    z 0.000000 0.000000 4.364130 
# 
# 
# High freq. dielectric constant tensor:
#      x y z
#    x 1.728710 0.000000 0.000000 
#    y 0.000000 1.699790 0.000000 
#    z 0.000000 0.000000 1.752370 
# 
# From -- ./inp_files/6810.got.cif
#   From: 2010.03.12/outbox.cif.g09.slc.cpg/sg28_4_cif.got.tgz:6810.got - 2010.04.14 03:39:34.
