data_PCOD8168234
_publ_section_title
;
Structure prediction by ZEFSAII (Michael W. Deem and Ramdas Pophale) SiO2 
 PCOD8168234
Probable space group: P M A 2
;
_chemical_formula_sum "Si O2"
_cell_formula_units_Z 24
_cell_length_a 15.476461
_cell_length_b 8.540288
_cell_length_c 9.518910
_cell_angle_alpha 90.000000
_cell_angle_beta 90.000000
_cell_angle_gamma 90.000000
_cell_volume 1258.147024
_symmetry_space_group_name_H-M "P M A 2"
_symmetry_group_IT_number 28
_symmetry_cell_setting 'orthorhombic'
loop_
_space_group_symop_operation_xyz
x,y,z
-x,-y,z
1/2-x,y,z
1/2+x,-y,z
loop_
_atom_site_type_symbol
_atom_site_label
_atom_site_fract_x
_atom_site_fract_y
_atom_site_fract_z
Si Si1 0.654822 0.298464 0.397700
Si Si2 0.650705 0.166996 0.692775
Si Si3 0.417552 0.390571 0.435669
Si Si4 0.498998 0.814808 0.898829
Si Si5 0.349423 0.201937 0.700378
Si Si6 0.508392 0.184978 0.214316
O O1 0.750000 0.230123 0.381212
O O2 0.617378 0.245511 0.548973
O O3 0.655969 0.487443 0.387583
O O4 0.602687 0.224180 0.270820
O O5 0.750000 0.213973 0.728628
O O6 0.587583 0.234457 0.813804
O O7 0.641873 0.981876 0.671687
O O8 0.500000 0.500000 0.473071
O O9 0.382588 0.292672 0.565169
O O10 0.436623 0.270509 0.309239
O O11 0.587072 0.750448 0.827874
O O12 0.500000 0.000000 0.905905
O O13 0.497397 0.747344 0.056387
O O14 0.250000 0.247046 0.736413
O O15 0.500000 0.000000 0.220698
#
# Coordination Sequence:
#
# PCOD8168234 Si02
#       6
#     4   4   4   4   4   4
#     4  10  20  35  53  78 108 138 175 219 261 310
#     4   9  18  33  57  83 106 135 175 218 263 312
#     4  10  20  34  53  75 105 141 176 216 263 312
#     4   9  18  33  53  78 108 136 170 220 267 310
#     4  10  19  34  56  80 103 135 177 221 265 313
#     4  10  20  35  55  78 105 141 178 214 262 313
#
# _framework density 19.075672000000001
#
# number of rings (size 3 to 8) (size 9 to 14) (size 15 to 20)
#    0.000    2.333    0.000    3.500    0.000    2.000 
#    0.000   12.500    0.000    0.000    0.000    0.000 
#    0.000    0.000    0.000    0.000    0.000    0.000 
#
# Total GULP energy -297501.835431 kJ/mol
# GULP energy per Si atom -12395.909810 kJ/mol
# Density = 1.903225 g / cm^3
# Si number density = 19.075672 Si / 1000 Ang^3
#
#
#
# Elastic Constant Matrix: (Units=GPa)
#
#
# Indices 1 2 3 4 5 6 
#
# 1 120.4244 29.5114 89.0868 0.0000 0.0000 0.0000
# 2 29.5114 65.4775 51.6992 0.0000 0.0000 0.0000
# 3 89.0868 51.6992 174.8972 0.0000 0.0000 0.0000
# 4 0.0000 0.0000 0.0000 -3.0518 0.0000 0.0000
# 5 0.0000 0.0000 0.0000 0.0000 20.1481 0.0000
# 6 0.0000 0.0000 0.0000 0.0000 0.0000 16.1317
#
#
#
# Elastic Compliance Matrix: (Units=1/GPa)
#
#
# Indices 1 2 3 4 5 6 
#
# 1 0.013361 -0.000846 -0.006556 0.000000 0.000000 0.000000
# 2 -0.000846 0.019976 -0.005474 0.000000 0.000000 0.000000
# 3 -0.006556 -0.005474 0.010675 0.000000 0.000000 0.000000
# 4 0.000000 0.000000 0.000000 -0.327677 0.000000 0.000000
# 5 0.000000 0.000000 0.000000 0.000000 0.049633 0.000000
# 6 0.000000 0.000000 0.000000 0.000000 0.000000 0.061990
#
#
# Mechanical properties :
#
#
# Convention : Reuss Voigt Hill
#
# Bulk Modulus (GPa) = 54.76187 77.93263 66.34725
# Shear Modulus (GPa) = -35.66176 19.34572 -8.15802
#
# Velocity S-wave (km/s) = -4.32845 3.18804 -2.07025
# Velocity P-wave (km/s) = 1.94663 7.38205 5.39833
#
# Compressibility (1/GPa) = 0.01826088
#
# Stress axis : x y z
#
# Youngs Moduli (GPa) = 74.84541 50.06077 93.67756
#
# Poissons Ratio (x) = 0.04234 0.61411
# Poissons Ratio (y) = 0.06330 0.51279
# Poissons Ratio (z) = 0.49065 0.27403
#
# Static dielectric constant tensor:
#      x y z
#    x 3.684910 0.000000 0.000000 
#    y 0.000000 3.491170 0.000000 
#    z 0.000000 0.000000 3.603930 
# 
# 
# High freq. dielectric constant tensor:
#      x y z
#    x 1.748330 0.000000 0.000000 
#    y 0.000000 1.734620 0.000000 
#    z 0.000000 0.000000 1.734100 
# 
# From -- ./inp_files/3379.got.cif
#   From: 2010.03.12/outbox.cif.g09.slc.cpg/sg28_2_cif.got.tgz:3379.got - 2010.04.14 03:39:34.
