data_PCOD8168244
_publ_section_title
;
Structure prediction by ZEFSAII (Michael W. Deem and Ramdas Pophale) SiO2 
 PCOD8168244
Probable space group: P M A 2
;
_chemical_formula_sum "Si O2"
_cell_formula_units_Z 24
_cell_length_a 8.906734
_cell_length_b 13.939767
_cell_length_c 10.039156
_cell_angle_alpha 90.000000
_cell_angle_beta 90.000000
_cell_angle_gamma 90.000000
_cell_volume 1246.439490
_symmetry_space_group_name_H-M "P M A 2"
_symmetry_group_IT_number 28
_symmetry_cell_setting 'orthorhombic'
loop_
_space_group_symop_operation_xyz
x,y,z
-x,-y,z
1/2-x,y,z
1/2+x,-y,z
loop_
_atom_site_type_symbol
_atom_site_label
_atom_site_fract_x
_atom_site_fract_y
_atom_site_fract_z
Si Si1 0.077299 0.717794 0.972750
Si Si2 0.573874 0.401604 0.713988
Si Si3 0.426239 0.096610 0.902254
Si Si4 0.571484 0.704647 0.473033
Si Si5 0.573841 0.903672 0.597718
Si Si6 0.926956 0.396776 0.232336
O O1 0.250000 0.747410 0.985532
O O2 0.040492 0.674278 0.829227
O O3 0.980006 0.813806 0.990805
O O4 0.034665 0.640102 0.084548
O O5 0.500000 0.500000 0.761734
O O6 0.750000 0.415286 0.688270
O O7 0.493536 0.369227 0.579663
O O8 0.250000 0.086620 0.914725
O O9 0.479535 0.112575 0.749739
O O10 0.500000 0.000000 0.959970
O O11 0.750000 0.693469 0.468434
O O12 0.522535 0.812821 0.510409
O O13 0.499263 0.680380 0.331623
O O14 0.750000 0.917832 0.591855
O O15 0.500000 0.000000 0.538065
O O16 0.750000 0.404844 0.258083
O O17 0.000000 0.500000 0.254729
#
# Coordination Sequence:
#
# PCOD8168244 Si02
#       6
#     4   4   4   4   4   4
#     4  10  22  39  59  85 116 151 195 240 289 346
#     4  11  22  36  57  84 113 147 188 242 294 342
#     4  10  19  34  58  88 120 153 190 237 290 344
#     4  11  22  39  59  85 117 152 195 238 287 346
#     4   9  19  34  56  86 117 149 186 233 286 341
#     4  11  24  42  61  84 115 156 198 240 292 347
#
# _framework density 19.254845
#
# number of rings (size 3 to 8) (size 9 to 14) (size 15 to 20)
#    0.000    1.667    1.667    3.000    0.000    4.000 
#    0.000    0.833    0.000    2.000    0.000    0.000 
#    0.000    0.000    0.000    0.000    0.000    0.000 
#
# Total GULP energy -297712.315724 kJ/mol
# GULP energy per Si atom -12404.679822 kJ/mol
# Density = 1.921102 g / cm^3
# Si number density = 19.254845 Si / 1000 Ang^3
#
#
#
# Elastic Constant Matrix: (Units=GPa)
#
#
# Indices 1 2 3 4 5 6 
#
# 1 84.9230 53.3994 29.5090 0.0000 0.0000 0.0000
# 2 53.3994 131.9487 18.3504 0.0000 0.0000 0.0000
# 3 29.5090 18.3504 59.3463 0.0000 0.0000 0.0000
# 4 0.0000 0.0000 0.0000 28.5225 0.0000 0.0000
# 5 0.0000 0.0000 0.0000 0.0000 24.9653 0.0000
# 6 0.0000 0.0000 0.0000 0.0000 0.0000 41.1999
#
#
#
# Elastic Compliance Matrix: (Units=1/GPa)
#
#
# Indices 1 2 3 4 5 6 
#
# 1 0.018273 -0.006407 -0.007105 0.000000 0.000000 0.000000
# 2 -0.006407 0.010166 0.000042 0.000000 0.000000 0.000000
# 3 -0.007105 0.000042 0.020370 0.000000 0.000000 0.000000
# 4 0.000000 0.000000 0.000000 0.035060 0.000000 0.000000
# 5 0.000000 0.000000 0.000000 0.000000 0.040056 0.000000
# 6 0.000000 0.000000 0.000000 0.000000 0.000000 0.024272
#
#
# Mechanical properties :
#
#
# Convention : Reuss Voigt Hill
#
# Bulk Modulus (GPa) = 45.72514 53.19284 49.45899
# Shear Modulus (GPa) = 27.40863 30.60149 29.00506
#
# Velocity S-wave (km/s) = 3.77698 3.99091 3.88542
# Velocity P-wave (km/s) = 6.54367 6.99444 6.77281
#
# Compressibility (1/GPa) = 0.02186981
#
# Stress axis : x y z
#
# Youngs Moduli (GPa) = 54.72623 98.37033 49.09208
#
# Poissons Ratio (x) = 0.63025 0.34879
# Poissons Ratio (y) = 0.35062 -0.00208
# Poissons Ratio (z) = 0.38882 -0.00417
#
# Static dielectric constant tensor:
#      x y z
#    x 3.532500 0.000000 0.000000 
#    y 0.000000 3.607870 0.000000 
#    z 0.000000 0.000000 3.401410 
# 
# 
# High freq. dielectric constant tensor:
#      x y z
#    x 1.757110 0.000000 0.000000 
#    y 0.000000 1.762830 0.000000 
#    z 0.000000 0.000000 1.729930 
# 
# From -- ./inp_files/2439.got.cif
#   From: 2010.03.12/outbox.cif.g09.slc.cpg/sg28_2_cif.got.tgz:2439.got - 2010.04.14 03:39:34.
