data_PCOD8168035
_publ_section_title
;
Structure prediction by ZEFSAII (Michael W. Deem and Ramdas Pophale) SiO2 
 PCOD8168035
Probable space group: P M A 2
;
_chemical_formula_sum "Si O2"
_cell_formula_units_Z 24
_cell_length_a 8.550520
_cell_length_b 9.619095
_cell_length_c 15.735803
_cell_angle_alpha 90.000000
_cell_angle_beta 90.000000
_cell_angle_gamma 90.000000
_cell_volume 1294.242482
_symmetry_space_group_name_H-M "P M A 2"
_symmetry_group_IT_number 28
_symmetry_cell_setting 'orthorhombic'
loop_
_space_group_symop_operation_xyz
x,y,z
-x,-y,z
1/2-x,y,z
1/2+x,-y,z
loop_
_atom_site_type_symbol
_atom_site_label
_atom_site_fract_x
_atom_site_fract_y
_atom_site_fract_z
Si Si1 0.935241 0.654844 0.204600
Si Si2 0.433371 0.847450 0.713343
Si Si3 0.065572 0.653839 0.031156
Si Si4 0.432837 0.847383 0.527382
Si Si5 0.435507 0.654211 0.377807
Si Si6 0.065727 0.155974 0.884729
O O1 0.750000 0.657584 0.206694
O O2 0.000000 0.500000 0.203270
O O3 0.997130 0.724445 0.117540
O O4 0.002507 0.725592 0.290279
O O5 0.250000 0.850533 0.734492
O O6 0.468285 0.779450 0.620822
O O7 0.523202 0.775694 0.792507
O O8 0.500000 0.000000 0.704587
O O9 0.250000 0.643624 0.039029
O O10 0.000000 0.500000 0.014959
O O11 0.018216 0.752193 0.954624
O O12 0.250000 0.863164 0.514898
O O13 0.501787 0.744976 0.455969
O O14 0.500000 0.000000 0.515211
O O15 0.500000 0.500000 0.388991
O O16 0.250000 0.648699 0.375867
O O17 0.250000 0.156816 0.899588
O O18 0.000000 0.000000 0.889480
#
# Coordination Sequence:
#
# PCOD8168035 Si02
#       6
#     4   4   4   4   4   4
#     4  10  18  31  51  75 100 133 171 208 249 303
#     4   9  16  30  50  73  99 133 171 210 251 301
#     4  11  21  36  56  79 105 136 171 213 257 306
#     4   9  19  33  52  75 102 132 169 211 254 300
#     4  10  19  33  51  75 102 133 169 209 252 300
#     4  11  21  35  54  79 106 137 173 213 257 306
#
# _framework density 18.543665000000001
#
# number of rings (size 3 to 8) (size 9 to 14) (size 15 to 20)
#    0.000    2.000    0.000    8.500    0.000    2.000 
#    0.000    1.667    0.000    4.000    0.000    0.000 
#    0.000    0.000    0.000    0.000    0.000    0.000 
#
# Total GULP energy -297429.157076 kJ/mol
# GULP energy per Si atom -12392.881545 kJ/mol
# Density = 1.850146 g / cm^3
# Si number density = 18.543665 Si / 1000 Ang^3
#
#
#
# Elastic Constant Matrix: (Units=GPa)
#
#
# Indices 1 2 3 4 5 6 
#
# 1 102.2901 17.5072 36.4362 0.0000 0.0000 0.0000
# 2 17.5072 50.3348 53.0885 0.0000 0.0000 0.0000
# 3 36.4362 53.0885 181.8687 0.0000 0.0000 0.0000
# 4 0.0000 0.0000 0.0000 45.7224 0.0000 0.0000
# 5 0.0000 0.0000 0.0000 0.0000 243.8579 0.0000
# 6 0.0000 0.0000 0.0000 0.0000 0.0000 21.4205
#
#
#
# Elastic Compliance Matrix: (Units=1/GPa)
#
#
# Indices 1 2 3 4 5 6 
#
# 1 0.010680 -0.002106 -0.001525 0.000000 0.000000 0.000000
# 2 -0.002106 0.029120 -0.008078 0.000000 0.000000 0.000000
# 3 -0.001525 -0.008078 0.008162 0.000000 0.000000 0.000000
# 4 0.000000 0.000000 0.000000 0.021871 0.000000 0.000000
# 5 0.000000 0.000000 0.000000 0.000000 0.004101 0.000000
# 6 0.000000 0.000000 0.000000 0.000000 0.000000 0.046684
#
#
# Mechanical properties :
#
#
# Convention : Reuss Voigt Hill
#
# Bulk Modulus (GPa) = 40.74521 60.95083 50.84802
# Shear Modulus (GPa) = 32.84778 77.36429 55.10604
#
# Velocity S-wave (km/s) = 4.21334 6.46611 5.45724
# Velocity P-wave (km/s) = 6.75943 9.41741 8.19688
#
# Compressibility (1/GPa) = 0.02454276
#
# Stress axis : x y z
#
# Youngs Moduli (GPa) = 93.63504 34.34094 122.51869
#
# Poissons Ratio (x) = 0.07234 0.18681
# Poissons Ratio (y) = 0.19724 0.98973
# Poissons Ratio (z) = 0.14277 0.27741
#
# Static dielectric constant tensor:
#      x y z
#    x 3.465430 0.000000 0.000000 
#    y 0.000000 2.850900 0.000000 
#    z 0.000000 0.000000 4.689640 
# 
# 
# High freq. dielectric constant tensor:
#      x y z
#    x 1.736900 0.000000 0.000000 
#    y 0.000000 1.665170 0.000000 
#    z 0.000000 0.000000 1.751980 
# 
# From -- ./inp_files/6690.got.cif
#   From: 2010.03.12/outbox.cif.g09.slc.cpg/sg28_4_cif.got.tgz:6690.got - 2010.04.14 03:39:34.
