data_PCOD8168074
_publ_section_title
;
Structure prediction by ZEFSAII (Michael W. Deem and Ramdas Pophale) SiO2 
 PCOD8168074
Probable space group: P M A 2
;
_chemical_formula_sum "Si O2"
_cell_formula_units_Z 32
_cell_length_a 8.980764
_cell_length_b 15.197599
_cell_length_c 15.399143
_cell_angle_alpha 90.000000
_cell_angle_beta 90.000000
_cell_angle_gamma 90.000000
_cell_volume 2101.768201
_symmetry_space_group_name_H-M "P M A 2"
_symmetry_group_IT_number 28
_symmetry_cell_setting 'orthorhombic'
loop_
_space_group_symop_operation_xyz
x,y,z
-x,-y,z
1/2-x,y,z
1/2+x,-y,z
loop_
_atom_site_type_symbol
_atom_site_label
_atom_site_fract_x
_atom_site_fract_y
_atom_site_fract_z
Si Si1 0.574242 0.594502 0.533030
Si Si2 0.925327 0.736270 0.869792
Si Si3 0.577573 0.740578 0.669718
Si Si4 0.078813 0.591722 0.179278
Si Si5 0.925660 0.404655 0.990746
Si Si6 0.925981 0.404500 0.364684
Si Si7 0.081423 0.913651 0.871546
Si Si8 0.916651 0.085381 0.664769
O O1 0.500000 0.500000 0.549750
O O2 0.750000 0.582871 0.521818
O O3 0.533376 0.655125 0.614762
O O4 0.505862 0.642335 0.446651
O O5 0.750000 0.737251 0.886624
O O6 0.965566 0.721456 0.769102
O O7 0.000128 0.656754 0.920059
O O8 0.993185 0.827883 0.904199
O O9 0.750000 0.763638 0.661479
O O10 0.492389 0.825131 0.631776
O O11 0.250000 0.566983 0.182457
O O12 0.040236 0.642916 0.270410
O O13 0.000000 0.500000 0.178585
O O14 0.043254 0.638951 0.087060
O O15 0.750000 0.412987 0.972421
O O16 0.000000 0.500000 0.983447
O O17 0.750000 0.410851 0.382675
O O18 0.000000 0.500000 0.361125
O O19 0.250000 0.910310 0.907094
O O20 0.079653 0.917432 0.768247
O O21 0.000000 0.000000 0.909672
O O22 0.750000 0.083314 0.628531
O O23 0.000000 0.000000 0.626577
#
# Coordination Sequence:
#
# PCOD8168074 Si02
#       8
#     4   4   4   4   4   4   4   4
#     4  10  19  30  42  58  81 111 143 176 209 243
#     4  10  19  31  44  60  83 113 146 179 210 244
#     4   9  19  32  43  57  82 113 145 177 208 241
#     4   8  15  26  41  59  79 102 130 166 210 252
#     4  10  19  31  44  60  83 112 144 177 210 248
#     4   9  15  25  41  60  79 101 130 167 209 252
#     4   9  16  27  43  63  83 106 135 171 213 254
#     4   9  16  26  43  63  82 104 133 169 211 252
#
# _framework density 15.225274000000001
#
# number of rings (size 3 to 8) (size 9 to 14) (size 15 to 20)
#    0.000    2.750    0.000    3.000    0.000    6.000 
#    0.000    1.250    0.000    0.000    0.000    0.000 
#    0.000    1.000    0.000    5.250    0.000    4.750 
#
# Total GULP energy -396448.442439 kJ/mol
# GULP energy per Si atom -12389.013826 kJ/mol
# Density = 1.519062 g / cm^3
# Si number density = 15.225274 Si / 1000 Ang^3
#
#
#
# Elastic Constant Matrix: (Units=GPa)
#
#
# Indices 1 2 3 4 5 6 
#
# 1 97.5828 52.8465 47.0570 0.0000 0.0000 0.0000
# 2 52.8465 91.5109 50.8200 0.0000 0.0000 0.0000
# 3 47.0570 50.8200 81.4977 0.0000 0.0000 0.0000
# 4 0.0000 0.0000 0.0000 0.3245 0.0000 0.0000
# 5 0.0000 0.0000 0.0000 0.0000 16.4312 0.0000
# 6 0.0000 0.0000 0.0000 0.0000 0.0000 26.5648
#
#
#
# Elastic Compliance Matrix: (Units=1/GPa)
#
#
# Indices 1 2 3 4 5 6 
#
# 1 0.016346 -0.006422 -0.005433 0.000000 0.000000 0.000000
# 2 -0.006422 0.019240 -0.008289 0.000000 0.000000 0.000000
# 3 -0.005433 -0.008289 0.020577 0.000000 0.000000 0.000000
# 4 0.000000 0.000000 0.000000 3.081963 0.000000 0.000000
# 5 0.000000 0.000000 0.000000 0.000000 0.060860 0.000000
# 6 0.000000 0.000000 0.000000 0.000000 0.000000 0.037644
#
#
# Mechanical properties :
#
#
# Convention : Reuss Voigt Hill
#
# Bulk Modulus (GPa) = 63.00230 63.55983 63.28106
# Shear Modulus (GPa) = 1.52336 16.65527 9.08932
#
# Velocity S-wave (km/s) = 1.00136 3.31104 2.44599
# Velocity P-wave (km/s) = 6.54270 7.51360 7.04489
#
# Compressibility (1/GPa) = 0.01587244
#
# Stress axis : x y z
#
# Youngs Moduli (GPa) = 61.17786 51.97567 48.59890
#
# Poissons Ratio (x) = 0.33379 0.26406
# Poissons Ratio (y) = 0.39289 0.40285
# Poissons Ratio (z) = 0.33241 0.43084
#
# Static dielectric constant tensor:
#      x y z
#    x 3.113560 0.000000 0.000000 
#    y 0.000000 2.727210 0.000000 
#    z 0.000000 0.000000 3.320010 
# 
# 
# High freq. dielectric constant tensor:
#      x y z
#    x 1.603470 0.000000 0.000000 
#    y 0.000000 1.549300 0.000000 
#    z 0.000000 0.000000 1.563680 
# 
# From -- ./inp_files/6396.got.cif
#   From: 2010.03.12/outbox.cif.g09.slc.cpg/sg28_4_cif.got.tgz:6396.got - 2010.04.14 03:39:34.
