data_PCOD8168602
_publ_section_title
;
Structure prediction by ZEFSAII (Michael W. Deem and Ramdas Pophale) SiO2 
 PCOD8168602
Probable space group: P C A 21
;
_chemical_formula_sum "Si O2"
_cell_formula_units_Z 28
_cell_length_a 8.603291
_cell_length_b 12.392968
_cell_length_c 12.746402
_cell_angle_alpha 90.000000
_cell_angle_beta 90.000000
_cell_angle_gamma 90.000000
_cell_volume 1359.025333
_symmetry_space_group_name_H-M "P C A 21"
_symmetry_group_IT_number 29
_symmetry_cell_setting 'orthorhombic'
loop_
_space_group_symop_operation_xyz
x,y,z
-x,-y,1/2+z
1/2-x,y,1/2+z
1/2+x,-y,z
loop_
_atom_site_type_symbol
_atom_site_label
_atom_site_fract_x
_atom_site_fract_y
_atom_site_fract_z
Si Si1 0.513312 0.621845 0.586980
Si Si2 0.250000 0.512181 0.716489
Si Si3 0.513312 0.621845 0.345997
Si Si4 0.638621 0.074162 0.349766
Si Si5 0.981137 0.137416 0.640272
Si Si6 0.361379 0.925838 0.083212
Si Si7 0.481137 0.862584 0.292706
O O1 0.361174 0.590252 0.651537
O O2 0.662538 0.562907 0.633781
O O3 0.493745 0.587063 0.466489
O O4 0.537636 0.749562 0.594911
O O5 0.337463 0.437093 0.799196
O O6 0.138826 0.590252 0.781440
O O7 0.537636 0.749562 0.338066
O O8 0.541709 0.145949 0.266538
O O9 0.577915 0.101615 0.466489
O O10 0.820966 0.098540 0.344875
O O11 0.614702 0.948120 0.321952
O O12 0.820966 0.098540 0.588102
O O13 0.114702 0.051880 0.611025
O O14 0.458291 0.854051 0.166439
#
# Coordination Sequence:
#
# PCOD8168602 Si02
#       7
#     4   4   4   4   4   4   4
#     4  11  22  42  63  86 118 155 193 247 297 341
#     4  10  24  40  62  90 114 148 204 246 292 354
#     4  11  22  42  63  86 118 155 193 247 297 341
#     4  10  19  35  54  81 115 150 185 230 277 337
#     4  10  22  35  56  84 114 149 191 227 280 348
#     4  10  19  35  54  81 115 150 185 230 277 337
#     4  10  22  35  56  84 114 149 191 227 280 348
#
# _framework density 20.603002
#
# number of rings (size 3 to 8) (size 9 to 14) (size 15 to 20)
#    0.000    1.714    0.000    5.143    0.000    4.571 
#    0.000   10.000    0.000    0.000    0.000    0.000 
#    0.000    0.000    0.000    0.000    0.000    0.000 
#
# Total GULP energy -347285.127457 kJ/mol
# GULP energy per Si atom -12403.040266 kJ/mol
# Density = 2.055611 g / cm^3
# Si number density = 20.603002 Si / 1000 Ang^3
#
#
#
# Elastic Constant Matrix: (Units=GPa)
#
#
# Indices 1 2 3 4 5 6 
#
# 1 21.6309 12.9765 5.6129 0.0000 0.0000 0.0000
# 2 12.9765 84.7196 12.6099 0.0000 0.0000 0.0000
# 3 5.6129 12.6099 163.3849 0.0000 0.0000 0.0000
# 4 0.0000 0.0000 0.0000 13.6693 0.0000 0.0000
# 5 0.0000 0.0000 0.0000 0.0000 15.2313 0.0000
# 6 0.0000 0.0000 0.0000 0.0000 0.0000 19.0018
#
#
#
# Elastic Compliance Matrix: (Units=1/GPa)
#
#
# Indices 1 2 3 4 5 6 
#
# 1 0.051126 -0.007658 -0.001165 0.000000 0.000000 0.000000
# 2 -0.007658 0.013088 -0.000747 0.000000 0.000000 0.000000
# 3 -0.001165 -0.000747 0.006218 0.000000 0.000000 0.000000
# 4 0.000000 0.000000 0.000000 0.073157 0.000000 0.000000
# 5 0.000000 0.000000 0.000000 0.000000 0.065654 0.000000
# 6 0.000000 0.000000 0.000000 0.000000 0.000000 0.052627
#
#
# Mechanical properties :
#
#
# Convention : Reuss Voigt Hill
#
# Bulk Modulus (GPa) = 19.49608 36.90379 28.19993
# Shear Modulus (GPa) = 16.77249 25.48289 21.12769
#
# Velocity S-wave (km/s) = 2.85630 3.52071 3.20576
# Velocity P-wave (km/s) = 4.51234 5.87179 5.23637
#
# Compressibility (1/GPa) = 0.05129237
#
# Stress axis : x y z
#
# Youngs Moduli (GPa) = 19.55938 76.40739 160.81804
#
# Poissons Ratio (x) = 0.58509 0.18742
# Poissons Ratio (y) = 0.14978 0.12014
# Poissons Ratio (z) = 0.02279 0.05708
#
# Static dielectric constant tensor:
#      x y z
#    x 3.611260 0.000000 0.000000 
#    y 0.000000 3.589330 0.000000 
#    z 0.000000 0.000000 4.063580 
# 
# 
# High freq. dielectric constant tensor:
#      x y z
#    x 1.798130 0.000000 0.000000 
#    y 0.000000 1.796130 0.000000 
#    z 0.000000 0.000000 1.826950 
# 
# From -- ./inp_files/2858.got.cif
#   From: 2010.03.12/outbox.cif.g09.slc.cpg/sg29_2_cif.got.tgz:2858.got - 2010.04.14 03:43:10.
