data_PCOD8168927
_publ_section_title
;
Structure prediction by ZEFSAII (Michael W. Deem and Ramdas Pophale) SiO2 
 PCOD8168927
Probable space group: P C A 21
;
_chemical_formula_sum "Si O2"
_cell_formula_units_Z 32
_cell_length_a 13.940716
_cell_length_b 10.464478
_cell_length_c 9.225874
_cell_angle_alpha 90.000000
_cell_angle_beta 90.000000
_cell_angle_gamma 90.000000
_cell_volume 1345.891865
_symmetry_space_group_name_H-M "P C A 21"
_symmetry_group_IT_number 29
_symmetry_cell_setting 'orthorhombic'
loop_
_space_group_symop_operation_xyz
x,y,z
-x,-y,1/2+z
1/2-x,y,1/2+z
1/2+x,-y,z
loop_
_atom_site_type_symbol
_atom_site_label
_atom_site_fract_x
_atom_site_fract_y
_atom_site_fract_z
Si Si1 0.582481 0.059400 0.013940
Si Si2 0.873160 0.218413 0.967075
Si Si3 0.375314 0.489873 0.649012
Si Si4 0.707169 0.690536 0.613426
Si Si5 0.428920 0.023883 0.813861
Si Si6 0.230715 0.133555 0.870318
Si Si7 0.941775 0.501050 0.969801
Si Si8 0.282668 0.751832 0.675636
O O1 0.531623 0.987427 0.150368
O O2 0.633338 0.179250 0.087244
O O3 0.500481 0.116214 0.904621
O O4 0.651543 0.965342 0.924016
O O5 0.941924 0.104934 0.913533
O O6 0.929732 0.349392 0.983768
O O7 0.788009 0.225408 0.847092
O O8 0.819655 0.195181 0.120152
O O9 0.315422 0.363489 0.613823
O O10 0.450408 0.525849 0.523425
O O11 0.429232 0.463435 0.801340
O O12 0.295806 0.600802 0.653038
O O13 0.708970 0.804152 0.499477
O O14 0.683120 0.756938 0.768300
O O15 0.629848 0.582415 0.572009
O O16 0.317043 0.058515 0.790161
#
# Coordination Sequence:
#
# PCOD8168927 Si02
#       8
#     4   4   4   4   4   4   4   4
#     4  11  26  44  70 103 137 184 231 290 351 419
#     4  10  22  42  67  94 129 171 224 275 337 407
#     4  11  26  44  68 103 138 181 234 286 354 416
#     4  12  26  45  71 100 143 188 235 288 356 423
#     4  11  26  44  68 103 138 181 234 286 354 416
#     4  12  26  45  71 100 143 188 235 288 356 423
#     4  11  26  44  70 103 137 184 231 290 351 419
#     4  10  22  42  67  94 129 171 224 275 337 407
#
# _framework density 23.776057000000002
#
# number of rings (size 3 to 8) (size 9 to 14) (size 15 to 20)
#    0.000    1.000    5.000    0.000    7.000    3.000 
#    0.000    0.000    0.000    0.000    0.000    0.000 
#    0.000    0.000    0.000    0.000    0.000    0.000 
#
# Total GULP energy -396645.366149 kJ/mol
# GULP energy per Si atom -12395.167692 kJ/mol
# Density = 2.372194 g / cm^3
# Si number density = 23.776057 Si / 1000 Ang^3
#
#
#
# Elastic Constant Matrix: (Units=GPa)
#
#
# Indices 1 2 3 4 5 6 
#
# 1 62.0329 -1.9731 22.7385 0.0000 0.0000 0.0000
# 2 -1.9731 61.7063 4.4898 0.0000 0.0000 0.0000
# 3 22.7385 4.4898 85.8542 0.0000 0.0000 0.0000
# 4 0.0000 0.0000 0.0000 37.3692 0.0000 0.0000
# 5 0.0000 0.0000 0.0000 0.0000 43.3243 0.0000
# 6 0.0000 0.0000 0.0000 0.0000 0.0000 19.5139
#
#
#
# Elastic Compliance Matrix: (Units=1/GPa)
#
#
# Indices 1 2 3 4 5 6 
#
# 1 0.017906 0.000921 -0.004791 0.000000 0.000000 0.000000
# 2 0.000921 0.016315 -0.001097 0.000000 0.000000 0.000000
# 3 -0.004791 -0.001097 0.012974 0.000000 0.000000 0.000000
# 4 0.000000 0.000000 0.000000 0.026760 0.000000 0.000000
# 5 0.000000 0.000000 0.000000 0.000000 0.023082 0.000000
# 6 0.000000 0.000000 0.000000 0.000000 0.000000 0.051246
#
#
# Mechanical properties :
#
#
# Convention : Reuss Voigt Hill
#
# Bulk Modulus (GPa) = 26.83735 28.90044 27.86889
# Shear Modulus (GPa) = 29.30220 32.33068 30.81644
#
# Velocity S-wave (km/s) = 3.51440 3.69155 3.60406
# Velocity P-wave (km/s) = 5.27068 5.50924 5.39128
#
# Compressibility (1/GPa) = 0.03726150
#
# Stress axis : x y z
#
# Youngs Moduli (GPa) = 55.84789 61.29297 77.07840
#
# Poissons Ratio (x) = -0.05646 0.36925
# Poissons Ratio (y) = -0.05144 0.08457
# Poissons Ratio (z) = 0.26754 0.06725
#
# Static dielectric constant tensor:
#      x y z
#    x 3.901840 0.000000 0.000000 
#    y 0.000000 4.267210 0.000000 
#    z 0.000000 0.000000 4.543220 
# 
# 
# High freq. dielectric constant tensor:
#      x y z
#    x 1.927680 0.000000 0.000000 
#    y 0.000000 1.943420 0.000000 
#    z 0.000000 0.000000 1.956530 
# 
# From -- ./inp_files/1868.got.cif
#   From: 2010.03.12/outbox.cif.g09.slc.cpg/sg29_1_cif.got.tgz:1868.got - 2010.04.14 03:43:10.
