data_PCOD8168964
_publ_section_title
;
Structure prediction by ZEFSAII (Michael W. Deem and Ramdas Pophale) SiO2 
 PCOD8168964
Probable space group: P C A 21
;
_chemical_formula_sum "Si O2"
_cell_formula_units_Z 32
_cell_length_a 18.853951
_cell_length_b 6.601566
_cell_length_c 12.699611
_cell_angle_alpha 90.000000
_cell_angle_beta 90.000000
_cell_angle_gamma 90.000000
_cell_volume 1580.664727
_symmetry_space_group_name_H-M "P C A 21"
_symmetry_group_IT_number 29
_symmetry_cell_setting 'orthorhombic'
loop_
_space_group_symop_operation_xyz
x,y,z
-x,-y,1/2+z
1/2-x,y,1/2+z
1/2+x,-y,z
loop_
_atom_site_type_symbol
_atom_site_label
_atom_site_fract_x
_atom_site_fract_y
_atom_site_fract_z
Si Si1 0.673785 0.392543 0.900310
Si Si2 0.301575 0.279664 0.570363
Si Si3 0.277086 0.893791 0.006373
Si Si4 0.926163 0.032283 0.915492
Si Si5 0.571490 0.916028 0.176549
Si Si6 0.031178 0.633653 0.568463
Si Si7 0.180803 0.561212 0.656591
Si Si8 0.043469 0.758759 0.006816
O O1 0.745696 0.270518 0.925390
O O2 0.676827 0.458142 0.780743
O O3 0.603945 0.256318 0.917719
O O4 0.667283 0.588371 0.975086
O O5 0.362225 0.236330 0.657805
O O6 0.233521 0.383885 0.622111
O O7 0.280291 0.065174 0.523062
O O8 0.346754 0.994797 0.957516
O O9 0.292405 0.781746 0.117845
O O10 0.927523 0.019388 0.790147
O O11 0.956667 0.246821 0.957776
O O12 0.971878 0.846436 0.958219
O O13 0.498710 0.791117 0.155963
O O14 0.576295 0.104248 0.097921
O O15 0.103032 0.527116 0.607776
O O16 0.972789 0.462765 0.551647
#
# Coordination Sequence:
#
# PCOD8168964 Si02
#       8
#     4   4   4   4   4   4   4   4
#     4  11  23  39  64  93 127 167 209 261 317 375
#     4  11  23  41  61  95 127 163 213 259 312 380
#     4  10  23  43  60  92 130 162 214 265 307 382
#     4  10  24  39  66  93 123 173 211 260 324 371
#     4  11  23  40  66  96 127 167 212 264 318 375
#     4  10  22  46  61  96 131 160 220 262 309 388
#     4  10  24  41  65  93 125 169 207 257 318 374
#     4  11  22  43  63  92 130 163 210 268 309 377
#
# _framework density 20.244647000000001
#
# number of rings (size 3 to 8) (size 9 to 14) (size 15 to 20)
#    0.000    1.500    2.500    1.500    3.500    2.000 
#    0.000    0.000    0.000    0.000    0.000    0.000 
#    0.000    0.000    0.000    0.000    0.000    0.000 
#
# Total GULP energy -396865.404913 kJ/mol
# GULP energy per Si atom -12402.043904 kJ/mol
# Density = 2.019857 g / cm^3
# Si number density = 20.244647 Si / 1000 Ang^3
#
#
#
# Elastic Constant Matrix: (Units=GPa)
#
#
# Indices 1 2 3 4 5 6 
#
# 1 111.0913 34.2098 40.2486 0.0000 0.0000 0.0000
# 2 34.2098 76.7766 38.3039 0.0000 0.0000 0.0000
# 3 40.2486 38.3039 134.9882 0.0000 0.0000 0.0000
# 4 0.0000 0.0000 0.0000 15.1140 0.0000 0.0000
# 5 0.0000 0.0000 0.0000 0.0000 9.1891 0.0000
# 6 0.0000 0.0000 0.0000 0.0000 0.0000 39.3781
#
#
#
# Elastic Compliance Matrix: (Units=1/GPa)
#
#
# Indices 1 2 3 4 5 6 
#
# 1 0.010964 -0.003791 -0.002193 0.000000 0.000000 0.000000
# 2 -0.003791 0.016484 -0.003547 0.000000 0.000000 0.000000
# 3 -0.002193 -0.003547 0.009069 0.000000 0.000000 0.000000
# 4 0.000000 0.000000 0.000000 0.066164 0.000000 0.000000
# 5 0.000000 0.000000 0.000000 0.000000 0.108824 0.000000
# 6 0.000000 0.000000 0.000000 0.000000 0.000000 0.025395
#
#
# Mechanical properties :
#
#
# Convention : Reuss Voigt Hill
#
# Bulk Modulus (GPa) = 57.29574 60.93118 59.11346
# Shear Modulus (GPa) = 19.10012 26.74251 22.92131
#
# Velocity S-wave (km/s) = 3.07492 3.63845 3.36849
# Velocity P-wave (km/s) = 6.40078 6.91476 6.66273
#
# Compressibility (1/GPa) = 0.01745330
#
# Stress axis : x y z
#
# Youngs Moduli (GPa) = 91.21090 60.66653 110.27181
#
# Poissons Ratio (x) = 0.22998 0.24185
# Poissons Ratio (y) = 0.34577 0.39114
# Poissons Ratio (z) = 0.20005 0.21519
#
# Static dielectric constant tensor:
#      x y z
#    x 3.848320 0.000000 0.000000 
#    y 0.000000 3.634220 0.000000 
#    z 0.000000 0.000000 3.470860 
# 
# 
# High freq. dielectric constant tensor:
#      x y z
#    x 1.811690 0.000000 0.000000 
#    y 0.000000 1.794470 0.000000 
#    z 0.000000 0.000000 1.775820 
# 
# From -- ./inp_files/3812.got.cif
#   From: 2010.03.12/outbox.cif.g09.slc.cpg/sg29_2_cif.got.tgz:3812.got - 2010.04.14 03:43:10.
