data_PCOD8168243
_publ_section_title
;
Structure prediction by ZEFSAII (Michael W. Deem and Ramdas Pophale) SiO2 
 PCOD8168243
Probable space group: P M A 2
;
_chemical_formula_sum "Si O2"
_cell_formula_units_Z 32
_cell_length_a 8.997600
_cell_length_b 23.801094
_cell_length_c 7.680511
_cell_angle_alpha 90.000000
_cell_angle_beta 90.000000
_cell_angle_gamma 90.000000
_cell_volume 1644.802348
_symmetry_space_group_name_H-M "P M A 2"
_symmetry_group_IT_number 28
_symmetry_cell_setting 'orthorhombic'
loop_
_space_group_symop_operation_xyz
x,y,z
-x,-y,z
1/2-x,y,z
1/2+x,-y,z
loop_
_atom_site_type_symbol
_atom_site_label
_atom_site_fract_x
_atom_site_fract_y
_atom_site_fract_z
Si Si1 0.923995 0.944783 0.094150
Si Si2 0.575175 0.640699 0.281343
Si Si3 0.921610 0.173797 0.608993
Si Si4 0.425691 0.759884 0.268209
Si Si5 0.923760 0.557550 0.584627
Si Si6 0.577551 0.824441 0.956772
Si Si7 0.923817 0.557581 0.978144
Si Si8 0.076751 0.945345 0.462273
O O1 0.750000 0.956023 0.119784
O O2 0.998388 0.932792 0.279514
O O3 0.953784 0.890884 0.974287
O O4 0.000000 0.000000 0.007892
O O5 0.750000 0.654288 0.280562
O O6 0.482027 0.696988 0.283467
O O7 0.527611 0.606594 0.453689
O O8 0.527346 0.606728 0.108712
O O9 0.750000 0.187174 0.646999
O O10 0.977772 0.206254 0.438497
O O11 0.947752 0.107361 0.587262
O O12 0.019009 0.195504 0.769621
O O13 0.250000 0.760842 0.249160
O O14 0.493087 0.789495 0.101249
O O15 0.750000 0.546672 0.571197
O O16 0.970964 0.574618 0.781365
O O17 0.000000 0.500000 0.525900
O O18 0.750000 0.809926 0.972875
O O19 0.750000 0.546789 0.991882
O O20 0.000000 0.500000 0.036855
O O21 0.250000 0.956898 0.428823
O O22 0.000000 0.000000 0.550053
#
# Coordination Sequence:
#
# PCOD8168243 Si02
#       8
#     4   4   4   4   4   4   4   4
#     4  10  20  34  56  86 116 148 186 230 286 348
#     4  10  21  36  55  81 113 149 190 235 284 337
#     4  10  23  41  61  84 114 153 192 238 294 348
#     4  11  24  43  62  83 115 153 198 247 294 344
#     4   9  18  33  54  81 114 148 182 227 278 332
#     4  11  24  40  62  88 114 150 194 241 292 350
#     4   9  18  33  54  82 116 149 185 228 279 335
#     4  10  19  34  57  85 116 150 186 232 289 346
#
# _framework density 19.455224000000001
#
# number of rings (size 3 to 8) (size 9 to 14) (size 15 to 20)
#    0.000    2.000    1.250    2.625    0.000    6.000 
#    0.000    3.750    0.000    0.000    0.000    0.000 
#    0.000    0.000    0.000    0.000    0.000    0.000 
#
# Total GULP energy -396865.274564 kJ/mol
# GULP energy per Si atom -12402.039830 kJ/mol
# Density = 1.941094 g / cm^3
# Si number density = 19.455224 Si / 1000 Ang^3
#
#
#
# Elastic Constant Matrix: (Units=GPa)
#
#
# Indices 1 2 3 4 5 6 
#
# 1 83.5267 55.8964 51.8535 0.0000 0.0000 0.0000
# 2 55.8964 125.2316 69.1675 0.0000 0.0000 0.0000
# 3 51.8535 69.1675 127.3919 0.0000 0.0000 0.0000
# 4 0.0000 0.0000 0.0000 -4.8564 0.0000 0.0000
# 5 0.0000 0.0000 0.0000 0.0000 16.5585 0.0000
# 6 0.0000 0.0000 0.0000 0.0000 0.0000 37.2641
#
#
#
# Elastic Compliance Matrix: (Units=1/GPa)
#
#
# Indices 1 2 3 4 5 6 
#
# 1 0.018642 -0.005899 -0.004385 0.000000 0.000000 0.000000
# 2 -0.005899 0.013272 -0.004805 0.000000 0.000000 0.000000
# 3 -0.004385 -0.004805 0.012244 0.000000 0.000000 0.000000
# 4 0.000000 0.000000 0.000000 -0.205914 0.000000 0.000000
# 5 0.000000 0.000000 0.000000 0.000000 0.060392 0.000000
# 6 0.000000 0.000000 0.000000 0.000000 0.000000 0.026835
#
#
# Mechanical properties :
#
#
# Convention : Reuss Voigt Hill
#
# Bulk Modulus (GPa) = 71.53280 76.66500 74.09890
# Shear Modulus (GPa) = -125.97482 20.40876 -52.78303
#
# Velocity S-wave (km/s) = -8.05554 3.24236 -5.21435
# Velocity P-wave (km/s) = 7.04802 7.31496 1.38457
#
# Compressibility (1/GPa) = 0.01397960
#
# Stress axis : x y z
#
# Youngs Moduli (GPa) = 53.64208 75.34695 81.67471
#
# Poissons Ratio (x) = 0.44445 0.35817
# Poissons Ratio (y) = 0.31642 0.39245
# Poissons Ratio (z) = 0.23524 0.36204
#
# Static dielectric constant tensor:
#      x y z
#    x 3.552830 0.000000 0.000000 
#    y 0.000000 3.638600 0.000000 
#    z 0.000000 0.000000 3.635950 
# 
# 
# High freq. dielectric constant tensor:
#      x y z
#    x 1.759560 0.000000 0.000000 
#    y 0.000000 1.756010 0.000000 
#    z 0.000000 0.000000 1.761150 
# 
# From -- ./inp_files/2748.got.cif
#   From: 2010.03.12/outbox.cif.g09.slc.cpg/sg28_2_cif.got.tgz:2748.got - 2010.04.14 03:39:34.
