data_PCOD8168926
_publ_section_title
;
Structure prediction by ZEFSAII (Michael W. Deem and Ramdas Pophale) SiO2 
 PCOD8168926
Probable space group: P C A 21
;
_chemical_formula_sum "Si O2"
_cell_formula_units_Z 28
_cell_length_a 11.624966
_cell_length_b 10.313345
_cell_length_c 10.403126
_cell_angle_alpha 90.000000
_cell_angle_beta 90.000000
_cell_angle_gamma 90.000000
_cell_volume 1247.254547
_symmetry_space_group_name_H-M "P C A 21"
_symmetry_group_IT_number 29
_symmetry_cell_setting 'orthorhombic'
loop_
_space_group_symop_operation_xyz
x,y,z
-x,-y,1/2+z
1/2-x,y,1/2+z
1/2+x,-y,z
loop_
_atom_site_type_symbol
_atom_site_label
_atom_site_fract_x
_atom_site_fract_y
_atom_site_fract_z
Si Si1 0.826579 0.759101 0.572900
Si Si2 0.455997 0.600218 0.067891
Si Si3 0.593521 0.032694 0.069235
Si Si4 0.594562 0.032367 0.354861
Si Si5 0.456718 0.600208 0.355347
Si Si6 0.825638 0.758893 0.849182
Si Si7 0.249538 0.747811 0.961924
O O1 0.779620 0.707659 0.710819
O O2 0.750865 0.693586 0.460758
O O3 0.960077 0.723784 0.556356
O O4 0.815951 0.914397 0.568263
O O5 0.463673 0.538741 0.211590
O O6 0.499598 0.500081 0.961527
O O7 0.326923 0.651984 0.048155
O O8 0.536584 0.043613 0.212320
O O9 0.664719 0.164144 0.046823
O O10 0.498929 0.000573 0.962540
O O11 0.665772 0.163805 0.377204
O O12 0.685162 0.914165 0.354169
O O13 0.540967 0.723496 0.366638
O O14 0.327778 0.652205 0.375433
#
# Coordination Sequence:
#
# PCOD8168926 Si02
#       7
#     4   4   4   4   4   4   4
#     4  10  22  42  66  99 137 178 225 283 344 414
#     4  11  27  48  69  99 139 186 242 293 345 415
#     4  11  23  40  67 102 140 177 218 278 347 418
#     4  11  23  40  67 102 140 177 218 278 347 418
#     4  11  27  48  69  99 139 186 242 293 345 415
#     4  10  22  42  66  99 137 178 225 283 344 414
#     4  12  24  46  74 106 140 184 236 290 358 426
#
# _framework density 22.449307999999998
#
# number of rings (size 3 to 8) (size 9 to 14) (size 15 to 20)
#    0.000    1.143    4.286    0.857    2.000    5.714 
#    0.000    0.000    0.000    0.000    0.000    0.000 
#    0.000    0.000    0.000    0.000    0.000    0.000 
#
# Total GULP energy -347042.462695 kJ/mol
# GULP energy per Si atom -12394.373668 kJ/mol
# Density = 2.239821 g / cm^3
# Si number density = 22.449308 Si / 1000 Ang^3
#
#
#
# Elastic Constant Matrix: (Units=GPa)
#
#
# Indices 1 2 3 4 5 6 
#
# 1 121.1597 27.7923 90.7723 0.0000 0.0000 0.0000
# 2 27.7923 88.8014 54.8589 0.0000 0.0000 0.0000
# 3 90.7723 54.8589 229.4825 0.0000 0.0000 0.0000
# 4 0.0000 0.0000 0.0000 29.6770 0.0000 0.0000
# 5 0.0000 0.0000 0.0000 0.0000 40.3695 0.0000
# 6 0.0000 0.0000 0.0000 0.0000 0.0000 41.2256
#
#
#
# Elastic Compliance Matrix: (Units=1/GPa)
#
#
# Indices 1 2 3 4 5 6 
#
# 1 0.011797 -0.000950 -0.004439 0.000000 0.000000 0.000000
# 2 -0.000950 0.013289 -0.002801 0.000000 0.000000 0.000000
# 3 -0.004439 -0.002801 0.006783 0.000000 0.000000 0.000000
# 4 0.000000 0.000000 0.000000 0.033696 0.000000 0.000000
# 5 0.000000 0.000000 0.000000 0.000000 0.024771 0.000000
# 6 0.000000 0.000000 0.000000 0.000000 0.000000 0.024257
#
#
# Mechanical properties :
#
#
# Convention : Reuss Voigt Hill
#
# Bulk Modulus (GPa) = 64.56205 87.36560 75.96382
# Shear Modulus (GPa) = 36.72768 39.98908 38.35838
#
# Velocity S-wave (km/s) = 4.04917 4.22513 4.13809
# Velocity P-wave (km/s) = 7.11917 7.92487 7.53280
#
# Compressibility (1/GPa) = 0.01548898
#
# Stress axis : x y z
#
# Youngs Moduli (GPa) = 84.76405 75.25173 147.42112
#
# Poissons Ratio (x) = 0.07147 0.65447
# Poissons Ratio (y) = 0.08050 0.41294
# Poissons Ratio (z) = 0.37631 0.21079
#
# Static dielectric constant tensor:
#      x y z
#    x 3.853490 0.000000 0.000000 
#    y 0.000000 3.879940 0.000000 
#    z 0.000000 0.000000 4.386430 
# 
# 
# High freq. dielectric constant tensor:
#      x y z
#    x 1.871290 0.000000 0.000000 
#    y 0.000000 1.873370 0.000000 
#    z 0.000000 0.000000 1.903040 
# 
# From -- ./inp_files/1480.got.cif
#   From: 2010.03.12/outbox.cif.g09.slc.cpg/sg29_1_cif.got.tgz:1480.got - 2010.04.14 03:43:10.
