data_PCOD8168058
_publ_section_title
;
Structure prediction by ZEFSAII (Michael W. Deem and Ramdas Pophale) SiO2 
 PCOD8168058
Probable space group: P M A 2
;
_chemical_formula_sum "Si O2"
_cell_formula_units_Z 18
_cell_length_a 13.682161
_cell_length_b 9.107731
_cell_length_c 7.716416
_cell_angle_alpha 90.000000
_cell_angle_beta 90.000000
_cell_angle_gamma 90.000000
_cell_volume 961.569157
_symmetry_space_group_name_H-M "P M A 2"
_symmetry_group_IT_number 28
_symmetry_cell_setting 'orthorhombic'
loop_
_space_group_symop_operation_xyz
x,y,z
-x,-y,z
1/2-x,y,z
1/2+x,-y,z
loop_
_atom_site_type_symbol
_atom_site_label
_atom_site_fract_x
_atom_site_fract_y
_atom_site_fract_z
Si Si1 0.750000 0.206819 0.271170
Si Si2 0.040441 0.662683 0.236415
Si Si3 0.546844 0.840444 0.542155
Si Si4 0.031388 0.832554 0.899544
Si Si5 0.250000 0.041238 0.554929
Si Si6 0.250000 0.886258 0.900614
O O1 0.842569 0.316121 0.254459
O O2 0.750000 0.114787 0.450777
O O3 0.750000 0.087337 0.110630
O O4 0.000000 0.500000 0.221928
O O5 0.994680 0.728798 0.406744
O O6 0.998637 0.743234 0.067141
O O7 0.526556 0.773546 0.732385
O O8 0.660211 0.858070 0.502513
O O9 0.500000 0.000000 0.525719
O O10 0.147229 0.805141 0.861067
O O11 0.000000 0.000000 0.935267
O O12 0.250000 0.021435 0.765059
#
# Coordination Sequence:
#
# PCOD8168058 Si02
#       6
#     2   4   4   4   2   2
#     4  10  22  37  61  82 118 161 192 237 296 355
#     4  11  24  40  58  86 125 161 194 232 295 361
#     4  11  21  36  62  89 114 150 197 252 289 338
#     4  10  20  36  60  86 115 148 199 243 294 337
#     4  12  20  35  60  96 115 143 201 254 295 336
#     4  10  18  32  55  88 111 144 185 245 295 341
#
# _framework density 18.719401000000001
#
# number of rings (size 3 to 8) (size 9 to 14) (size 15 to 20)
#    0.000    1.333    6.667    0.667    3.111    1.778 
#    0.000    2.222    0.000    2.667    0.000    0.000 
#    0.000    0.000    0.000    0.000    0.000    0.000 
#
# Total GULP energy -223009.559284 kJ/mol
# GULP energy per Si atom -12389.419960 kJ/mol
# Density = 1.867679 g / cm^3
# Si number density = 18.719401 Si / 1000 Ang^3
#
#
#
# Elastic Constant Matrix: (Units=GPa)
#
#
# Indices 1 2 3 4 5 6 
#
# 1 133.6439 40.9089 44.9582 0.0000 0.0000 0.0000
# 2 40.9089 87.7817 74.8009 0.0000 0.0000 0.0000
# 3 44.9582 74.8009 143.2987 0.0000 0.0000 0.0000
# 4 0.0000 0.0000 0.0000 -6.7311 0.0000 0.0000
# 5 0.0000 0.0000 0.0000 0.0000 -32.0129 0.0000
# 6 0.0000 0.0000 0.0000 0.0000 0.0000 24.2404
#
#
#
# Elastic Compliance Matrix: (Units=1/GPa)
#
#
# Indices 1 2 3 4 5 6 
#
# 1 0.008826 -0.003159 -0.001120 0.000000 0.000000 0.000000
# 2 -0.003159 0.021649 -0.010310 0.000000 0.000000 0.000000
# 3 -0.001120 -0.010310 0.012711 0.000000 0.000000 0.000000
# 4 0.000000 0.000000 0.000000 -0.148565 0.000000 0.000000
# 5 0.000000 0.000000 0.000000 0.000000 -0.031237 0.000000
# 6 0.000000 0.000000 0.000000 0.000000 0.000000 0.041253
#
#
# Mechanical properties :
#
#
# Convention : Reuss Voigt Hill
#
# Bulk Modulus (GPa) = 71.37994 76.22889 73.80442
# Shear Modulus (GPa) = -81.28078 10.70305 -35.28886
#
# Velocity S-wave (km/s) = -6.59658 2.39375 -4.34654
# Velocity P-wave (km/s) = 4.45034 6.96063 3.78449
#
# Compressibility (1/GPa) = 0.01400954
#
# Stress axis : x y z
#
# Youngs Moduli (GPa) = 113.29732 46.19145 78.66893
#
# Poissons Ratio (x) = 0.14590 0.08814
# Poissons Ratio (y) = 0.35787 0.81105
# Poissons Ratio (z) = 0.12693 0.47622
#
# Static dielectric constant tensor:
#      x y z
#    x 5.003880 0.000000 0.000000 
#    y 0.000000 1.807510 0.000000 
#    z 0.000000 0.000000 3.916130 
# 
# 
# High freq. dielectric constant tensor:
#      x y z
#    x 1.746190 0.000000 0.000000 
#    y 0.000000 1.669100 0.000000 
#    z 0.000000 0.000000 1.753120 
# 
# From -- ./inp_files/2932.got.cif
#   From: 2010.03.12/outbox.cif.g09.slc.cpg/sg28_2_cif.got.tgz:2932.got - 2010.04.14 03:39:34.
