data_PCOD8168023
_publ_section_title
;
Structure prediction by ZEFSAII (Michael W. Deem and Ramdas Pophale) SiO2 
 PCOD8168023
Probable space group: P M A 2
;
_chemical_formula_sum "Si O2"
_cell_formula_units_Z 28
_cell_length_a 8.643021
_cell_length_b 9.352188
_cell_length_c 17.955942
_cell_angle_alpha 90.000000
_cell_angle_beta 90.000000
_cell_angle_gamma 90.000000
_cell_volume 1451.399572
_symmetry_space_group_name_H-M "P M A 2"
_symmetry_group_IT_number 28
_symmetry_cell_setting 'orthorhombic'
loop_
_space_group_symop_operation_xyz
x,y,z
-x,-y,z
1/2-x,y,z
1/2+x,-y,z
loop_
_atom_site_type_symbol
_atom_site_label
_atom_site_fract_x
_atom_site_fract_y
_atom_site_fract_z
Si Si1 0.931426 0.656897 0.508160
Si Si2 0.069351 0.155261 0.364781
Si Si3 0.933231 0.843183 0.065561
Si Si4 0.433015 0.843293 0.639346
Si Si5 0.933184 0.158912 0.214777
Si Si6 0.566492 0.653074 0.764418
Si Si7 0.068014 0.351350 0.932880
O O1 0.750000 0.649575 0.526050
O O2 0.966701 0.739769 0.432330
O O3 0.000000 0.500000 0.500583
O O4 0.016363 0.738141 0.574203
O O5 0.250000 0.135564 0.350164
O O6 0.992143 0.229674 0.291755
O O7 0.000000 0.000000 0.383471
O O8 0.750000 0.846891 0.070692
O O9 0.999384 0.765278 0.140271
O O10 0.993124 0.765070 0.991325
O O11 0.000000 0.000000 0.060281
O O12 0.250000 0.853885 0.642445
O O13 0.495737 0.781360 0.716885
O O14 0.500000 0.000000 0.624808
O O15 0.750000 0.159644 0.211347
O O16 0.000000 0.000000 0.216737
O O17 0.500000 0.500000 0.737928
O O18 0.750000 0.649682 0.754881
O O19 0.513716 0.685751 0.849163
O O20 0.250000 0.363166 0.935519
O O21 0.000000 0.500000 0.960055
#
# Coordination Sequence:
#
# PCOD8168023 Si02
#       7
#     4   4   4   4   4   4   4
#     4  11  24  41  61  85 114 149 186 226 274 328
#     4  10  20  35  57  83 110 142 181 226 275 325
#     4  10  19  33  52  78 109 142 182 227 274 324
#     4  12  25  41  61  86 115 147 184 228 276 326
#     4  10  18  30  51  78 107 142 181 223 273 325
#     4  10  20  38  60  84 113 147 187 228 276 331
#     4   9  20  36  56  80 109 145 184 226 272 325
#
# _framework density 19.291726000000001
#
# number of rings (size 3 to 8) (size 9 to 14) (size 15 to 20)
#    0.000    1.714    0.000    6.857    0.000    5.714 
#    0.000    2.143    0.000    0.000    0.000    0.000 
#    0.000    0.000    0.000    0.000    0.000    0.000 
#
# Total GULP energy -347201.602492 kJ/mol
# GULP energy per Si atom -12400.057232 kJ/mol
# Density = 1.924782 g / cm^3
# Si number density = 19.291726 Si / 1000 Ang^3
#
#
#
# Elastic Constant Matrix: (Units=GPa)
#
#
# Indices 1 2 3 4 5 6 
#
# 1 118.0582 42.7607 57.9159 0.0000 0.0000 0.0000
# 2 42.7607 98.7898 61.5614 0.0000 0.0000 0.0000
# 3 57.9159 61.5614 136.6590 0.0000 0.0000 0.0000
# 4 0.0000 0.0000 0.0000 14.7909 0.0000 0.0000
# 5 0.0000 0.0000 0.0000 0.0000 31.5703 0.0000
# 6 0.0000 0.0000 0.0000 0.0000 0.0000 31.5321
#
#
#
# Elastic Compliance Matrix: (Units=1/GPa)
#
#
# Indices 1 2 3 4 5 6 
#
# 1 0.011160 -0.002618 -0.003550 0.000000 0.000000 0.000000
# 2 -0.002618 0.014687 -0.005507 0.000000 0.000000 0.000000
# 3 -0.003550 -0.005507 0.011303 0.000000 0.000000 0.000000
# 4 0.000000 0.000000 0.000000 0.067609 0.000000 0.000000
# 5 0.000000 0.000000 0.000000 0.000000 0.031675 0.000000
# 6 0.000000 0.000000 0.000000 0.000000 0.000000 0.031714
#
#
# Mechanical properties :
#
#
# Convention : Reuss Voigt Hill
#
# Bulk Modulus (GPa) = 72.46409 75.33146 73.89778
# Shear Modulus (GPa) = 25.49731 28.32992 26.91362
#
# Velocity S-wave (km/s) = 3.63942 3.83626 3.73914
# Velocity P-wave (km/s) = 7.43669 7.66524 7.55183
#
# Compressibility (1/GPa) = 0.01379994
#
# Stress axis : x y z
#
# Youngs Moduli (GPa) = 89.60232 68.08590 88.47466
#
# Poissons Ratio (x) = 0.17827 0.31411
# Poissons Ratio (y) = 0.23461 0.48720
# Poissons Ratio (z) = 0.31811 0.37492
#
# Static dielectric constant tensor:
#      x y z
#    x 3.639350 0.000000 0.000000 
#    y 0.000000 3.458420 0.000000 
#    z 0.000000 0.000000 4.301050 
# 
# 
# High freq. dielectric constant tensor:
#      x y z
#    x 1.766230 0.000000 0.000000 
#    y 0.000000 1.726910 0.000000 
#    z 0.000000 0.000000 1.775020 
# 
# From -- ./inp_files/6743.got.cif
#   From: 2010.03.12/outbox.cif.g09.slc.cpg/sg28_4_cif.got.tgz:6743.got - 2010.04.14 03:39:34.
