data_PCOD8168900
_publ_section_title
;
Structure prediction by ZEFSAII (Michael W. Deem and Ramdas Pophale) SiO2 
 PCOD8168900
Probable space group: P C A 21
;
_chemical_formula_sum "Si O2"
_cell_formula_units_Z 32
_cell_length_a 13.387747
_cell_length_b 6.657795
_cell_length_c 15.601004
_cell_angle_alpha 90.000000
_cell_angle_beta 90.000000
_cell_angle_gamma 90.000000
_cell_volume 1390.562340
_symmetry_space_group_name_H-M "P C A 21"
_symmetry_group_IT_number 29
_symmetry_cell_setting 'orthorhombic'
loop_
_space_group_symop_operation_xyz
x,y,z
-x,-y,1/2+z
1/2-x,y,1/2+z
1/2+x,-y,z
loop_
_atom_site_type_symbol
_atom_site_label
_atom_site_fract_x
_atom_site_fract_y
_atom_site_fract_z
Si Si1 0.880949 0.410816 0.617370
Si Si2 0.056211 0.327450 0.391733
Si Si3 0.077055 0.722480 0.298453
Si Si4 0.090102 0.935287 0.000648
Si Si5 0.959685 0.091772 0.254562
Si Si6 0.782448 0.490172 0.990888
Si Si7 0.463101 0.726578 0.071361
Si Si8 0.224717 0.832273 0.868785
O O1 0.872280 0.403362 0.720205
O O2 0.880332 0.175366 0.588897
O O3 0.791789 0.539568 0.570949
O O4 0.984732 0.515794 0.592416
O O5 0.040837 0.565407 0.371124
O O6 0.158482 0.317732 0.449521
O O7 0.967383 0.236848 0.447163
O O8 0.051709 0.211290 0.300535
O O9 0.162460 0.871598 0.336822
O O10 0.982527 0.854499 0.268027
O O11 0.028451 0.138717 0.006770
O O12 0.188720 0.987818 0.943563
O O13 0.851795 0.155669 0.289911
O O14 0.953204 0.137164 0.155076
O O15 0.721047 0.389768 0.912792
O O16 0.858183 0.321940 0.028521
#
# Coordination Sequence:
#
# PCOD8168900 Si02
#       8
#     4   4   4   4   4   4   4   4
#     4  11  22  43  64  97 134 173 224 268 336 400
#     4  10  22  40  65  95 127 174 218 271 332 391
#     4  11  22  43  66  94 137 178 216 278 338 393
#     4  10  22  41  65  96 129 170 227 269 329 398
#     4  11  23  41  68  96 133 173 225 276 336 395
#     4  10  23  42  68  95 139 176 218 284 329 397
#     4  12  23  42  70  96 133 181 216 281 334 396
#     4   9  23  40  64  95 130 171 216 279 322 392
#
# _framework density 23.012270999999998
#
# number of rings (size 3 to 8) (size 9 to 14) (size 15 to 20)
#    0.000    1.500    3.750    0.750    7.000    1.000 
#    2.250    6.250    0.000    0.000    0.000    0.000 
#    0.000    0.000    0.000    0.000    0.000    0.000 
#
# Total GULP energy -396451.605237 kJ/mol
# GULP energy per Si atom -12389.112664 kJ/mol
# Density = 2.295989 g / cm^3
# Si number density = 23.012271 Si / 1000 Ang^3
#
#
#
# Elastic Constant Matrix: (Units=GPa)
#
#
# Indices 1 2 3 4 5 6 
#
# 1 73.8951 15.9755 18.2481 0.0000 0.0000 0.0000
# 2 15.9755 49.0269 14.5582 0.0000 0.0000 0.0000
# 3 18.2481 14.5582 79.2458 0.0000 0.0000 0.0000
# 4 0.0000 0.0000 0.0000 32.4323 0.0000 0.0000
# 5 0.0000 0.0000 0.0000 0.0000 38.1481 0.0000
# 6 0.0000 0.0000 0.0000 0.0000 0.0000 32.8329
#
#
#
# Elastic Compliance Matrix: (Units=1/GPa)
#
#
# Indices 1 2 3 4 5 6 
#
# 1 0.015093 -0.004110 -0.002720 0.000000 0.000000 0.000000
# 2 -0.004110 0.022693 -0.003222 0.000000 0.000000 0.000000
# 3 -0.002720 -0.003222 0.013837 0.000000 0.000000 0.000000
# 4 0.000000 0.000000 0.000000 0.030833 0.000000 0.000000
# 5 0.000000 0.000000 0.000000 0.000000 0.026214 0.000000
# 6 0.000000 0.000000 0.000000 0.000000 0.000000 0.030457
#
#
# Mechanical properties :
#
#
# Convention : Reuss Voigt Hill
#
# Bulk Modulus (GPa) = 31.72858 33.30350 32.51604
# Shear Modulus (GPa) = 29.45680 30.90841 30.18261
#
# Velocity S-wave (km/s) = 3.58166 3.66885 3.62551
# Velocity P-wave (km/s) = 5.56075 5.69655 5.62906
#
# Compressibility (1/GPa) = 0.03151732
#
# Stress axis : x y z
#
# Youngs Moduli (GPa) = 66.25545 44.06611 72.26790
#
# Poissons Ratio (x) = 0.18112 0.19660
# Poissons Ratio (y) = 0.27233 0.23288
# Poissons Ratio (z) = 0.18024 0.14200
#
# Static dielectric constant tensor:
#      x y z
#    x 4.093140 0.000000 0.000000 
#    y 0.000000 3.755680 0.000000 
#    z 0.000000 0.000000 4.453010 
# 
# 
# High freq. dielectric constant tensor:
#      x y z
#    x 1.898000 0.000000 0.000000 
#    y 0.000000 1.880720 0.000000 
#    z 0.000000 0.000000 1.927070 
# 
# From -- ./inp_files/5256.got.cif
#   From: 2010.03.12/outbox.cif.g09.slc.cpg/sg29_3_cif.got.tgz:5256.got - 2010.04.14 03:43:10.
