data_PCOD8168513
_publ_section_title
;
Structure prediction by ZEFSAII (Michael W. Deem and Ramdas Pophale) SiO2 
 PCOD8168513
Probable space group: P M A 2
;
_chemical_formula_sum "Si O2"
_cell_formula_units_Z 20
_cell_length_a 8.551799
_cell_length_b 9.156382
_cell_length_c 12.530075
_cell_angle_alpha 90.000000
_cell_angle_beta 90.000000
_cell_angle_gamma 90.000000
_cell_volume 981.149209
_symmetry_space_group_name_H-M "P M A 2"
_symmetry_group_IT_number 28
_symmetry_cell_setting 'orthorhombic'
loop_
_space_group_symop_operation_xyz
x,y,z
-x,-y,z
1/2-x,y,z
1/2+x,-y,z
loop_
_atom_site_type_symbol
_atom_site_label
_atom_site_fract_x
_atom_site_fract_y
_atom_site_fract_z
Si Si1 0.568846 0.156419 0.074740
Si Si2 0.433826 0.346013 0.257297
Si Si3 0.433626 0.158272 0.674033
Si Si4 0.931541 0.341345 0.863765
Si Si5 0.065501 0.656006 0.488336
O O1 0.750000 0.145139 0.105596
O O2 0.474633 0.219888 0.174518
O O3 0.500000 0.000000 0.045812
O O4 0.541424 0.256043 0.972678
O O5 0.500000 0.500000 0.214585
O O6 0.250000 0.360427 0.271813
O O7 0.508355 0.304729 0.370322
O O8 0.250000 0.148113 0.658363
O O9 0.472740 0.266029 0.770025
O O10 0.509014 0.215873 0.565201
O O11 0.500000 0.000000 0.702096
O O12 0.750000 0.347809 0.831358
O O13 0.000000 0.500000 0.882644
O O14 0.250000 0.646607 0.489703
O O15 0.000000 0.500000 0.527535
#
# Coordination Sequence:
#
# PCOD8168513 Si02
#       5
#     4   4   4   4   4
#     4  11  24  41  62  90 124 161 202 249 303 360
#     4  11  22  39  63  91 123 160 204 251 301 356
#     4  12  25  42  63  90 124 160 201 249 304 361
#     4  11  24  42  65  92 122 159 203 249 299 357
#     4  11  22  40  64  91 123 160 204 250 300 356
#
# _framework density 20.384257999999999
#
# number of rings (size 3 to 8) (size 9 to 14) (size 15 to 20)
#    0.000    0.800    0.000    9.600    0.000    7.200 
#    0.000    4.000    0.000    0.000    0.000    0.000 
#    0.000    0.000    0.000    0.000    0.000    0.000 
#
# Total GULP energy -248168.529287 kJ/mol
# GULP energy per Si atom -12408.426464 kJ/mol
# Density = 2.033786 g / cm^3
# Si number density = 20.384258 Si / 1000 Ang^3
#
#
#
# Elastic Constant Matrix: (Units=GPa)
#
#
# Indices 1 2 3 4 5 6 
#
# 1 184.0249 54.0502 52.7225 0.0000 0.0000 0.0000
# 2 54.0502 131.5855 48.0008 0.0000 0.0000 0.0000
# 3 52.7225 48.0008 88.7297 0.0000 0.0000 0.0000
# 4 0.0000 0.0000 0.0000 -161.1826 0.0000 0.0000
# 5 0.0000 0.0000 0.0000 0.0000 -94.5710 0.0000
# 6 0.0000 0.0000 0.0000 0.0000 0.0000 37.1449
#
#
#
# Elastic Compliance Matrix: (Units=1/GPa)
#
#
# Indices 1 2 3 4 5 6 
#
# 1 0.006825 -0.001650 -0.003163 0.000000 0.000000 0.000000
# 2 -0.001650 0.009867 -0.004358 0.000000 0.000000 0.000000
# 3 -0.003163 -0.004358 0.015507 0.000000 0.000000 0.000000
# 4 0.000000 0.000000 0.000000 -0.006204 0.000000 0.000000
# 5 0.000000 0.000000 0.000000 0.000000 -0.010574 0.000000
# 6 0.000000 0.000000 0.000000 0.000000 0.000000 0.026922
#
#
# Mechanical properties :
#
#
# Convention : Reuss Voigt Hill
#
# Bulk Modulus (GPa) = 72.15802 79.32079 75.73940
# Shear Modulus (GPa) = 76.56860 -27.08397 24.74232
#
# Velocity S-wave (km/s) = 6.13548 -3.64905 3.48774
# Velocity P-wave (km/s) = 9.25570 4.60903 7.31133
#
# Compressibility (1/GPa) = 0.01385847
#
# Stress axis : x y z
#
# Youngs Moduli (GPa) = 146.52724 101.35025 64.48774
#
# Poissons Ratio (x) = 0.16718 0.20396
# Poissons Ratio (y) = 0.24171 0.28101
# Poissons Ratio (z) = 0.46343 0.44164
#
# Static dielectric constant tensor:
#      x y z
#    x 3.911770 0.000000 0.000000 
#    y 0.000000 3.772140 0.000000 
#    z 0.000000 0.000000 3.760530 
# 
# 
# High freq. dielectric constant tensor:
#      x y z
#    x 1.819740 0.000000 0.000000 
#    y 0.000000 1.804740 0.000000 
#    z 0.000000 0.000000 1.809130 
# 
# From -- ./inp_files/4554.got.cif
#   From: 2010.03.12/outbox.cif.g09.slc.cpg/sg28_3_cif.got.tgz:4554.got - 2010.04.14 03:39:34.
