data_PCOD8168682
_publ_section_title
;
Structure prediction by ZEFSAII (Michael W. Deem and Ramdas Pophale) SiO2 
 PCOD8168682
Probable space group: P C A 21
;
_chemical_formula_sum "Si O2"
_cell_formula_units_Z 28
_cell_length_a 12.381114
_cell_length_b 11.188192
_cell_length_c 8.499018
_cell_angle_alpha 90.000000
_cell_angle_beta 90.000000
_cell_angle_gamma 90.000000
_cell_volume 1177.303356
_symmetry_space_group_name_H-M "P C A 21"
_symmetry_group_IT_number 29
_symmetry_cell_setting 'orthorhombic'
loop_
_space_group_symop_operation_xyz
x,y,z
-x,-y,1/2+z
1/2-x,y,1/2+z
1/2+x,-y,z
loop_
_atom_site_type_symbol
_atom_site_label
_atom_site_fract_x
_atom_site_fract_y
_atom_site_fract_z
Si Si1 0.804002 0.676116 0.068710
Si Si2 0.448265 0.884648 0.769646
Si Si3 0.905836 0.696198 0.403788
Si Si4 0.448265 0.115352 0.944523
Si Si5 0.094164 0.696198 0.810380
Si Si6 0.304002 0.676116 0.645458
Si Si7 0.075938 0.500000 0.357084
O O1 0.833574 0.666967 0.250705
O O2 0.855819 0.789046 0.980248
O O3 0.674680 0.691572 0.052897
O O4 0.847857 0.553395 0.993101
O O5 0.540101 0.826058 0.881659
O O6 0.500001 0.928008 0.607085
O O7 0.355819 0.789046 0.733919
O O8 0.398609 0.000000 0.857084
O O9 0.999862 0.600971 0.432125
O O10 0.540102 0.173942 0.832511
O O11 0.166426 0.666966 0.963463
O O12 0.174680 0.691572 0.661272
O O13 0.000138 0.600971 0.782044
O O14 0.347857 0.553395 0.721068
#
# Coordination Sequence:
#
# PCOD8168682 Si02
#       7
#     4   4   4   4   4   4   4
#     4  10  22  38  57  83 114 147 185 230 279 332
#     4   9  20  39  58  80 111 146 185 229 277 329
#     4  10  22  38  57  83 114 147 185 230 279 332
#     4   9  20  39  58  80 111 146 185 229 277 329
#     4  10  22  38  57  83 114 147 185 230 279 332
#     4  10  22  38  57  83 114 147 185 230 279 332
#     4  10  20  36  58  80 110 146 184 226 272 328
#
# _framework density 23.783166999999999
#
# number of rings (size 3 to 8) (size 9 to 14) (size 15 to 20)
#    0.000    2.286    0.000    3.429    0.000   10.286 
#    0.000   14.286    0.000    0.000    0.000    0.000 
#    0.000    0.000    0.000    0.000    0.000    0.000 
#
# Total GULP energy -347265.997600 kJ/mol
# GULP energy per Si atom -12402.357057 kJ/mol
# Density = 2.372904 g / cm^3
# Si number density = 23.783167 Si / 1000 Ang^3
#
#
#
# Elastic Constant Matrix: (Units=GPa)
#
#
# Indices 1 2 3 4 5 6 
#
# 1 77.8542 -2.2900 6.9421 0.0000 0.0000 0.0000
# 2 -2.2900 100.0035 24.9228 0.0000 0.0000 0.0000
# 3 6.9421 24.9228 36.2483 0.0000 0.0000 0.0000
# 4 0.0000 0.0000 0.0000 17.3660 0.0000 0.0000
# 5 0.0000 0.0000 0.0000 0.0000 34.7945 0.0000
# 6 0.0000 0.0000 0.0000 0.0000 0.0000 -23.9527
#
#
#
# Elastic Compliance Matrix: (Units=1/GPa)
#
#
# Indices 1 2 3 4 5 6 
#
# 1 0.013171 0.001123 -0.003294 0.000000 0.000000 0.000000
# 2 0.001123 0.012163 -0.008578 0.000000 0.000000 0.000000
# 3 -0.003294 -0.008578 0.034116 0.000000 0.000000 0.000000
# 4 0.000000 0.000000 0.000000 0.057584 0.000000 0.000000
# 5 0.000000 0.000000 0.000000 0.000000 0.028740 0.000000
# 6 0.000000 0.000000 0.000000 0.000000 0.000000 -0.041749
#
#
# Mechanical properties :
#
#
# Convention : Reuss Voigt Hill
#
# Bulk Modulus (GPa) = 26.34951 30.36178 28.35564
# Shear Modulus (GPa) = 36.18589 17.94363 27.06476
#
# Velocity S-wave (km/s) = 3.90486 2.74974 3.37706
# Velocity P-wave (km/s) = 5.60658 4.78280 5.21099
#
# Compressibility (1/GPa) = 0.03795138
#
# Stress axis : x y z
#
# Youngs Moduli (GPa) = 75.92270 82.21568 29.31160
#
# Poissons Ratio (x) = -0.09230 0.09656
# Poissons Ratio (y) = -0.08523 0.25143
# Poissons Ratio (z) = 0.25012 0.70523
#
# Static dielectric constant tensor:
#      x y z
#    x 4.236170 0.000000 0.000000 
#    y 0.000000 4.190660 0.000000 
#    z 0.000000 0.000000 4.112090 
# 
# 
# High freq. dielectric constant tensor:
#      x y z
#    x 1.941880 0.000000 0.000000 
#    y 0.000000 1.940080 0.000000 
#    z 0.000000 0.000000 1.938530 
# 
# From -- ./inp_files/1810.got.cif
#   From: 2010.03.12/outbox.cif.g09.slc.cpg/sg29_1_cif.got.tgz:1810.got - 2010.04.14 03:43:10.
