data_PCOD8168782
_publ_section_title
;
Structure prediction by ZEFSAII (Michael W. Deem and Ramdas Pophale) SiO2 
 PCOD8168782
Probable space group: P C A 21
;
_chemical_formula_sum "Si O2"
_cell_formula_units_Z 28
_cell_length_a 16.423303
_cell_length_b 13.938854
_cell_length_c 5.274394
_cell_angle_alpha 90.000000
_cell_angle_beta 90.000000
_cell_angle_gamma 90.000000
_cell_volume 1207.424943
_symmetry_space_group_name_H-M "P C A 21"
_symmetry_group_IT_number 29
_symmetry_cell_setting 'orthorhombic'
loop_
_space_group_symop_operation_xyz
x,y,z
-x,-y,1/2+z
1/2-x,y,1/2+z
1/2+x,-y,z
loop_
_atom_site_type_symbol
_atom_site_label
_atom_site_fract_x
_atom_site_fract_y
_atom_site_fract_z
Si Si1 0.207053 0.372656 0.229830
Si Si2 0.453970 0.890285 0.292015
Si Si3 0.950103 0.888007 0.290646
Si Si4 0.946219 0.506407 0.629638
Si Si5 0.275411 0.161656 0.282794
Si Si6 0.286353 0.815841 0.430177
Si Si7 0.789942 0.405274 0.485077
O O1 0.246288 0.416230 0.485242
O O2 0.110974 0.400668 0.198441
O O3 0.221946 0.257800 0.229449
O O4 0.517804 0.865503 0.511397
O O5 0.378647 0.822663 0.344388
O O6 0.425674 0.000432 0.311727
O O7 0.487375 0.862700 0.014849
O O8 0.871040 0.821314 0.326885
O O9 0.886281 0.420886 0.536633
O O10 0.005818 0.525620 0.387079
O O11 0.237689 0.102682 0.520268
O O12 0.268084 0.864210 0.704406
O O13 0.265279 0.705185 0.467908
O O14 0.741469 0.453015 0.722748
#
# Coordination Sequence:
#
# PCOD8168782 Si02
#       7
#     4   4   4   4   4   4   4
#     4  10  21  41  62  84 123 167 200 253 309 369
#     4  10  21  38  59  89 124 163 201 257 306 362
#     4  10  21  38  59  86 127 165 201 246 317 366
#     4  12  24  40  62  95 123 157 210 254 310 368
#     4  10  21  38  59  87 119 164 209 246 301 374
#     4  10  21  38  61  88 114 155 205 252 301 355
#     4  10  21  41  64  83 118 161 200 246 308 364
#
# _framework density 23.189845999999999
#
# number of rings (size 3 to 8) (size 9 to 14) (size 15 to 20)
#    0.000    1.714    0.000    4.286    0.000    1.143 
#   15.429    0.000    0.000    0.000    0.000    0.000 
#    0.000    0.000    0.000    0.000    0.000    0.000 
#
# Total GULP energy -346948.304767 kJ/mol
# GULP energy per Si atom -12391.010885 kJ/mol
# Density = 2.313707 g / cm^3
# Si number density = 23.189846 Si / 1000 Ang^3
#
#
#
# Elastic Constant Matrix: (Units=GPa)
#
#
# Indices 1 2 3 4 5 6 
#
# 1 132.8122 14.0144 52.7430 0.0000 0.0000 0.0000
# 2 14.0144 19.3554 22.6687 0.0000 0.0000 0.0000
# 3 52.7430 22.6687 200.3750 0.0000 0.0000 0.0000
# 4 0.0000 0.0000 0.0000 15.1022 0.0000 0.0000
# 5 0.0000 0.0000 0.0000 0.0000 32.3819 0.0000
# 6 0.0000 0.0000 0.0000 0.0000 0.0000 13.1316
#
#
#
# Elastic Compliance Matrix: (Units=1/GPa)
#
#
# Indices 1 2 3 4 5 6 
#
# 1 0.008690 -0.004165 -0.001816 0.000000 0.000000 0.000000
# 2 -0.004165 0.061552 -0.005867 0.000000 0.000000 0.000000
# 3 -0.001816 -0.005867 0.006132 0.000000 0.000000 0.000000
# 4 0.000000 0.000000 0.000000 0.066215 0.000000 0.000000
# 5 0.000000 0.000000 0.000000 0.000000 0.030881 0.000000
# 6 0.000000 0.000000 0.000000 0.000000 0.000000 0.076152
#
#
# Mechanical properties :
#
#
# Convention : Reuss Voigt Hill
#
# Bulk Modulus (GPa) = 18.98318 59.04384 39.01351
# Shear Modulus (GPa) = 17.18919 29.66425 23.42672
#
# Velocity S-wave (km/s) = 2.72552 3.58046 3.18184
# Velocity P-wave (km/s) = 4.25539 6.52758 5.50988
#
# Compressibility (1/GPa) = 0.05267820
#
# Stress axis : x y z
#
# Youngs Moduli (GPa) = 115.07215 16.24631 163.06616
#
# Poissons Ratio (x) = 0.06767 0.29617
# Poissons Ratio (y) = 0.47928 0.95674
# Poissons Ratio (z) = 0.20900 0.09532
#
# Static dielectric constant tensor:
#      x y z
#    x 3.972760 0.000000 0.000000 
#    y 0.000000 3.897280 0.000000 
#    z 0.000000 0.000000 5.425260 
# 
# 
# High freq. dielectric constant tensor:
#      x y z
#    x 1.905500 0.000000 0.000000 
#    y 0.000000 1.895220 0.000000 
#    z 0.000000 0.000000 1.964310 
# 
# From -- ./inp_files/255.got.cif
#   From: 2010.03.12/outbox.cif.g09.slc.cpg/sg29_1_cif.got.tgz:255.got - 2010.04.14 03:43:10.
