data_PCOD8168156
_publ_section_title
;
Structure prediction by ZEFSAII (Michael W. Deem and Ramdas Pophale) SiO2 
 PCOD8168156
Probable space group: P M A 2
;
_chemical_formula_sum "Si O2"
_cell_formula_units_Z 32
_cell_length_a 8.902320
_cell_length_b 14.531230
_cell_length_c 12.242364
_cell_angle_alpha 90.000000
_cell_angle_beta 90.000000
_cell_angle_gamma 90.000000
_cell_volume 1583.692523
_symmetry_space_group_name_H-M "P M A 2"
_symmetry_group_IT_number 28
_symmetry_cell_setting 'orthorhombic'
loop_
_space_group_symop_operation_xyz
x,y,z
-x,-y,z
1/2-x,y,z
1/2+x,-y,z
loop_
_atom_site_type_symbol
_atom_site_label
_atom_site_fract_x
_atom_site_fract_y
_atom_site_fract_z
Si Si1 0.074359 0.219872 0.617670
Si Si2 0.920830 0.408091 0.674547
Si Si3 0.427729 0.222839 0.207693
Si Si4 0.419303 0.655721 0.912117
Si Si5 0.925134 0.406330 0.152426
Si Si6 0.925592 0.089888 0.046930
Si Si7 0.926903 0.899991 0.414372
Si Si8 0.577465 0.835036 0.855200
O O1 0.250000 0.241173 0.605991
O O2 0.014349 0.156700 0.519240
O O3 0.039863 0.161512 0.726972
O O4 0.992674 0.317880 0.619815
O O5 0.750000 0.410786 0.635587
O O6 0.933368 0.409128 0.806283
O O7 0.000000 0.500000 0.629656
O O8 0.250000 0.226903 0.191334
O O9 0.493833 0.324951 0.219725
O O10 0.506446 0.180797 0.101050
O O11 0.473999 0.160400 0.310232
O O12 0.250000 0.698886 0.917070
O O13 0.544237 0.733731 0.900961
O O14 0.452706 0.599733 0.022134
O O15 0.750000 0.405608 0.181674
O O16 0.000000 0.500000 0.194549
O O17 0.750000 0.085226 0.064846
O O18 0.000000 0.000000 0.102009
O O19 0.971098 0.092763 0.918768
O O20 0.750000 0.914630 0.420569
O O21 0.000000 0.000000 0.408446
O O22 0.750000 0.859978 0.879307
#
# Coordination Sequence:
#
# PCOD8168156 Si02
#       8
#     4   4   4   4   4   4   4   4
#     4   9  20  39  60  86 119 154 194 242 295 348
#     4  10  19  32  53  84 120 160 202 242 289 344
#     4  11  23  41  63  88 118 153 196 247 299 353
#     4   9  18  32  51  79 117 159 199 238 285 342
#     4  11  22  36  57  86 121 161 200 244 292 349
#     4  12  24  38  57  84 119 156 195 240 295 357
#     4  10  23  43  67  91 116 148 194 248 300 355
#     4  10  19  33  56  84 118 157 193 235 291 350
#
# _framework density 20.205943000000001
#
# number of rings (size 3 to 8) (size 9 to 14) (size 15 to 20)
#    0.000    1.750    1.250    3.375    0.000    4.500 
#    0.000    1.875    0.000    0.000    0.000    0.000 
#    0.000    0.000    0.000    0.000    0.000    0.000 
#
# Total GULP energy -396835.286268 kJ/mol
# GULP energy per Si atom -12401.102696 kJ/mol
# Density = 2.015995 g / cm^3
# Si number density = 20.205943 Si / 1000 Ang^3
#
#
#
# Elastic Constant Matrix: (Units=GPa)
#
#
# Indices 1 2 3 4 5 6 
#
# 1 113.1230 64.4252 47.0744 0.0000 0.0000 0.0000
# 2 64.4252 146.2347 55.0911 0.0000 0.0000 0.0000
# 3 47.0744 55.0911 93.0617 0.0000 0.0000 0.0000
# 4 0.0000 0.0000 0.0000 25.5187 0.0000 0.0000
# 5 0.0000 0.0000 0.0000 0.0000 19.1987 0.0000
# 6 0.0000 0.0000 0.0000 0.0000 0.0000 39.9694
#
#
#
# Elastic Compliance Matrix: (Units=1/GPa)
#
#
# Indices 1 2 3 4 5 6 
#
# 1 0.012895 -0.004149 -0.004067 0.000000 0.000000 0.000000
# 2 -0.004149 0.010136 -0.003902 0.000000 0.000000 0.000000
# 3 -0.004067 -0.003902 0.015112 0.000000 0.000000 0.000000
# 4 0.000000 0.000000 0.000000 0.039187 0.000000 0.000000
# 5 0.000000 0.000000 0.000000 0.000000 0.052087 0.000000
# 6 0.000000 0.000000 0.000000 0.000000 0.000000 0.025019
#
#
# Mechanical properties :
#
#
# Convention : Reuss Voigt Hill
#
# Bulk Modulus (GPa) = 71.89690 76.17785 74.03738
# Shear Modulus (GPa) = 27.27651 29.32593 28.30122
#
# Velocity S-wave (km/s) = 3.67812 3.81379 3.74657
# Velocity P-wave (km/s) = 7.32785 7.56148 7.44558
#
# Compressibility (1/GPa) = 0.01390881
#
# Stress axis : x y z
#
# Youngs Moduli (GPa) = 77.54826 98.65733 66.17078
#
# Poissons Ratio (x) = 0.40933 0.26910
# Poissons Ratio (y) = 0.32175 0.25818
# Poissons Ratio (z) = 0.31537 0.38493
#
# Static dielectric constant tensor:
#      x y z
#    x 3.636740 0.000000 0.000000 
#    y 0.000000 3.599920 0.000000 
#    z 0.000000 0.000000 3.646170 
# 
# 
# High freq. dielectric constant tensor:
#      x y z
#    x 1.792800 0.000000 0.000000 
#    y 0.000000 1.791240 0.000000 
#    z 0.000000 0.000000 1.772280 
# 
# From -- ./inp_files/4991.got.cif
#   From: 2010.03.12/outbox.cif.g09.slc.cpg/sg28_3_cif.got.tgz:4991.got - 2010.04.14 03:39:34.
