data_PCOD8168961
_publ_section_title
;
Structure prediction by ZEFSAII (Michael W. Deem and Ramdas Pophale) SiO2 
 PCOD8168961
Probable space group: P C A 21
;
_chemical_formula_sum "Si O2"
_cell_formula_units_Z 32
_cell_length_a 12.117100
_cell_length_b 9.304756
_cell_length_c 14.208908
_cell_angle_alpha 90.000000
_cell_angle_beta 90.000000
_cell_angle_gamma 90.000000
_cell_volume 1602.006904
_symmetry_space_group_name_H-M "P C A 21"
_symmetry_group_IT_number 29
_symmetry_cell_setting 'orthorhombic'
loop_
_space_group_symop_operation_xyz
x,y,z
-x,-y,1/2+z
1/2-x,y,1/2+z
1/2+x,-y,z
loop_
_atom_site_type_symbol
_atom_site_label
_atom_site_fract_x
_atom_site_fract_y
_atom_site_fract_z
Si Si1 0.060293 0.884133 0.811550
Si Si2 0.281802 0.228443 0.029917
Si Si3 0.736323 0.277867 0.717745
Si Si4 0.384330 0.347608 0.851994
Si Si5 0.306972 0.397989 0.211531
Si Si6 0.033037 0.656113 0.300179
Si Si7 0.887929 0.054713 0.112686
Si Si8 0.050844 0.134788 0.953956
O O1 0.170172 0.783319 0.809404
O O2 0.059716 0.981915 0.715909
O O3 0.952699 0.784047 0.808795
O O4 0.063270 0.980871 0.903836
O O5 0.255223 0.324628 0.119944
O O6 0.337889 0.081449 0.061594
O O7 0.363890 0.316574 0.962026
O O8 0.170577 0.197785 0.973769
O O9 0.689102 0.433251 0.692632
O O10 0.709636 0.173557 0.628697
O O11 0.865602 0.284395 0.738780
O O12 0.267350 0.356717 0.800330
O O13 0.449342 0.496282 0.840134
O O14 0.429473 0.340182 0.230245
O O15 0.017658 0.758242 0.388814
O O16 0.985514 0.120311 0.050776
#
# Coordination Sequence:
#
# PCOD8168961 Si02
#       8
#     4   4   4   4   4   4   4   4
#     4  10  22  45  68  92 142 175 224 277 337 399
#     4  12  26  41  68 105 133 176 232 280 339 408
#     4   9  24  44  69  98 132 180 221 280 333 407
#     4  11  23  45  68  99 136 174 231 281 330 417
#     4  11  23  45  70  99 135 178 225 278 348 393
#     4  11  23  44  72  97 138 179 223 278 350 399
#     4  10  24  42  64  98 132 180 224 274 334 398
#     4  12  25  42  69 100 136 180 224 282 341 403
#
# _framework density 19.974945000000002
#
# number of rings (size 3 to 8) (size 9 to 14) (size 15 to 20)
#    0.750    0.500    3.750    1.500    3.500    3.000 
#    0.000    0.000    0.000    0.000    0.000    0.000 
#    0.000    0.000    0.000    0.000    0.000    0.000 
#
# Total GULP energy -396815.409638 kJ/mol
# GULP energy per Si atom -12400.481551 kJ/mol
# Density = 1.992948 g / cm^3
# Si number density = 19.974945 Si / 1000 Ang^3
#
#
#
# Elastic Constant Matrix: (Units=GPa)
#
#
# Indices 1 2 3 4 5 6 
#
# 1 73.6757 32.5607 4.2607 0.0000 0.0000 0.0000
# 2 32.5607 103.7755 34.2090 0.0000 0.0000 0.0000
# 3 4.2607 34.2090 64.3464 0.0000 0.0000 0.0000
# 4 0.0000 0.0000 0.0000 34.4687 0.0000 0.0000
# 5 0.0000 0.0000 0.0000 0.0000 34.9849 0.0000
# 6 0.0000 0.0000 0.0000 0.0000 0.0000 29.7415
#
#
#
# Elastic Compliance Matrix: (Units=1/GPa)
#
#
# Indices 1 2 3 4 5 6 
#
# 1 0.015957 -0.005648 0.001946 0.000000 0.000000 0.000000
# 2 -0.005648 0.013683 -0.006900 0.000000 0.000000 0.000000
# 3 0.001946 -0.006900 0.019081 0.000000 0.000000 0.000000
# 4 0.000000 0.000000 0.000000 0.029012 0.000000 0.000000
# 5 0.000000 0.000000 0.000000 0.000000 0.028584 0.000000
# 6 0.000000 0.000000 0.000000 0.000000 0.000000 0.033623
#
#
# Mechanical properties :
#
#
# Convention : Reuss Voigt Hill
#
# Bulk Modulus (GPa) = 36.34317 42.65094 39.49705
# Shear Modulus (GPa) = 29.35731 31.22351 30.29041
#
# Velocity S-wave (km/s) = 3.83783 3.95794 3.89835
# Velocity P-wave (km/s) = 6.15406 6.50274 6.33080
#
# Compressibility (1/GPa) = 0.02751548
#
# Stress axis : x y z
#
# Youngs Moduli (GPa) = 62.66993 73.08322 52.40938
#
# Poissons Ratio (x) = 0.41278 -0.10200
# Poissons Ratio (y) = 0.35397 0.36165
# Poissons Ratio (z) = -0.12197 0.50431
#
# Static dielectric constant tensor:
#      x y z
#    x 3.591760 0.000000 0.000000 
#    y 0.000000 3.709750 0.000000 
#    z 0.000000 0.000000 3.522520 
# 
# 
# High freq. dielectric constant tensor:
#      x y z
#    x 1.784510 0.000000 0.000000 
#    y 0.000000 1.791630 0.000000 
#    z 0.000000 0.000000 1.774430 
# 
# From -- ./inp_files/4589.got.cif
#   From: 2010.03.12/outbox.cif.g09.slc.cpg/sg29_3_cif.got.tgz:4589.got - 2010.04.14 03:43:10.
