data_PCOD8168932
_publ_section_title
;
Structure prediction by ZEFSAII (Michael W. Deem and Ramdas Pophale) SiO2 
 PCOD8168932
Probable space group: P C A 21
;
_chemical_formula_sum "Si O2"
_cell_formula_units_Z 28
_cell_length_a 11.921936
_cell_length_b 5.509234
_cell_length_c 17.293058
_cell_angle_alpha 90.000000
_cell_angle_beta 90.000000
_cell_angle_gamma 90.000000
_cell_volume 1135.820763
_symmetry_space_group_name_H-M "P C A 21"
_symmetry_group_IT_number 29
_symmetry_cell_setting 'orthorhombic'
loop_
_space_group_symop_operation_xyz
x,y,z
-x,-y,1/2+z
1/2-x,y,1/2+z
1/2+x,-y,z
loop_
_atom_site_type_symbol
_atom_site_label
_atom_site_fract_x
_atom_site_fract_y
_atom_site_fract_z
Si Si1 0.689919 0.808039 0.341940
Si Si2 0.031378 0.541564 0.842289
Si Si3 0.069825 0.253959 0.602062
Si Si4 0.753532 0.962415 0.505470
Si Si5 0.915737 0.177557 0.735579
Si Si6 0.801468 0.469128 0.229248
Si Si7 0.620807 0.466354 0.008269
O O1 0.580857 0.668941 0.373531
O O2 0.737177 0.966911 0.412588
O O3 0.786457 0.646223 0.304103
O O4 0.648919 0.949505 0.266882
O O5 0.099083 0.689483 0.772428
O O6 0.992786 0.288598 0.802982
O O7 0.108760 0.504805 0.916635
O O8 0.134095 0.054936 0.549784
O O9 0.157796 0.411780 0.650546
O O10 0.988376 0.108713 0.660429
O O11 0.999254 0.441785 0.549618
O O12 0.820884 0.720259 0.533328
O O13 0.809478 0.218975 0.527916
O O14 0.816780 0.355894 0.706894
#
# Coordination Sequence:
#
# PCOD8168932 Si02
#       7
#     4   4   4   4   4   4   4
#     4  11  23  42  75 105 142 197 253 301 373 445
#     4  10  22  42  71 105 140 189 248 304 365 438
#     4  11  26  48  71 108 151 196 245 311 379 437
#     4  12  28  48  76 109 148 197 245 313 364 444
#     4  10  24  44  73 107 144 194 248 308 375 448
#     4  10  22  46  70 106 143 194 244 312 366 445
#     4  12  27  48  74 110 148 193 251 303 374 441
#
# _framework density 24.651776999999999
#
# number of rings (size 3 to 8) (size 9 to 14) (size 15 to 20)
#    0.000    1.143    2.857    1.714    6.000    3.429 
#   10.286    0.000    0.000    0.000    0.000    0.000 
#    0.000    0.000    0.000    0.000    0.000    0.000 
#
# Total GULP energy -346956.341167 kJ/mol
# GULP energy per Si atom -12391.297899 kJ/mol
# Density = 2.459567 g / cm^3
# Si number density = 24.651777 Si / 1000 Ang^3
#
#
#
# Elastic Constant Matrix: (Units=GPa)
#
#
# Indices 1 2 3 4 5 6 
#
# 1 101.1513 18.7558 31.8233 0.0000 0.0000 0.0000
# 2 18.7558 80.4146 17.6350 0.0000 0.0000 0.0000
# 3 31.8233 17.6350 110.7592 0.0000 0.0000 0.0000
# 4 0.0000 0.0000 0.0000 23.4545 0.0000 0.0000
# 5 0.0000 0.0000 0.0000 0.0000 59.0160 0.0000
# 6 0.0000 0.0000 0.0000 0.0000 0.0000 -5.3806
#
#
#
# Elastic Compliance Matrix: (Units=1/GPa)
#
#
# Indices 1 2 3 4 5 6 
#
# 1 0.011162 -0.001969 -0.002893 0.000000 0.000000 0.000000
# 2 -0.001969 0.013233 -0.001541 0.000000 0.000000 0.000000
# 3 -0.002893 -0.001541 0.010105 0.000000 0.000000 0.000000
# 4 0.000000 0.000000 0.000000 0.042636 0.000000 0.000000
# 5 0.000000 0.000000 0.000000 0.000000 0.016945 0.000000
# 6 0.000000 0.000000 0.000000 0.000000 0.000000 -0.185852
#
#
# Mechanical properties :
#
#
# Convention : Reuss Voigt Hill
#
# Bulk Modulus (GPa) = 46.09851 47.63927 46.86889
# Shear Modulus (GPa) = -69.70165 30.35870 -19.67147
#
# Velocity S-wave (km/s) = -5.32315 3.51308 -2.82791
# Velocity P-wave (km/s) = 4.36356 5.98519 2.89671
#
# Compressibility (1/GPa) = 0.02169268
#
# Stress axis : x y z
#
# Youngs Moduli (GPa) = 89.59334 75.57015 98.95756
#
# Poissons Ratio (x) = 0.14878 0.28633
# Poissons Ratio (y) = 0.17639 0.15252
# Poissons Ratio (z) = 0.25924 0.11647
#
# Static dielectric constant tensor:
#      x y z
#    x 4.997450 0.000000 0.000000 
#    y 0.000000 4.081400 0.000000 
#    z 0.000000 0.000000 4.386210 
# 
# 
# High freq. dielectric constant tensor:
#      x y z
#    x 2.010770 0.000000 0.000000 
#    y 0.000000 1.940360 0.000000 
#    z 0.000000 0.000000 1.998600 
# 
# From -- ./inp_files/5090.got.cif
#   From: 2010.03.12/outbox.cif.g09.slc.cpg/sg29_3_cif.got.tgz:5090.got - 2010.04.14 03:43:10.
