data_PCOD8168214
_publ_section_title
;
Structure prediction by ZEFSAII (Michael W. Deem and Ramdas Pophale) SiO2 
 PCOD8168214
Probable space group: P M A 2
;
_chemical_formula_sum "Si O2"
_cell_formula_units_Z 32
_cell_length_a 17.437737
_cell_length_b 11.744149
_cell_length_c 7.769196
_cell_angle_alpha 90.000000
_cell_angle_beta 90.000000
_cell_angle_gamma 90.000000
_cell_volume 1591.064382
_symmetry_space_group_name_H-M "P M A 2"
_symmetry_group_IT_number 28
_symmetry_cell_setting 'orthorhombic'
loop_
_space_group_symop_operation_xyz
x,y,z
-x,-y,z
1/2-x,y,z
1/2+x,-y,z
loop_
_atom_site_type_symbol
_atom_site_label
_atom_site_fract_x
_atom_site_fract_y
_atom_site_fract_z
Si Si1 0.063649 0.429818 0.206990
Si Si2 0.660347 0.958261 0.605746
Si Si3 0.115533 0.287488 0.648155
Si Si4 0.426469 0.919934 0.309057
Si Si5 0.837819 0.479602 0.471272
Si Si6 0.337894 0.995900 0.989939
Si Si7 0.965451 0.312810 0.487373
Si Si8 0.335074 0.254551 0.029282
O O1 0.135014 0.508233 0.271071
O O2 0.000000 0.500000 0.091291
O O3 0.016276 0.398271 0.376431
O O4 0.095551 0.317510 0.121050
O O5 0.750000 0.970441 0.620462
O O6 0.639277 0.829176 0.552025
O O7 0.631427 0.038961 0.455750
O O8 0.627729 0.998808 0.794418
O O9 0.152195 0.398143 0.560667
O O10 0.154468 0.281480 0.831293
O O11 0.021782 0.285553 0.649544
O O12 0.447378 0.793082 0.364530
O O13 0.500000 0.000000 0.303410
O O14 0.387506 0.916737 0.118693
O O15 0.750000 0.440213 0.479983
O O16 0.889022 0.377825 0.555890
O O17 0.250000 0.952339 0.988893
O O18 0.342515 0.121966 0.070934
O O19 0.250000 0.297030 0.085545
#
# Coordination Sequence:
#
# PCOD8168214 Si02
#       8
#     4   4   4   4   4   4   4   4
#     4   9  19  35  53  79 113 146 189 236 285 345
#     4  10  21  38  60  87 115 148 198 251 299 347
#     4  10  19  37  57  83 116 145 186 249 299 346
#     4  12  22  37  59  86 118 158 198 239 297 357
#     4  10  20  35  58  82 113 153 191 242 295 353
#     4   9  21  38  56  84 116 147 192 248 296 345
#     4  10  22  38  54  84 117 153 199 236 288 367
#     4  10  19  33  57  87 113 144 191 246 304 354
#
# _framework density 20.112321999999999
#
# number of rings (size 3 to 8) (size 9 to 14) (size 15 to 20)
#    0.000    2.000    1.250    4.500    1.750    2.500 
#    2.250    0.000    0.000    0.000    0.000    0.000 
#    0.000    0.000    0.000    0.000    0.000    0.000 
#
# Total GULP energy -396465.934794 kJ/mol
# GULP energy per Si atom -12389.560462 kJ/mol
# Density = 2.006655 g / cm^3
# Si number density = 20.112322 Si / 1000 Ang^3
#
#
#
# Elastic Constant Matrix: (Units=GPa)
#
#
# Indices 1 2 3 4 5 6 
#
# 1 102.7243 29.9871 12.8347 0.0000 0.0000 0.0000
# 2 29.9871 54.9788 17.3080 0.0000 0.0000 0.0000
# 3 12.8347 17.3080 34.6667 0.0000 0.0000 0.0000
# 4 0.0000 0.0000 0.0000 -14.2608 0.0000 0.0000
# 5 0.0000 0.0000 0.0000 0.0000********** 0.0000
# 6 0.0000 0.0000 0.0000 0.0000 0.0000 31.5340
#
#
#
# Elastic Compliance Matrix: (Units=1/GPa)
#
#
# Indices 1 2 3 4 5 6 
#
# 1 0.011631 -0.005919 -0.001351 0.000000 0.000000 0.000000
# 2 -0.005919 0.024593 -0.010087 0.000000 0.000000 0.000000
# 3 -0.001351 -0.010087 0.034382 0.000000 0.000000 0.000000
# 4 0.000000 0.000000 0.000000 -0.070122 0.000000 0.000000
# 5 0.000000 0.000000 0.000000 0.000000 0.000001 0.000000
# 6 0.000000 0.000000 0.000000 0.000000 0.000000 0.031712
#
#
# Mechanical properties :
#
#
# Convention : Reuss Voigt Hill
#
# Bulk Modulus (GPa) = 27.86098 34.73659 31.29878
# Shear Modulus (GPa) = 63.39167 397571.84817 198817.61992
#
# Velocity S-wave (km/s) = 5.62025 445.08976 314.75108
# Velocity P-wave (km/s) = 7.48325 513.96222 363.46469
#
# Compressibility (1/GPa) = 0.03589250
#
# Stress axis : x y z
#
# Youngs Moduli (GPa) = 85.97409 40.66267 29.08457
#
# Poissons Ratio (x) = 0.24067 0.03930
# Poissons Ratio (y) = 0.50886 0.29338
# Poissons Ratio (z) = 0.11617 0.41016
#
# Static dielectric constant tensor:
#      x y z
#    x 0.000000 0.000000 0.000000 
#    y 0.000000 0.000000 0.000000 
#    z 0.000000 0.000000 0.000000 
# 
# 
# High freq. dielectric constant tensor:
#      x y z
#    x 1.797920 0.000000 0.000000 
#    y 0.000000 1.776950 0.000000 
#    z 0.000000 0.000000 1.760900 
# 
# From -- ./inp_files/3945.got.cif
#   From: 2010.03.12/outbox.cif.g09.slc.cpg/sg28_2_cif.got.tgz:3945.got - 2010.04.14 03:39:34.
