data_PCOD8168026
_publ_section_title
;
Structure prediction by ZEFSAII (Michael W. Deem and Ramdas Pophale) SiO2 
 PCOD8168026
Probable space group: P M A 2
;
_chemical_formula_sum "Si O2"
_cell_formula_units_Z 32
_cell_length_a 8.812468
_cell_length_b 14.328772
_cell_length_c 15.656810
_cell_angle_alpha 90.000000
_cell_angle_beta 90.000000
_cell_angle_gamma 90.000000
_cell_volume 1977.014281
_symmetry_space_group_name_H-M "P M A 2"
_symmetry_group_IT_number 28
_symmetry_cell_setting 'orthorhombic'
loop_
_space_group_symop_operation_xyz
x,y,z
-x,-y,z
1/2-x,y,z
1/2+x,-y,z
loop_
_atom_site_type_symbol
_atom_site_label
_atom_site_fract_x
_atom_site_fract_y
_atom_site_fract_z
Si Si1 0.569937 0.905121 0.648330
Si Si2 0.928762 0.600522 0.742015
Si Si3 0.430073 0.288422 0.578568
Si Si4 0.426037 0.907763 0.831998
Si Si5 0.928452 0.398271 0.063005
Si Si6 0.072119 0.398864 0.230250
Si Si7 0.928105 0.600938 0.417446
Si Si8 0.575411 0.291640 0.893680
O O1 0.750000 0.913515 0.651827
O O2 0.516338 0.818627 0.589353
O O3 0.508969 0.886852 0.743062
O O4 0.500000 0.000000 0.609241
O O5 0.750000 0.589536 0.737469
O O6 0.993696 0.648767 0.656244
O O7 0.000000 0.500000 0.753473
O O8 0.969644 0.663531 0.822569
O O9 0.250000 0.292118 0.580390
O O10 0.493471 0.328552 0.488962
O O11 0.250000 0.926800 0.813136
O O12 0.449093 0.820062 0.894818
O O13 0.500000 0.000000 0.875055
O O14 0.750000 0.410422 0.072003
O O15 0.000000 0.500000 0.047306
O O16 0.993673 0.348078 0.149271
O O17 0.973549 0.330824 0.985465
O O18 0.250000 0.405160 0.213089
O O19 0.036925 0.354263 0.323572
O O20 0.000000 0.500000 0.232307
O O21 0.750000 0.586606 0.429034
O O22 0.000000 0.500000 0.430177
O O23 0.750000 0.316779 0.873038
#
# Coordination Sequence:
#
# PCOD8168026 Si02
#       8
#     4   4   4   4   4   4   4   4
#     4  10  18  31  48  67  89 117 152 189 231 269
#     4  11  21  32  45  63  91 126 159 187 219 262
#     4   9  18  31  46  65  91 122 153 184 224 269
#     4  10  19  32  49  68  90 115 150 191 232 272
#     4  10  19  31  46  65  91 121 152 186 225 266
#     4   9  16  27  45  66  88 115 149 187 227 265
#     4   9  17  30  46  66  92 121 151 185 222 266
#     4  10  21  34  47  66  91 122 155 188 226 270
#
# _framework density 16.186022000000001
#
# number of rings (size 3 to 8) (size 9 to 14) (size 15 to 20)
#    0.000    2.250    1.250    4.125    0.000    3.000 
#    0.000    1.875    0.000    0.000    0.000    0.875 
#    0.000    6.000    0.000    0.000    0.000    0.000 
#
# Total GULP energy -396637.699727 kJ/mol
# GULP energy per Si atom -12394.928116 kJ/mol
# Density = 1.614918 g / cm^3
# Si number density = 16.186022 Si / 1000 Ang^3
#
#
#
# Elastic Constant Matrix: (Units=GPa)
#
#
# Indices 1 2 3 4 5 6 
#
# 1 66.1970 32.1342 38.2102 0.0000 0.0000 0.0000
# 2 32.1342 105.8695 60.0077 0.0000 0.0000 0.0000
# 3 38.2102 60.0077 132.9168 0.0000 0.0000 0.0000
# 4 0.0000 0.0000 0.0000 11.0956 0.0000 0.0000
# 5 0.0000 0.0000 0.0000 0.0000 12.9949 0.0000
# 6 0.0000 0.0000 0.0000 0.0000 0.0000 18.9118
#
#
#
# Elastic Compliance Matrix: (Units=1/GPa)
#
#
# Indices 1 2 3 4 5 6 
#
# 1 0.019084 -0.003605 -0.003858 0.000000 0.000000 0.000000
# 2 -0.003605 0.013375 -0.005002 0.000000 0.000000 0.000000
# 3 -0.003858 -0.005002 0.010891 0.000000 0.000000 0.000000
# 4 0.000000 0.000000 0.000000 0.090126 0.000000 0.000000
# 5 0.000000 0.000000 0.000000 0.000000 0.076953 0.000000
# 6 0.000000 0.000000 0.000000 0.000000 0.000000 0.052877
#
#
# Mechanical properties :
#
#
# Convention : Reuss Voigt Hill
#
# Bulk Modulus (GPa) = 54.29411 62.85419 58.57415
# Shear Modulus (GPa) = 16.98504 20.24255 18.61380
#
# Velocity S-wave (km/s) = 3.24290 3.54025 3.39483
# Velocity P-wave (km/s) = 6.90207 7.45841 7.18562
#
# Compressibility (1/GPa) = 0.01841820
#
# Stress axis : x y z
#
# Youngs Moduli (GPa) = 52.40061 74.76583 91.81979
#
# Poissons Ratio (x) = 0.26957 0.35427
# Poissons Ratio (y) = 0.18893 0.45928
# Poissons Ratio (z) = 0.20218 0.37397
#
# Static dielectric constant tensor:
#      x y z
#    x 3.092710 0.000000 0.000000 
#    y 0.000000 3.279230 0.000000 
#    z 0.000000 0.000000 3.519470 
# 
# 
# High freq. dielectric constant tensor:
#      x y z
#    x 1.626940 0.000000 0.000000 
#    y 0.000000 1.602690 0.000000 
#    z 0.000000 0.000000 1.614610 
# 
# From -- ./inp_files/6383.got.cif
#   From: 2010.03.12/outbox.cif.g09.slc.cpg/sg28_4_cif.got.tgz:6383.got - 2010.04.14 03:39:34.
