data_PCOD8168147
_publ_section_title
;
Structure prediction by ZEFSAII (Michael W. Deem and Ramdas Pophale) SiO2 
 PCOD8168147
Probable space group: P M A 2
;
_chemical_formula_sum "Si O2"
_cell_formula_units_Z 32
_cell_length_a 8.926314
_cell_length_b 14.549484
_cell_length_c 12.293052
_cell_angle_alpha 90.000000
_cell_angle_beta 90.000000
_cell_angle_gamma 90.000000
_cell_volume 1596.538772
_symmetry_space_group_name_H-M "P M A 2"
_symmetry_group_IT_number 28
_symmetry_cell_setting 'orthorhombic'
loop_
_space_group_symop_operation_xyz
x,y,z
-x,-y,z
1/2-x,y,z
1/2+x,-y,z
loop_
_atom_site_type_symbol
_atom_site_label
_atom_site_fract_x
_atom_site_fract_y
_atom_site_fract_z
Si Si1 0.925480 0.779581 0.548210
Si Si2 0.421192 0.592077 0.604811
Si Si3 0.924297 0.088083 0.974307
Si Si4 0.422976 0.649868 0.846377
Si Si5 0.576471 0.832856 0.785510
Si Si6 0.075229 0.412228 0.061068
Si Si7 0.926717 0.899955 0.346011
Si Si8 0.422389 0.213959 0.135260
O O1 0.750000 0.758728 0.537046
O O2 0.961829 0.835875 0.658046
O O3 0.984298 0.845097 0.451976
O O4 0.006960 0.681577 0.548432
O O5 0.500000 0.500000 0.560338
O O6 0.250000 0.589629 0.567695
O O7 0.435953 0.592157 0.735419
O O8 0.750000 0.075895 0.980799
O O9 0.978917 0.091137 0.848746
O O10 0.000000 0.000000 0.032098
O O11 0.975715 0.179174 0.036545
O O12 0.250000 0.680660 0.865454
O O13 0.532553 0.735689 0.835973
O O14 0.484629 0.592900 0.947715
O O15 0.750000 0.851597 0.808668
O O16 0.250000 0.428682 0.036660
O O17 0.052979 0.323840 0.139403
O O18 0.000000 0.500000 0.121921
O O19 0.750000 0.914740 0.350620
O O20 0.974897 0.835283 0.245609
O O21 0.000000 0.000000 0.337468
O O22 0.250000 0.190263 0.109966
#
# Coordination Sequence:
#
# PCOD8168147 Si02
#       8
#     4   4   4   4   4   4   4   4
#     4   9  20  38  60  85 117 154 193 241 295 348
#     4  10  20  33  53  83 119 158 200 241 288 343
#     4  12  24  37  57  84 117 154 194 238 292 355
#     4  10  19  32  52  81 116 156 198 238 284 343
#     4  10  19  34  55  82 118 156 192 234 290 348
#     4  11  22  35  55  82 116 156 196 240 289 347
#     4  10  22  42  66  90 114 147 194 245 299 353
#     4  10  22  41  62  85 117 153 193 242 294 348
#
# _framework density 20.043361000000001
#
# number of rings (size 3 to 8) (size 9 to 14) (size 15 to 20)
#    0.000    1.750    1.250    3.375    0.000    6.000 
#    0.000    1.875    0.000    1.500    0.000    0.000 
#    0.000    0.000    0.000    0.000    0.000    0.000 
#
# Total GULP energy -396788.807963 kJ/mol
# GULP energy per Si atom -12399.650249 kJ/mol
# Density = 1.999774 g / cm^3
# Si number density = 20.043361 Si / 1000 Ang^3
#
#
#
# Elastic Constant Matrix: (Units=GPa)
#
#
# Indices 1 2 3 4 5 6 
#
# 1 104.0810 57.0502 45.6884 0.0000 0.0000 0.0000
# 2 57.0502 133.9695 59.6995 0.0000 0.0000 0.0000
# 3 45.6884 59.6995 102.5883 0.0000 0.0000 0.0000
# 4 0.0000 0.0000 0.0000 25.7278 0.0000 0.0000
# 5 0.0000 0.0000 0.0000 0.0000 15.1373 0.0000
# 6 0.0000 0.0000 0.0000 0.0000 0.0000 37.6925
#
#
#
# Elastic Compliance Matrix: (Units=1/GPa)
#
#
# Indices 1 2 3 4 5 6 
#
# 1 0.013444 -0.004127 -0.003586 0.000000 0.000000 0.000000
# 2 -0.004127 0.011345 -0.004764 0.000000 0.000000 0.000000
# 3 -0.003586 -0.004764 0.014117 0.000000 0.000000 0.000000
# 4 0.000000 0.000000 0.000000 0.038868 0.000000 0.000000
# 5 0.000000 0.000000 0.000000 0.000000 0.066062 0.000000
# 6 0.000000 0.000000 0.000000 0.000000 0.000000 0.026530
#
#
# Mechanical properties :
#
#
# Convention : Reuss Voigt Hill
#
# Bulk Modulus (GPa) = 71.67269 73.94611 72.80940
# Shear Modulus (GPa) = 25.00363 27.59157 26.29760
#
# Velocity S-wave (km/s) = 3.53580 3.71427 3.62613
# Velocity P-wave (km/s) = 7.24607 7.44094 7.34415
#
# Compressibility (1/GPa) = 0.01395232
#
# Stress axis : x y z
#
# Youngs Moduli (GPa) = 74.38145 88.14599 70.83755
#
# Poissons Ratio (x) = 0.36381 0.25400
# Poissons Ratio (y) = 0.30699 0.33746
# Poissons Ratio (z) = 0.26671 0.41991
#
# Static dielectric constant tensor:
#      x y z
#    x 3.614920 0.000000 0.000000 
#    y 0.000000 3.688260 0.000000 
#    z 0.000000 0.000000 3.617910 
# 
# 
# High freq. dielectric constant tensor:
#      x y z
#    x 1.784870 0.000000 0.000000 
#    y 0.000000 1.791080 0.000000 
#    z 0.000000 0.000000 1.759600 
# 
# From -- ./inp_files/4990.got.cif
#   From: 2010.03.12/outbox.cif.g09.slc.cpg/sg28_3_cif.got.tgz:4990.got - 2010.04.14 03:39:34.
