data_PCOD8168473
_publ_section_title
;
Structure prediction by ZEFSAII (Michael W. Deem and Ramdas Pophale) SiO2 
 PCOD8168473
Probable space group: P M A 2
;
_chemical_formula_sum "Si O2"
_cell_formula_units_Z 32
_cell_length_a 14.902384
_cell_length_b 8.656835
_cell_length_c 12.298970
_cell_angle_alpha 90.000000
_cell_angle_beta 90.000000
_cell_angle_gamma 90.000000
_cell_volume 1586.659119
_symmetry_space_group_name_H-M "P M A 2"
_symmetry_group_IT_number 28
_symmetry_cell_setting 'orthorhombic'
loop_
_space_group_symop_operation_xyz
x,y,z
-x,-y,z
1/2-x,y,z
1/2+x,-y,z
loop_
_atom_site_type_symbol
_atom_site_label
_atom_site_fract_x
_atom_site_fract_y
_atom_site_fract_z
Si Si1 0.494823 0.315853 0.858270
Si Si2 0.347356 0.711984 0.470644
Si Si3 0.849898 0.661085 0.693723
Si Si4 0.497056 0.316757 0.104741
Si Si5 0.144691 0.839695 0.251069
Si Si6 0.090328 0.396406 0.465461
Si Si7 0.854168 0.796973 0.263398
Si Si8 0.850294 0.296243 0.708039
O O1 0.500000 0.500000 0.853948
O O2 0.406814 0.261370 0.791437
O O3 0.582313 0.238625 0.801350
O O4 0.491677 0.256049 0.981199
O O5 0.250000 0.790634 0.470253
O O6 0.398140 0.779796 0.365608
O O7 0.333078 0.526898 0.456912
O O8 0.390772 0.751063 0.588558
O O9 0.750000 0.734369 0.693307
O O10 0.900259 0.694761 0.579385
O O11 0.843913 0.479642 0.712838
O O12 0.500000 0.500000 0.111511
O O13 0.585307 0.238761 0.157251
O O14 0.403672 0.271467 0.159386
O O15 0.250000 0.793174 0.234754
O O16 0.132156 0.021312 0.254858
O O17 0.098853 0.270169 0.371143
O O18 0.000000 0.500000 0.458402
O O19 0.750000 0.749861 0.260253
O O20 0.750000 0.227204 0.726287
#
# Coordination Sequence:
#
# PCOD8168473 Si02
#       8
#     4   4   4   4   4   4   4   4
#     4   9  18  31  47  73 106 137 176 223 273 327
#     4   9  16  29  51  79 108 135 170 216 267 326
#     4   9  16  28  48  76 111 144 173 215 274 333
#     4  11  23  37  56  81 109 144 189 241 284 325
#     4  10  22  39  58  80 111 150 187 229 285 345
#     4  11  19  30  54  85 114 144 179 224 275 331
#     4  11  23  38  56  79 111 151 190 230 282 342
#     4   8  14  26  47  75 106 137 168 214 275 333
#
# _framework density 20.168163
#
# number of rings (size 3 to 8) (size 9 to 14) (size 15 to 20)
#    0.000    2.250    0.000    6.000    0.000    2.500 
#    0.000    2.500    0.000    3.000    0.000    3.500 
#    0.000    0.000    0.000    0.000    0.000    0.000 
#
# Total GULP energy -396475.151925 kJ/mol
# GULP energy per Si atom -12389.848498 kJ/mol
# Density = 2.012226 g / cm^3
# Si number density = 20.168163 Si / 1000 Ang^3
#
#
#
# Elastic Constant Matrix: (Units=GPa)
#
#
# Indices 1 2 3 4 5 6 
#
# 1 144.4989 28.1283 87.4226 0.0000 0.0000 0.0000
# 2 28.1283 51.0482 43.8523 0.0000 0.0000 0.0000
# 3 87.4226 43.8523 204.5219 0.0000 0.0000 0.0000
# 4 0.0000 0.0000 0.0000 -0.2797 0.0000 0.0000
# 5 0.0000 0.0000 0.0000 0.0000 29.3196 0.0000
# 6 0.0000 0.0000 0.0000 0.0000 0.0000 17.9755
#
#
#
# Elastic Compliance Matrix: (Units=1/GPa)
#
#
# Indices 1 2 3 4 5 6 
#
# 1 0.009522 -0.002146 -0.003610 0.000000 0.000000 0.000000
# 2 -0.002146 0.024496 -0.004335 0.000000 0.000000 0.000000
# 3 -0.003610 -0.004335 0.007362 0.000000 0.000000 0.000000
# 4 0.000000 0.000000 0.000000 -3.574695 0.000000 0.000000
# 5 0.000000 0.000000 0.000000 0.000000 0.034107 0.000000
# 6 0.000000 0.000000 0.000000 0.000000 0.000000 0.055631
#
#
# Mechanical properties :
#
#
# Convention : Reuss Voigt Hill
#
# Bulk Modulus (GPa) = 47.17375 79.87506 63.52440
# Shear Modulus (GPa) = -1.46356 25.44745 11.99195
#
# Velocity S-wave (km/s) = -0.85279 3.55598 2.44108
# Velocity P-wave (km/s) = 4.74039 7.52001 6.28577
#
# Compressibility (1/GPa) = 0.02119823
#
# Stress axis : x y z
#
# Youngs Moduli (GPa) = 105.01588 40.82369 135.82985
#
# Poissons Ratio (x) = 0.08759 0.49038
# Poissons Ratio (y) = 0.22532 0.58883
# Poissons Ratio (z) = 0.37914 0.17697
#
# Static dielectric constant tensor:
#      x y z
#    x 4.038760 0.000000 0.000000 
#    y 0.000000 3.257090 0.000000 
#    z 0.000000 0.000000 3.880930 
# 
# 
# High freq. dielectric constant tensor:
#      x y z
#    x 1.801180 0.000000 0.000000 
#    y 0.000000 1.736950 0.000000 
#    z 0.000000 0.000000 1.791630 
# 
# From -- ./inp_files/5642.got.cif
#   From: 2010.03.12/outbox.cif.g09.slc.cpg/sg28_3_cif.got.tgz:5642.got - 2010.04.14 03:39:34.
