data_PCOD8168759
_publ_section_title
;
Structure prediction by ZEFSAII (Michael W. Deem and Ramdas Pophale) SiO2 
 PCOD8168759
Probable space group: P C A 21
;
_chemical_formula_sum "Si O2"
_cell_formula_units_Z 24
_cell_length_a 19.928000
_cell_length_b 11.701231
_cell_length_c 5.274800
_cell_angle_alpha 90.000000
_cell_angle_beta 90.000000
_cell_angle_gamma 90.000000
_cell_volume 1229.989107
_symmetry_space_group_name_H-M "P C A 21"
_symmetry_group_IT_number 29
_symmetry_cell_setting 'orthorhombic'
loop_
_space_group_symop_operation_xyz
x,y,z
-x,-y,1/2+z
1/2-x,y,1/2+z
1/2+x,-y,z
loop_
_atom_site_type_symbol
_atom_site_label
_atom_site_fract_x
_atom_site_fract_y
_atom_site_fract_z
Si Si1 0.281992 0.642188 0.741360
Si Si2 0.412922 0.513223 0.742143
Si Si3 0.510690 0.851499 0.741882
Si Si4 0.432505 0.900930 0.241882
Si Si5 0.938610 0.609623 0.242146
Si Si6 0.224755 0.894487 0.741680
O O1 0.250120 0.584646 0.491150
O O2 0.361170 0.618276 0.741948
O O3 0.267844 0.777243 0.741163
O O4 0.484852 0.570383 0.742125
O O5 0.401514 0.435736 0.493160
O O6 0.401481 0.435875 0.991316
O O7 0.464775 0.845147 0.491412
O O8 0.562666 0.746904 0.741984
O O9 0.557021 0.963395 0.741927
O O10 0.464717 0.845187 0.992206
O O11 0.354150 0.871493 0.242017
O O12 0.249924 0.963085 0.491567
#
# Coordination Sequence:
#
# PCOD8168759 Si02
#       6
#     4   4   4   4   4   4
#     4  10  21  33  53  80 109 150 176 236 285 327
#     4  10  21  36  51  83 113 144 195 229 277 337
#     4  10  21  36  59  85 112 159 177 246 282 333
#     4  10  21  36  57  87 120 139 198 230 289 342
#     4  10  21  35  57  78 112 156 181 238 279 326
#     4  10  21  34  53  85 110 152 175 233 288 331
#
# _framework density 19.512367000000001
#
# number of rings (size 3 to 8) (size 9 to 14) (size 15 to 20)
#    0.000    2.000    0.000    3.000    9.333    0.000 
#    0.000    0.000    0.000    6.000    0.000    0.000 
#    0.000    0.000    0.000    0.000    0.000    0.000 
#
# Total GULP energy -297553.111705 kJ/mol
# GULP energy per Si atom -12398.046321 kJ/mol
# Density = 1.946796 g / cm^3
# Si number density = 19.512367 Si / 1000 Ang^3
#
#
#
# Elastic Constant Matrix: (Units=GPa)
#
#
# Indices 1 2 3 4 5 6 
#
# 1 55.3208 0.9712 25.7813 0.0000 0.0000 0.0000
# 2 0.9712 58.6059 15.4925 0.0000 0.0000 0.0000
# 3 25.7813 15.4925 193.5247 0.0000 0.0000 0.0000
# 4 0.0000 0.0000 0.0000 11.8062 0.0000 0.0000
# 5 0.0000 0.0000 0.0000 0.0000 27.9353 0.0000
# 6 0.0000 0.0000 0.0000 0.0000 0.0000 28.2109
#
#
#
# Elastic Compliance Matrix: (Units=1/GPa)
#
#
# Indices 1 2 3 4 5 6 
#
# 1 0.019281 0.000367 -0.002598 0.000000 0.000000 0.000000
# 2 0.000367 0.017439 -0.001445 0.000000 0.000000 0.000000
# 3 -0.002598 -0.001445 0.005629 0.000000 0.000000 0.000000
# 4 0.000000 0.000000 0.000000 0.084701 0.000000 0.000000
# 5 0.000000 0.000000 0.000000 0.000000 0.035797 0.000000
# 6 0.000000 0.000000 0.000000 0.000000 0.000000 0.035447
#
#
# Mechanical properties :
#
#
# Convention : Reuss Voigt Hill
#
# Bulk Modulus (GPa) = 28.57355 43.54904 36.06129
# Shear Modulus (GPa) = 23.00846 31.27092 27.13969
#
# Velocity S-wave (km/s) = 3.43763 4.00762 3.73352
# Velocity P-wave (km/s) = 5.51652 6.61678 6.09154
#
# Compressibility (1/GPa) = 0.03499741
#
# Stress axis : x y z
#
# Youngs Moduli (GPa) = 51.86537 57.34261 177.64894
#
# Poissons Ratio (x) = -0.02106 0.46153
# Poissons Ratio (y) = -0.01905 0.25670
# Poissons Ratio (z) = 0.13474 0.08286
#
# Static dielectric constant tensor:
#      x y z
#    x 3.276290 0.000000 0.000000 
#    y 0.000000 3.276560 0.000000 
#    z 0.000000 0.000000 5.386500 
# 
# 
# High freq. dielectric constant tensor:
#      x y z
#    x 1.740560 0.000000 0.000000 
#    y 0.000000 1.722100 0.000000 
#    z 0.000000 0.000000 1.799730 
# 
# From -- ./inp_files/191.got.cif
#   From: 2010.03.12/outbox.cif.g09.slc.cpg/sg29_1_cif.got.tgz:191.got - 2010.04.14 03:43:10.
