data_PCOD8168166
_publ_section_title
;
Structure prediction by ZEFSAII (Michael W. Deem and Ramdas Pophale) SiO2 
 PCOD8168166
Probable space group: P M A 2
;
_chemical_formula_sum "Si O2"
_cell_formula_units_Z 32
_cell_length_a 16.326705
_cell_length_b 5.188406
_cell_length_c 18.043701
_cell_angle_alpha 90.000000
_cell_angle_beta 90.000000
_cell_angle_gamma 90.000000
_cell_volume 1528.474228
_symmetry_space_group_name_H-M "P M A 2"
_symmetry_group_IT_number 28
_symmetry_cell_setting 'orthorhombic'
loop_
_space_group_symop_operation_xyz
x,y,z
-x,-y,z
1/2-x,y,z
1/2+x,-y,z
loop_
_atom_site_type_symbol
_atom_site_label
_atom_site_fract_x
_atom_site_fract_y
_atom_site_fract_z
Si Si1 0.847819 0.886840 0.665640
Si Si2 0.152454 0.119011 0.328415
Si Si3 0.652644 0.399908 0.920348
Si Si4 0.652319 0.386826 0.580373
Si Si5 0.155652 0.081292 0.161202
Si Si6 0.847149 0.900199 0.832196
Si Si7 0.847786 0.382083 0.412970
Si Si8 0.092366 0.576522 0.084951
O O1 0.750000 0.885381 0.666810
O O2 0.881251 0.135874 0.622492
O O3 0.881569 0.636054 0.623350
O O4 0.883051 0.890959 0.749105
O O5 0.250000 0.123980 0.329895
O O6 0.120801 0.116579 0.244107
O O7 0.117454 0.370783 0.369448
O O8 0.118413 0.870203 0.371478
O O9 0.750000 0.395501 0.932068
O O10 0.622257 0.652701 0.877339
O O11 0.621669 0.155846 0.873267
O O12 0.608671 0.391583 0.998573
O O13 0.750000 0.387756 0.579830
O O14 0.618411 0.387181 0.496692
O O15 0.250000 0.997122 0.162490
O O16 0.149167 0.351060 0.117774
O O17 0.106485 0.852024 0.122654
O O18 0.750000 0.900875 0.827961
O O19 0.750000 0.382564 0.413275
O O20 0.000000 0.500000 0.100436
#
# Coordination Sequence:
#
# PCOD8168166 Si02
#       8
#     4   4   4   4   4   4   4   4
#     4   9  15  23  34  55  86 125 168 206 246 301
#     4   9  17  28  45  67  93 127 174 220 254 299
#     4  10  19  33  52  73  97 134 178 218 260 318
#     4   9  15  21  33  53  87 131 166 196 246 311
#     4  11  22  39  61  83 108 147 192 230 270 331
#     4   9  17  28  45  67  93 127 174 220 254 299
#     4   9  15  24  37  60  92 129 170 210 252 305
#     4  12  25  40  58  84 115 144 176 230 290 336
#
# _framework density 20.935911000000001
#
# number of rings (size 3 to 8) (size 9 to 14) (size 15 to 20)
#    0.000    2.250    0.000    4.500    0.000    9.000 
#    0.000    0.000    0.000    0.000    0.000    0.000 
#    0.000    0.000    0.000   78.750    0.000   87.500 
#
# Total GULP energy -396867.565977 kJ/mol
# GULP energy per Si atom -12402.111437 kJ/mol
# Density = 2.088826 g / cm^3
# Si number density = 20.935911 Si / 1000 Ang^3
#
#
#
# Elastic Constant Matrix: (Units=GPa)
#
#
# Indices 1 2 3 4 5 6 
#
# 1 14.4190 -0.1394 6.1285 0.0000 0.0000 0.0000
# 2 -0.1394 193.6744 90.7480 0.0000 0.0000 0.0000
# 3 6.1285 90.7480 193.4414 0.0000 0.0000 0.0000
# 4 0.0000 0.0000 0.0000 49.5685 0.0000 0.0000
# 5 0.0000 0.0000 0.0000 0.0000 -2.5787 0.0000
# 6 0.0000 0.0000 0.0000 0.0000 0.0000 13.9868
#
#
#
# Elastic Compliance Matrix: (Units=1/GPa)
#
#
# Indices 1 2 3 4 5 6 
#
# 1 0.070598 0.001408 -0.002897 0.000000 0.000000 0.000000
# 2 0.001408 0.006646 -0.003162 0.000000 0.000000 0.000000
# 3 -0.002897 -0.003162 0.006745 0.000000 0.000000 0.000000
# 4 0.000000 0.000000 0.000000 0.020174 0.000000 0.000000
# 5 0.000000 0.000000 0.000000 0.000000 -0.387787 0.000000
# 6 0.000000 0.000000 0.000000 0.000000 0.000000 0.071496
#
#
# Mechanical properties :
#
#
# Convention : Reuss Voigt Hill
#
# Bulk Modulus (GPa) = 13.38936 66.11213 39.75075
# Shear Modulus (GPa) = -28.10099 32.51517 2.20709
#
# Velocity S-wave (km/s) = -3.66763 3.94519 1.02786
# Velocity P-wave (km/s) = 3.39501 7.23876 4.52070
#
# Compressibility (1/GPa) = 0.07468615
#
# Stress axis : x y z
#
# Youngs Moduli (GPa) = 14.16471 150.46347 148.25987
#
# Poissons Ratio (x) = -0.21192 0.42957
# Poissons Ratio (y) = -0.01995 0.46887
# Poissons Ratio (z) = 0.04104 0.47584
#
# Static dielectric constant tensor:
#      x y z
#    x 3.001140 0.000000 0.000000 
#    y 0.000000 4.089110 0.000000 
#    z 0.000000 0.000000 4.033780 
# 
# 
# High freq. dielectric constant tensor:
#      x y z
#    x 1.751700 0.000000 0.000000 
#    y 0.000000 1.839330 0.000000 
#    z 0.000000 0.000000 1.839680 
# 
# From -- ./inp_files/6600.got.cif
#   From: 2010.03.12/outbox.cif.g09.slc.cpg/sg28_4_cif.got.tgz:6600.got - 2010.04.14 03:39:34.
