data_PCOD8168706
_publ_section_title
;
Structure prediction by ZEFSAII (Michael W. Deem and Ramdas Pophale) SiO2 
 PCOD8168706
Probable space group: P C A 21
;
_chemical_formula_sum "Si O2"
_cell_formula_units_Z 24
_cell_length_a 16.168863
_cell_length_b 8.349820
_cell_length_c 8.736291
_cell_angle_alpha 90.000000
_cell_angle_beta 90.000000
_cell_angle_gamma 90.000000
_cell_volume 1179.461275
_symmetry_space_group_name_H-M "P C A 21"
_symmetry_group_IT_number 29
_symmetry_cell_setting 'orthorhombic'
loop_
_space_group_symop_operation_xyz
x,y,z
-x,-y,1/2+z
1/2-x,y,1/2+z
1/2+x,-y,z
loop_
_atom_site_type_symbol
_atom_site_label
_atom_site_fract_x
_atom_site_fract_y
_atom_site_fract_z
Si Si1 0.505489 0.653244 0.554840
Si Si2 0.662338 0.329995 0.893205
Si Si3 0.256418 0.378786 0.808210
Si Si4 0.592888 0.401894 0.356313
Si Si5 0.806753 0.185435 0.064889
Si Si6 0.669589 0.818917 0.553534
O O1 0.432509 0.693222 0.437645
O O2 0.551235 0.492795 0.498942
O O3 0.474878 0.636977 0.728731
O O4 0.570590 0.798735 0.549670
O O5 0.691664 0.515333 0.908042
O O6 0.674278 0.281303 0.717938
O O7 0.713639 0.220426 0.010818
O O8 0.335732 0.492374 0.774297
O O9 0.209728 0.317801 0.659318
O O10 0.288008 0.217602 0.891052
O O11 0.631442 0.239785 0.428144
O O12 0.813033 0.998777 0.102962
#
# Coordination Sequence:
#
# PCOD8168706 Si02
#       6
#     4   4   4   4   4   4
#     4  11  22  37  61  88 117 152 203 253 293 342
#     4  11  21  40  63  86 115 160 204 243 288 355
#     4  10  20  38  61  82 112 156 202 234 284 358
#     4  10  21  38  60  87 117 158 202 246 291 351
#     4  11  23  39  60  86 122 158 193 239 304 362
#     4  11  23  38  59  89 119 152 192 247 302 352
#
# _framework density 20.348272999999999
#
# number of rings (size 3 to 8) (size 9 to 14) (size 15 to 20)
#    0.000    1.333    0.000    9.000    0.000    1.333 
#    0.000    5.000    0.000    0.000    0.000    0.000 
#    0.000    0.000    0.000    0.000    0.000    0.000 
#
# Total GULP energy -297627.134559 kJ/mol
# GULP energy per Si atom -12401.130607 kJ/mol
# Density = 2.030196 g / cm^3
# Si number density = 20.348273 Si / 1000 Ang^3
#
#
#
# Elastic Constant Matrix: (Units=GPa)
#
#
# Indices 1 2 3 4 5 6 
#
# 1 122.9869 42.3811 31.6504 0.0000 0.0000 0.0000
# 2 42.3811 102.0941 19.0911 0.0000 0.0000 0.0000
# 3 31.6504 19.0911 73.2121 0.0000 0.0000 0.0000
# 4 0.0000 0.0000 0.0000 20.7053 0.0000 0.0000
# 5 0.0000 0.0000 0.0000 0.0000 43.3735 0.0000
# 6 0.0000 0.0000 0.0000 0.0000 0.0000 18.6688
#
#
#
# Elastic Compliance Matrix: (Units=1/GPa)
#
#
# Indices 1 2 3 4 5 6 
#
# 1 0.010276 -0.003611 -0.003501 0.000000 0.000000 0.000000
# 2 -0.003611 0.011566 -0.001455 0.000000 0.000000 0.000000
# 3 -0.003501 -0.001455 0.015552 0.000000 0.000000 0.000000
# 4 0.000000 0.000000 0.000000 0.048297 0.000000 0.000000
# 5 0.000000 0.000000 0.000000 0.000000 0.023056 0.000000
# 6 0.000000 0.000000 0.000000 0.000000 0.000000 0.053565
#
#
# Mechanical properties :
#
#
# Convention : Reuss Voigt Hill
#
# Bulk Modulus (GPa) = 49.35779 53.83758 51.59769
# Shear Modulus (GPa) = 26.85297 30.22756 28.54027
#
# Velocity S-wave (km/s) = 3.63667 3.85841 3.74918
# Velocity P-wave (km/s) = 6.47634 6.80921 6.64486
#
# Compressibility (1/GPa) = 0.02026022
#
# Stress axis : x y z
#
# Youngs Moduli (GPa) = 97.31121 86.46021 64.30129
#
# Poissons Ratio (x) = 0.31223 0.22511
# Poissons Ratio (y) = 0.35141 0.09355
# Poissons Ratio (z) = 0.34067 0.12579
#
# Static dielectric constant tensor:
#      x y z
#    x 3.913480 0.000000 0.000000 
#    y 0.000000 3.414730 0.000000 
#    z 0.000000 0.000000 3.603760 
# 
# 
# High freq. dielectric constant tensor:
#      x y z
#    x 1.805620 0.000000 0.000000 
#    y 0.000000 1.776790 0.000000 
#    z 0.000000 0.000000 1.803640 
# 
# From -- ./inp_files/1671.got.cif
#   From: 2010.03.12/outbox.cif.g09.slc.cpg/sg29_1_cif.got.tgz:1671.got - 2010.04.14 03:43:10.
