data_PCOD8168470
_publ_section_title
;
Structure prediction by ZEFSAII (Michael W. Deem and Ramdas Pophale) SiO2 
 PCOD8168470
Probable space group: P M A 2
;
_chemical_formula_sum "Si O2"
_cell_formula_units_Z 32
_cell_length_a 13.508638
_cell_length_b 12.067757
_cell_length_c 9.610364
_cell_angle_alpha 90.000000
_cell_angle_beta 90.000000
_cell_angle_gamma 90.000000
_cell_volume 1566.671552
_symmetry_space_group_name_H-M "P M A 2"
_symmetry_group_IT_number 28
_symmetry_cell_setting 'orthorhombic'
loop_
_space_group_symop_operation_xyz
x,y,z
-x,-y,z
1/2-x,y,z
1/2+x,-y,z
loop_
_atom_site_type_symbol
_atom_site_label
_atom_site_fract_x
_atom_site_fract_y
_atom_site_fract_z
Si Si1 0.366739 0.931672 0.060020
Si Si2 0.449725 0.677012 0.561402
Si Si3 0.634722 0.234942 0.291866
Si Si4 0.542998 0.241156 0.856944
Si Si5 0.865034 0.407346 0.053190
Si Si6 0.865782 0.618834 0.198204
Si Si7 0.635580 0.557726 0.502519
Si Si8 0.366083 0.179033 0.016616
O O1 0.250000 0.937210 0.051614
O O2 0.398249 0.873530 0.204572
O O3 0.400623 0.861996 0.926433
O O4 0.407778 0.057370 0.056334
O O5 0.433389 0.757169 0.429035
O O6 0.425258 0.751144 0.696290
O O7 0.562418 0.635704 0.591390
O O8 0.377519 0.571096 0.541425
O O9 0.750000 0.229162 0.335295
O O10 0.614415 0.341839 0.196378
O O11 0.425220 0.221928 0.881075
O O12 0.573442 0.357177 0.926853
O O13 0.750000 0.400227 0.012285
O O14 0.902734 0.532669 0.080091
O O15 0.750000 0.601885 0.211934
O O16 0.907341 0.585785 0.348584
O O17 0.893049 0.742943 0.149278
O O18 0.750000 0.591471 0.525346
O O19 0.250000 0.182246 0.981210
#
# Coordination Sequence:
#
# PCOD8168470 Si02
#       8
#     4   4   4   4   4   4   4   4
#     4   9  20  40  65  89 113 150 202 259 308 347
#     4  11  23  35  58  91 120 165 203 235 300 362
#     4   9  17  34  61  89 116 147 197 257 300 343
#     4  11  23  36  57  89 122 155 198 248 297 355
#     4   9  18  34  58  90 118 148 193 246 298 346
#     4   9  18  34  59  88 114 149 194 242 296 354
#     4  10  22  38  55  83 130 165 193 240 299 368
#     4  10  22  39  62  86 117 158 202 248 304 362
#
# _framework density 20.425467999999999
#
# number of rings (size 3 to 8) (size 9 to 14) (size 15 to 20)
#    0.000    2.250    1.250    1.875    3.500    5.000 
#    0.000    1.250    5.500    0.000    0.000    0.000 
#    0.000    0.000    0.000    0.000    0.000    0.000 
#
# Total GULP energy -396662.423191 kJ/mol
# GULP energy per Si atom -12395.700725 kJ/mol
# Density = 2.037898 g / cm^3
# Si number density = 20.425468 Si / 1000 Ang^3
#
#
#
# Elastic Constant Matrix: (Units=GPa)
#
#
# Indices 1 2 3 4 5 6 
#
# 1 30.9047 16.2829 34.3988 0.0000 0.0000 0.0000
# 2 16.2829 132.2428 61.5850 0.0000 0.0000 0.0000
# 3 34.3988 61.5850 125.7946 0.0000 0.0000 0.0000
# 4 0.0000 0.0000 0.0000 20.0473 0.0000 0.0000
# 5 0.0000 0.0000 0.0000 0.0000 22.0440 0.0000
# 6 0.0000 0.0000 0.0000 0.0000 0.0000 21.0149
#
#
#
# Elastic Compliance Matrix: (Units=1/GPa)
#
#
# Indices 1 2 3 4 5 6 
#
# 1 0.046522 0.000254 -0.012846 0.000000 0.000000 0.000000
# 2 0.000254 0.009796 -0.004865 0.000000 0.000000 0.000000
# 3 -0.012846 -0.004865 0.013844 0.000000 0.000000 0.000000
# 4 0.000000 0.000000 0.000000 0.049882 0.000000 0.000000
# 5 0.000000 0.000000 0.000000 0.000000 0.045364 0.000000
# 6 0.000000 0.000000 0.000000 0.000000 0.000000 0.047585
#
#
# Mechanical properties :
#
#
# Convention : Reuss Voigt Hill
#
# Bulk Modulus (GPa) = 28.37044 57.05284 42.71164
# Shear Modulus (GPa) = 19.25610 24.39957 21.82783
#
# Velocity S-wave (km/s) = 3.07375 3.46000 3.27258
# Velocity P-wave (km/s) = 5.14948 6.62985 5.93600
#
# Compressibility (1/GPa) = 0.03524796
#
# Stress axis : x y z
#
# Youngs Moduli (GPa) = 21.49520 102.07828 72.23236
#
# Poissons Ratio (x) = -0.02594 0.92789
# Poissons Ratio (y) = -0.00546 0.35145
# Poissons Ratio (z) = 0.27613 0.49666
#
# Static dielectric constant tensor:
#      x y z
#    x 3.843560 0.000000 0.000000 
#    y 0.000000 3.971010 0.000000 
#    z 0.000000 0.000000 3.449610 
# 
# 
# High freq. dielectric constant tensor:
#      x y z
#    x 1.818890 0.000000 0.000000 
#    y 0.000000 1.788720 0.000000 
#    z 0.000000 0.000000 1.765970 
# 
# From -- ./inp_files/3550.got.cif
#   From: 2010.03.12/outbox.cif.g09.slc.cpg/sg28_2_cif.got.tgz:3550.got - 2010.04.14 03:39:34.
