data_PCOD8168611
_publ_section_title
;
Structure prediction by ZEFSAII (Michael W. Deem and Ramdas Pophale) SiO2 
 PCOD8168611
Probable space group: P C A 21
;
_chemical_formula_sum "Si O2"
_cell_formula_units_Z 32
_cell_length_a 16.649911
_cell_length_b 17.809390
_cell_length_c 5.185885
_cell_angle_alpha 90.000000
_cell_angle_beta 90.000000
_cell_angle_gamma 90.000000
_cell_volume 1537.743297
_symmetry_space_group_name_H-M "P C A 21"
_symmetry_group_IT_number 29
_symmetry_cell_setting 'orthorhombic'
loop_
_space_group_symop_operation_xyz
x,y,z
-x,-y,1/2+z
1/2-x,y,1/2+z
1/2+x,-y,z
loop_
_atom_site_type_symbol
_atom_site_label
_atom_site_fract_x
_atom_site_fract_y
_atom_site_fract_z
Si Si1 0.540605 0.087060 0.101230
Si Si2 0.305185 0.207146 0.640179
Si Si3 0.214213 0.707361 0.118827
Si Si4 0.457157 0.661812 0.650753
Si Si5 0.435316 0.337001 0.649491
Si Si6 0.784635 0.125316 0.625230
Si Si7 0.951706 0.500471 0.565024
Si Si8 0.558643 0.912228 0.101168
O O1 0.620265 0.134580 0.134120
O O2 0.480677 0.109817 0.329605
O O3 0.570846 0.001254 0.112181
O O4 0.499544 0.111093 0.834513
O O5 0.242614 0.208594 0.407055
O O6 0.361831 0.280082 0.623644
O O7 0.357219 0.130827 0.627021
O O8 0.250832 0.664603 0.367808
O O9 0.117919 0.716747 0.122113
O O10 0.252603 0.791030 0.118379
O O11 0.521708 0.674726 0.424336
O O12 0.412813 0.579587 0.638352
O O13 0.500291 0.676769 0.922768
O O14 0.401340 0.423159 0.623708
O O15 0.751750 0.081522 0.372712
O O16 0.971711 0.496948 0.260600
#
# Coordination Sequence:
#
# PCOD8168611 Si02
#       8
#     4   4   4   4   4   4   4   4
#     4  10  21  40  61  86 112 144 200 234 277 340
#     4  12  26  42  59  88 123 155 195 241 301 359
#     4  10  21  34  48  80 117 140 172 222 273 329
#     4  10  19  35  60  82 108 155 194 234 280 340
#     4  10  21  36  59  84 108 150 195 240 279 334
#     4  10  21  34  53  80 113 145 173 219 273 329
#     4   8  16  32  53  81 109 137 194 242 276 323
#     4  10  23  39  61  85 112 148 189 248 279 330
#
# _framework density 20.809715000000001
#
# number of rings (size 3 to 8) (size 9 to 14) (size 15 to 20)
#    0.000    2.000    0.000    3.000    3.500    1.000 
#    0.000    1.250    0.000    0.000    0.000    0.000 
#    0.000    0.000    0.000    0.000    0.000    0.000 
#
# Total GULP energy -396530.837304 kJ/mol
# GULP energy per Si atom -12391.588666 kJ/mol
# Density = 2.076235 g / cm^3
# Si number density = 20.809715 Si / 1000 Ang^3
#
#
#
# Elastic Constant Matrix: (Units=GPa)
#
#
# Indices 1 2 3 4 5 6 
#
# 1 85.4106 27.0427 25.9565 0.0000 0.0000 0.0000
# 2 27.0427 65.7438 15.5521 0.0000 0.0000 0.0000
# 3 25.9565 15.5521 139.3583 0.0000 0.0000 0.0000
# 4 0.0000 0.0000 0.0000 14.5103 0.0000 0.0000
# 5 0.0000 0.0000 0.0000 0.0000 36.9398 0.0000
# 6 0.0000 0.0000 0.0000 0.0000 0.0000 14.5506
#
#
#
# Elastic Compliance Matrix: (Units=1/GPa)
#
#
# Indices 1 2 3 4 5 6 
#
# 1 0.013992 -0.005278 -0.002017 0.000000 0.000000 0.000000
# 2 -0.005278 0.017614 -0.000983 0.000000 0.000000 0.000000
# 3 -0.002017 -0.000983 0.007661 0.000000 0.000000 0.000000
# 4 0.000000 0.000000 0.000000 0.068916 0.000000 0.000000
# 5 0.000000 0.000000 0.000000 0.000000 0.027071 0.000000
# 6 0.000000 0.000000 0.000000 0.000000 0.000000 0.068726
#
#
# Mechanical properties :
#
#
# Convention : Reuss Voigt Hill
#
# Bulk Modulus (GPa) = 44.03054 47.51279 45.77166
# Shear Modulus (GPa) = 21.91948 27.99757 24.95852
#
# Velocity S-wave (km/s) = 3.24902 3.67196 3.46695
# Velocity P-wave (km/s) = 5.93965 6.39213 6.17004
#
# Compressibility (1/GPa) = 0.02271151
#
# Stress axis : x y z
#
# Youngs Moduli (GPa) = 71.46734 56.77250 130.52948
#
# Poissons Ratio (x) = 0.29967 0.26329
# Poissons Ratio (y) = 0.37723 0.12825
# Poissons Ratio (z) = 0.14416 0.05578
#
# Static dielectric constant tensor:
#      x y z
#    x 3.357810 0.000000 0.000000 
#    y 0.000000 4.003230 0.000000 
#    z 0.000000 0.000000 4.467350 
# 
# 
# High freq. dielectric constant tensor:
#      x y z
#    x 1.782650 0.000000 0.000000 
#    y 0.000000 1.807840 0.000000 
#    z 0.000000 0.000000 1.846030 
# 
# From -- ./inp_files/290.got.cif
#   From: 2010.03.12/outbox.cif.g09.slc.cpg/sg29_1_cif.got.tgz:290.got - 2010.04.14 03:43:10.
