data_PCOD8168029
_publ_section_title
;
Structure prediction by ZEFSAII (Michael W. Deem and Ramdas Pophale) SiO2 
 PCOD8168029
Probable space group: P M A 2
;
_chemical_formula_sum "Si O2"
_cell_formula_units_Z 32
_cell_length_a 8.694776
_cell_length_b 14.268091
_cell_length_c 15.466292
_cell_angle_alpha 90.000000
_cell_angle_beta 90.000000
_cell_angle_gamma 90.000000
_cell_volume 1918.715013
_symmetry_space_group_name_H-M "P M A 2"
_symmetry_group_IT_number 28
_symmetry_cell_setting 'orthorhombic'
loop_
_space_group_symop_operation_xyz
x,y,z
-x,-y,z
1/2-x,y,z
1/2+x,-y,z
loop_
_atom_site_type_symbol
_atom_site_label
_atom_site_fract_x
_atom_site_fract_y
_atom_site_fract_z
Si Si1 0.069267 0.217023 0.006350
Si Si2 0.930850 0.102125 0.503546
Si Si3 0.569915 0.206762 0.330132
Si Si4 0.570188 0.900281 0.173062
Si Si5 0.567723 0.402622 0.065930
Si Si6 0.569915 0.404005 0.264911
Si Si7 0.567328 0.896263 0.677441
Si Si8 0.568436 0.102776 0.851863
O O1 0.250000 0.209436 0.987311
O O2 0.022972 0.170253 0.097052
O O3 0.015119 0.323976 0.009056
O O4 0.974566 0.167637 0.931362
O O5 0.750000 0.090081 0.517423
O O6 0.970472 0.172689 0.426029
O O7 0.005779 0.150625 0.588841
O O8 0.000000 0.000000 0.483102
O O9 0.750000 0.201872 0.310366
O O10 0.489229 0.137345 0.263887
O O11 0.510259 0.313743 0.318647
O O12 0.750000 0.913030 0.180096
O O13 0.500000 0.000000 0.150232
O O14 0.500000 0.500000 0.030984
O O15 0.750000 0.398280 0.053117
O O16 0.519163 0.389351 0.165794
O O17 0.500000 0.500000 0.303285
O O18 0.750000 0.414756 0.272983
O O19 0.750000 0.895471 0.679696
O O20 0.501019 0.849094 0.764692
O O21 0.500000 0.000000 0.675489
O O22 0.750000 0.093900 0.842577
O O23 0.500000 0.000000 0.867639
#
# Coordination Sequence:
#
# PCOD8168029 Si02
#       8
#     4   4   4   4   4   4   4   4
#     4  11  22  35  50  73 100 132 171 207 248 298
#     4  10  19  31  48  70  98 130 165 203 244 291
#     4  10  20  34  50  70  98 131 167 205 246 293
#     4  11  23  34  47  66  96 134 170 203 239 286
#     4  10  19  33  53  73  98 129 166 211 256 298
#     4   9  18  32  50  71  95 126 163 207 252 293
#     4  10  18  31  50  71  97 127 162 204 248 292
#     4  11  21  34  52  74 101 133 168 206 250 297
#
# _framework density 16.677828000000002
#
# number of rings (size 3 to 8) (size 9 to 14) (size 15 to 20)
#    0.000    1.750    1.250    6.000    0.000    5.500 
#    0.000    0.000    0.000    0.000    0.000    0.875 
#    0.000    2.000    0.000    0.000    0.000    0.000 
#
# Total GULP energy -396821.315658 kJ/mol
# GULP energy per Si atom -12400.666114 kJ/mol
# Density = 1.663987 g / cm^3
# Si number density = 16.677828 Si / 1000 Ang^3
#
#
#
# Elastic Constant Matrix: (Units=GPa)
#
#
# Indices 1 2 3 4 5 6 
#
# 1 90.9094 33.9367 50.2923 0.0000 0.0000 0.0000
# 2 33.9367 98.1287 39.2220 0.0000 0.0000 0.0000
# 3 50.2923 39.2220 99.3513 0.0000 0.0000 0.0000
# 4 0.0000 0.0000 0.0000 3.9701 0.0000 0.0000
# 5 0.0000 0.0000 0.0000 0.0000 25.3235 0.0000
# 6 0.0000 0.0000 0.0000 0.0000 0.0000 27.2217
#
#
#
# Elastic Compliance Matrix: (Units=1/GPa)
#
#
# Indices 1 2 3 4 5 6 
#
# 1 0.015860 -0.002702 -0.006962 0.000000 0.000000 0.000000
# 2 -0.002702 0.012560 -0.003591 0.000000 0.000000 0.000000
# 3 -0.006962 -0.003591 0.015007 0.000000 0.000000 0.000000
# 4 0.000000 0.000000 0.000000 0.251882 0.000000 0.000000
# 5 0.000000 0.000000 0.000000 0.000000 0.039489 0.000000
# 6 0.000000 0.000000 0.000000 0.000000 0.000000 0.036735
#
#
# Mechanical properties :
#
#
# Convention : Reuss Voigt Hill
#
# Bulk Modulus (GPa) = 59.10874 59.47682 59.29278
# Shear Modulus (GPa) = 12.38596 22.29895 17.34245
#
# Velocity S-wave (km/s) = 2.72814 3.66052 3.22817
# Velocity P-wave (km/s) = 6.74107 7.32158 7.03732
#
# Compressibility (1/GPa) = 0.01691797
#
# Stress axis : x y z
#
# Youngs Moduli (GPa) = 63.05160 79.61474 66.63654
#
# Poissons Ratio (x) = 0.21516 0.46389
# Poissons Ratio (y) = 0.17040 0.23927
# Poissons Ratio (z) = 0.43894 0.28587
#
# Static dielectric constant tensor:
#      x y z
#    x 3.213880 0.000000 0.000000 
#    y 0.000000 3.096550 0.000000 
#    z 0.000000 0.000000 3.487530 
# 
# 
# High freq. dielectric constant tensor:
#      x y z
#    x 1.658370 0.000000 0.000000 
#    y 0.000000 1.621490 0.000000 
#    z 0.000000 0.000000 1.635040 
# 
# From -- ./inp_files/6438.got.cif
#   From: 2010.03.12/outbox.cif.g09.slc.cpg/sg28_4_cif.got.tgz:6438.got - 2010.04.14 03:39:34.
