data_PCOD8168885
_publ_section_title
;
Structure prediction by ZEFSAII (Michael W. Deem and Ramdas Pophale) SiO2 
 PCOD8168885
Probable space group: P C A 21
;
_chemical_formula_sum "Si O2"
_cell_formula_units_Z 32
_cell_length_a 14.416867
_cell_length_b 6.747464
_cell_length_c 15.269617
_cell_angle_alpha 90.000000
_cell_angle_beta 90.000000
_cell_angle_gamma 90.000000
_cell_volume 1485.386978
_symmetry_space_group_name_H-M "P C A 21"
_symmetry_group_IT_number 29
_symmetry_cell_setting 'orthorhombic'
loop_
_space_group_symop_operation_xyz
x,y,z
-x,-y,1/2+z
1/2-x,y,1/2+z
1/2+x,-y,z
loop_
_atom_site_type_symbol
_atom_site_label
_atom_site_fract_x
_atom_site_fract_y
_atom_site_fract_z
Si Si1 0.619597 0.085872 0.625000
Si Si2 0.857797 0.842798 0.964751
Si Si3 0.240649 0.207460 0.719329
Si Si4 0.904427 0.552259 0.516680
Si Si5 0.544583 0.721719 0.196097
Si Si6 0.028475 0.742236 0.872981
Si Si7 0.294879 0.508735 0.069626
Si Si8 0.165999 0.100707 0.899132
O O1 0.522853 0.090885 0.678138
O O2 0.645874 0.297832 0.585753
O O3 0.593839 0.941053 0.547218
O O4 0.705428 0.003572 0.682170
O O5 0.763679 0.963723 0.942664
O O6 0.931695 0.858922 0.886812
O O7 0.836868 0.613804 0.988349
O O8 0.352257 0.206211 0.719694
O O9 0.203808 0.384745 0.659643
O O10 0.196079 0.235131 0.815500
O O11 0.957985 0.583081 0.609335
O O12 0.961161 0.412620 0.451729
O O13 0.809681 0.440372 0.540853
O O14 0.889690 0.765283 0.469193
O O15 0.490674 0.626017 0.280803
O O16 0.111697 0.902233 0.870901
#
# Coordination Sequence:
#
# PCOD8168885 Si02
#       8
#     4   4   4   4   4   4   4   4
#     4  11  21  40  66  92 124 170 211 255 317 397
#     4  10  22  39  65  91 129 166 206 263 326 370
#     4  10  22  40  62  92 129 166 208 268 321 369
#     4  10  24  42  63  94 132 171 215 267 323 385
#     4  11  23  42  64  97 132 165 217 266 318 387
#     4  12  23  41  68  96 128 172 215 269 320 389
#     4   9  21  40  64  90 127 170 208 261 322 383
#     4  11  22  42  64  92 129 168 216 267 319 382
#
# _framework density 21.543209000000001
#
# number of rings (size 3 to 8) (size 9 to 14) (size 15 to 20)
#    0.000    1.500    2.500    3.000    1.750    1.000 
#    0.000    3.750    0.000    0.000    0.000    0.000 
#    0.000    0.000    0.000    0.000    0.000    0.000 
#
# Total GULP energy -396543.359960 kJ/mol
# GULP energy per Si atom -12391.979999 kJ/mol
# Density = 2.149418 g / cm^3
# Si number density = 21.543209 Si / 1000 Ang^3
#
#
#
# Elastic Constant Matrix: (Units=GPa)
#
#
# Indices 1 2 3 4 5 6 
#
# 1 93.1087 29.6184 36.5750 0.0000 0.0000 0.0000
# 2 29.6184 53.1172 17.9840 0.0000 0.0000 0.0000
# 3 36.5750 17.9840 138.0472 0.0000 0.0000 0.0000
# 4 0.0000 0.0000 0.0000 27.3912 0.0000 0.0000
# 5 0.0000 0.0000 0.0000 0.0000 37.2465 0.0000
# 6 0.0000 0.0000 0.0000 0.0000 0.0000 14.2974
#
#
#
# Elastic Compliance Matrix: (Units=1/GPa)
#
#
# Indices 1 2 3 4 5 6 
#
# 1 0.014035 -0.006870 -0.002823 0.000000 0.000000 0.000000
# 2 -0.006870 0.023058 -0.001184 0.000000 0.000000 0.000000
# 3 -0.002823 -0.001184 0.008146 0.000000 0.000000 0.000000
# 4 0.000000 0.000000 0.000000 0.036508 0.000000 0.000000
# 5 0.000000 0.000000 0.000000 0.000000 0.026848 0.000000
# 6 0.000000 0.000000 0.000000 0.000000 0.000000 0.069943
#
#
# Mechanical properties :
#
#
# Convention : Reuss Voigt Hill
#
# Bulk Modulus (GPa) = 42.58119 50.29199 46.43659
# Shear Modulus (GPa) = 24.02464 29.12673 26.57569
#
# Velocity S-wave (km/s) = 3.34306 3.68096 3.51607
# Velocity P-wave (km/s) = 5.89150 6.43905 6.17135
#
# Compressibility (1/GPa) = 0.02348455
#
# Stress axis : x y z
#
# Youngs Moduli (GPa) = 71.25272 43.36945 122.75725
#
# Poissons Ratio (x) = 0.29794 0.34660
# Poissons Ratio (y) = 0.48949 0.14531
# Poissons Ratio (z) = 0.20118 0.05134
#
# Static dielectric constant tensor:
#      x y z
#    x 4.103190 0.000000 0.000000 
#    y 0.000000 3.423910 0.000000 
#    z 0.000000 0.000000 4.265880 
# 
# 
# High freq. dielectric constant tensor:
#      x y z
#    x 1.862520 0.000000 0.000000 
#    y 0.000000 1.804450 0.000000 
#    z 0.000000 0.000000 1.867380 
# 
# From -- ./inp_files/5215.got.cif
#   From: 2010.03.12/outbox.cif.g09.slc.cpg/sg29_3_cif.got.tgz:5215.got - 2010.04.14 03:43:10.
