data_PCOD8168571
_publ_section_title
;
Structure prediction by ZEFSAII (Michael W. Deem and Ramdas Pophale) SiO2 
 PCOD8168571
Probable space group: P C A 21
;
_chemical_formula_sum "Si O2"
_cell_formula_units_Z 32
_cell_length_a 9.772224
_cell_length_b 8.841358
_cell_length_c 19.129359
_cell_angle_alpha 90.000000
_cell_angle_beta 90.000000
_cell_angle_gamma 90.000000
_cell_volume 1652.771469
_symmetry_space_group_name_H-M "P C A 21"
_symmetry_group_IT_number 29
_symmetry_cell_setting 'orthorhombic'
loop_
_space_group_symop_operation_xyz
x,y,z
-x,-y,1/2+z
1/2-x,y,1/2+z
1/2+x,-y,z
loop_
_atom_site_type_symbol
_atom_site_label
_atom_site_fract_x
_atom_site_fract_y
_atom_site_fract_z
Si Si1 0.098347 0.804834 0.776560
Si Si2 0.882641 0.839413 0.280513
Si Si3 0.286298 0.344238 0.552631
Si Si4 0.351420 0.155342 0.682074
Si Si5 0.469836 0.635436 0.561263
Si Si6 0.234076 0.133902 0.922600
Si Si7 0.134599 0.799197 0.198699
Si Si8 0.452858 0.845036 0.426885
O O1 0.223854 0.738923 0.731343
O O2 0.087263 0.745961 0.857091
O O3 0.966033 0.768279 0.730647
O O4 0.116970 0.981563 0.787684
O O5 0.791334 0.793497 0.214752
O O6 0.821108 0.780798 0.353155
O O7 0.030907 0.772346 0.263306
O O8 0.354340 0.225385 0.605661
O O9 0.389059 0.482895 0.546291
O O10 0.284381 0.261647 0.479432
O O11 0.131719 0.394726 0.572885
O O12 0.366135 0.974895 0.676491
O O13 0.404342 0.705805 0.630707
O O14 0.444849 0.742390 0.495122
O O15 0.393942 0.089053 0.914869
O O16 0.149967 0.983376 0.940671
#
# Coordination Sequence:
#
# PCOD8168571 Si02
#       8
#     4   4   4   4   4   4   4   4
#     4   9  19  32  61  95 116 142 186 242 294 345
#     4   9  17  34  59  90 118 142 184 241 292 338
#     4  11  25  42  57  81 119 160 197 240 287 342
#     4  10  18  37  62  88 115 146 188 238 294 339
#     4  11  25  43  57  81 119 159 199 239 285 344
#     4  10  21  38  62  89 117 151 191 242 294 344
#     4  10  20  37  62  91 116 149 192 240 289 346
#     4  10  21  39  62  89 118 149 193 240 291 348
#
# _framework density 19.361418
#
# number of rings (size 3 to 8) (size 9 to 14) (size 15 to 20)
#    0.000    2.000    2.500    0.750    7.000    1.000 
#    0.000    2.500    0.000    0.000    0.000    0.000 
#    0.000    0.000    0.000    0.000    0.000    0.000 
#
# Total GULP energy -396655.655592 kJ/mol
# GULP energy per Si atom -12395.489237 kJ/mol
# Density = 1.931735 g / cm^3
# Si number density = 19.361418 Si / 1000 Ang^3
#
#
#
# Elastic Constant Matrix: (Units=GPa)
#
#
# Indices 1 2 3 4 5 6 
#
# 1 99.3679 33.7708 26.8897 0.0000 0.0000 0.0000
# 2 33.7708 48.3650 24.3256 0.0000 0.0000 0.0000
# 3 26.8897 24.3256 104.1267 0.0000 0.0000 0.0000
# 4 0.0000 0.0000 0.0000 1.1861 0.0000 0.0000
# 5 0.0000 0.0000 0.0000 0.0000 34.0571 0.0000
# 6 0.0000 0.0000 0.0000 0.0000 0.0000 27.0190
#
#
#
# Elastic Compliance Matrix: (Units=1/GPa)
#
#
# Indices 1 2 3 4 5 6 
#
# 1 0.013383 -0.008619 -0.001442 0.000000 0.000000 0.000000
# 2 -0.008619 0.028980 -0.004544 0.000000 0.000000 0.000000
# 3 -0.001442 -0.004544 0.011038 0.000000 0.000000 0.000000
# 4 0.000000 0.000000 0.000000 0.843096 0.000000 0.000000
# 5 0.000000 0.000000 0.000000 0.000000 0.029362 0.000000
# 6 0.000000 0.000000 0.000000 0.000000 0.000000 0.037011
#
#
# Mechanical properties :
#
#
# Convention : Reuss Voigt Hill
#
# Bulk Modulus (GPa) = 41.34127 46.87020 44.10573
# Shear Modulus (GPa) = 4.99927 23.57734 14.28830
#
# Velocity S-wave (km/s) = 1.60863 3.49341 2.71952
# Velocity P-wave (km/s) = 4.98488 6.36651 5.71758
#
# Compressibility (1/GPa) = 0.02418890
#
# Stress axis : x y z
#
# Youngs Moduli (GPa) = 74.71997 34.50634 90.59753
#
# Poissons Ratio (x) = 0.29742 0.13069
# Poissons Ratio (y) = 0.64404 0.41171
# Poissons Ratio (z) = 0.10778 0.15681
#
# Static dielectric constant tensor:
#      x y z
#    x 4.029620 0.000000 0.000000 
#    y 0.000000 3.089320 0.000000 
#    z 0.000000 0.000000 3.810450 
# 
# 
# High freq. dielectric constant tensor:
#      x y z
#    x 1.772310 0.000000 0.000000 
#    y 0.000000 1.707950 0.000000 
#    z 0.000000 0.000000 1.775030 
# 
# From -- ./inp_files/5430.got.cif
#   From: 2010.03.12/outbox.cif.g09.slc.cpg/sg29_3_cif.got.tgz:5430.got - 2010.04.14 03:43:10.
