data_PCOD8168522
_publ_section_title
;
Structure prediction by ZEFSAII (Michael W. Deem and Ramdas Pophale) SiO2 
 PCOD8168522
Probable space group: P M A 2
;
_chemical_formula_sum "Si O2"
_cell_formula_units_Z 32
_cell_length_a 9.538019
_cell_length_b 24.281305
_cell_length_c 7.731133
_cell_angle_alpha 90.000000
_cell_angle_beta 90.000000
_cell_angle_gamma 90.000000
_cell_volume 1790.495987
_symmetry_space_group_name_H-M "P M A 2"
_symmetry_group_IT_number 28
_symmetry_cell_setting 'orthorhombic'
loop_
_space_group_symop_operation_xyz
x,y,z
-x,-y,z
1/2-x,y,z
1/2+x,-y,z
loop_
_atom_site_type_symbol
_atom_site_label
_atom_site_fract_x
_atom_site_fract_y
_atom_site_fract_z
Si Si1 0.417780 0.256292 0.774210
Si Si2 0.408280 0.449599 0.568965
Si Si3 0.591720 0.550401 0.979455
Si Si4 0.913079 0.945651 0.077590
Si Si5 0.584209 0.866797 0.774211
Si Si6 0.083961 0.331065 0.466024
Si Si7 0.583960 0.668935 0.082396
Si Si8 0.913079 0.945651 0.470831
O O1 0.250000 0.255063 0.774209
O O2 0.480374 0.194538 0.774210
O O3 0.476553 0.287693 0.604637
O O4 0.476553 0.287693 0.943784
O O5 0.500000 0.500000 0.496302
O O6 0.250000 0.457796 0.500993
O O7 0.411799 0.447409 0.774210
O O8 0.474281 0.392566 0.498816
O O9 0.500000 0.500000 0.052119
O O10 0.750000 0.542204 0.047427
O O11 0.525717 0.607434 0.049604
O O12 0.750000 0.959409 0.047247
O O13 0.939994 0.925548 0.274211
O O14 0.965844 0.898245 0.947423
O O15 0.000000 0.000000 0.034871
O O16 0.750000 0.862224 0.774211
O O17 0.534157 0.898245 0.600998
O O18 0.250000 0.333807 0.488779
O O19 0.040581 0.311122 0.274210
O O20 0.750000 0.666192 0.059639
O O21 0.750000 0.959410 0.501173
O O22 0.000000 0.000000 0.513550
#
# Coordination Sequence:
#
# PCOD8168522 Si02
#       8
#     4   4   4   4   4   4   4   4
#     4   9  16  27  40  59  87 115 144 179 218 256
#     4   9  16  27  43  63  87 112 139 175 217 260
#     4   9  16  27  43  63  87 112 139 175 217 260
#     4   9  17  29  45  67  94 120 146 178 216 257
#     4   9  17  27  42  63  89 119 148 181 218 256
#     4   9  16  26  41  60  84 114 144 175 215 262
#     4   9  16  26  41  60  84 114 144 175 215 262
#     4   9  17  29  45  67  94 120 146 178 216 257
#
# _framework density 17.872142
#
# number of rings (size 3 to 8) (size 9 to 14) (size 15 to 20)
#    0.000    3.000    1.250    0.375    0.000    1.500 
#    0.000    5.000    0.000    0.000    0.000    3.500 
#    0.000    0.000    0.000    0.000    0.000    0.000 
#
# Total GULP energy -396678.223790 kJ/mol
# GULP energy per Si atom -12396.194493 kJ/mol
# Density = 1.783146 g / cm^3
# Si number density = 17.872142 Si / 1000 Ang^3
#
#
#
# Elastic Constant Matrix: (Units=GPa)
#
#
# Indices 1 2 3 4 5 6 
#
# 1 25.6062 31.0291 19.2836 0.0000 0.0000 0.0000
# 2 31.0291 175.9223 96.2286 0.0000 0.0000 0.0000
# 3 19.2836 96.2286 129.8749 0.0000 0.0000 0.0000
# 4 0.0000 0.0000 0.0000 14.8427 0.0000 0.0000
# 5 0.0000 0.0000 0.0000 0.0000 9.4313 0.0000
# 6 0.0000 0.0000 0.0000 0.0000 0.0000 19.2781
#
#
#
# Elastic Compliance Matrix: (Units=1/GPa)
#
#
# Indices 1 2 3 4 5 6 
#
# 1 0.049840 -0.007975 -0.001491 0.000000 0.000000 0.000000
# 2 -0.007975 0.010834 -0.006843 0.000000 0.000000 0.000000
# 3 -0.001491 -0.006843 0.012992 0.000000 0.000000 0.000000
# 4 0.000000 0.000000 0.000000 0.067373 0.000000 0.000000
# 5 0.000000 0.000000 0.000000 0.000000 0.106030 0.000000
# 6 0.000000 0.000000 0.000000 0.000000 0.000000 0.051872
#
#
# Mechanical properties :
#
#
# Convention : Reuss Voigt Hill
#
# Bulk Modulus (GPa) = 24.36244 69.38733 46.87489
# Shear Modulus (GPa) = 14.48257 21.03457 17.75857
#
# Velocity S-wave (km/s) = 2.84974 3.43439 3.15563
# Velocity P-wave (km/s) = 4.94865 7.39157 6.28985
#
# Compressibility (1/GPa) = 0.04104680
#
# Stress axis : x y z
#
# Youngs Moduli (GPa) = 20.06413 92.30007 76.97322
#
# Poissons Ratio (x) = 0.73611 0.11478
# Poissons Ratio (y) = 0.16001 0.52675
# Poissons Ratio (z) = 0.02992 0.63164
#
# Static dielectric constant tensor:
#      x y z
#    x 2.919000 0.000000 0.000000 
#    y 0.000000 3.502220 0.000000 
#    z 0.000000 0.000000 3.444970 
# 
# 
# High freq. dielectric constant tensor:
#      x y z
#    x 1.623160 0.000000 0.000000 
#    y 0.000000 1.691980 0.000000 
#    z 0.000000 0.000000 1.705040 
# 
# From -- ./inp_files/2752.got.cif
#   From: 2010.03.12/outbox.cif.g09.slc.cpg/sg28_2_cif.got.tgz:2752.got - 2010.04.14 03:39:34.
