data_PCOD8168656
_publ_section_title
;
Structure prediction by ZEFSAII (Michael W. Deem and Ramdas Pophale) SiO2 
 PCOD8168656
Probable space group: P C A 21
;
_chemical_formula_sum "Si O2"
_cell_formula_units_Z 24
_cell_length_a 20.991328
_cell_length_b 12.307234
_cell_length_c 4.991112
_cell_angle_alpha 90.000000
_cell_angle_beta 90.000000
_cell_angle_gamma 90.000000
_cell_volume 1289.429756
_symmetry_space_group_name_H-M "P C A 21"
_symmetry_group_IT_number 29
_symmetry_cell_setting 'orthorhombic'
loop_
_space_group_symop_operation_xyz
x,y,z
-x,-y,1/2+z
1/2-x,y,1/2+z
1/2+x,-y,z
loop_
_atom_site_type_symbol
_atom_site_label
_atom_site_fract_x
_atom_site_fract_y
_atom_site_fract_z
Si Si1 0.962651 0.627885 0.381850
Si Si2 0.789422 0.149935 0.693844
Si Si3 0.416330 0.488969 0.873959
Si Si4 0.712245 0.404577 0.246925
Si Si5 0.927907 0.079009 0.584987
Si Si6 0.496695 0.142276 0.577260
O O1 0.919660 0.557351 0.577125
O O2 0.958954 0.751007 0.484271
O O3 0.035657 0.589706 0.407777
O O4 0.932950 0.606840 0.087146
O O5 0.733156 0.114307 0.489046
O O6 0.802713 0.277430 0.724251
O O7 0.852211 0.092907 0.573337
O O8 0.345785 0.534916 0.891143
O O9 0.770987 0.437197 0.442822
O O10 0.968794 0.148870 0.367397
O O11 0.944028 0.952047 0.556058
O O12 0.945913 0.121195 0.876143
#
# Coordination Sequence:
#
# PCOD8168656 Si02
#       6
#     4   4   4   4   4   4
#     4  10  20  33  52  77 103 133 167 210 257 302
#     4  10  20  33  52  77 104 136 171 212 261 310
#     4  10  20  33  51  75 103 134 168 208 255 302
#     4  10  20  33  51  74 101 134 169 208 253 302
#     4  10  20  34  54  78 105 135 169 213 262 311
#     4  10  20  34  54  79 104 134 170 213 262 309
#
# _framework density 18.612879
#
# number of rings (size 3 to 8) (size 9 to 14) (size 15 to 20)
#    0.000    2.000    0.000    4.000    0.000    5.333 
#    0.000    0.000    0.000    6.000    0.000    0.000 
#    0.000    0.000    0.000    0.000    0.000    0.000 
#
# Total GULP energy -297434.551977 kJ/mol
# GULP energy per Si atom -12393.106332 kJ/mol
# Density = 1.857052 g / cm^3
# Si number density = 18.612879 Si / 1000 Ang^3
#
#
#
# Elastic Constant Matrix: (Units=GPa)
#
#
# Indices 1 2 3 4 5 6 
#
# 1 105.0142 35.2195 31.5704 0.0000 0.0000 0.0000
# 2 35.2195 67.2161 18.8794 0.0000 0.0000 0.0000
# 3 31.5704 18.8794 74.2459 0.0000 0.0000 0.0000
# 4 0.0000 0.0000 0.0000 15.9679 0.0000 0.0000
# 5 0.0000 0.0000 0.0000 0.0000 18.4390 0.0000
# 6 0.0000 0.0000 0.0000 0.0000 0.0000 16.8990
#
#
#
# Elastic Compliance Matrix: (Units=1/GPa)
#
#
# Indices 1 2 3 4 5 6 
#
# 1 0.012540 -0.005463 -0.003943 0.000000 0.000000 0.000000
# 2 -0.005463 0.018402 -0.002356 0.000000 0.000000 0.000000
# 3 -0.003943 -0.002356 0.015745 0.000000 0.000000 0.000000
# 4 0.000000 0.000000 0.000000 0.062626 0.000000 0.000000
# 5 0.000000 0.000000 0.000000 0.000000 0.054233 0.000000
# 6 0.000000 0.000000 0.000000 0.000000 0.000000 0.059175
#
#
# Mechanical properties :
#
#
# Convention : Reuss Voigt Hill
#
# Bulk Modulus (GPa) = 43.17505 46.42386 44.79946
# Shear Modulus (GPa) = 19.68773 20.98166 20.33469
#
# Velocity S-wave (km/s) = 3.25583 3.36112 3.30889
# Velocity P-wave (km/s) = 6.11397 6.32920 6.22251
#
# Compressibility (1/GPa) = 0.02316153
#
# Stress axis : x y z
#
# Youngs Moduli (GPa) = 79.74377 54.34262 63.51413
#
# Poissons Ratio (x) = 0.29689 0.25044
# Poissons Ratio (y) = 0.43566 0.14965
# Poissons Ratio (z) = 0.31443 0.12804
#
# Static dielectric constant tensor:
#      x y z
#    x 3.188210 0.000000 0.000000 
#    y 0.000000 3.298520 0.000000 
#    z 0.000000 0.000000 3.677890 
# 
# 
# High freq. dielectric constant tensor:
#      x y z
#    x 1.708560 0.000000 0.000000 
#    y 0.000000 1.696290 0.000000 
#    z 0.000000 0.000000 1.748100 
# 
# From -- ./inp_files/203.got.cif
#   From: 2010.03.12/outbox.cif.g09.slc.cpg/sg29_1_cif.got.tgz:203.got - 2010.04.14 03:43:10.
