data_PCOD8168451
_publ_section_title
;
Structure prediction by ZEFSAII (Michael W. Deem and Ramdas Pophale) SiO2 
 PCOD8168451
Probable space group: P M A 2
;
_chemical_formula_sum "Si O2"
_cell_formula_units_Z 20
_cell_length_a 8.535019
_cell_length_b 9.172511
_cell_length_c 12.547334
_cell_angle_alpha 90.000000
_cell_angle_beta 90.000000
_cell_angle_gamma 90.000000
_cell_volume 982.300109
_symmetry_space_group_name_H-M "P M A 2"
_symmetry_group_IT_number 28
_symmetry_cell_setting 'orthorhombic'
loop_
_space_group_symop_operation_xyz
x,y,z
-x,-y,z
1/2-x,y,z
1/2+x,-y,z
loop_
_atom_site_type_symbol
_atom_site_label
_atom_site_fract_x
_atom_site_fract_y
_atom_site_fract_z
Si Si1 0.568745 0.348764 0.382940
Si Si2 0.565907 0.657986 0.155962
Si Si3 0.067980 0.840125 0.587395
Si Si4 0.434199 0.841158 0.969862
Si Si5 0.433843 0.340294 0.777279
O O1 0.500000 0.500000 0.428133
O O2 0.750000 0.371892 0.353814
O O3 0.477679 0.301337 0.276780
O O4 0.543631 0.225440 0.470444
O O5 0.500000 0.500000 0.122979
O O6 0.750000 0.654696 0.140947
O O7 0.496064 0.784127 0.082571
O O8 0.250000 0.839705 0.620929
O O9 0.968510 0.749630 0.671375
O O10 0.000000 0.000000 0.584961
O O11 0.250000 0.852333 0.974694
O O12 0.483502 0.730573 0.878220
O O13 0.500000 0.000000 0.943594
O O14 0.500000 0.500000 0.759529
O O15 0.250000 0.345963 0.798681
#
# Coordination Sequence:
#
# PCOD8168451 Si02
#       5
#     4   4   4   4   4
#     4  10  21  38  61  89 121 159 205 253 302 357
#     4  11  22  39  63  91 123 161 205 251 301 356
#     4  11  24  41  62  90 124 162 203 249 303 360
#     4  12  25  43  64  90 124 160 201 248 303 361
#     4  12  25  43  66  92 122 158 202 249 300 358
#
# _framework density 20.360377
#
# number of rings (size 3 to 8) (size 9 to 14) (size 15 to 20)
#    0.000    0.800    0.000    9.600    0.000    5.600 
#    0.000    2.000    0.000    0.000    0.000    0.000 
#    0.000    0.000    0.000    0.000    0.000    0.000 
#
# Total GULP energy -248150.690778 kJ/mol
# GULP energy per Si atom -12407.534539 kJ/mol
# Density = 2.031404 g / cm^3
# Si number density = 20.360377 Si / 1000 Ang^3
#
#
#
# Elastic Constant Matrix: (Units=GPa)
#
#
# Indices 1 2 3 4 5 6 
#
# 1 169.7635 45.2765 39.9295 0.0000 0.0000 0.0000
# 2 45.2765 134.5940 51.6796 0.0000 0.0000 0.0000
# 3 39.9295 51.6796 87.7721 0.0000 0.0000 0.0000
# 4 0.0000 0.0000 0.0000 15.5408 0.0000 0.0000
# 5 0.0000 0.0000 0.0000 0.0000 65.7490 0.0000
# 6 0.0000 0.0000 0.0000 0.0000 0.0000 37.8962
#
#
#
# Elastic Compliance Matrix: (Units=1/GPa)
#
#
# Indices 1 2 3 4 5 6 
#
# 1 0.006800 -0.001421 -0.002257 0.000000 0.000000 0.000000
# 2 -0.001421 0.009897 -0.005181 0.000000 0.000000 0.000000
# 3 -0.002257 -0.005181 0.015470 0.000000 0.000000 0.000000
# 4 0.000000 0.000000 0.000000 0.064347 0.000000 0.000000
# 5 0.000000 0.000000 0.000000 0.000000 0.015209 0.000000
# 6 0.000000 0.000000 0.000000 0.000000 0.000000 0.026388
#
#
# Mechanical properties :
#
#
# Convention : Reuss Voigt Hill
#
# Bulk Modulus (GPa) = 69.20367 73.98897 71.59632
# Shear Modulus (GPa) = 31.12428 40.85346 35.98887
#
# Velocity S-wave (km/s) = 3.91406 4.48428 4.20884
# Velocity P-wave (km/s) = 7.38171 7.95174 7.67202
#
# Compressibility (1/GPa) = 0.01445010
#
# Stress axis : x y z
#
# Youngs Moduli (GPa) = 147.05046 101.04030 64.63983
#
# Poissons Ratio (x) = 0.14358 0.14589
# Poissons Ratio (y) = 0.20896 0.33489
# Poissons Ratio (z) = 0.33189 0.52348
#
# Static dielectric constant tensor:
#      x y z
#    x 4.983070 0.000000 0.000000 
#    y 0.000000 3.805530 0.000000 
#    z 0.000000 0.000000 3.800870 
# 
# 
# High freq. dielectric constant tensor:
#      x y z
#    x 1.819260 0.000000 0.000000 
#    y 0.000000 1.803270 0.000000 
#    z 0.000000 0.000000 1.808850 
# 
# From -- ./inp_files/4573.got.cif
#   From: 2010.03.12/outbox.cif.g09.slc.cpg/sg28_3_cif.got.tgz:4573.got - 2010.04.14 03:39:34.
