data_PCOD8168349
_publ_section_title
;
Structure prediction by ZEFSAII (Michael W. Deem and Ramdas Pophale) SiO2 
 PCOD8168349
Probable space group: P M A 2
;
_chemical_formula_sum "Si O2"
_cell_formula_units_Z 32
_cell_length_a 8.851083
_cell_length_b 9.750701
_cell_length_c 20.300352
_cell_angle_alpha 90.000000
_cell_angle_beta 90.000000
_cell_angle_gamma 90.000000
_cell_volume 1752.006935
_symmetry_space_group_name_H-M "P M A 2"
_symmetry_group_IT_number 28
_symmetry_cell_setting 'orthorhombic'
loop_
_space_group_symop_operation_xyz
x,y,z
-x,-y,z
1/2-x,y,z
1/2+x,-y,z
loop_
_atom_site_type_symbol
_atom_site_label
_atom_site_fract_x
_atom_site_fract_y
_atom_site_fract_z
Si Si1 0.425784 0.853501 0.582800
Si Si2 0.928423 0.148966 0.948634
Si Si3 0.572297 0.357006 0.837936
Si Si4 0.073277 0.852212 0.438335
Si Si5 0.571619 0.356387 0.208986
Si Si6 0.071647 0.642076 0.689023
Si Si7 0.429918 0.151084 0.309406
Si Si8 0.573929 0.358884 0.057419
O O1 0.250000 0.876755 0.594230
O O2 0.453408 0.784182 0.510329
O O3 0.493635 0.755519 0.639064
O O4 0.500000 0.000000 0.590191
O O5 0.750000 0.130427 0.948643
O O6 0.983407 0.233571 0.884523
O O7 0.983912 0.231970 0.013286
O O8 0.000000 0.000000 0.948211
O O9 0.500000 0.500000 0.861014
O O10 0.750000 0.376824 0.843894
O O11 0.522907 0.319520 0.763444
O O12 0.250000 0.863065 0.421097
O O13 0.987618 0.776477 0.377741
O O14 0.000000 0.000000 0.443911
O O15 0.500000 0.500000 0.231635
O O16 0.750000 0.358352 0.222771
O O17 0.490922 0.236137 0.248243
O O18 0.533119 0.327070 0.132889
O O19 0.250000 0.628846 0.682543
O O20 0.000000 0.500000 0.666865
O O21 0.250000 0.144522 0.307707
O O22 0.500000 0.000000 0.304502
O O23 0.500000 0.500000 0.033121
O O24 0.750000 0.379870 0.047014
#
# Coordination Sequence:
#
# PCOD8168349 Si02
#       8
#     4   4   4   4   4   4   4   4
#     4   9  18  31  49  72  99 129 165 207 251 296
#     4  10  21  35  50  75 106 134 164 205 250 292
#     4   9  18  33  53  73  98 131 169 206 244 293
#     4   9  16  29  48  70  97 130 166 207 250 298
#     4  10  20  36  55  77 104 134 168 209 253 302
#     4   9  18  33  50  72 100 131 165 205 248 293
#     4  11  21  34  53  77 103 134 170 211 255 303
#     4   9  19  35  55  76 100 131 169 206 245 295
#
# _framework density 18.264768
#
# number of rings (size 3 to 8) (size 9 to 14) (size 15 to 20)
#    0.000    2.500    0.000    3.000    0.000    3.500 
#    0.000    1.875    0.000    1.500    0.000    0.000 
#    0.000    0.000    0.000    0.000    0.000    0.000 
#
# Total GULP energy -396683.192414 kJ/mol
# GULP energy per Si atom -12396.349763 kJ/mol
# Density = 1.822320 g / cm^3
# Si number density = 18.264768 Si / 1000 Ang^3
#
#
#
# Elastic Constant Matrix: (Units=GPa)
#
#
# Indices 1 2 3 4 5 6 
#
# 1 71.2500 45.6699 48.5429 0.0000 0.0000 0.0000
# 2 45.6699 129.7431 88.5712 0.0000 0.0000 0.0000
# 3 48.5429 88.5712 134.2022 0.0000 0.0000 0.0000
# 4 0.0000 0.0000 0.0000 17.9327 0.0000 0.0000
# 5 0.0000 0.0000 0.0000 0.0000 14.9285 0.0000
# 6 0.0000 0.0000 0.0000 0.0000 0.0000 32.2377
#
#
#
# Elastic Compliance Matrix: (Units=1/GPa)
#
#
# Indices 1 2 3 4 5 6 
#
# 1 0.019575 -0.003743 -0.004610 0.000000 0.000000 0.000000
# 2 -0.003743 0.014744 -0.008376 0.000000 0.000000 0.000000
# 3 -0.004610 -0.008376 0.014647 0.000000 0.000000 0.000000
# 4 0.000000 0.000000 0.000000 0.055764 0.000000 0.000000
# 5 0.000000 0.000000 0.000000 0.000000 0.066986 0.000000
# 6 0.000000 0.000000 0.000000 0.000000 0.000000 0.031020
#
#
# Mechanical properties :
#
#
# Convention : Reuss Voigt Hill
#
# Bulk Modulus (GPa) = 64.48989 77.86259 71.17624
# Shear Modulus (GPa) = 20.71553 23.18053 21.94803
#
# Velocity S-wave (km/s) = 3.37141 3.56636 3.47026
# Velocity P-wave (km/s) = 7.10917 7.72535 7.42365
#
# Compressibility (1/GPa) = 0.01550631
#
# Stress axis : x y z
#
# Youngs Moduli (GPa) = 51.08438 67.82630 68.27198
#
# Poissons Ratio (x) = 0.25390 0.31474
# Poissons Ratio (y) = 0.19123 0.57188
# Poissons Ratio (z) = 0.23551 0.56814
#
# Static dielectric constant tensor:
#      x y z
#    x 3.317520 0.000000 0.000000 
#    y 0.000000 3.273150 0.000000 
#    z 0.000000 0.000000 4.015380 
# 
# 
# High freq. dielectric constant tensor:
#      x y z
#    x 1.708070 0.000000 0.000000 
#    y 0.000000 1.686240 0.000000 
#    z 0.000000 0.000000 1.726060 
# 
# From -- ./inp_files/7113.got.cif
#   From: 2010.03.12/outbox.cif.g09.slc.cpg/sg28_4_cif.got.tgz:7113.got - 2010.04.14 03:39:34.
