data_PCOD8168460
_publ_section_title
;
Structure prediction by ZEFSAII (Michael W. Deem and Ramdas Pophale) SiO2 
 PCOD8168460
Probable space group: P M A 2
;
_chemical_formula_sum "Si O2"
_cell_formula_units_Z 32
_cell_length_a 14.016396
_cell_length_b 9.427166
_cell_length_c 11.995280
_cell_angle_alpha 90.000000
_cell_angle_beta 90.000000
_cell_angle_gamma 90.000000
_cell_volume 1584.995025
_symmetry_space_group_name_H-M "P M A 2"
_symmetry_group_IT_number 28
_symmetry_cell_setting 'orthorhombic'
loop_
_space_group_symop_operation_xyz
x,y,z
-x,-y,z
1/2-x,y,z
1/2+x,-y,z
loop_
_atom_site_type_symbol
_atom_site_label
_atom_site_fract_x
_atom_site_fract_y
_atom_site_fract_z
Si Si1 0.028912 0.347211 0.612460
Si Si2 0.472105 0.348973 0.159612
Si Si3 0.406245 0.909667 0.597313
Si Si4 0.854396 0.142698 0.154457
Si Si5 0.858949 0.668563 0.383721
Si Si6 0.113137 0.006687 0.372041
Si Si7 0.357103 0.136029 0.766010
Si Si8 0.636358 0.877010 0.015023
O O1 0.082651 0.372929 0.495238
O O2 0.094468 0.261299 0.697491
O O3 0.000000 0.500000 0.661869
O O4 0.930674 0.256598 0.606366
O O5 0.500000 0.500000 0.104829
O O6 0.571809 0.268197 0.174742
O O7 0.418742 0.383377 0.276360
O O8 0.404221 0.259376 0.079009
O O9 0.346896 0.930019 0.484003
O O10 0.500000 0.000000 0.571647
O O11 0.359445 0.980182 0.706876
O O12 0.750000 0.199933 0.113746
O O13 0.834491 0.066324 0.270628
O O14 0.897098 0.026376 0.068375
O O15 0.750000 0.605434 0.385710
O O16 0.849656 0.835352 0.377901
O O17 0.000000 0.000000 0.351705
O O18 0.250000 0.186349 0.779270
O O19 0.403229 0.123273 0.888388
O O20 0.750000 0.867094 0.021341
#
# Coordination Sequence:
#
# PCOD8168460 Si02
#       8
#     4   4   4   4   4   4   4   4
#     4  11  22  37  57  88 124 162 196 237 295 365
#     4  12  25  40  59  86 125 161 194 238 300 368
#     4   9  18  34  57  83 114 149 191 237 288 343
#     4  11  22  37  61  90 117 151 198 252 297 349
#     4  12  22  37  61  87 119 160 202 244 294 350
#     4  11  16  33  60  89 117 147 197 248 297 343
#     4  10  21  39  63  88 112 149 203 255 299 351
#     4  10  22  41  64  88 113 150 206 257 298 348
#
# _framework density 20.189336999999998
#
# number of rings (size 3 to 8) (size 9 to 14) (size 15 to 20)
#    0.000    1.250    6.250    1.875    0.000    5.000 
#    0.000    1.250    0.000    3.000    0.000    0.000 
#    0.000    0.000    0.000    0.000    0.000    0.000 
#
# Total GULP energy -396569.790620 kJ/mol
# GULP energy per Si atom -12392.805957 kJ/mol
# Density = 2.014339 g / cm^3
# Si number density = 20.189337 Si / 1000 Ang^3
#
#
#
# Elastic Constant Matrix: (Units=GPa)
#
#
# Indices 1 2 3 4 5 6 
#
# 1 80.0795 24.2207 21.1277 0.0000 0.0000 0.0000
# 2 24.2207 111.8907 26.8586 0.0000 0.0000 0.0000
# 3 21.1277 26.8586 135.9271 0.0000 0.0000 0.0000
# 4 0.0000 0.0000 0.0000 13.8825 0.0000 0.0000
# 5 0.0000 0.0000 0.0000 0.0000 -101.4278 0.0000
# 6 0.0000 0.0000 0.0000 0.0000 0.0000 12.6623
#
#
#
# Elastic Compliance Matrix: (Units=1/GPa)
#
#
# Indices 1 2 3 4 5 6 
#
# 1 0.013694 -0.002576 -0.001620 0.000000 0.000000 0.000000
# 2 -0.002576 0.009867 -0.001549 0.000000 0.000000 0.000000
# 3 -0.001620 -0.001549 0.007915 0.000000 0.000000 0.000000
# 4 0.000000 0.000000 0.000000 0.072033 0.000000 0.000000
# 5 0.000000 0.000000 0.000000 0.000000 -0.009859 0.000000
# 6 0.000000 0.000000 0.000000 0.000000 0.000000 0.078975
#
#
# Mechanical properties :
#
#
# Convention : Reuss Voigt Hill
#
# Bulk Modulus (GPa) = 50.03364 52.47905 51.25635
# Shear Modulus (GPa) = 26.20892 2.06943 14.13917
#
# Velocity S-wave (km/s) = 3.60690 1.01353 2.64924
# Velocity P-wave (km/s) = 6.49479 5.23637 5.89923
#
# Compressibility (1/GPa) = 0.01998655
#
# Stress axis : x y z
#
# Youngs Moduli (GPa) = 73.02534 101.35096 126.34627
#
# Poissons Ratio (x) = 0.26103 0.20463
# Poissons Ratio (y) = 0.18808 0.19575
# Poissons Ratio (z) = 0.11827 0.15702
#
# Static dielectric constant tensor:
#      x y z
#    x 4.398910 0.000000 0.000000 
#    y 0.000000 3.381190 0.000000 
#    z 0.000000 0.000000 3.972170 
# 
# 
# High freq. dielectric constant tensor:
#      x y z
#    x 1.795120 0.000000 0.000000 
#    y 0.000000 1.764610 0.000000 
#    z 0.000000 0.000000 1.789000 
# 
# From -- ./inp_files/5607.got.cif
#   From: 2010.03.12/outbox.cif.g09.slc.cpg/sg28_3_cif.got.tgz:5607.got - 2010.04.14 03:39:34.
