data_PCOD8168743
_publ_section_title
;
Structure prediction by ZEFSAII (Michael W. Deem and Ramdas Pophale) SiO2 
 PCOD8168743
Probable space group: P C A 21
;
_chemical_formula_sum "Si O2"
_cell_formula_units_Z 32
_cell_length_a 17.343151
_cell_length_b 10.594228
_cell_length_c 8.634352
_cell_angle_alpha 90.000000
_cell_angle_beta 90.000000
_cell_angle_gamma 90.000000
_cell_volume 1586.452489
_symmetry_space_group_name_H-M "P C A 21"
_symmetry_group_IT_number 29
_symmetry_cell_setting 'orthorhombic'
loop_
_space_group_symop_operation_xyz
x,y,z
-x,-y,1/2+z
1/2-x,y,1/2+z
1/2+x,-y,z
loop_
_atom_site_type_symbol
_atom_site_label
_atom_site_fract_x
_atom_site_fract_y
_atom_site_fract_z
Si Si1 0.394463 0.290280 0.599680
Si Si2 0.802980 0.275839 0.246839
Si Si3 0.299800 0.073719 0.741946
Si Si4 0.235559 0.901247 0.493075
Si Si5 0.796625 0.521585 0.784562
Si Si6 0.533276 0.381105 0.759636
Si Si7 0.084525 0.413238 0.533978
Si Si8 0.669641 0.731507 0.772192
O O1 0.363827 0.178362 0.709320
O O2 0.351204 0.421458 0.648214
O O3 0.485338 0.300682 0.633668
O O4 0.386173 0.257820 0.420051
O O5 0.811506 0.209491 0.079138
O O6 0.785882 0.163697 0.362440
O O7 0.736513 0.383820 0.240936
O O8 0.885110 0.323949 0.302141
O O9 0.215955 0.139187 0.755178
O O10 0.295680 0.971914 0.605057
O O11 0.319288 0.003093 0.904464
O O12 0.725221 0.614286 0.809533
O O13 0.846822 0.512052 0.943714
O O14 0.550575 0.515423 0.682482
O O15 0.485036 0.386284 0.917917
O O16 0.122283 0.288292 0.611793
#
# Coordination Sequence:
#
# PCOD8168743 Si02
#       8
#     4   4   4   4   4   4   4   4
#     4  10  22  37  65  94 124 162 198 269 316 379
#     4  11  23  40  61  90 129 163 206 258 312 383
#     4  10  20  41  64  93 115 151 229 268 302 347
#     4  10  23  39  65  85 116 166 214 269 295 358
#     4  10  21  36  64  95 122 162 211 254 322 370
#     4  11  24  39  57  93 142 163 205 242 335 398
#     4  11  23  38  59  97 133 172 196 258 323 401
#     4  11  20  36  67  93 123 155 209 272 313 360
#
# _framework density 20.170791000000001
#
# number of rings (size 3 to 8) (size 9 to 14) (size 15 to 20)
#    0.000    1.500    2.500    3.000    5.250    1.000 
#    0.000    3.750    0.000    0.000    0.000    0.000 
#    0.000    0.000    0.000    0.000    0.000    0.000 
#
# Total GULP energy -396660.567643 kJ/mol
# GULP energy per Si atom -12395.642739 kJ/mol
# Density = 2.012488 g / cm^3
# Si number density = 20.170791 Si / 1000 Ang^3
#
#
#
# Elastic Constant Matrix: (Units=GPa)
#
#
# Indices 1 2 3 4 5 6 
#
# 1 81.2947 26.6950 29.4601 0.0000 0.0000 0.0000
# 2 26.6950 98.1511 35.0734 0.0000 0.0000 0.0000
# 3 29.4601 35.0734 106.3613 0.0000 0.0000 0.0000
# 4 0.0000 0.0000 0.0000 31.3900 0.0000 0.0000
# 5 0.0000 0.0000 0.0000 0.0000 29.0664 0.0000
# 6 0.0000 0.0000 0.0000 0.0000 0.0000 14.4652
#
#
#
# Elastic Compliance Matrix: (Units=1/GPa)
#
#
# Indices 1 2 3 4 5 6 
#
# 1 0.014326 -0.002809 -0.003042 0.000000 0.000000 0.000000
# 2 -0.002809 0.012100 -0.003212 0.000000 0.000000 0.000000
# 3 -0.003042 -0.003212 0.011304 0.000000 0.000000 0.000000
# 4 0.000000 0.000000 0.000000 0.031857 0.000000 0.000000
# 5 0.000000 0.000000 0.000000 0.000000 0.034404 0.000000
# 6 0.000000 0.000000 0.000000 0.000000 0.000000 0.069131
#
#
# Mechanical properties :
#
#
# Convention : Reuss Voigt Hill
#
# Bulk Modulus (GPa) = 51.01102 52.02935 51.52018
# Shear Modulus (GPa) = 25.28032 27.95624 26.61828
#
# Velocity S-wave (km/s) = 3.54406 3.72691 3.63663
# Velocity P-wave (km/s) = 6.48780 6.66110 6.57502
#
# Compressibility (1/GPa) = 0.01960361
#
# Stress axis : x y z
#
# Youngs Moduli (GPa) = 69.80476 82.64293 88.46790
#
# Poissons Ratio (x) = 0.23218 0.26908
# Poissons Ratio (y) = 0.19611 0.28416
# Poissons Ratio (z) = 0.21231 0.26545
#
# Static dielectric constant tensor:
#      x y z
#    x 3.558120 0.000000 0.000000 
#    y 0.000000 3.781530 0.000000 
#    z 0.000000 0.000000 3.911550 
# 
# 
# High freq. dielectric constant tensor:
#      x y z
#    x 1.760770 0.000000 0.000000 
#    y 0.000000 1.781480 0.000000 
#    z 0.000000 0.000000 1.806970 
# 
# From -- ./inp_files/1887.got.cif
#   From: 2010.03.12/outbox.cif.g09.slc.cpg/sg29_1_cif.got.tgz:1887.got - 2010.04.14 03:43:10.
