data_PCOD8168221
_publ_section_title
;
Structure prediction by ZEFSAII (Michael W. Deem and Ramdas Pophale) SiO2 
 PCOD8168221
Probable space group: P M A 2
;
_chemical_formula_sum "Si O2"
_cell_formula_units_Z 28
_cell_length_a 8.956915
_cell_length_b 14.425848
_cell_length_c 12.545248
_cell_angle_alpha 90.000000
_cell_angle_beta 90.000000
_cell_angle_gamma 90.000000
_cell_volume 1620.985223
_symmetry_space_group_name_H-M "P M A 2"
_symmetry_group_IT_number 28
_symmetry_cell_setting 'orthorhombic'
loop_
_space_group_symop_operation_xyz
x,y,z
-x,-y,z
1/2-x,y,z
1/2+x,-y,z
loop_
_atom_site_type_symbol
_atom_site_label
_atom_site_fract_x
_atom_site_fract_y
_atom_site_fract_z
Si Si1 0.073869 0.400065 0.524630
Si Si2 0.573581 0.905645 0.648569
Si Si3 0.575312 0.712737 0.313031
Si Si4 0.925793 0.278231 0.706876
Si Si5 0.926078 0.404582 0.139757
Si Si6 0.075793 0.092658 0.402044
Si Si7 0.422587 0.592382 0.898651
O O1 0.250000 0.408422 0.544338
O O2 0.037299 0.352870 0.412297
O O3 0.000000 0.500000 0.526793
O O4 0.004262 0.337920 0.616408
O O5 0.750000 0.907003 0.668424
O O6 0.498110 0.822880 0.713625
O O7 0.532459 0.891537 0.524882
O O8 0.500000 0.000000 0.691556
O O9 0.750000 0.710021 0.287314
O O10 0.484181 0.679936 0.210607
O O11 0.521484 0.817427 0.337274
O O12 0.750000 0.272261 0.683074
O O13 0.960336 0.322579 0.821760
O O14 0.750000 0.414023 0.152809
O O15 0.000000 0.500000 0.179966
O O16 0.975801 0.383258 0.018374
O O17 0.250000 0.078353 0.389887
O O18 0.000000 0.000000 0.355615
O O19 0.500000 0.500000 0.854438
O O20 0.250000 0.568703 0.898691
#
# Coordination Sequence:
#
# PCOD8168221 Si02
#       7
#     4   4   4   4   4   4   4
#     4  11  22  35  48  71 107 140 170 209 256 310
#     4  10  19  34  53  77 106 138 172 213 258 307
#     4  10  20  35  52  74 105 136 169 211 256 305
#     4  11  21  34  53  77 104 138 174 213 259 309
#     4  10  20  35  54  76 101 134 175 217 258 304
#     4   9  18  33  51  74 103 134 167 207 251 301
#     4   9  20  36  53  75 103 134 174 218 258 302
#
# _framework density 17.273446
#
# number of rings (size 3 to 8) (size 9 to 14) (size 15 to 20)
#    0.000    2.000    1.429    2.571    0.000    6.286 
#    0.000    0.000    0.000    0.857    0.000    2.000 
#    0.000    0.000    0.000    0.000    0.000    0.000 
#
# Total GULP energy -347278.131880 kJ/mol
# GULP energy per Si atom -12402.790424 kJ/mol
# Density = 1.723413 g / cm^3
# Si number density = 17.273446 Si / 1000 Ang^3
#
#
#
# Elastic Constant Matrix: (Units=GPa)
#
#
# Indices 1 2 3 4 5 6 
#
# 1 75.3284 62.2334 45.3386 0.0000 0.0000 0.0000
# 2 62.2334 164.0432 61.8476 0.0000 0.0000 0.0000
# 3 45.3386 61.8476 77.8130 0.0000 0.0000 0.0000
# 4 0.0000 0.0000 0.0000 23.2261 0.0000 0.0000
# 5 0.0000 0.0000 0.0000 0.0000 10.5938 0.0000
# 6 0.0000 0.0000 0.0000 0.0000 0.0000 36.5003
#
#
#
# Elastic Compliance Matrix: (Units=1/GPa)
#
#
# Indices 1 2 3 4 5 6 
#
# 1 0.023290 -0.005311 -0.009349 0.000000 0.000000 0.000000
# 2 -0.005311 0.009915 -0.004787 0.000000 0.000000 0.000000
# 3 -0.009349 -0.004787 0.022103 0.000000 0.000000 0.000000
# 4 0.000000 0.000000 0.000000 0.043055 0.000000 0.000000
# 5 0.000000 0.000000 0.000000 0.000000 0.094395 0.000000
# 6 0.000000 0.000000 0.000000 0.000000 0.000000 0.027397
#
#
# Mechanical properties :
#
#
# Convention : Reuss Voigt Hill
#
# Bulk Modulus (GPa) = 60.91751 72.89152 66.90451
# Shear Modulus (GPa) = 18.90222 23.91504 21.40863
#
# Velocity S-wave (km/s) = 3.31160 3.72492 3.52432
# Velocity P-wave (km/s) = 7.06862 7.79681 7.44163
#
# Compressibility (1/GPa) = 0.01641564
#
# Stress axis : x y z
#
# Youngs Moduli (GPa) = 42.93766 100.85383 45.24262
#
# Poissons Ratio (x) = 0.53561 0.42297
# Poissons Ratio (y) = 0.22803 0.21656
# Poissons Ratio (z) = 0.40142 0.48275
#
# Static dielectric constant tensor:
#      x y z
#    x 3.438920 0.000000 0.000000 
#    y 0.000000 3.395580 0.000000 
#    z 0.000000 0.000000 3.221290 
# 
# 
# High freq. dielectric constant tensor:
#      x y z
#    x 1.676770 0.000000 0.000000 
#    y 0.000000 1.672950 0.000000 
#    z 0.000000 0.000000 1.647500 
# 
# From -- ./inp_files/4808.got.cif
#   From: 2010.03.12/outbox.cif.g09.slc.cpg/sg28_3_cif.got.tgz:4808.got - 2010.04.14 03:39:34.
