data_PCOD8168103
_publ_section_title
;
Structure prediction by ZEFSAII (Michael W. Deem and Ramdas Pophale) SiO2 
 PCOD8168103
Probable space group: P M A 2
;
_chemical_formula_sum "Si O2"
_cell_formula_units_Z 32
_cell_length_a 8.952735
_cell_length_b 9.728844
_cell_length_c 20.245993
_cell_angle_alpha 90.000000
_cell_angle_beta 90.000000
_cell_angle_gamma 90.000000
_cell_volume 1763.421176
_symmetry_space_group_name_H-M "P M A 2"
_symmetry_group_IT_number 28
_symmetry_cell_setting 'orthorhombic'
loop_
_space_group_symop_operation_xyz
x,y,z
-x,-y,z
1/2-x,y,z
1/2+x,-y,z
loop_
_atom_site_type_symbol
_atom_site_label
_atom_site_fract_x
_atom_site_fract_y
_atom_site_fract_z
Si Si1 0.075932 0.852666 0.428350
Si Si2 0.424352 0.359238 0.180415
Si Si3 0.072876 0.148853 0.700952
Si Si4 0.574261 0.641814 0.331676
Si Si5 0.074342 0.358714 0.960747
Si Si6 0.074924 0.360171 0.811291
Si Si7 0.423400 0.853542 0.573818
Si Si8 0.426131 0.148018 0.071010
O O1 0.250000 0.867636 0.410503
O O2 0.057035 0.783907 0.501595
O O3 0.994096 0.760977 0.375162
O O4 0.000000 0.000000 0.425711
O O5 0.500000 0.500000 0.156622
O O6 0.250000 0.382858 0.170950
O O7 0.466016 0.324684 0.255850
O O8 0.479519 0.232344 0.135646
O O9 0.250000 0.136001 0.695348
O O10 0.022760 0.237586 0.763868
O O11 0.007809 0.223376 0.634345
O O12 0.000000 0.000000 0.709896
O O13 0.500000 0.500000 0.354086
O O14 0.750000 0.631742 0.343479
O O15 0.250000 0.380311 0.966923
O O16 0.024758 0.323623 0.885901
O O17 0.000000 0.500000 0.985181
O O18 0.021250 0.232769 0.006498
O O19 0.250000 0.383120 0.807059
O O20 0.000000 0.500000 0.786597
O O21 0.250000 0.869825 0.592018
O O22 0.500000 0.000000 0.568726
O O23 0.250000 0.126386 0.071278
O O24 0.500000 0.000000 0.070841
#
# Coordination Sequence:
#
# PCOD8168103 Si02
#       8
#     4   4   4   4   4   4   4   4
#     4  10  20  34  53  77 103 133 170 211 255 303
#     4   9  19  35  54  76 100 131 170 207 246 296
#     4  10  19  31  49  73 100 130 165 205 248 295
#     4  10  20  35  54  76 104 135 169 210 254 302
#     4   9  18  34  54  74  98 130 168 206 244 293
#     4   9  19  34  51  73 100 130 165 205 248 293
#     4   9  17  30  49  72  98 129 166 205 246 296
#     4  10  21  35  51  75 106 134 164 205 249 292
#
# _framework density 18.146546000000001
#
# number of rings (size 3 to 8) (size 9 to 14) (size 15 to 20)
#    0.000    2.500    0.000    2.625    0.000    5.000 
#    0.000    1.875    0.000    1.500    0.000    0.000 
#    0.000    0.000    0.000    0.000    0.000    0.000 
#
# Total GULP energy -396702.370670 kJ/mol
# GULP energy per Si atom -12396.949083 kJ/mol
# Density = 1.810524 g / cm^3
# Si number density = 18.146546 Si / 1000 Ang^3
#
#
#
# Elastic Constant Matrix: (Units=GPa)
#
#
# Indices 1 2 3 4 5 6 
#
# 1 72.6338 49.0612 50.3846 0.0000 0.0000 0.0000
# 2 49.0612 127.2103 84.2995 0.0000 0.0000 0.0000
# 3 50.3846 84.2995 128.4632 0.0000 0.0000 0.0000
# 4 0.0000 0.0000 0.0000 14.2764 0.0000 0.0000
# 5 0.0000 0.0000 0.0000 0.0000 28.8960 0.0000
# 6 0.0000 0.0000 0.0000 0.0000 0.0000 33.6851
#
#
#
# Elastic Compliance Matrix: (Units=1/GPa)
#
#
# Indices 1 2 3 4 5 6 
#
# 1 0.020279 -0.004513 -0.004992 0.000000 0.000000 0.000000
# 2 -0.004513 0.014914 -0.008017 0.000000 0.000000 0.000000
# 3 -0.004992 -0.008017 0.015003 0.000000 0.000000 0.000000
# 4 0.000000 0.000000 0.000000 0.070046 0.000000 0.000000
# 5 0.000000 0.000000 0.000000 0.000000 0.034607 0.000000
# 6 0.000000 0.000000 0.000000 0.000000 0.000000 0.029687
#
#
# Mechanical properties :
#
#
# Convention : Reuss Voigt Hill
#
# Bulk Modulus (GPa) = 65.99641 77.31089 71.65365
# Shear Modulus (GPa) = 22.25883 25.00896 23.63389
#
# Velocity S-wave (km/s) = 3.50611 3.71639 3.61278
# Velocity P-wave (km/s) = 7.26897 7.81739 7.54816
#
# Compressibility (1/GPa) = 0.01515234
#
# Stress axis : x y z
#
# Youngs Moduli (GPa) = 49.31238 67.05105 66.65262
#
# Poissons Ratio (x) = 0.30258 0.33275
# Poissons Ratio (y) = 0.22253 0.53435
# Poissons Ratio (z) = 0.24618 0.53754
#
# Static dielectric constant tensor:
#      x y z
#    x 3.361460 0.000000 0.000000 
#    y 0.000000 3.200940 0.000000 
#    z 0.000000 0.000000 3.948910 
# 
# 
# High freq. dielectric constant tensor:
#      x y z
#    x 1.708370 0.000000 0.000000 
#    y 0.000000 1.680670 0.000000 
#    z 0.000000 0.000000 1.719810 
# 
# From -- ./inp_files/7214.got.cif
#   From: 2010.03.12/outbox.cif.g09.slc.cpg/sg28_4_cif.got.tgz:7214.got - 2010.04.14 03:39:34.
