data_PCOD8168906
_publ_section_title
;
Structure prediction by ZEFSAII (Michael W. Deem and Ramdas Pophale) SiO2 
 PCOD8168906
Probable space group: P C A 21
;
_chemical_formula_sum "Si O2"
_cell_formula_units_Z 28
_cell_length_a 13.301358
_cell_length_b 8.005197
_cell_length_c 12.845112
_cell_angle_alpha 90.000000
_cell_angle_beta 90.000000
_cell_angle_gamma 90.000000
_cell_volume 1367.747412
_symmetry_space_group_name_H-M "P C A 21"
_symmetry_group_IT_number 29
_symmetry_cell_setting 'orthorhombic'
loop_
_space_group_symop_operation_xyz
x,y,z
-x,-y,1/2+z
1/2-x,y,1/2+z
1/2+x,-y,z
loop_
_atom_site_type_symbol
_atom_site_label
_atom_site_fract_x
_atom_site_fract_y
_atom_site_fract_z
Si Si1 0.218520 0.471949 0.848880
Si Si2 0.484211 0.081439 0.426786
Si Si3 0.588967 0.588687 0.236193
Si Si4 0.598642 0.201295 0.790003
Si Si5 0.454468 0.288506 0.236607
Si Si6 0.815659 0.744262 0.545160
Si Si7 0.132517 0.024301 0.595101
O O1 0.337572 0.474982 0.827076
O O2 0.172469 0.657332 0.835837
O O3 0.155692 0.347379 0.774472
O O4 0.216466 0.400325 0.965363
O O5 0.514203 0.204184 0.332423
O O6 0.420579 0.175760 0.513436
O O7 0.413138 0.936491 0.379740
O O8 0.586484 0.030837 0.484542
O O9 0.514843 0.733873 0.273940
O O10 0.520393 0.439457 0.192651
O O11 0.667421 0.649583 0.151730
O O12 0.643513 0.124251 0.681604
O O13 0.442781 0.161831 0.141823
O O14 0.737900 0.894191 0.564293
#
# Coordination Sequence:
#
# PCOD8168906 Si02
#       7
#     4   4   4   4   4   4   4
#     4  10  22  42  59  93 124 163 212 255 309 377
#     4  10  22  41  61  93 124 161 207 254 315 369
#     4  11  21  43  63  88 125 167 207 250 322 360
#     4  10  23  42  64  91 129 161 209 268 306 380
#     4   9  22  39  63  87 126 160 200 263 302 370
#     4  11  23  40  66  90 124 167 204 257 318 378
#     4  11  21  41  66  94 124 163 209 257 320 372
#
# _framework density 20.471616000000001
#
# number of rings (size 3 to 8) (size 9 to 14) (size 15 to 20)
#    0.000    1.714    2.857    0.857    2.000    2.286 
#    5.143    0.000    0.000    0.000    0.000    0.000 
#    0.000    0.000    0.000    0.000    0.000    0.000 
#
# Total GULP energy -347139.942652 kJ/mol
# GULP energy per Si atom -12397.855095 kJ/mol
# Density = 2.042502 g / cm^3
# Si number density = 20.471616 Si / 1000 Ang^3
#
#
#
# Elastic Constant Matrix: (Units=GPa)
#
#
# Indices 1 2 3 4 5 6 
#
# 1 65.1720 12.2362 14.4032 0.0000 0.0000 0.0000
# 2 12.2362 86.4642 13.5815 0.0000 0.0000 0.0000
# 3 14.4032 13.5815 50.8913 0.0000 0.0000 0.0000
# 4 0.0000 0.0000 0.0000 30.7314 0.0000 0.0000
# 5 0.0000 0.0000 0.0000 0.0000 21.5481 0.0000
# 6 0.0000 0.0000 0.0000 0.0000 0.0000 38.1206
#
#
#
# Elastic Compliance Matrix: (Units=1/GPa)
#
#
# Indices 1 2 3 4 5 6 
#
# 1 0.016599 -0.001682 -0.004249 0.000000 0.000000 0.000000
# 2 -0.001682 0.012242 -0.002791 0.000000 0.000000 0.000000
# 3 -0.004249 -0.002791 0.021597 0.000000 0.000000 0.000000
# 4 0.000000 0.000000 0.000000 0.032540 0.000000 0.000000
# 5 0.000000 0.000000 0.000000 0.000000 0.046408 0.000000
# 6 0.000000 0.000000 0.000000 0.000000 0.000000 0.026233
#
#
# Mechanical properties :
#
#
# Convention : Reuss Voigt Hill
#
# Bulk Modulus (GPa) = 30.30817 31.44104 30.87460
# Shear Modulus (GPa) = 27.16512 28.90046 28.03279
#
# Velocity S-wave (km/s) = 3.64671 3.76138 3.70449
# Velocity P-wave (km/s) = 5.70687 5.85283 5.78031
#
# Compressibility (1/GPa) = 0.03299441
#
# Stress axis : x y z
#
# Youngs Moduli (GPa) = 60.24538 81.68687 46.30246
#
# Poissons Ratio (x) = 0.13737 0.19674
# Poissons Ratio (y) = 0.10131 0.12923
# Poissons Ratio (z) = 0.25598 0.22800
#
# Static dielectric constant tensor:
#      x y z
#    x 3.524270 0.000000 0.000000 
#    y 0.000000 3.848280 0.000000 
#    z 0.000000 0.000000 3.623880 
# 
# 
# High freq. dielectric constant tensor:
#      x y z
#    x 1.795100 0.000000 0.000000 
#    y 0.000000 1.808930 0.000000 
#    z 0.000000 0.000000 1.799920 
# 
# From -- ./inp_files/3165.got.cif
#   From: 2010.03.12/outbox.cif.g09.slc.cpg/sg29_2_cif.got.tgz:3165.got - 2010.04.14 03:43:10.
