data_PCOD8168440
_publ_section_title
;
Structure prediction by ZEFSAII (Michael W. Deem and Ramdas Pophale) SiO2 
 PCOD8168440
Probable space group: P M A 2
;
_chemical_formula_sum "Si O2"
_cell_formula_units_Z 20
_cell_length_a 13.839694
_cell_length_b 11.155901
_cell_length_c 5.999001
_cell_angle_alpha 90.000000
_cell_angle_beta 90.000000
_cell_angle_gamma 90.000000
_cell_volume 926.211297
_symmetry_space_group_name_H-M "P M A 2"
_symmetry_group_IT_number 28
_symmetry_cell_setting 'orthorhombic'
loop_
_space_group_symop_operation_xyz
x,y,z
-x,-y,z
1/2-x,y,z
1/2+x,-y,z
loop_
_atom_site_type_symbol
_atom_site_label
_atom_site_fract_x
_atom_site_fract_y
_atom_site_fract_z
Si Si1 0.012884 0.360725 0.010770
Si Si2 0.636371 0.813205 0.761591
Si Si3 0.355751 0.756053 0.748513
Si Si4 0.491648 0.817704 0.378982
Si Si5 0.858055 0.032108 0.065924
O O1 0.000000 0.500000 0.055424
O O2 0.038253 0.288742 0.234373
O O3 0.093419 0.318387 0.827275
O O4 0.906567 0.325640 0.930852
O O5 0.750000 0.805537 0.704276
O O6 0.577279 0.864031 0.545436
O O7 0.616152 0.898399 0.977544
O O8 0.250000 0.703112 0.713912
O O9 0.406805 0.752775 0.512217
O O10 0.356380 0.891158 0.840548
O O11 0.440730 0.925538 0.238691
O O12 0.750000 0.034677 0.175730
#
# Coordination Sequence:
#
# PCOD8168440 Si02
#       5
#     4   4   4   4   4
#     4  10  23  40  57  83 120 161 207 255 303 357
#     4  10  23  41  62  91 126 162 203 253 308 366
#     4   9  19  36  60  89 117 148 193 249 306 364
#     4  10  21  37  63  89 119 160 202 245 302 367
#     4   9  19  37  61  92 124 152 190 245 309 374
#
# _framework density 21.593344999999999
#
# number of rings (size 3 to 8) (size 9 to 14) (size 15 to 20)
#    0.000    2.400    0.000    0.600    0.000   16.000 
#    0.000    4.000    0.000    6.000    0.000    0.000 
#    0.000    0.000    0.000    0.000    0.000    0.000 
#
# Total GULP energy -247833.898757 kJ/mol
# GULP energy per Si atom -12391.694938 kJ/mol
# Density = 2.154420 g / cm^3
# Si number density = 21.593345 Si / 1000 Ang^3
#
#
#
# Elastic Constant Matrix: (Units=GPa)
#
#
# Indices 1 2 3 4 5 6 
#
# 1 167.4733 50.6648 57.5163 0.0000 0.0000 0.0000
# 2 50.6648 109.9715 34.5305 0.0000 0.0000 0.0000
# 3 57.5163 34.5305 96.8614 0.0000 0.0000 0.0000
# 4 0.0000 0.0000 0.0000 17.0530 0.0000 0.0000
# 5 0.0000 0.0000 0.0000 0.0000 34.8391 0.0000
# 6 0.0000 0.0000 0.0000 0.0000 0.0000 12.7558
#
#
#
# Elastic Compliance Matrix: (Units=1/GPa)
#
#
# Indices 1 2 3 4 5 6 
#
# 1 0.008064 -0.002490 -0.003901 0.000000 0.000000 0.000000
# 2 -0.002490 0.011009 -0.002446 0.000000 0.000000 0.000000
# 3 -0.003901 -0.002446 0.013512 0.000000 0.000000 0.000000
# 4 0.000000 0.000000 0.000000 0.058641 0.000000 0.000000
# 5 0.000000 0.000000 0.000000 0.000000 0.028703 0.000000
# 6 0.000000 0.000000 0.000000 0.000000 0.000000 0.078396
#
#
# Mechanical properties :
#
#
# Convention : Reuss Voigt Hill
#
# Bulk Modulus (GPa) = 67.06329 73.30328 70.18328
# Shear Modulus (GPa) = 22.62763 28.36921 25.49842
#
# Velocity S-wave (km/s) = 3.24064 3.62856 3.44007
# Velocity P-wave (km/s) = 6.71767 7.18165 6.95353
#
# Compressibility (1/GPa) = 0.01491129
#
# Stress axis : x y z
#
# Youngs Moduli (GPa) = 124.00569 90.83846 74.00771
#
# Poissons Ratio (x) = 0.22623 0.28868
# Poissons Ratio (y) = 0.30883 0.18100
# Poissons Ratio (z) = 0.48370 0.22216
#
# Static dielectric constant tensor:
#      x y z
#    x 4.197630 0.000000 0.000000 
#    y 0.000000 3.594820 0.000000 
#    z 0.000000 0.000000 3.919080 
# 
# 
# High freq. dielectric constant tensor:
#      x y z
#    x 1.863310 0.000000 0.000000 
#    y 0.000000 1.815650 0.000000 
#    z 0.000000 0.000000 1.849290 
# 
# From -- ./inp_files/661.got.cif
#   From: 2010.03.12/outbox.cif.g09.slc.cpg/sg28_1_cif.got.tgz:661.got - 2010.04.14 03:39:34.
