data_PCOD8168133
_publ_section_title
;
Structure prediction by ZEFSAII (Michael W. Deem and Ramdas Pophale) SiO2 
 PCOD8168133
Probable space group: P M A 2
;
_chemical_formula_sum "Si O2"
_cell_formula_units_Z 32
_cell_length_a 8.761275
_cell_length_b 14.746424
_cell_length_c 12.374967
_cell_angle_alpha 90.000000
_cell_angle_beta 90.000000
_cell_angle_gamma 90.000000
_cell_volume 1598.814501
_symmetry_space_group_name_H-M "P M A 2"
_symmetry_group_IT_number 28
_symmetry_cell_setting 'orthorhombic'
loop_
_space_group_symop_operation_xyz
x,y,z
-x,-y,z
1/2-x,y,z
1/2+x,-y,z
loop_
_atom_site_type_symbol
_atom_site_label
_atom_site_fract_x
_atom_site_fract_y
_atom_site_fract_z
Si Si1 0.068008 0.409456 0.523250
Si Si2 0.923826 0.409352 0.982599
Si Si3 0.074637 0.177980 0.827685
Si Si4 0.927193 0.352522 0.743914
Si Si5 0.929447 0.210699 0.044075
Si Si6 0.074689 0.089835 0.614592
Si Si7 0.568834 0.899044 0.238430
Si Si8 0.430426 0.220846 0.437028
O O1 0.250000 0.413841 0.536259
O O2 0.016298 0.325702 0.446097
O O3 0.000000 0.500000 0.467403
O O4 0.991088 0.406190 0.641517
O O5 0.750000 0.414347 0.016880
O O6 0.944737 0.411021 0.853309
O O7 0.000000 0.500000 0.031653
O O8 0.988903 0.315520 0.035377
O O9 0.250000 0.183747 0.866711
O O10 0.048160 0.096520 0.743198
O O11 0.033317 0.265508 0.757547
O O12 0.962909 0.163799 0.928623
O O13 0.750000 0.325610 0.727144
O O14 0.750000 0.205349 0.067867
O O15 0.021802 0.153184 0.130383
O O16 0.250000 0.083297 0.585144
O O17 0.007536 0.174218 0.546791
O O18 0.000000 0.000000 0.568377
O O19 0.750000 0.909323 0.241945
O O20 0.504066 0.834994 0.334767
O O21 0.500000 0.000000 0.244307
O O22 0.250000 0.219353 0.428387
#
# Coordination Sequence:
#
# PCOD8168133 Si02
#       8
#     4   4   4   4   4   4   4   4
#     4  11  21  36  56  83 119 158 199 244 292 350
#     4   9  19  33  52  80 116 155 193 237 284 338
#     4  10  19  34  56  82 118 160 196 236 295 353
#     4  10  19  32  51  81 118 159 202 242 288 343
#     4  10  22  40  59  85 121 153 196 251 296 349
#     4  10  20  35  55  83 115 151 187 231 290 352
#     4  11  23  42  68  91 112 148 197 248 305 360
#     4   9  20  40  61  83 117 152 190 243 296 351
#
# _framework density 20.01483
#
# number of rings (size 3 to 8) (size 9 to 14) (size 15 to 20)
#    0.000    2.000    1.250    3.375    0.000    5.500 
#    0.000    5.000    0.000    3.000    0.000    0.000 
#    0.000    0.000    0.000    0.000    0.000    0.000 
#
# Total GULP energy -396599.577970 kJ/mol
# GULP energy per Si atom -12393.736812 kJ/mol
# Density = 1.996928 g / cm^3
# Si number density = 20.014830 Si / 1000 Ang^3
#
#
#
# Elastic Constant Matrix: (Units=GPa)
#
#
# Indices 1 2 3 4 5 6 
#
# 1 47.1262 36.5102 24.9209 0.0000 0.0000 0.0000
# 2 36.5102 155.2608 66.0135 0.0000 0.0000 0.0000
# 3 24.9209 66.0135 90.5356 0.0000 0.0000 0.0000
# 4 0.0000 0.0000 0.0000 23.3879 0.0000 0.0000
# 5 0.0000 0.0000 0.0000 0.0000 13.6142 0.0000
# 6 0.0000 0.0000 0.0000 0.0000 0.0000 35.4506
#
#
#
# Elastic Compliance Matrix: (Units=1/GPa)
#
#
# Indices 1 2 3 4 5 6 
#
# 1 0.026935 -0.004611 -0.004052 0.000000 0.000000 0.000000
# 2 -0.004611 0.010124 -0.006113 0.000000 0.000000 0.000000
# 3 -0.004052 -0.006113 0.016618 0.000000 0.000000 0.000000
# 4 0.000000 0.000000 0.000000 0.042757 0.000000 0.000000
# 5 0.000000 0.000000 0.000000 0.000000 0.073453 0.000000
# 6 0.000000 0.000000 0.000000 0.000000 0.000000 0.028208
#
#
# Mechanical properties :
#
#
# Convention : Reuss Voigt Hill
#
# Bulk Modulus (GPa) = 41.45048 60.86798 51.15923
# Shear Modulus (GPa) = 21.21451 25.52240 23.36845
#
# Velocity S-wave (km/s) = 3.25920 3.57483 3.42066
# Velocity P-wave (km/s) = 5.90915 6.89324 6.42008
#
# Compressibility (1/GPa) = 0.02412517
#
# Stress axis : x y z
#
# Youngs Moduli (GPa) = 37.12689 98.77485 60.17664
#
# Poissons Ratio (x) = 0.45545 0.24384
# Poissons Ratio (y) = 0.17119 0.36784
# Poissons Ratio (z) = 0.15044 0.60378
#
# Static dielectric constant tensor:
#      x y z
#    x 3.497580 0.000000 0.000000 
#    y 0.000000 3.552160 0.000000 
#    z 0.000000 0.000000 3.557780 
# 
# 
# High freq. dielectric constant tensor:
#      x y z
#    x 1.771290 0.000000 0.000000 
#    y 0.000000 1.789390 0.000000 
#    z 0.000000 0.000000 1.761700 
# 
# From -- ./inp_files/5097.got.cif
#   From: 2010.03.12/outbox.cif.g09.slc.cpg/sg28_3_cif.got.tgz:5097.got - 2010.04.14 03:39:34.
