data_PCOD8168121
_publ_section_title
;
Structure prediction by ZEFSAII (Michael W. Deem and Ramdas Pophale) SiO2 
 PCOD8168121
Probable space group: P M A 2
;
_chemical_formula_sum "Si O2"
_cell_formula_units_Z 32
_cell_length_a 8.980582
_cell_length_b 20.769207
_cell_length_c 9.610264
_cell_angle_alpha 90.000000
_cell_angle_beta 90.000000
_cell_angle_gamma 90.000000
_cell_volume 1792.502276
_symmetry_space_group_name_H-M "P M A 2"
_symmetry_group_IT_number 28
_symmetry_cell_setting 'orthorhombic'
loop_
_space_group_symop_operation_xyz
x,y,z
-x,-y,z
1/2-x,y,z
1/2+x,-y,z
loop_
_atom_site_type_symbol
_atom_site_label
_atom_site_fract_x
_atom_site_fract_y
_atom_site_fract_z
Si Si1 0.082937 0.562446 0.640900
Si Si2 0.572229 0.695493 0.627217
Si Si3 0.080654 0.063794 0.800216
Si Si4 0.072707 0.699417 0.334449
Si Si5 0.912498 0.440201 0.311476
Si Si6 0.578190 0.188620 0.128643
Si Si7 0.416052 0.062008 0.131508
Si Si8 0.074913 0.805420 0.805206
O O1 0.250000 0.567930 0.703719
O O2 0.094313 0.553157 0.476691
O O3 0.000000 0.500000 0.705851
O O4 0.990487 0.626544 0.676900
O O5 0.750000 0.692847 0.625555
O O6 0.511922 0.715875 0.476216
O O7 0.515368 0.748513 0.734283
O O8 0.250000 0.067181 0.743682
O O9 0.988660 0.126334 0.750665
O O10 0.080556 0.060533 0.965777
O O11 0.000000 0.000000 0.739922
O O12 0.250000 0.697457 0.364781
O O13 0.017796 0.629762 0.276541
O O14 0.026649 0.750491 0.218360
O O15 0.750000 0.444518 0.244505
O O16 0.000000 0.500000 0.244324
O O17 0.750000 0.173186 0.150997
O O18 0.491576 0.126898 0.186631
O O19 0.543255 0.202774 0.968537
O O20 0.250000 0.060088 0.190279
O O21 0.500000 0.000000 0.192866
O O22 0.250000 0.801645 0.770091
#
# Coordination Sequence:
#
# PCOD8168121 Si02
#       8
#     4   4   4   4   4   4   4   4
#     4   9  16  28  46  69  95 123 157 200 243 283
#     4  11  21  32  48  72 100 131 164 199 239 287
#     4   9  16  27  44  68  95 123 156 197 239 282
#     4   9  18  33  50  70  96 126 159 198 242 289
#     4   8  14  24  41  64  90 117 148 187 230 272
#     4   9  18  32  51  72  95 125 161 199 243 288
#     4   9  16  26  43  67  95 123 155 195 236 278
#     4  10  19  32  50  72  97 128 163 201 243 287
#
# _framework density 17.852139999999999
#
# number of rings (size 3 to 8) (size 9 to 14) (size 15 to 20)
#    0.000    2.750    0.000    3.375    0.000    7.000 
#    0.000    0.000    0.000    1.500    0.000    3.500 
#    0.000    0.000    0.000    0.000    0.000    0.000 
#
# Total GULP energy -396687.890761 kJ/mol
# GULP energy per Si atom -12396.496586 kJ/mol
# Density = 1.781151 g / cm^3
# Si number density = 17.852140 Si / 1000 Ang^3
#
#
#
# Elastic Constant Matrix: (Units=GPa)
#
#
# Indices 1 2 3 4 5 6 
#
# 1 124.6868 81.0601 31.5183 0.0000 0.0000 0.0000
# 2 81.0601 178.0697 45.5638 0.0000 0.0000 0.0000
# 3 31.5183 45.5638 30.7629 0.0000 0.0000 0.0000
# 4 0.0000 0.0000 0.0000 25.6284 0.0000 0.0000
# 5 0.0000 0.0000 0.0000 0.0000 12.6089 0.0000
# 6 0.0000 0.0000 0.0000 0.0000 0.0000 39.0948
#
#
#
# Elastic Compliance Matrix: (Units=1/GPa)
#
#
# Indices 1 2 3 4 5 6 
#
# 1 0.012239 -0.003805 -0.006904 0.000000 0.000000 0.000000
# 2 -0.003805 0.010226 -0.011247 0.000000 0.000000 0.000000
# 3 -0.006904 -0.011247 0.056239 0.000000 0.000000 0.000000
# 4 0.000000 0.000000 0.000000 0.039019 0.000000 0.000000
# 5 0.000000 0.000000 0.000000 0.000000 0.079309 0.000000
# 6 0.000000 0.000000 0.000000 0.000000 0.000000 0.025579
#
#
# Mechanical properties :
#
#
# Convention : Reuss Voigt Hill
#
# Bulk Modulus (GPa) = 28.74289 72.20043 50.47166
# Shear Modulus (GPa) = 17.97783 27.15823 22.56803
#
# Velocity S-wave (km/s) = 3.17683 3.90460 3.55937
# Velocity P-wave (km/s) = 5.43984 7.80123 6.72499
#
# Compressibility (1/GPa) = 0.03479121
#
# Stress axis : x y z
#
# Youngs Moduli (GPa) = 81.70757 97.79292 17.78123
#
# Poissons Ratio (x) = 0.37207 0.12276
# Poissons Ratio (y) = 0.31087 0.19999
# Poissons Ratio (z) = 0.56411 1.09992
#
# Static dielectric constant tensor:
#      x y z
#    x 3.494960 0.000000 0.000000 
#    y 0.000000 3.624350 0.000000 
#    z 0.000000 0.000000 2.760570 
# 
# 
# High freq. dielectric constant tensor:
#      x y z
#    x 1.700340 0.000000 0.000000 
#    y 0.000000 1.711930 0.000000 
#    z 0.000000 0.000000 1.623090 
# 
# From -- ./inp_files/5172.got.cif
#   From: 2010.03.12/outbox.cif.g09.slc.cpg/sg28_3_cif.got.tgz:5172.got - 2010.04.14 03:39:34.
