data_PCOD8168448
_publ_section_title
;
Structure prediction by ZEFSAII (Michael W. Deem and Ramdas Pophale) SiO2 
 PCOD8168448
Probable space group: P M A 2
;
_chemical_formula_sum "Si O2"
_cell_formula_units_Z 32
_cell_length_a 14.798840
_cell_length_b 8.896163
_cell_length_c 12.119790
_cell_angle_alpha 90.000000
_cell_angle_beta 90.000000
_cell_angle_gamma 90.000000
_cell_volume 1595.605414
_symmetry_space_group_name_H-M "P M A 2"
_symmetry_group_IT_number 28
_symmetry_cell_setting 'orthorhombic'
loop_
_space_group_symop_operation_xyz
x,y,z
-x,-y,z
1/2-x,y,z
1/2+x,-y,z
loop_
_atom_site_type_symbol
_atom_site_label
_atom_site_fract_x
_atom_site_fract_y
_atom_site_fract_z
Si Si1 0.356830 0.665624 0.384620
Si Si2 0.144291 0.173808 0.601866
Si Si3 0.355709 0.826191 0.601866
Si Si4 0.354694 0.323912 0.139765
Si Si5 0.500000 0.322306 0.752351
Si Si6 0.500000 0.176984 0.990162
Si Si7 0.856829 0.665626 0.384619
Si Si8 0.145306 0.676088 0.139766
O O1 0.250000 0.654772 0.380508
O O2 0.388835 0.780542 0.478981
O O3 0.396425 0.499999 0.411831
O O4 0.388960 0.718421 0.263397
O O5 0.250000 0.208798 0.617868
O O6 0.090472 0.268729 0.691375
O O7 0.111167 0.219456 0.478981
O O8 0.121823 1.000000 0.618811
O O9 0.250000 0.791201 0.617864
O O10 0.409526 0.731271 0.691377
O O11 0.250000 0.283123 0.123342
O O12 0.410267 0.224824 0.054614
O O13 0.388960 0.281578 0.263396
O O14 0.371754 0.500000 0.117959
O O15 0.500000 0.500000 0.758327
O O16 0.500000 0.256966 0.873576
O O17 0.589733 0.224824 0.054615
O O18 0.500000 0.000000 0.972260
O O19 0.750000 0.654773 0.380505
O O20 0.250000 0.716877 0.123342
#
# Coordination Sequence:
#
# PCOD8168448 Si02
#       8
#     4   4   4   4   4   4   4   4
#     4   8  15  31  57  88 119 151 189 230 275 334
#     4  10  21  38  61  89 121 152 184 232 291 344
#     4  10  21  38  61  89 121 152 184 232 291 344
#     4   9  19  38  63  88 116 152 193 236 280 332
#     4  12  26  43  62  81 108 151 201 245 281 334
#     4  12  26  41  58  83 116 151 191 241 291 342
#     4   8  15  31  57  88 119 151 189 230 275 334
#     4   9  19  38  63  88 116 152 193 236 280 332
#
# _framework density 20.055083
#
# number of rings (size 3 to 8) (size 9 to 14) (size 15 to 20)
#    0.000    2.250    0.000    4.500    0.000    5.000 
#    0.000    3.750    0.000    0.000    0.000    0.000 
#    0.000    0.000    0.000    0.000    0.000    0.000 
#
# Total GULP energy -396773.351329 kJ/mol
# GULP energy per Si atom -12399.167229 kJ/mol
# Density = 2.000944 g / cm^3
# Si number density = 20.055083 Si / 1000 Ang^3
#
#
#
# Elastic Constant Matrix: (Units=GPa)
#
#
# Indices 1 2 3 4 5 6 
#
# 1 90.8992 56.7039 58.7090 0.0000 0.0000 0.0000
# 2 56.7039 149.2313 88.8402 0.0000 0.0000 0.0000
# 3 58.7090 88.8402 167.6661 0.0000 0.0000 0.0000
# 4 0.0000 0.0000 0.0000 -110.6369 0.0000 0.0000
# 5 0.0000 0.0000 0.0000 0.0000 31.5392 0.0000
# 6 0.0000 0.0000 0.0000 0.0000 0.0000 30.9196
#
#
#
# Elastic Compliance Matrix: (Units=1/GPa)
#
#
# Indices 1 2 3 4 5 6 
#
# 1 0.015642 -0.003919 -0.003401 0.000000 0.000000 0.000000
# 2 -0.003919 0.010771 -0.004335 0.000000 0.000000 0.000000
# 3 -0.003401 -0.004335 0.009452 0.000000 0.000000 0.000000
# 4 0.000000 0.000000 0.000000 -0.009039 0.000000 0.000000
# 5 0.000000 0.000000 0.000000 0.000000 0.031707 0.000000
# 6 0.000000 0.000000 0.000000 0.000000 0.000000 0.032342
#
#
# Mechanical properties :
#
#
# Convention : Reuss Voigt Hill
#
# Bulk Modulus (GPa) = 79.64413 90.70030 85.17222
# Shear Modulus (GPa) = 42.24074 3.93395 23.08734
#
# Velocity S-wave (km/s) = 4.59435 1.40208 3.39661
# Velocity P-wave (km/s) = 8.24276 6.92422 7.61209
#
# Compressibility (1/GPa) = 0.01255585
#
# Stress axis : x y z
#
# Youngs Moduli (GPa) = 63.92880 92.84420 105.80046
#
# Poissons Ratio (x) = 0.36388 0.35978
# Poissons Ratio (y) = 0.25055 0.45861
# Poissons Ratio (z) = 0.21740 0.40245
#
# Static dielectric constant tensor:
#      x y z
#    x 3.564150 0.000000 0.000000 
#    y 0.000000 4.233740 0.000000 
#    z 0.000000 0.000000 3.874760 
# 
# 
# High freq. dielectric constant tensor:
#      x y z
#    x 1.784500 0.000000 0.000000 
#    y 0.000000 1.777070 0.000000 
#    z 0.000000 0.000000 1.786810 
# 
# From -- ./inp_files/5585.got.cif
#   From: 2010.03.12/outbox.cif.g09.slc.cpg/sg28_3_cif.got.tgz:5585.got - 2010.04.14 03:39:34.
