data_PCOD8168855
_publ_section_title
;
Structure prediction by ZEFSAII (Michael W. Deem and Ramdas Pophale) SiO2 
 PCOD8168855
Probable space group: P C A 21
;
_chemical_formula_sum "Si O2"
_cell_formula_units_Z 32
_cell_length_a 5.600164
_cell_length_b 17.581450
_cell_length_c 14.116717
_cell_angle_alpha 90.000000
_cell_angle_beta 90.000000
_cell_angle_gamma 90.000000
_cell_volume 1389.917887
_symmetry_space_group_name_H-M "P C A 21"
_symmetry_group_IT_number 29
_symmetry_cell_setting 'orthorhombic'
loop_
_space_group_symop_operation_xyz
x,y,z
-x,-y,1/2+z
1/2-x,y,1/2+z
1/2+x,-y,z
loop_
_atom_site_type_symbol
_atom_site_label
_atom_site_fract_x
_atom_site_fract_y
_atom_site_fract_z
Si Si1 0.618139 0.658090 0.400580
Si Si2 0.638816 0.803423 0.642728
Si Si3 0.617291 0.971827 0.688435
Si Si4 0.272087 0.455155 0.050454
Si Si5 0.098656 0.341701 0.187972
Si Si6 0.625434 0.804261 0.951888
Si Si7 0.740322 0.285987 0.054146
Si Si8 0.393765 0.028590 0.400233
O O1 0.762501 0.589874 0.450448
O O2 0.533727 0.633601 0.295187
O O3 0.780130 0.733882 0.388471
O O4 0.400938 0.671178 0.471953
O O5 0.614646 0.881054 0.699609
O O6 0.836909 0.748180 0.688123
O O7 0.685239 0.824106 0.533187
O O8 0.397996 0.754876 0.640188
O O9 0.615569 0.006724 0.794330
O O10 0.368785 0.001201 0.637755
O O11 0.529343 0.496065 0.056279
O O12 0.295316 0.397305 0.141068
O O13 0.886455 0.350430 0.110907
O O14 0.587095 0.880186 0.891658
O O15 0.382415 0.780440 0.001654
O O16 0.639815 0.996659 0.450282
#
# Coordination Sequence:
#
# PCOD8168855 Si02
#       8
#     4   4   4   4   4   4   4   4
#     4  11  24  45  74 105 143 194 244 296 365 431
#     4  10  22  40  66  95 132 182 240 301 354 425
#     4  10  23  40  58  90 135 179 233 297 358 423
#     4  12  27  50  74 107 154 180 228 298 347 434
#     4  11  24  45  74 105 143 194 244 296 365 431
#     4  10  22  40  66  95 132 182 240 301 354 425
#     4  10  21  44  66 107 140 180 246 312 345 422
#     4  10  23  40  58  90 135 179 233 297 358 423
#
# _framework density 23.022942
#
# number of rings (size 3 to 8) (size 9 to 14) (size 15 to 20)
#    0.000    1.500    3.750    1.500    7.000    4.000 
#    0.000    0.000    0.000    0.000    0.000    0.000 
#    0.000    0.000    0.000    0.000    0.000    0.000 
#
# Total GULP energy -396444.488815 kJ/mol
# GULP energy per Si atom -12388.890275 kJ/mol
# Density = 2.297054 g / cm^3
# Si number density = 23.022942 Si / 1000 Ang^3
#
#
#
# Elastic Constant Matrix: (Units=GPa)
#
#
# Indices 1 2 3 4 5 6 
#
# 1 158.1677 49.3735 35.6689 0.0000 0.0000 0.0000
# 2 49.3735 122.0943 33.8897 0.0000 0.0000 0.0000
# 3 35.6689 33.8897 104.5552 0.0000 0.0000 0.0000
# 4 0.0000 0.0000 0.0000 26.0009 0.0000 0.0000
# 5 0.0000 0.0000 0.0000 0.0000 19.2001 0.0000
# 6 0.0000 0.0000 0.0000 0.0000 0.0000 27.5147
#
#
#
# Elastic Compliance Matrix: (Units=1/GPa)
#
#
# Indices 1 2 3 4 5 6 
#
# 1 0.007511 -0.002556 -0.001734 0.000000 0.000000 0.000000
# 2 -0.002556 0.009870 -0.002327 0.000000 0.000000 0.000000
# 3 -0.001734 -0.002327 0.010910 0.000000 0.000000 0.000000
# 4 0.000000 0.000000 0.000000 0.038460 0.000000 0.000000
# 5 0.000000 0.000000 0.000000 0.000000 0.052083 0.000000
# 6 0.000000 0.000000 0.000000 0.000000 0.000000 0.036344
#
#
# Mechanical properties :
#
#
# Convention : Reuss Voigt Hill
#
# Bulk Modulus (GPa) = 66.41448 69.18682 67.80065
# Shear Modulus (GPa) = 28.82966 32.26883 30.54924
#
# Velocity S-wave (km/s) = 3.54250 3.74785 3.64662
# Velocity P-wave (km/s) = 6.75590 6.98892 6.87340
#
# Compressibility (1/GPa) = 0.01505696
#
# Stress axis : x y z
#
# Youngs Moduli (GPa) = 133.13140 101.31669 91.65769
#
# Poissons Ratio (x) = 0.25899 0.15893
# Poissons Ratio (y) = 0.34031 0.21330
# Poissons Ratio (z) = 0.23084 0.23578
#
# Static dielectric constant tensor:
#      x y z
#    x 4.484230 0.000000 0.000000 
#    y 0.000000 4.051200 0.000000 
#    z 0.000000 0.000000 3.823780 
# 
# 
# High freq. dielectric constant tensor:
#      x y z
#    x 1.915750 0.000000 0.000000 
#    y 0.000000 1.905940 0.000000 
#    z 0.000000 0.000000 1.892490 
# 
# From -- ./inp_files/4122.got.cif
#   From: 2010.03.12/outbox.cif.g09.slc.cpg/sg29_3_cif.got.tgz:4122.got - 2010.04.14 03:43:10.
