data_PCOD8168643
_publ_section_title
;
Structure prediction by ZEFSAII (Michael W. Deem and Ramdas Pophale) SiO2 
 PCOD8168643
Probable space group: P C A 21
;
_chemical_formula_sum "Si O2"
_cell_formula_units_Z 28
_cell_length_a 5.190958
_cell_length_b 13.439263
_cell_length_c 17.691741
_cell_angle_alpha 90.000000
_cell_angle_beta 90.000000
_cell_angle_gamma 90.000000
_cell_volume 1234.222731
_symmetry_space_group_name_H-M "P C A 21"
_symmetry_group_IT_number 29
_symmetry_cell_setting 'orthorhombic'
loop_
_space_group_symop_operation_xyz
x,y,z
-x,-y,1/2+z
1/2-x,y,1/2+z
1/2+x,-y,z
loop_
_atom_site_type_symbol
_atom_site_label
_atom_site_fract_x
_atom_site_fract_y
_atom_site_fract_z
Si Si1 0.656999 0.774087 0.371810
Si Si2 0.666206 0.406360 0.552356
Si Si3 0.845645 0.227026 0.776898
Si Si4 0.160972 0.380603 0.489564
Si Si5 0.744807 0.446081 0.224602
Si Si6 0.495278 0.059489 0.985780
Si Si7 0.018922 0.939940 0.162737
O O1 0.439651 0.792309 0.308799
O O2 0.674535 0.660723 0.403816
O O3 0.587574 0.841010 0.443502
O O4 0.936638 0.799440 0.338319
O O5 0.899886 0.335660 0.526403
O O6 0.634698 0.499429 0.493716
O O7 0.728963 0.449016 0.634247
O O8 0.402486 0.344066 0.541822
O O9 0.855441 0.340985 0.752712
O O10 0.904986 0.162152 0.703357
O O11 0.528999 0.524406 0.254239
O O12 0.504610 0.082700 0.074325
O O13 0.779645 0.022395 0.962606
O O14 0.238106 0.019811 0.186862
#
# Coordination Sequence:
#
# PCOD8168643 Si02
#       7
#     4   4   4   4   4   4   4
#     4  12  26  45  64 103 141 182 229 279 352 426
#     4  10  19  39  65  93 117 165 231 272 336 373
#     4  12  28  45  66 104 144 188 229 275 364 432
#     4  10  20  38  62  92 124 162 224 276 318 398
#     4  12  23  45  67  95 136 180 236 283 339 409
#     4  10  23  44  71 103 133 173 229 290 343 404
#     4  10  23  46  73 104 135 176 232 291 346 410
#
# _framework density 22.686342
#
# number of rings (size 3 to 8) (size 9 to 14) (size 15 to 20)
#    0.000    1.143    2.857    3.429    2.000    3.429 
#   20.571    0.000    0.000    0.000    0.000    0.000 
#    0.000    0.000    0.000    0.000    0.000    0.000 
#
# Total GULP energy -346999.961936 kJ/mol
# GULP energy per Si atom -12392.855783 kJ/mol
# Density = 2.263471 g / cm^3
# Si number density = 22.686342 Si / 1000 Ang^3
#
#
#
# Elastic Constant Matrix: (Units=GPa)
#
#
# Indices 1 2 3 4 5 6 
#
# 1 174.2840 18.8834 31.6493 0.0000 0.0000 0.0000
# 2 18.8834 76.8447 41.2701 0.0000 0.0000 0.0000
# 3 31.6493 41.2701 60.6587 0.0000 0.0000 0.0000
# 4 0.0000 0.0000 0.0000 31.5999 0.0000 0.0000
# 5 0.0000 0.0000 0.0000 0.0000 32.8305 0.0000
# 6 0.0000 0.0000 0.0000 0.0000 0.0000 31.2432
#
#
#
# Elastic Compliance Matrix: (Units=1/GPa)
#
#
# Indices 1 2 3 4 5 6 
#
# 1 0.006344 0.000345 -0.003545 0.000000 0.000000 0.000000
# 2 0.000345 0.020525 -0.014144 0.000000 0.000000 0.000000
# 3 -0.003545 -0.014144 0.027958 0.000000 0.000000 0.000000
# 4 0.000000 0.000000 0.000000 0.031646 0.000000 0.000000
# 5 0.000000 0.000000 0.000000 0.000000 0.030460 0.000000
# 6 0.000000 0.000000 0.000000 0.000000 0.000000 0.032007
#
#
# Mechanical properties :
#
#
# Convention : Reuss Voigt Hill
#
# Bulk Modulus (GPa) = 49.65492 55.04367 52.34930
# Shear Modulus (GPa) = 26.26868 33.80036 30.03452
#
# Velocity S-wave (km/s) = 3.40650 3.86411 3.64250
# Velocity P-wave (km/s) = 6.11616 6.65012 6.38872
#
# Compressibility (1/GPa) = 0.02013899
#
# Stress axis : x y z
#
# Youngs Moduli (GPa) = 157.62663 48.72150 35.76746
#
# Poissons Ratio (x) = -0.01679 0.12678
# Poissons Ratio (y) = -0.05433 0.50590
# Poissons Ratio (z) = 0.55873 0.68913
#
# Static dielectric constant tensor:
#      x y z
#    x 5.086610 0.000000 0.000000 
#    y 0.000000 3.766100 0.000000 
#    z 0.000000 0.000000 3.934790 
# 
# 
# High freq. dielectric constant tensor:
#      x y z
#    x 1.931870 0.000000 0.000000 
#    y 0.000000 1.870770 0.000000 
#    z 0.000000 0.000000 1.879610 
# 
# From -- ./inp_files/4890.got.cif
#   From: 2010.03.12/outbox.cif.g09.slc.cpg/sg29_3_cif.got.tgz:4890.got - 2010.04.14 03:43:10.
