data_PCOD8168862
_publ_section_title
;
Structure prediction by ZEFSAII (Michael W. Deem and Ramdas Pophale) SiO2 
 PCOD8168862
Probable space group: P C A 21
;
_chemical_formula_sum "Si O2"
_cell_formula_units_Z 24
_cell_length_a 24.362160
_cell_length_b 5.416396
_cell_length_c 8.543122
_cell_angle_alpha 90.000000
_cell_angle_beta 90.000000
_cell_angle_gamma 90.000000
_cell_volume 1127.308569
_symmetry_space_group_name_H-M "P C A 21"
_symmetry_group_IT_number 29
_symmetry_cell_setting 'orthorhombic'
loop_
_space_group_symop_operation_xyz
x,y,z
-x,-y,1/2+z
1/2-x,y,1/2+z
1/2+x,-y,z
loop_
_atom_site_type_symbol
_atom_site_label
_atom_site_fract_x
_atom_site_fract_y
_atom_site_fract_z
Si Si1 0.979318 0.741299 0.857290
Si Si2 0.209354 0.299843 0.052679
Si Si3 0.701681 0.325302 0.497396
Si Si4 0.492080 0.752473 0.707221
Si Si5 0.882362 0.470485 0.745756
Si Si6 0.728416 0.013873 0.772391
O O1 0.012351 0.490745 0.804874
O O2 0.916844 0.717062 0.792083
O O3 0.007332 0.991592 0.793685
O O4 0.977217 0.753265 0.043308
O O5 0.159978 0.478428 0.104664
O O6 0.217037 0.093824 0.187360
O O7 0.269891 0.424403 0.058072
O O8 0.196414 0.186299 0.880786
O O9 0.646133 0.375566 0.404497
O O10 0.688679 0.138579 0.641880
O O11 0.749137 0.223708 0.385325
O O12 0.425584 0.736766 0.686218
#
# Coordination Sequence:
#
# PCOD8168862 Si02
#       6
#     4   4   4   4   4   4
#     4  10  23  44  73  97 130 170 221 284 343 399
#     4  11  20  39  58  94 128 171 212 265 314 388
#     4  11  20  39  58  94 128 171 212 265 314 388
#     4  10  23  44  73  97 130 170 221 284 343 399
#     4  10  24  38  70  86 134 172 220 268 340 392
#     4  10  22  32  66  84 140 170 214 260 316 376
#
# _framework density 21.289645
#
# number of rings (size 3 to 8) (size 9 to 14) (size 15 to 20)
#    1.000    0.667    3.333    1.000    2.333    0.000 
#    0.000    6.667    3.667    0.000    0.000    0.000 
#    0.000    0.000    0.000    0.000    0.000    0.000 
#
# Total GULP energy -297394.000881 kJ/mol
# GULP energy per Si atom -12391.416703 kJ/mol
# Density = 2.124119 g / cm^3
# Si number density = 21.289645 Si / 1000 Ang^3
#
#
#
# Elastic Constant Matrix: (Units=GPa)
#
#
# Indices 1 2 3 4 5 6 
#
# 1 41.6537 1.0311 8.1750 0.0000 0.0000 0.0000
# 2 1.0311 114.7226 33.9784 0.0000 0.0000 0.0000
# 3 8.1750 33.9784 112.8452 0.0000 0.0000 0.0000
# 4 0.0000 0.0000 0.0000 44.1449 0.0000 0.0000
# 5 0.0000 0.0000 0.0000 0.0000 32.6839 0.0000
# 6 0.0000 0.0000 0.0000 0.0000 0.0000 14.7299
#
#
#
# Elastic Compliance Matrix: (Units=1/GPa)
#
#
# Indices 1 2 3 4 5 6 
#
# 1 0.024365 0.000334 -0.001866 0.000000 0.000000 0.000000
# 2 0.000334 0.009575 -0.002907 0.000000 0.000000 0.000000
# 3 -0.001866 -0.002907 0.009872 0.000000 0.000000 0.000000
# 4 0.000000 0.000000 0.000000 0.022653 0.000000 0.000000
# 5 0.000000 0.000000 0.000000 0.000000 0.030596 0.000000
# 6 0.000000 0.000000 0.000000 0.000000 0.000000 0.067889
#
#
# Mechanical properties :
#
#
# Convention : Reuss Voigt Hill
#
# Bulk Modulus (GPa) = 28.62549 39.51006 34.06778
# Shear Modulus (GPa) = 26.95810 33.38089 30.16950
#
# Velocity S-wave (km/s) = 3.56231 3.96402 3.76852
# Velocity P-wave (km/s) = 5.51316 6.28887 5.91375
#
# Compressibility (1/GPa) = 0.03493390
#
# Stress axis : x y z
#
# Youngs Moduli (GPa) = 41.04193 104.44167 101.29437
#
# Poissons Ratio (x) = -0.03484 0.18897
# Poissons Ratio (y) = -0.01369 0.29448
# Poissons Ratio (z) = 0.07657 0.30363
#
# Static dielectric constant tensor:
#      x y z
#    x 3.272410 0.000000 0.000000 
#    y 0.000000 4.006740 0.000000 
#    z 0.000000 0.000000 3.897360 
# 
# 
# High freq. dielectric constant tensor:
#      x y z
#    x 1.779220 0.000000 0.000000 
#    y 0.000000 1.846990 0.000000 
#    z 0.000000 0.000000 1.846540 
# 
# From -- ./inp_files/2388.got.cif
#   From: 2010.03.12/outbox.cif.g09.slc.cpg/sg29_2_cif.got.tgz:2388.got - 2010.04.14 03:43:10.
