data_PCOD8168108
_publ_section_title
;
Structure prediction by ZEFSAII (Michael W. Deem and Ramdas Pophale) SiO2 
 PCOD8168108
Probable space group: P M A 2
;
_chemical_formula_sum "Si O2"
_cell_formula_units_Z 32
_cell_length_a 9.145299
_cell_length_b 16.433199
_cell_length_c 11.105390
_cell_angle_alpha 90.000000
_cell_angle_beta 90.000000
_cell_angle_gamma 90.000000
_cell_volume 1668.990398
_symmetry_space_group_name_H-M "P M A 2"
_symmetry_group_IT_number 28
_symmetry_cell_setting 'orthorhombic'
loop_
_space_group_symop_operation_xyz
x,y,z
-x,-y,z
1/2-x,y,z
1/2+x,-y,z
loop_
_atom_site_type_symbol
_atom_site_label
_atom_site_fract_x
_atom_site_fract_y
_atom_site_fract_z
Si Si1 0.923463 0.252112 0.751040
Si Si2 0.587916 0.075096 0.126112
Si Si3 0.573691 0.414951 0.892672
Si Si4 0.084404 0.384190 0.142342
Si Si5 0.414385 0.569049 0.373089
Si Si6 0.587412 0.791931 0.252419
Si Si7 0.415237 0.744023 0.478889
Si Si8 0.586329 0.078730 0.841540
O O1 0.750000 0.253421 0.760212
O O2 0.979004 0.336151 0.813582
O O3 0.977434 0.247643 0.613236
O O4 0.983753 0.167602 0.810161
O O5 0.750000 0.072704 0.179941
O O6 0.511893 0.156763 0.164917
O O7 0.500000 0.000000 0.182345
O O8 0.590191 0.070895 0.983626
O O9 0.500000 0.500000 0.845307
O O10 0.750000 0.423631 0.891622
O O11 0.516153 0.397743 0.026377
O O12 0.250000 0.416484 0.118626
O O13 0.091241 0.291608 0.182111
O O14 0.006110 0.429900 0.250216
O O15 0.500000 0.500000 0.450896
O O16 0.250000 0.542521 0.343083
O O17 0.416755 0.649379 0.450418
O O18 0.750000 0.828230 0.265634
O O19 0.519129 0.790565 0.385968
O O20 0.250000 0.778556 0.467945
O O21 0.750000 0.074092 0.787660
O O22 0.500000 0.000000 0.787955
#
# Coordination Sequence:
#
# PCOD8168108 Si02
#       8
#     4   4   4   4   4   4   4   4
#     4   9  19  37  58  77 103 143 185 221 261 315
#     4  10  19  32  53  81 111 140 169 207 258 317
#     4  11  22  36  54  78 109 143 181 223 269 323
#     4  10  20  34  52  75 104 136 172 217 267 320
#     4  10  19  31  50  74  99 130 170 216 265 314
#     4  10  20  34  53  78 106 135 171 217 267 316
#     4   9  19  36  55  73  97 136 181 217 255 310
#     4   9  18  34  57  84 110 137 173 216 263 315
#
# _framework density 19.173269000000001
#
# number of rings (size 3 to 8) (size 9 to 14) (size 15 to 20)
#    0.000    2.250    0.000    3.000    0.000    4.000 
#    0.000    3.750    0.000    1.500    0.000    0.000 
#    0.000    0.000    0.000    0.000    0.000    0.000 
#
# Total GULP energy -396537.246488 kJ/mol
# GULP energy per Si atom -12391.788953 kJ/mol
# Density = 1.912963 g / cm^3
# Si number density = 19.173269 Si / 1000 Ang^3
#
#
#
# Elastic Constant Matrix: (Units=GPa)
#
#
# Indices 1 2 3 4 5 6 
#
# 1 120.6477 45.0501 19.8067 0.0000 0.0000 0.0000
# 2 45.0501 105.7464 24.5609 0.0000 0.0000 0.0000
# 3 19.8067 24.5609 30.6105 0.0000 0.0000 0.0000
# 4 0.0000 0.0000 0.0000 14.4217 0.0000 0.0000
# 5 0.0000 0.0000 0.0000 0.0000 17.4926 0.0000
# 6 0.0000 0.0000 0.0000 0.0000 0.0000 32.3363
#
#
#
# Elastic Compliance Matrix: (Units=1/GPa)
#
#
# Indices 1 2 3 4 5 6 
#
# 1 0.010209 -0.003460 -0.003830 0.000000 0.000000 0.000000
# 2 -0.003460 0.012795 -0.008028 0.000000 0.000000 0.000000
# 3 -0.003830 -0.008028 0.041588 0.000000 0.000000 0.000000
# 4 0.000000 0.000000 0.000000 0.069340 0.000000 0.000000
# 5 0.000000 0.000000 0.000000 0.000000 0.057167 0.000000
# 6 0.000000 0.000000 0.000000 0.000000 0.000000 0.030925
#
#
# Mechanical properties :
#
#
# Convention : Reuss Voigt Hill
#
# Bulk Modulus (GPa) = 29.44865 48.42668 38.93767
# Shear Modulus (GPa) = 18.94096 24.02257 21.48177
#
# Velocity S-wave (km/s) = 3.14647 3.54350 3.35087
# Velocity P-wave (km/s) = 5.34724 6.48491 5.94336
#
# Compressibility (1/GPa) = 0.03395741
#
# Stress axis : x y z
#
# Youngs Moduli (GPa) = 97.95040 78.15516 24.04543
#
# Poissons Ratio (x) = 0.27040 0.09209
# Poissons Ratio (y) = 0.33889 0.19303
# Poissons Ratio (z) = 0.37514 0.62741
#
# Static dielectric constant tensor:
#      x y z
#    x 3.743920 0.000000 0.000000 
#    y 0.000000 3.821240 0.000000 
#    z 0.000000 0.000000 3.319870 
# 
# 
# High freq. dielectric constant tensor:
#      x y z
#    x 1.744290 0.000000 0.000000 
#    y 0.000000 1.757340 0.000000 
#    z 0.000000 0.000000 1.723300 
# 
# From -- ./inp_files/5071.got.cif
#   From: 2010.03.12/outbox.cif.g09.slc.cpg/sg28_3_cif.got.tgz:5071.got - 2010.04.14 03:39:34.
