data_PCOD8168395
_publ_section_title
;
Structure prediction by ZEFSAII (Michael W. Deem and Ramdas Pophale) SiO2 
 PCOD8168395
Probable space group: P M A 2
;
_chemical_formula_sum "Si O2"
_cell_formula_units_Z 32
_cell_length_a 8.736330
_cell_length_b 15.438340
_cell_length_c 11.819136
_cell_angle_alpha 90.000000
_cell_angle_beta 90.000000
_cell_angle_gamma 90.000000
_cell_volume 1594.099265
_symmetry_space_group_name_H-M "P M A 2"
_symmetry_group_IT_number 28
_symmetry_cell_setting 'orthorhombic'
loop_
_space_group_symop_operation_xyz
x,y,z
-x,-y,z
1/2-x,y,z
1/2+x,-y,z
loop_
_atom_site_type_symbol
_atom_site_label
_atom_site_fract_x
_atom_site_fract_y
_atom_site_fract_z
Si Si1 0.928654 0.250166 0.181770
Si Si2 0.069218 0.590147 0.799032
Si Si3 0.929832 0.088147 0.331338
Si Si4 0.570015 0.743762 0.940114
Si Si5 0.430491 0.349166 0.567260
Si Si6 0.430052 0.149872 0.558183
Si Si7 0.929506 0.412680 0.338680
Si Si8 0.430250 0.089684 0.803447
O O1 0.750000 0.243797 0.149596
O O2 0.984069 0.168189 0.254879
O O3 0.964641 0.335725 0.252693
O O4 0.032565 0.252557 0.071697
O O5 0.250000 0.583611 0.800256
O O6 0.000000 0.500000 0.843337
O O7 0.017506 0.664397 0.884334
O O8 0.013200 0.607759 0.672732
O O9 0.750000 0.079927 0.330793
O O10 0.983851 0.099864 0.459559
O O11 0.000000 0.000000 0.280504
O O12 0.750000 0.731138 0.919993
O O13 0.511378 0.832567 0.882884
O O14 0.250000 0.358728 0.584538
O O15 0.480690 0.249580 0.558486
O O16 0.483321 0.398183 0.455791
O O17 0.250000 0.140504 0.539087
O O18 0.484417 0.107630 0.675538
O O19 0.750000 0.421924 0.361969
O O20 0.000000 0.500000 0.284471
O O21 0.250000 0.082551 0.810326
O O22 0.500000 0.000000 0.848220
#
# Coordination Sequence:
#
# PCOD8168395 Si02
#       8
#     4   4   4   4   4   4   4   4
#     4  10  24  44  63  87 122 162 210 260 308 368
#     4  12  25  42  66  94 127 165 206 252 309 369
#     4  11  23  40  62  91 126 162 207 255 307 368
#     4  11  24  44  66  90 123 162 210 261 312 366
#     4  11  21  38  64  94 129 163 202 250 307 369
#     4  10  20  37  62  91 126 161 200 249 308 370
#     4  11  23  41  63  92 126 161 205 251 305 368
#     4  10  22  40  61  91 125 160 201 250 304 366
#
# _framework density 20.074031000000002
#
# number of rings (size 3 to 8) (size 9 to 14) (size 15 to 20)
#    0.000    1.250    2.500    3.375    0.000    6.000 
#    0.000    3.750    0.000    0.000    0.000    0.000 
#    0.000    0.000    0.000    0.000    0.000    0.000 
#
# Total GULP energy -397005.315007 kJ/mol
# GULP energy per Si atom -12406.416094 kJ/mol
# Density = 2.002834 g / cm^3
# Si number density = 20.074031 Si / 1000 Ang^3
#
#
#
# Elastic Constant Matrix: (Units=GPa)
#
#
# Indices 1 2 3 4 5 6 
#
# 1 83.9124 55.9688 39.5441 0.0000 0.0000 0.0000
# 2 55.9688 178.8339 57.6344 0.0000 0.0000 0.0000
# 3 39.5441 57.6344 112.6726 0.0000 0.0000 0.0000
# 4 0.0000 0.0000 0.0000 35.8678 0.0000 0.0000
# 5 0.0000 0.0000 0.0000 0.0000 32.2912 0.0000
# 6 0.0000 0.0000 0.0000 0.0000 0.0000 36.4284
#
#
#
# Elastic Compliance Matrix: (Units=1/GPa)
#
#
# Indices 1 2 3 4 5 6 
#
# 1 0.016265 -0.003892 -0.003717 0.000000 0.000000 0.000000
# 2 -0.003892 0.007627 -0.002535 0.000000 0.000000 0.000000
# 3 -0.003717 -0.002535 0.011477 0.000000 0.000000 0.000000
# 4 0.000000 0.000000 0.000000 0.027880 0.000000 0.000000
# 5 0.000000 0.000000 0.000000 0.000000 0.030968 0.000000
# 6 0.000000 0.000000 0.000000 0.000000 0.000000 0.027451
#
#
# Mechanical properties :
#
#
# Convention : Reuss Voigt Hill
#
# Bulk Modulus (GPa) = 66.31841 75.74596 71.03219
# Shear Modulus (GPa) = 34.01703 35.73560 34.87632
#
# Velocity S-wave (km/s) = 4.12099 4.22381 4.17272
# Velocity P-wave (km/s) = 7.46673 7.84873 7.66011
#
# Compressibility (1/GPa) = 0.01507877
#
# Stress axis : x y z
#
# Youngs Moduli (GPa) = 61.48069 131.11245 87.13202
#
# Poissons Ratio (x) = 0.51034 0.32391
# Poissons Ratio (y) = 0.23931 0.22091
# Poissons Ratio (z) = 0.22855 0.33241
#
# Static dielectric constant tensor:
#      x y z
#    x 3.586960 0.000000 0.000000 
#    y 0.000000 3.955170 0.000000 
#    z 0.000000 0.000000 3.582920 
# 
# 
# High freq. dielectric constant tensor:
#      x y z
#    x 1.785750 0.000000 0.000000 
#    y 0.000000 1.805770 0.000000 
#    z 0.000000 0.000000 1.779210 
# 
# From -- ./inp_files/4989.got.cif
#   From: 2010.03.12/outbox.cif.g09.slc.cpg/sg28_3_cif.got.tgz:4989.got - 2010.04.14 03:39:34.
