data_PCOD8168826
_publ_section_title
;
Structure prediction by ZEFSAII (Michael W. Deem and Ramdas Pophale) SiO2 
 PCOD8168826
Probable space group: P C A 21
;
_chemical_formula_sum "Si O2"
_cell_formula_units_Z 32
_cell_length_a 14.341433
_cell_length_b 9.461560
_cell_length_c 10.877334
_cell_angle_alpha 90.000000
_cell_angle_beta 90.000000
_cell_angle_gamma 90.000000
_cell_volume 1475.970782
_symmetry_space_group_name_H-M "P C A 21"
_symmetry_group_IT_number 29
_symmetry_cell_setting 'orthorhombic'
loop_
_space_group_symop_operation_xyz
x,y,z
-x,-y,1/2+z
1/2-x,y,1/2+z
1/2+x,-y,z
loop_
_atom_site_type_symbol
_atom_site_label
_atom_site_fract_x
_atom_site_fract_y
_atom_site_fract_z
Si Si1 0.321068 0.828007 0.425210
Si Si2 0.622393 0.693308 0.629014
Si Si3 0.818811 0.216305 0.700467
Si Si4 0.950075 0.479742 0.706666
Si Si5 0.983696 0.722759 0.888053
Si Si6 0.874039 0.918316 0.737737
Si Si7 0.826672 0.681231 0.561065
Si Si8 0.319178 0.132185 0.345498
O O1 0.258465 0.787599 0.307420
O O2 0.274845 0.795888 0.560827
O O3 0.408544 0.721080 0.425111
O O4 0.358460 0.989545 0.410056
O O5 0.554766 0.568904 0.676658
O O6 0.580572 0.754099 0.504313
O O7 0.725323 0.625523 0.606974
O O8 0.629448 0.830954 0.717466
O O9 0.881232 0.350617 0.729035
O O10 0.889150 0.083238 0.710863
O O11 0.952935 0.573873 0.829106
O O12 0.907340 0.570003 0.593672
O O13 0.967938 0.851452 0.793071
O O14 0.845902 0.835967 0.615670
O O15 0.790320 0.898670 0.834440
O O16 0.830002 0.718278 0.417393
#
# Coordination Sequence:
#
# PCOD8168826 Si02
#       8
#     4   4   4   4   4   4   4   4
#     4  11  25  44  74 102 145 179 241 295 365 419
#     4  11  24  42  70  97 139 179 237 286 352 426
#     4  11  24  46  68 105 141 183 229 299 355 427
#     4  11  27  43  66 102 139 186 228 286 356 431
#     4  11  24  45  66 100 136 181 235 294 345 434
#     4   9  20  41  69  96 130 170 232 280 345 414
#     4  10  21  43  69  96 135 180 229 280 346 420
#     4  10  21  40  72 102 127 188 225 290 352 417
#
# _framework density 21.680645999999999
#
# number of rings (size 3 to 8) (size 9 to 14) (size 15 to 20)
#    0.000    1.500    3.750    0.000    5.250    1.000 
#    0.000    0.000    0.000    0.000    0.000    0.000 
#    0.000    0.000    0.000    0.000    0.000    0.000 
#
# Total GULP energy -396588.261457 kJ/mol
# GULP energy per Si atom -12393.383171 kJ/mol
# Density = 2.163130 g / cm^3
# Si number density = 21.680646 Si / 1000 Ang^3
#
#
#
# Elastic Constant Matrix: (Units=GPa)
#
#
# Indices 1 2 3 4 5 6 
#
# 1 73.0929 34.2185 42.8304 0.0000 0.0000 0.0000
# 2 34.2185 124.4051 43.1484 0.0000 0.0000 0.0000
# 3 42.8304 43.1484 135.9697 0.0000 0.0000 0.0000
# 4 0.0000 0.0000 0.0000 27.4704 0.0000 0.0000
# 5 0.0000 0.0000 0.0000 0.0000 32.2438 0.0000
# 6 0.0000 0.0000 0.0000 0.0000 0.0000 32.3762
#
#
#
# Elastic Compliance Matrix: (Units=1/GPa)
#
#
# Indices 1 2 3 4 5 6 
#
# 1 0.017935 -0.003341 -0.004589 0.000000 0.000000 0.000000
# 2 -0.003341 0.009655 -0.002011 0.000000 0.000000 0.000000
# 3 -0.004589 -0.002011 0.009438 0.000000 0.000000 0.000000
# 4 0.000000 0.000000 0.000000 0.036403 0.000000 0.000000
# 5 0.000000 0.000000 0.000000 0.000000 0.031014 0.000000
# 6 0.000000 0.000000 0.000000 0.000000 0.000000 0.030887
#
#
# Mechanical properties :
#
#
# Convention : Reuss Voigt Hill
#
# Bulk Modulus (GPa) = 58.32818 63.76247 61.04533
# Shear Modulus (GPa) = 31.06950 32.63611 31.85280
#
# Velocity S-wave (km/s) = 3.78967 3.88404 3.83715
# Velocity P-wave (km/s) = 6.79048 7.04188 6.91732
#
# Compressibility (1/GPa) = 0.01714437
#
# Stress axis : x y z
#
# Youngs Moduli (GPa) = 55.75841 103.57403 105.95027
#
# Poissons Ratio (x) = 0.34608 0.48621
# Poissons Ratio (y) = 0.18631 0.21310
# Poissons Ratio (z) = 0.25588 0.20832
#
# Static dielectric constant tensor:
#      x y z
#    x 3.756750 0.000000 0.000000 
#    y 0.000000 3.873090 0.000000 
#    z 0.000000 0.000000 4.017930 
# 
# 
# High freq. dielectric constant tensor:
#      x y z
#    x 1.833560 0.000000 0.000000 
#    y 0.000000 1.850110 0.000000 
#    z 0.000000 0.000000 1.864020 
# 
# From -- ./inp_files/3459.got.cif
#   From: 2010.03.12/outbox.cif.g09.slc.cpg/sg29_2_cif.got.tgz:3459.got - 2010.04.14 03:43:10.
