data_PCOD8168268
_publ_section_title
;
Structure prediction by ZEFSAII (Michael W. Deem and Ramdas Pophale) SiO2 
 PCOD8168268
Probable space group: P M A 2
;
_chemical_formula_sum "Si O2"
_cell_formula_units_Z 32
_cell_length_a 14.719847
_cell_length_b 9.021944
_cell_length_c 10.667066
_cell_angle_alpha 90.000000
_cell_angle_beta 90.000000
_cell_angle_gamma 90.000000
_cell_volume 1416.603809
_symmetry_space_group_name_H-M "P M A 2"
_symmetry_group_IT_number 28
_symmetry_cell_setting 'orthorhombic'
loop_
_space_group_symop_operation_xyz
x,y,z
-x,-y,z
1/2-x,y,z
1/2+x,-y,z
loop_
_atom_site_type_symbol
_atom_site_label
_atom_site_fract_x
_atom_site_fract_y
_atom_site_fract_z
Si Si1 0.855992 0.139608 0.705330
Si Si2 0.078344 0.793234 0.113884
Si Si3 0.853715 0.382593 0.322968
Si Si4 0.349924 0.151792 0.860926
Si Si5 0.848961 0.712109 0.388217
Si Si6 0.521806 0.329169 0.850432
Si Si7 0.118190 0.116962 0.147018
Si Si8 0.976734 0.152919 0.469283
O O1 0.750000 0.159225 0.666644
O O2 0.897447 0.298312 0.750800
O O3 0.921268 0.095497 0.590371
O O4 0.867264 0.017213 0.815283
O O5 0.129224 0.653757 0.176775
O O6 0.983644 0.832792 0.179371
O O7 0.138036 0.941303 0.133688
O O8 0.060157 0.751031 0.972252
O O9 0.750000 0.359381 0.361453
O O10 0.884107 0.550039 0.346786
O O11 0.912363 0.264275 0.397533
O O12 0.250000 0.202438 0.813108
O O13 0.428768 0.253165 0.801792
O O14 0.351660 0.176586 0.010943
O O15 0.750000 0.703896 0.455986
O O16 0.829589 0.811990 0.264214
O O17 0.923829 0.770955 0.487389
O O18 0.500000 0.500000 0.870784
O O19 0.000000 0.000000 0.393884
#
# Coordination Sequence:
#
# PCOD8168268 Si02
#       8
#     4   4   4   4   4   4   4   4
#     4  11  25  48  73  99 130 176 237 293 344 408
#     4  10  21  36  61  95 137 178 221 277 337 403
#     4  11  25  42  63  97 141 186 226 279 344 410
#     4  10  21  40  67  96 133 178 229 286 341 403
#     4  11  25  42  65 101 140 182 230 277 343 419
#     4  11  24  40  65 100 139 181 226 283 349 413
#     4  10  19  37  64  95 134 179 224 277 339 401
#     4  12  25  44  71  96 134 178 231 288 343 401
#
# _framework density 22.589238000000002
#
# number of rings (size 3 to 8) (size 9 to 14) (size 15 to 20)
#    0.000    1.250    2.500    3.000    3.500    5.000 
#    0.000    0.625    0.000    0.000    0.000    0.000 
#    0.000    0.000    0.000    0.000    0.000    0.000 
#
# Total GULP energy -396459.809619 kJ/mol
# GULP energy per Si atom -12389.369051 kJ/mol
# Density = 2.253782 g / cm^3
# Si number density = 22.589238 Si / 1000 Ang^3
#
#
#
# Elastic Constant Matrix: (Units=GPa)
#
#
# Indices 1 2 3 4 5 6 
#
# 1 151.9387 65.3958 39.3178 0.0000 0.0000 0.0000
# 2 65.3958 151.8788 24.1811 0.0000 0.0000 0.0000
# 3 39.3178 24.1811 58.6222 0.0000 0.0000 0.0000
# 4 0.0000 0.0000 0.0000 19.9256 0.0000 0.0000
# 5 0.0000 0.0000 0.0000 0.0000 20.7359 0.0000
# 6 0.0000 0.0000 0.0000 0.0000 0.0000 26.6697
#
#
#
# Elastic Compliance Matrix: (Units=1/GPa)
#
#
# Indices 1 2 3 4 5 6 
#
# 1 0.009214 -0.003193 -0.004863 0.000000 0.000000 0.000000
# 2 -0.003193 0.008154 -0.001222 0.000000 0.000000 0.000000
# 3 -0.004863 -0.001222 0.020824 0.000000 0.000000 0.000000
# 4 0.000000 0.000000 0.000000 0.050187 0.000000 0.000000
# 5 0.000000 0.000000 0.000000 0.000000 0.048226 0.000000
# 6 0.000000 0.000000 0.000000 0.000000 0.000000 0.037496
#
#
# Mechanical properties :
#
#
# Convention : Reuss Voigt Hill
#
# Bulk Modulus (GPa) = 50.92589 68.91432 59.92011
# Shear Modulus (GPa) = 25.10029 29.03590 27.06810
#
# Velocity S-wave (km/s) = 3.33702 3.58912 3.46536
# Velocity P-wave (km/s) = 6.11890 6.91010 6.52650
#
# Compressibility (1/GPa) = 0.01963638
#
# Stress axis : x y z
#
# Youngs Moduli (GPa) = 108.52563 122.64447 48.02197
#
# Poissons Ratio (x) = 0.39164 0.23353
# Poissons Ratio (y) = 0.34655 0.05866
# Poissons Ratio (z) = 0.52775 0.14982
#
# Static dielectric constant tensor:
#      x y z
#    x 4.354530 0.000000 0.000000 
#    y 0.000000 4.031340 0.000000 
#    z 0.000000 0.000000 3.912250 
# 
# 
# High freq. dielectric constant tensor:
#      x y z
#    x 1.907390 0.000000 0.000000 
#    y 0.000000 1.883920 0.000000 
#    z 0.000000 0.000000 1.873110 
# 
# From -- ./inp_files/5549.got.cif
#   From: 2010.03.12/outbox.cif.g09.slc.cpg/sg28_3_cif.got.tgz:5549.got - 2010.04.14 03:39:34.
