data_PCOD8168018
_publ_section_title
;
Structure prediction by ZEFSAII (Michael W. Deem and Ramdas Pophale) SiO2 
 PCOD8168018
Probable space group: P M A 2
;
_chemical_formula_sum "Si O2"
_cell_formula_units_Z 28
_cell_length_a 9.259367
_cell_length_b 17.803258
_cell_length_c 9.336200
_cell_angle_alpha 90.000000
_cell_angle_beta 90.000000
_cell_angle_gamma 90.000000
_cell_volume 1539.043624
_symmetry_space_group_name_H-M "P M A 2"
_symmetry_group_IT_number 28
_symmetry_cell_setting 'orthorhombic'
loop_
_space_group_symop_operation_xyz
x,y,z
-x,-y,z
1/2-x,y,z
1/2+x,-y,z
loop_
_atom_site_type_symbol
_atom_site_label
_atom_site_fract_x
_atom_site_fract_y
_atom_site_fract_z
Si Si1 0.415587 0.756520 0.538540
Si Si2 0.916005 0.423413 0.073200
Si Si3 0.086692 0.316876 0.285885
Si Si4 0.414333 0.929090 0.958710
Si Si5 0.089618 0.702328 0.852745
Si Si6 0.591229 0.800574 0.046556
Si Si7 0.082546 0.923728 0.625357
O O1 0.250000 0.757427 0.485110
O O2 0.514084 0.708335 0.433095
O O3 0.428037 0.707381 0.683004
O O4 0.467664 0.844454 0.553327
O O5 0.750000 0.438288 0.117441
O O6 0.000000 0.500000 0.049722
O O7 0.991048 0.378206 0.203012
O O8 0.922666 0.381057 0.919691
O O9 0.250000 0.347848 0.312504
O O10 0.095322 0.241390 0.195509
O O11 0.250000 0.943639 0.992461
O O12 0.472539 0.864640 0.061911
O O13 0.500000 0.000000 0.011130
O O14 0.445082 0.910111 0.793266
O O15 0.250000 0.735395 0.893579
O O16 0.957768 0.747780 0.917758
O O17 0.750000 0.832278 0.007409
O O18 0.250000 0.938730 0.593926
O O19 0.000000 0.000000 0.572468
#
# Coordination Sequence:
#
# PCOD8168018 Si02
#       7
#     4   4   4   4   4   4   4
#     4  10  19  35  55  79 110 146 186 227 275 327
#     4  10  20  37  62  86 111 143 176 218 269 325
#     4  10  22  37  54  80 111 144 184 223 265 323
#     4  10  18  30  48  73 103 135 177 228 278 326
#     4   9  18  34  56  80 106 138 177 219 268 321
#     4  10  19  32  50  74 103 136 177 224 268 317
#     4   9  18  31  49  74 105 140 180 227 275 325
#
# _framework density 18.193117000000001
#
# number of rings (size 3 to 8) (size 9 to 14) (size 15 to 20)
#    0.000    2.286    1.429    1.714    0.000    4.000 
#    0.000    1.429    0.000    3.429    0.000    0.000 
#    0.000    0.000    0.000    0.000    0.000    0.000 
#
# Total GULP energy -346966.410039 kJ/mol
# GULP energy per Si atom -12391.657501 kJ/mol
# Density = 1.815171 g / cm^3
# Si number density = 18.193117 Si / 1000 Ang^3
#
#
#
# Elastic Constant Matrix: (Units=GPa)
#
#
# Indices 1 2 3 4 5 6 
#
# 1 123.0127 58.4546 48.4476 0.0000 0.0000 0.0000
# 2 58.4546 107.2069 38.9043 0.0000 0.0000 0.0000
# 3 48.4476 38.9043 73.2679 0.0000 0.0000 0.0000
# 4 0.0000 0.0000 0.0000 19.2900 0.0000 0.0000
# 5 0.0000 0.0000 0.0000 0.0000 24.9695 0.0000
# 6 0.0000 0.0000 0.0000 0.0000 0.0000 37.3359
#
#
#
# Elastic Compliance Matrix: (Units=1/GPa)
#
#
# Indices 1 2 3 4 5 6 
#
# 1 0.012723 -0.004811 -0.005858 0.000000 0.000000 0.000000
# 2 -0.004811 0.013374 -0.003920 0.000000 0.000000 0.000000
# 3 -0.005858 -0.003920 0.019603 0.000000 0.000000 0.000000
# 4 0.000000 0.000000 0.000000 0.051840 0.000000 0.000000
# 5 0.000000 0.000000 0.000000 0.000000 0.040049 0.000000
# 6 0.000000 0.000000 0.000000 0.000000 0.000000 0.026784
#
#
# Mechanical properties :
#
#
# Convention : Reuss Voigt Hill
#
# Bulk Modulus (GPa) = 60.52700 66.12230 63.32465
# Shear Modulus (GPa) = 25.11831 26.83113 25.97472
#
# Velocity S-wave (km/s) = 3.71974 3.84447 3.78262
# Velocity P-wave (km/s) = 7.19653 7.49201 7.34576
#
# Compressibility (1/GPa) = 0.01652155
#
# Stress axis : x y z
#
# Youngs Moduli (GPa) = 78.60015 74.77459 51.01139
#
# Poissons Ratio (x) = 0.35976 0.29883
# Poissons Ratio (y) = 0.37816 0.19996
# Poissons Ratio (z) = 0.46044 0.29310
#
# Static dielectric constant tensor:
#      x y z
#    x 3.603130 0.000000 0.000000 
#    y 0.000000 3.926720 0.000000 
#    z 0.000000 0.000000 3.106080 
# 
# 
# High freq. dielectric constant tensor:
#      x y z
#    x 1.719350 0.000000 0.000000 
#    y 0.000000 1.699810 0.000000 
#    z 0.000000 0.000000 1.678090 
# 
# From -- ./inp_files/2602.got.cif
#   From: 2010.03.12/outbox.cif.g09.slc.cpg/sg28_2_cif.got.tgz:2602.got - 2010.04.14 03:39:34.
