data_PCOD8168267
_publ_section_title
;
Structure prediction by ZEFSAII (Michael W. Deem and Ramdas Pophale) SiO2 
 PCOD8168267
Probable space group: P M A 2
;
_chemical_formula_sum "Si O2"
_cell_formula_units_Z 32
_cell_length_a 8.751788
_cell_length_b 15.430366
_cell_length_c 11.765021
_cell_angle_alpha 90.000000
_cell_angle_beta 90.000000
_cell_angle_gamma 90.000000
_cell_volume 1588.787166
_symmetry_space_group_name_H-M "P M A 2"
_symmetry_group_IT_number 28
_symmetry_cell_setting 'orthorhombic'
loop_
_space_group_symop_operation_xyz
x,y,z
-x,-y,z
1/2-x,y,z
1/2+x,-y,z
loop_
_atom_site_type_symbol
_atom_site_label
_atom_site_fract_x
_atom_site_fract_y
_atom_site_fract_z
Si Si1 0.930348 0.754099 0.508200
Si Si2 0.929514 0.910061 0.897991
Si Si3 0.569508 0.244058 0.754299
Si Si4 0.929562 0.588270 0.365316
Si Si5 0.926926 0.089968 0.373801
Si Si6 0.570024 0.409903 0.892358
Si Si7 0.924818 0.149862 0.122880
Si Si8 0.070110 0.652024 0.138661
O O1 0.750000 0.755439 0.530838
O O2 0.983968 0.667282 0.444051
O O3 0.021149 0.758879 0.624599
O O4 0.976463 0.834708 0.431315
O O5 0.750000 0.915083 0.883820
O O6 0.992873 0.833876 0.820938
O O7 0.000000 0.000000 0.854256
O O8 0.970119 0.895550 0.029715
O O9 0.750000 0.234236 0.766247
O O10 0.512117 0.334136 0.809017
O O11 0.750000 0.579621 0.365494
O O12 0.000000 0.500000 0.415702
O O13 0.984242 0.600761 0.236713
O O14 0.750000 0.095454 0.411328
O O15 0.943200 0.096958 0.238537
O O16 0.000000 0.000000 0.414721
O O17 0.500000 0.500000 0.849827
O O18 0.750000 0.417634 0.887087
O O19 0.515574 0.388784 0.019929
O O20 0.750000 0.149302 0.078983
O O21 0.980080 0.247960 0.141935
O O22 0.250000 0.642585 0.158238
#
# Coordination Sequence:
#
# PCOD8168267 Si02
#       8
#     4   4   4   4   4   4   4   4
#     4  11  25  44  64  91 123 159 210 263 310 367
#     4  12  25  41  65  95 128 165 206 254 309 369
#     4  11  24  45  67  89 121 163 210 259 313 367
#     4  11  24  40  62  92 127 164 207 256 308 369
#     4  11  23  40  65  94 126 166 205 252 308 368
#     4  10  22  39  62  91 125 161 200 250 304 365
#     4  10  20  38  64  94 129 165 204 249 308 371
#     4  10  19  37  63  92 127 163 202 249 308 370
#
# _framework density 20.141148000000001
#
# number of rings (size 3 to 8) (size 9 to 14) (size 15 to 20)
#    0.000    1.250    2.500    3.375    0.000    7.500 
#    0.000    5.000    0.000    0.000    0.000    0.000 
#    0.000    0.000    0.000    0.000    0.000    0.000 
#
# Total GULP energy -397004.783857 kJ/mol
# GULP energy per Si atom -12406.399496 kJ/mol
# Density = 2.009531 g / cm^3
# Si number density = 20.141148 Si / 1000 Ang^3
#
#
#
# Elastic Constant Matrix: (Units=GPa)
#
#
# Indices 1 2 3 4 5 6 
#
# 1 81.6916 53.4363 35.8584 0.0000 0.0000 0.0000
# 2 53.4363 161.4565 37.8315 0.0000 0.0000 0.0000
# 3 35.8584 37.8315 90.7302 0.0000 0.0000 0.0000
# 4 0.0000 0.0000 0.0000 3.3514 0.0000 0.0000
# 5 0.0000 0.0000 0.0000 0.0000 25.9942 0.0000
# 6 0.0000 0.0000 0.0000 0.0000 0.0000 36.2329
#
#
#
# Elastic Compliance Matrix: (Units=1/GPa)
#
#
# Indices 1 2 3 4 5 6 
#
# 1 0.017436 -0.004606 -0.004970 0.000000 0.000000 0.000000
# 2 -0.004606 0.008081 -0.001549 0.000000 0.000000 0.000000
# 3 -0.004970 -0.001549 0.013632 0.000000 0.000000 0.000000
# 4 0.000000 0.000000 0.000000 0.298387 0.000000 0.000000
# 5 0.000000 0.000000 0.000000 0.000000 0.038470 0.000000
# 6 0.000000 0.000000 0.000000 0.000000 0.000000 0.027599
#
#
# Mechanical properties :
#
#
# Convention : Reuss Voigt Hill
#
# Bulk Modulus (GPa) = 59.17951 65.34786 62.26369
# Shear Modulus (GPa) = 11.58778 26.89916 19.24347
#
# Velocity S-wave (km/s) = 2.40120 3.65846 3.09436
# Velocity P-wave (km/s) = 6.09376 7.09656 6.61419
#
# Compressibility (1/GPa) = 0.01689774
#
# Stress axis : x y z
#
# Youngs Moduli (GPa) = 57.35326 123.74676 73.35659
#
# Poissons Ratio (x) = 0.56998 0.36461
# Poissons Ratio (y) = 0.26417 0.11364
# Poissons Ratio (z) = 0.28507 0.19170
#
# Static dielectric constant tensor:
#      x y z
#    x 3.613770 0.000000 0.000000 
#    y 0.000000 3.942440 0.000000 
#    z 0.000000 0.000000 3.640060 
# 
# 
# High freq. dielectric constant tensor:
#      x y z
#    x 1.787460 0.000000 0.000000 
#    y 0.000000 1.806060 0.000000 
#    z 0.000000 0.000000 1.782930 
# 
# From -- ./inp_files/5078.got.cif
#   From: 2010.03.12/outbox.cif.g09.slc.cpg/sg28_3_cif.got.tgz:5078.got - 2010.04.14 03:39:34.
