data_PCOD8168954
_publ_section_title
;
Structure prediction by ZEFSAII (Michael W. Deem and Ramdas Pophale) SiO2 
 PCOD8168954
Probable space group: P C A 21
;
_chemical_formula_sum "Si O2"
_cell_formula_units_Z 32
_cell_length_a 19.531090
_cell_length_b 6.605163
_cell_length_c 11.187103
_cell_angle_alpha 90.000000
_cell_angle_beta 90.000000
_cell_angle_gamma 90.000000
_cell_volume 1443.203779
_symmetry_space_group_name_H-M "P C A 21"
_symmetry_group_IT_number 29
_symmetry_cell_setting 'orthorhombic'
loop_
_space_group_symop_operation_xyz
x,y,z
-x,-y,1/2+z
1/2-x,y,1/2+z
1/2+x,-y,z
loop_
_atom_site_type_symbol
_atom_site_label
_atom_site_fract_x
_atom_site_fract_y
_atom_site_fract_z
Si Si1 0.874324 0.999660 0.582010
Si Si2 0.084180 0.975347 0.827003
Si Si3 0.463464 0.759992 0.745149
Si Si4 0.674574 0.742072 0.291115
Si Si5 0.683533 0.767226 0.706477
Si Si6 0.720395 0.024349 0.490956
Si Si7 0.622459 0.369558 0.449931
Si Si8 0.430866 0.557507 0.203968
O O1 0.922800 0.961492 0.466695
O O2 0.908862 0.196803 0.640774
O O3 0.798259 0.046896 0.534942
O O4 0.874912 0.818982 0.682203
O O5 0.078164 0.739181 0.797472
O O6 0.160930 0.045214 0.790490
O O7 0.024895 0.078459 0.748082
O O8 0.421829 0.777570 0.867733
O O9 0.494131 0.536332 0.726640
O O10 0.744146 0.657331 0.232125
O O11 0.639760 0.575499 0.376345
O O12 0.704791 0.938596 0.359552
O O13 0.628526 0.597779 0.734241
O O14 0.681889 0.858919 0.573468
O O15 0.690154 0.252170 0.495533
O O16 0.574151 0.400307 0.563529
#
# Coordination Sequence:
#
# PCOD8168954 Si02
#       8
#     4   4   4   4   4   4   4   4
#     4  11  26  46  72 100 145 189 232 297 366 433
#     4  11  25  46  69  97 143 188 239 293 351 435
#     4  11  29  44  65 104 137 188 237 288 357 423
#     4  11  24  43  71 105 143 176 234 301 360 436
#     4  10  22  44  68 104 135 179 231 286 365 415
#     4  11  22  45  71 102 140 180 232 297 366 432
#     4  12  26  44  73 102 140 186 237 299 363 424
#     4  11  26  44  71 100 135 190 240 295 350 436
#
# _framework density 22.172891
#
# number of rings (size 3 to 8) (size 9 to 14) (size 15 to 20)
#    0.000    1.000    5.000    0.000    7.000    1.000 
#    2.250    0.000    0.000    0.000    0.000    0.000 
#    0.000    0.000    0.000    0.000    0.000    0.000 
#
# Total GULP energy -396517.703453 kJ/mol
# GULP energy per Si atom -12391.178233 kJ/mol
# Density = 2.212242 g / cm^3
# Si number density = 22.172891 Si / 1000 Ang^3
#
#
#
# Elastic Constant Matrix: (Units=GPa)
#
#
# Indices 1 2 3 4 5 6 
#
# 1 80.4736 36.8587 30.6009 0.0000 0.0000 0.0000
# 2 36.8587 88.0779 33.4202 0.0000 0.0000 0.0000
# 3 30.6009 33.4202 124.2330 0.0000 0.0000 0.0000
# 4 0.0000 0.0000 0.0000 35.8857 0.0000 0.0000
# 5 0.0000 0.0000 0.0000 0.0000 32.5336 0.0000
# 6 0.0000 0.0000 0.0000 0.0000 0.0000 25.5993
#
#
#
# Elastic Compliance Matrix: (Units=1/GPa)
#
#
# Indices 1 2 3 4 5 6 
#
# 1 0.015981 -0.005785 -0.002380 0.000000 0.000000 0.000000
# 2 -0.005785 0.014738 -0.002540 0.000000 0.000000 0.000000
# 3 -0.002380 -0.002540 0.009319 0.000000 0.000000 0.000000
# 4 0.000000 0.000000 0.000000 0.027866 0.000000 0.000000
# 5 0.000000 0.000000 0.000000 0.000000 0.030737 0.000000
# 6 0.000000 0.000000 0.000000 0.000000 0.000000 0.039064
#
#
# Mechanical properties :
#
#
# Convention : Reuss Voigt Hill
#
# Bulk Modulus (GPa) = 53.68098 54.94935 54.31516
# Shear Modulus (GPa) = 30.24361 31.59737 30.92049
#
# Velocity S-wave (km/s) = 3.69723 3.77907 3.73838
# Velocity P-wave (km/s) = 6.51834 6.62404 6.57140
#
# Compressibility (1/GPa) = 0.01862857
#
# Stress axis : x y z
#
# Youngs Moduli (GPa) = 62.57419 67.85175 107.30801
#
# Poissons Ratio (x) = 0.39249 0.25543
# Poissons Ratio (y) = 0.36196 0.27255
# Poissons Ratio (z) = 0.14895 0.17233
#
# Static dielectric constant tensor:
#      x y z
#    x 4.119790 0.000000 0.000000 
#    y 0.000000 3.865860 0.000000 
#    z 0.000000 0.000000 4.245380 
# 
# 
# High freq. dielectric constant tensor:
#      x y z
#    x 1.880240 0.000000 0.000000 
#    y 0.000000 1.858430 0.000000 
#    z 0.000000 0.000000 1.885410 
# 
# From -- ./inp_files/3815.got.cif
#   From: 2010.03.12/outbox.cif.g09.slc.cpg/sg29_2_cif.got.tgz:3815.got - 2010.04.14 03:43:10.
