data_PCOD8168373
_publ_section_title
;
Structure prediction by ZEFSAII (Michael W. Deem and Ramdas Pophale) SiO2 
 PCOD8168373
Probable space group: P M A 2
;
_chemical_formula_sum "Si O2"
_cell_formula_units_Z 32
_cell_length_a 29.982472
_cell_length_b 6.594569
_cell_length_c 8.499466
_cell_angle_alpha 90.000000
_cell_angle_beta 90.000000
_cell_angle_gamma 90.000000
_cell_volume 1680.527000
_symmetry_space_group_name_H-M "P M A 2"
_symmetry_group_IT_number 28
_symmetry_cell_setting 'orthorhombic'
loop_
_space_group_symop_operation_xyz
x,y,z
-x,-y,z
1/2-x,y,z
1/2+x,-y,z
loop_
_atom_site_type_symbol
_atom_site_label
_atom_site_fract_x
_atom_site_fract_y
_atom_site_fract_z
Si Si1 0.799175 0.527123 0.112210
Si Si2 0.623955 0.272266 0.969029
Si Si3 0.397661 0.307203 0.392633
Si Si4 0.165768 0.072880 0.163357
Si Si5 0.700171 0.257025 0.392526
Si Si6 0.546050 0.081033 0.448400
Si Si7 0.454630 0.608013 0.185761
Si Si8 0.118851 0.664128 0.602135
O O1 0.750000 0.451510 0.060077
O O2 0.801060 0.769253 0.078612
O O3 0.806472 0.467567 0.297218
O O4 0.836128 0.421515 0.008085
O O5 0.621459 0.284511 0.783490
O O6 0.576747 0.347554 0.036989
O O7 0.634715 0.047854 0.038352
O O8 0.361195 0.231312 0.270465
O O9 0.430621 0.458352 0.304866
O O10 0.379031 0.427488 0.547512
O O11 0.422045 0.109214 0.449885
O O12 0.194868 0.920240 0.265164
O O13 0.750000 0.244733 0.467726
O O14 0.661691 0.227693 0.521881
O O15 0.536127 0.179123 0.276336
O O16 0.570843 0.248515 0.552047
O O17 0.500000 0.000000 0.523888
O O18 0.500000 0.500000 0.126562
#
# Coordination Sequence:
#
# PCOD8168373 Si02
#       8
#     4   4   4   4   4   4   4   4
#     4  10  20  37  63  88 112 154 206 251 297 355
#     4  11  24  39  57  88 131 158 190 248 311 363
#     4  11  19  38  65  83 110 156 204 248 291 352
#     4  11  18  38  65  85 110 153 207 250 291 352
#     4  10  20  36  60  88 117 153 204 254 293 351
#     4  11  21  39  64  87 111 152 209 253 288 353
#     4  11  21  37  61  88 112 152 206 251 295 352
#     4  11  24  39  57  89 128 161 189 244 315 363
#
# _framework density 19.041647000000001
#
# number of rings (size 3 to 8) (size 9 to 14) (size 15 to 20)
#    0.000    1.250    6.250    1.875    0.000    2.000 
#    2.250    0.625    0.000    0.000    0.000    0.000 
#    0.000    0.000    0.000    0.000    0.000    0.000 
#
# Total GULP energy -396531.369908 kJ/mol
# GULP energy per Si atom -12391.605310 kJ/mol
# Density = 1.899831 g / cm^3
# Si number density = 19.041647 Si / 1000 Ang^3
#
#
#
# Elastic Constant Matrix: (Units=GPa)
#
#
# Indices 1 2 3 4 5 6 
#
# 1 128.0720 36.9386 54.1963 0.0000 0.0000 0.0000
# 2 36.9386 112.9583 37.8770 0.0000 0.0000 0.0000
# 3 54.1963 37.8770 106.4421 0.0000 0.0000 0.0000
# 4 0.0000 0.0000 0.0000 20.4045 0.0000 0.0000
# 5 0.0000 0.0000 0.0000 0.0000 2.5869 0.0000
# 6 0.0000 0.0000 0.0000 0.0000 0.0000 38.1651
#
#
#
# Elastic Compliance Matrix: (Units=1/GPa)
#
#
# Indices 1 2 3 4 5 6 
#
# 1 0.010273 -0.001823 -0.004582 0.000000 0.000000 0.000000
# 2 -0.001823 0.010376 -0.002764 0.000000 0.000000 0.000000
# 3 -0.004582 -0.002764 0.012711 0.000000 0.000000 0.000000
# 4 0.000000 0.000000 0.000000 0.049009 0.000000 0.000000
# 5 0.000000 0.000000 0.000000 0.000000 0.386564 0.000000
# 6 0.000000 0.000000 0.000000 0.000000 0.000000 0.026202
#
#
# Mechanical properties :
#
#
# Convention : Reuss Voigt Hill
#
# Bulk Modulus (GPa) = 66.56797 67.27735 66.92266
# Shear Modulus (GPa) = 9.64358 26.79534 18.21946
#
# Velocity S-wave (km/s) = 2.25288 3.75533 3.09661
# Velocity P-wave (km/s) = 6.46547 7.36286 6.92871
#
# Compressibility (1/GPa) = 0.01502224
#
# Stress axis : x y z
#
# Youngs Moduli (GPa) = 97.34465 96.37845 78.67060
#
# Poissons Ratio (x) = 0.17569 0.36045
# Poissons Ratio (y) = 0.17745 0.21745
# Poissons Ratio (z) = 0.44602 0.26639
#
# Static dielectric constant tensor:
#      x y z
#    x 3.804460 0.000000 0.000000 
#    y 0.000000 3.882250 0.000000 
#    z 0.000000 0.000000 3.110990 
# 
# 
# High freq. dielectric constant tensor:
#      x y z
#    x 1.755500 0.000000 0.000000 
#    y 0.000000 1.757230 0.000000 
#    z 0.000000 0.000000 1.693450 
# 
# From -- ./inp_files/4372.got.cif
#   From: 2010.03.12/outbox.cif.g09.slc.cpg/sg28_3_cif.got.tgz:4372.got - 2010.04.14 03:39:34.
