data_PCOD8168720
_publ_section_title
;
Structure prediction by ZEFSAII (Michael W. Deem and Ramdas Pophale) SiO2 
 PCOD8168720
Probable space group: P C A 21
;
_chemical_formula_sum "Si O2"
_cell_formula_units_Z 28
_cell_length_a 14.570312
_cell_length_b 5.131176
_cell_length_c 15.092083
_cell_angle_alpha 90.000000
_cell_angle_beta 90.000000
_cell_angle_gamma 90.000000
_cell_volume 1128.326915
_symmetry_space_group_name_H-M "P C A 21"
_symmetry_group_IT_number 29
_symmetry_cell_setting 'orthorhombic'
loop_
_space_group_symop_operation_xyz
x,y,z
-x,-y,1/2+z
1/2-x,y,1/2+z
1/2+x,-y,z
loop_
_atom_site_type_symbol
_atom_site_label
_atom_site_fract_x
_atom_site_fract_y
_atom_site_fract_z
Si Si1 0.762753 0.825874 0.384490
Si Si2 0.986075 0.557783 0.840025
Si Si3 0.666762 0.212325 0.282422
Si Si4 0.457463 0.048647 0.438109
Si Si5 0.254673 0.464070 0.558338
Si Si6 0.631523 0.030905 0.101433
Si Si7 0.838894 0.491477 0.229466
O O1 0.729549 0.606478 0.455992
O O2 0.796600 0.715806 0.290752
O O3 0.676353 0.018835 0.366626
O O4 0.847994 0.990460 0.423273
O O5 0.983150 0.843522 0.882489
O O6 0.056446 0.565139 0.757242
O O7 0.883145 0.483874 0.809089
O O8 0.016121 0.342748 0.912657
O O9 0.605297 0.085899 0.203859
O O10 0.770170 0.248893 0.246113
O O11 0.463645 0.987175 0.543711
O O12 0.300791 0.747147 0.562224
O O13 0.165301 0.449186 0.623678
O O14 0.324255 0.253934 0.598041
#
# Coordination Sequence:
#
# PCOD8168720 Si02
#       7
#     4   4   4   4   4   4   4
#     4  10  20  38  65  90 121 168 206 267 310 380
#     4  11  24  39  64  92 124 169 206 262 316 378
#     4  11  23  39  66  93 129 164 221 256 326 374
#     4  10  21  41  63  87 127 163 209 253 321 372
#     4  10  21  34  66  91 119 163 218 247 325 373
#     4  10  20  39  63  92 120 170 204 261 311 389
#     4  10  21  42  61  91 130 167 208 262 317 380
#
# _framework density 24.815505000000002
#
# number of rings (size 3 to 8) (size 9 to 14) (size 15 to 20)
#    0.000    1.714    2.857    2.571    4.000    0.000 
#    2.571    0.000    3.143    0.000    0.000    0.000 
#    0.000    0.000    0.000    0.000    0.000    0.000 
#
# Total GULP energy -346974.163322 kJ/mol
# GULP energy per Si atom -12391.934404 kJ/mol
# Density = 2.475902 g / cm^3
# Si number density = 24.815505 Si / 1000 Ang^3
#
#
#
# Elastic Constant Matrix: (Units=GPa)
#
#
# Indices 1 2 3 4 5 6 
#
# 1 56.2039 0.0766 9.6961 0.0000 0.0000 0.0000
# 2 0.0766 57.7181 -2.0099 0.0000 0.0000 0.0000
# 3 9.6961 -2.0099 81.8123 0.0000 0.0000 0.0000
# 4 0.0000 0.0000 0.0000 33.8172 0.0000 0.0000
# 5 0.0000 0.0000 0.0000 0.0000 15.6023 0.0000
# 6 0.0000 0.0000 0.0000 0.0000 0.0000 30.3514
#
#
#
# Elastic Compliance Matrix: (Units=1/GPa)
#
#
# Indices 1 2 3 4 5 6 
#
# 1 0.018164 -0.000099 -0.002155 0.000000 0.000000 0.000000
# 2 -0.000099 0.017341 0.000438 0.000000 0.000000 0.000000
# 3 -0.002155 0.000438 0.012489 0.000000 0.000000 0.000000
# 4 0.000000 0.000000 0.000000 0.029571 0.000000 0.000000
# 5 0.000000 0.000000 0.000000 0.000000 0.064093 0.000000
# 6 0.000000 0.000000 0.000000 0.000000 0.000000 0.032947
#
#
# Mechanical properties :
#
#
# Convention : Reuss Voigt Hill
#
# Bulk Modulus (GPa) = 22.54214 23.47333 23.00774
# Shear Modulus (GPa) = 25.90323 28.48562 27.19443
#
# Velocity S-wave (km/s) = 3.23434 3.39174 3.31398
# Velocity P-wave (km/s) = 4.80121 4.98179 4.89233
#
# Compressibility (1/GPa) = 0.04436136
#
# Stress axis : x y z
#
# Youngs Moduli (GPa) = 55.05303 57.66691 80.06870
#
# Poissons Ratio (x) = 0.00572 0.17256
# Poissons Ratio (y) = 0.00546 -0.03505
# Poissons Ratio (z) = 0.11865 -0.02524
#
# Static dielectric constant tensor:
#      x y z
#    x 4.122910 0.000000 0.000000 
#    y 0.000000 4.294760 0.000000 
#    z 0.000000 0.000000 5.056680 
# 
# 
# High freq. dielectric constant tensor:
#      x y z
#    x 1.951140 0.000000 0.000000 
#    y 0.000000 1.994410 0.000000 
#    z 0.000000 0.000000 1.997330 
# 
# From -- ./inp_files/4754.got.cif
#   From: 2010.03.12/outbox.cif.g09.slc.cpg/sg29_3_cif.got.tgz:4754.got - 2010.04.14 03:43:10.
