data_PCOD8168127
_publ_section_title
;
Structure prediction by ZEFSAII (Michael W. Deem and Ramdas Pophale) SiO2 
 PCOD8168127
Probable space group: P M A 2
;
_chemical_formula_sum "Si O2"
_cell_formula_units_Z 32
_cell_length_a 9.016563
_cell_length_b 17.699777
_cell_length_c 11.460049
_cell_angle_alpha 90.000000
_cell_angle_beta 90.000000
_cell_angle_gamma 90.000000
_cell_volume 1828.922449
_symmetry_space_group_name_H-M "P M A 2"
_symmetry_group_IT_number 28
_symmetry_cell_setting 'orthorhombic'
loop_
_space_group_symop_operation_xyz
x,y,z
-x,-y,z
1/2-x,y,z
1/2+x,-y,z
loop_
_atom_site_type_symbol
_atom_site_label
_atom_site_fract_x
_atom_site_fract_y
_atom_site_fract_z
Si Si1 0.925481 0.232310 0.816810
Si Si2 0.577370 0.074176 0.926288
Si Si3 0.586757 0.866256 0.131660
Si Si4 0.919505 0.353531 0.232326
Si Si5 0.083757 0.299875 0.025133
Si Si6 0.075469 0.576967 0.469575
Si Si7 0.081673 0.219022 0.341429
Si Si8 0.421254 0.278549 0.581545
O O1 0.750000 0.240507 0.814331
O O2 0.974426 0.147897 0.855087
O O3 0.991402 0.246388 0.690683
O O4 0.989109 0.294520 0.906432
O O5 0.750000 0.061663 0.918563
O O6 0.500000 0.000000 0.872322
O O7 0.531687 0.083201 0.062832
O O8 0.750000 0.900331 0.105941
O O9 0.578591 0.779930 0.089718
O O10 0.556210 0.861021 0.272280
O O11 0.750000 0.351367 0.192199
O O12 0.949130 0.418159 0.329029
O O13 0.016036 0.362728 0.113848
O O14 0.957251 0.276029 0.297436
O O15 0.250000 0.324506 0.992314
O O16 0.250000 0.578246 0.500175
O O17 0.000000 0.500000 0.513321
O O18 0.994315 0.644078 0.537851
O O19 0.250000 0.248191 0.311750
O O20 0.065903 0.213454 0.481416
O O21 0.250000 0.293874 0.614044
#
# Coordination Sequence:
#
# PCOD8168127 Si02
#       8
#     4   4   4   4   4   4   4   4
#     4  10  20  33  49  72 100 130 169 212 252 296
#     4  10  20  32  48  70  96 126 160 202 251 302
#     4   8  14  26  44  66  92 118 147 185 230 281
#     4   9  16  26  43  68  95 121 150 189 237 284
#     4   9  16  27  45  68  93 122 154 190 235 285
#     4  10  20  33  50  73 101 132 166 206 252 300
#     4   8  15  27  44  67  93 121 152 188 230 280
#     4  10  19  32  51  74 100 132 171 210 250 296
#
# _framework density 17.496641
#
# number of rings (size 3 to 8) (size 9 to 14) (size 15 to 20)
#    0.000    2.750    0.000    3.000    0.000    6.500 
#    0.000    0.000    0.000    1.500    0.000    5.250 
#    0.000    0.000    0.000    0.000    0.000    0.000 
#
# Total GULP energy -396516.054530 kJ/mol
# GULP energy per Si atom -12391.126704 kJ/mol
# Density = 1.745682 g / cm^3
# Si number density = 17.496641 Si / 1000 Ang^3
#
#
#
# Elastic Constant Matrix: (Units=GPa)
#
#
# Indices 1 2 3 4 5 6 
#
# 1 96.4381 33.8538 47.0404 0.0000 0.0000 0.0000
# 2 33.8538 52.6619 34.3007 0.0000 0.0000 0.0000
# 3 47.0404 34.3007 115.5480 0.0000 0.0000 0.0000
# 4 0.0000 0.0000 0.0000 16.4678 0.0000 0.0000
# 5 0.0000 0.0000 0.0000 0.0000 31.7090 0.0000
# 6 0.0000 0.0000 0.0000 0.0000 0.0000 22.4854
#
#
#
# Elastic Compliance Matrix: (Units=1/GPa)
#
#
# Indices 1 2 3 4 5 6 
#
# 1 0.014711 -0.006888 -0.003944 0.000000 0.000000 0.000000
# 2 -0.006888 0.026766 -0.005141 0.000000 0.000000 0.000000
# 3 -0.003944 -0.005141 0.011786 0.000000 0.000000 0.000000
# 4 0.000000 0.000000 0.000000 0.060724 0.000000 0.000000
# 5 0.000000 0.000000 0.000000 0.000000 0.031537 0.000000
# 6 0.000000 0.000000 0.000000 0.000000 0.000000 0.044473
#
#
# Mechanical properties :
#
#
# Convention : Reuss Voigt Hill
#
# Bulk Modulus (GPa) = 46.91302 55.00419 50.95861
# Shear Modulus (GPa) = 21.82921 24.09598 22.96260
#
# Velocity S-wave (km/s) = 3.53600 3.71506 3.62664
# Velocity P-wave (km/s) = 6.59863 7.06452 6.83555
#
# Compressibility (1/GPa) = 0.02131604
#
# Stress axis : x y z
#
# Youngs Moduli (GPa) = 67.97493 37.36112 84.84365
#
# Poissons Ratio (x) = 0.25735 0.33465
# Poissons Ratio (y) = 0.46822 0.43621
# Poissons Ratio (z) = 0.26812 0.19208
#
# Static dielectric constant tensor:
#      x y z
#    x 3.370540 0.000000 0.000000 
#    y 0.000000 2.972350 0.000000 
#    z 0.000000 0.000000 3.407220 
# 
# 
# High freq. dielectric constant tensor:
#      x y z
#    x 1.691720 0.000000 0.000000 
#    y 0.000000 1.627850 0.000000 
#    z 0.000000 0.000000 1.669900 
# 
# From -- ./inp_files/5041.got.cif
#   From: 2010.03.12/outbox.cif.g09.slc.cpg/sg28_3_cif.got.tgz:5041.got - 2010.04.14 03:39:34.
