data_PCOD8168689
_publ_section_title
;
Structure prediction by ZEFSAII (Michael W. Deem and Ramdas Pophale) SiO2 
 PCOD8168689
Probable space group: P C A 21
;
_chemical_formula_sum "Si O2"
_cell_formula_units_Z 28
_cell_length_a 19.992885
_cell_length_b 7.625933
_cell_length_c 8.727188
_cell_angle_alpha 90.000000
_cell_angle_beta 90.000000
_cell_angle_gamma 90.000000
_cell_volume 1330.585495
_symmetry_space_group_name_H-M "P C A 21"
_symmetry_group_IT_number 29
_symmetry_cell_setting 'orthorhombic'
loop_
_space_group_symop_operation_xyz
x,y,z
-x,-y,1/2+z
1/2-x,y,1/2+z
1/2+x,-y,z
loop_
_atom_site_type_symbol
_atom_site_label
_atom_site_fract_x
_atom_site_fract_y
_atom_site_fract_z
Si Si1 0.458284 0.993597 0.708620
Si Si2 0.735330 0.313659 0.609384
Si Si3 0.549121 0.466443 0.285053
Si Si4 0.945499 0.683214 0.490530
Si Si5 0.971870 0.229027 0.428308
Si Si6 0.841257 0.450758 0.378887
Si Si7 0.659164 0.204865 0.334496
O O1 0.440177 0.139009 0.582143
O O2 0.517443 0.055454 0.821431
O O3 0.476888 0.819579 0.609294
O O4 0.391815 0.954451 0.807261
O O5 0.782862 0.427183 0.501390
O O6 0.690185 0.445815 0.709777
O O7 0.686201 0.192653 0.507627
O O8 0.778725 0.186727 0.718004
O O9 0.537724 0.516270 0.105422
O O10 0.501836 0.310988 0.356617
O O11 0.532584 0.640749 0.383074
O O12 0.624571 0.396982 0.307687
O O13 0.874777 0.640229 0.409203
O O14 0.898479 0.300963 0.389104
#
# Coordination Sequence:
#
# PCOD8168689 Si02
#       7
#     4   4   4   4   4   4   4
#     4  11  22  37  59  92 127 156 189 263 320 360
#     4  10  22  37  66  77 114 168 203 252 282 374
#     4  10  20  36  61  87 115 155 199 251 295 361
#     4  10  21  36  60  90 123 150 199 259 306 356
#     4  10  22  37  60  90 125 152 200 255 310 359
#     4  10  20  41  59  87 113 154 216 239 300 367
#     4  11  21  40  61  85 117 155 212 239 311 363
#
# _framework density 21.043367
#
# number of rings (size 3 to 8) (size 9 to 14) (size 15 to 20)
#    0.000    1.714    2.857    1.714    8.000    0.000 
#    0.000    1.429    0.000    0.000    0.000    0.000 
#    0.000    0.000    0.000    0.000    0.000    0.000 
#
# Total GULP energy -347117.593237 kJ/mol
# GULP energy per Si atom -12397.056901 kJ/mol
# Density = 2.099547 g / cm^3
# Si number density = 21.043367 Si / 1000 Ang^3
#
#
#
# Elastic Constant Matrix: (Units=GPa)
#
#
# Indices 1 2 3 4 5 6 
#
# 1 105.4130 27.4997 69.0093 0.0000 0.0000 0.0000
# 2 27.4997 29.5466 13.8613 0.0000 0.0000 0.0000
# 3 69.0093 13.8613 140.6228 0.0000 0.0000 0.0000
# 4 0.0000 0.0000 0.0000 33.0656 0.0000 0.0000
# 5 0.0000 0.0000 0.0000 0.0000 40.0202 0.0000
# 6 0.0000 0.0000 0.0000 0.0000 0.0000 12.6883
#
#
#
# Elastic Compliance Matrix: (Units=1/GPa)
#
#
# Indices 1 2 3 4 5 6 
#
# 1 0.017748 -0.013035 -0.007425 0.000000 0.000000 0.000000
# 2 -0.013035 0.045060 0.001955 0.000000 0.000000 0.000000
# 3 -0.007425 0.001955 0.010562 0.000000 0.000000 0.000000
# 4 0.000000 0.000000 0.000000 0.030243 0.000000 0.000000
# 5 0.000000 0.000000 0.000000 0.000000 0.024987 0.000000
# 6 0.000000 0.000000 0.000000 0.000000 0.000000 0.078813
#
#
# Mechanical properties :
#
#
# Convention : Reuss Voigt Hill
#
# Bulk Modulus (GPa) = 27.50238 55.14703 41.32470
# Shear Modulus (GPa) = 19.49005 28.16894 23.82949
#
# Velocity S-wave (km/s) = 3.04663 3.66268 3.36876
# Velocity P-wave (km/s) = 5.04715 6.64456 5.90016
#
# Compressibility (1/GPa) = 0.03636049
#
# Stress axis : x y z
#
# Youngs Moduli (GPa) = 56.34579 22.19287 94.67873
#
# Poissons Ratio (x) = 0.28928 0.70295
# Poissons Ratio (y) = 0.73447 -0.18512
# Poissons Ratio (z) = 0.41834 -0.04339
#
# Static dielectric constant tensor:
#      x y z
#    x 3.790150 0.000000 0.000000 
#    y 0.000000 3.756550 0.000000 
#    z 0.000000 0.000000 4.223170 
# 
# 
# High freq. dielectric constant tensor:
#      x y z
#    x 1.812260 0.000000 0.000000 
#    y 0.000000 1.803880 0.000000 
#    z 0.000000 0.000000 1.855800 
# 
# From -- ./inp_files/2217.got.cif
#   From: 2010.03.12/outbox.cif.g09.slc.cpg/sg29_2_cif.got.tgz:2217.got - 2010.04.14 03:43:10.
