data_PCOD8168149
_publ_section_title
;
Structure prediction by ZEFSAII (Michael W. Deem and Ramdas Pophale) SiO2 
 PCOD8168149
Probable space group: P M A 2
;
_chemical_formula_sum "Si O2"
_cell_formula_units_Z 24
_cell_length_a 15.500018
_cell_length_b 9.240241
_cell_length_c 9.231409
_cell_angle_alpha 90.000000
_cell_angle_beta 90.000000
_cell_angle_gamma 90.000000
_cell_volume 1322.158416
_symmetry_space_group_name_H-M "P M A 2"
_symmetry_group_IT_number 28
_symmetry_cell_setting 'orthorhombic'
loop_
_space_group_symop_operation_xyz
x,y,z
-x,-y,z
1/2-x,y,z
1/2+x,-y,z
loop_
_atom_site_type_symbol
_atom_site_label
_atom_site_fract_x
_atom_site_fract_y
_atom_site_fract_z
Si Si1 0.916283 0.904259 0.288120
Si Si2 0.651896 0.138630 0.815585
Si Si3 0.650750 0.845270 0.977047
Si Si4 0.501501 0.665249 0.476057
Si Si5 0.155201 0.859413 0.487504
Si Si6 0.508637 0.665036 0.813189
O O1 0.934458 0.759522 0.379181
O O2 0.854282 0.003449 0.384021
O O3 0.867068 0.850576 0.147093
O O4 0.000000 0.000000 0.248937
O O5 0.750000 0.196684 0.840356
O O6 0.638502 0.085725 0.650885
O O7 0.582642 0.261710 0.854737
O O8 0.631351 0.003827 0.916583
O O9 0.750000 0.799582 0.948630
O O10 0.588148 0.731483 0.900686
O O11 0.500000 0.500000 0.422900
O O12 0.406092 0.726296 0.449832
O O13 0.529920 0.678255 0.643129
O O14 0.250000 0.794259 0.469213
O O15 0.500000 0.500000 0.861730
#
# Coordination Sequence:
#
# PCOD8168149 Si02
#       6
#     4   4   4   4   4   4
#     4  10  19  32  53  75 102 137 172 213 257 305
#     4   9  18  33  55  78 102 133 173 216 260 308
#     4  11  22  35  52  77 105 137 176 216 256 304
#     4   9  19  35  54  77 104 136 171 207 258 311
#     4   9  17  32  53  77 101 130 170 216 259 305
#     4  10  20  35  55  78 107 139 170 212 259 309
#
# _framework density 18.152138000000001
#
# number of rings (size 3 to 8) (size 9 to 14) (size 15 to 20)
#    0.000    2.333    0.000    3.000    0.000    4.000 
#    0.000    5.000    0.000    0.000    0.000    0.000 
#    0.000    0.000    0.000    0.000    0.000    0.000 
#
# Total GULP energy -297599.349267 kJ/mol
# GULP energy per Si atom -12399.972886 kJ/mol
# Density = 1.811082 g / cm^3
# Si number density = 18.152138 Si / 1000 Ang^3
#
#
#
# Elastic Constant Matrix: (Units=GPa)
#
#
# Indices 1 2 3 4 5 6 
#
# 1 116.7039 73.2670 54.5558 0.0000 0.0000 0.0000
# 2 73.2670 145.4877 64.5042 0.0000 0.0000 0.0000
# 3 54.5558 64.5042 89.6127 0.0000 0.0000 0.0000
# 4 0.0000 0.0000 0.0000 6.3411 0.0000 0.0000
# 5 0.0000 0.0000 0.0000 0.0000 27.9283 0.0000
# 6 0.0000 0.0000 0.0000 0.0000 0.0000 19.9518
#
#
#
# Elastic Compliance Matrix: (Units=1/GPa)
#
#
# Indices 1 2 3 4 5 6 
#
# 1 0.013923 -0.004779 -0.005037 0.000000 0.000000 0.000000
# 2 -0.004779 0.011735 -0.005538 0.000000 0.000000 0.000000
# 3 -0.005037 -0.005538 0.018212 0.000000 0.000000 0.000000
# 4 0.000000 0.000000 0.000000 0.157702 0.000000 0.000000
# 5 0.000000 0.000000 0.000000 0.000000 0.035806 0.000000
# 6 0.000000 0.000000 0.000000 0.000000 0.000000 0.050121
#
#
# Mechanical properties :
#
#
# Convention : Reuss Voigt Hill
#
# Bulk Modulus (GPa) = 75.96664 81.82870 78.89767
# Shear Modulus (GPa) = 15.49939 21.47607 18.48773
#
# Velocity S-wave (km/s) = 2.92526 3.44338 3.19484
# Velocity P-wave (km/s) = 7.30413 7.80938 7.56098
#
# Compressibility (1/GPa) = 0.01316367
#
# Stress axis : x y z
#
# Youngs Moduli (GPa) = 71.82250 85.21340 54.90957
#
# Poissons Ratio (x) = 0.40720 0.27656
# Poissons Ratio (y) = 0.34321 0.30409
# Poissons Ratio (z) = 0.36175 0.47191
#
# Static dielectric constant tensor:
#      x y z
#    x 3.461810 0.000000 0.000000 
#    y 0.000000 3.243710 0.000000 
#    z 0.000000 0.000000 3.346460 
# 
# 
# High freq. dielectric constant tensor:
#      x y z
#    x 1.709990 0.000000 0.000000 
#    y 0.000000 1.691620 0.000000 
#    z 0.000000 0.000000 1.703860 
# 
# From -- ./inp_files/3360.got.cif
#   From: 2010.03.12/outbox.cif.g09.slc.cpg/sg28_2_cif.got.tgz:3360.got - 2010.04.14 03:39:34.
