data_PCOD8168479
_publ_section_title
;
Structure prediction by ZEFSAII (Michael W. Deem and Ramdas Pophale) SiO2 
 PCOD8168479
Probable space group: P M A 2
;
_chemical_formula_sum "Si O2"
_cell_formula_units_Z 20
_cell_length_a 14.961484
_cell_length_b 13.189777
_cell_length_c 5.203240
_cell_angle_alpha 90.000000
_cell_angle_beta 90.000000
_cell_angle_gamma 90.000000
_cell_volume 1026.800292
_symmetry_space_group_name_H-M "P M A 2"
_symmetry_group_IT_number 28
_symmetry_cell_setting 'orthorhombic'
loop_
_space_group_symop_operation_xyz
x,y,z
-x,-y,z
1/2-x,y,z
1/2+x,-y,z
loop_
_atom_site_type_symbol
_atom_site_label
_atom_site_fract_x
_atom_site_fract_y
_atom_site_fract_z
Si Si1 0.518271 0.728339 0.982510
Si Si2 0.652426 0.910282 0.001175
Si Si3 0.145927 0.757082 0.685355
Si Si4 0.507649 0.380780 0.492214
Si Si5 0.603414 0.024856 0.500396
O O1 0.413719 0.761663 0.947903
O O2 0.550453 0.670244 0.723009
O O3 0.575968 0.827570 0.028404
O O4 0.532199 0.653395 0.220637
O O5 0.750000 0.858994 0.031335
O O6 0.639780 0.992348 0.224371
O O7 0.652592 0.966177 0.728567
O O8 0.250000 0.745376 0.752988
O O9 0.110506 0.659056 0.522440
O O10 0.124245 0.856232 0.518320
O O11 0.500000 0.500000 0.516229
O O12 0.500000 0.000000 0.526652
#
# Coordination Sequence:
#
# PCOD8168479 Si02
#       5
#     4   4   4   4   4
#     4  10  22  41  63  92 123 167 206 259 317 373
#     4  12  24  40  61  94 132 172 211 252 307 383
#     4  10  23  40  64  96 125 161 213 261 311 375
#     4  10  22  42  66  86 121 162 207 266 329 368
#     4  12  23  40  62  93 131 173 208 253 316 373
#
# _framework density 19.477985
#
# number of rings (size 3 to 8) (size 9 to 14) (size 15 to 20)
#    1.200    0.000    2.000    5.400    2.800    0.800 
#    0.000    2.000    0.000    0.000    0.000    0.000 
#    0.000    0.000    0.000    0.000    0.000    0.000 
#
# Total GULP energy -247879.123725 kJ/mol
# GULP energy per Si atom -12393.956186 kJ/mol
# Density = 1.943365 g / cm^3
# Si number density = 19.477985 Si / 1000 Ang^3
#
#
#
# Elastic Constant Matrix: (Units=GPa)
#
#
# Indices 1 2 3 4 5 6 
#
# 1 122.0353 51.3032 20.8640 0.0000 0.0000 0.0000
# 2 51.3032 129.0054 27.8114 0.0000 0.0000 0.0000
# 3 20.8640 27.8114 109.3790 0.0000 0.0000 0.0000
# 4 0.0000 0.0000 0.0000 24.8902 0.0000 0.0000
# 5 0.0000 0.0000 0.0000 0.0000 8.0660 0.0000
# 6 0.0000 0.0000 0.0000 0.0000 0.0000 -3.4345
#
#
#
# Elastic Compliance Matrix: (Units=1/GPa)
#
#
# Indices 1 2 3 4 5 6 
#
# 1 0.009930 -0.003746 -0.000942 0.000000 0.000000 0.000000
# 2 -0.003746 0.009614 -0.001730 0.000000 0.000000 0.000000
# 3 -0.000942 -0.001730 0.009762 0.000000 0.000000 0.000000
# 4 0.000000 0.000000 0.000000 0.040177 0.000000 0.000000
# 5 0.000000 0.000000 0.000000 0.000000 0.123978 0.000000
# 6 0.000000 0.000000 0.000000 0.000000 0.000000 -0.291162
#
#
# Mechanical properties :
#
#
# Convention : Reuss Voigt Hill
#
# Bulk Modulus (GPa) = 60.71279 62.26409 61.48844
# Shear Modulus (GPa) = -62.99202 23.26706 -19.86248
#
# Velocity S-wave (km/s) = -5.69301 3.45995 -3.19680
# Velocity P-wave (km/s) = 3.46065 6.92802 4.24390
#
# Compressibility (1/GPa) = 0.01647099
#
# Stress axis : x y z
#
# Youngs Moduli (GPa) = 100.70319 104.01153 102.43764
#
# Poissons Ratio (x) = 0.38963 0.09646
# Poissons Ratio (y) = 0.37724 0.17722
# Poissons Ratio (z) = 0.09483 0.17994
#
# Static dielectric constant tensor:
#      x y z
#    x 3.527580 0.000000 0.000000 
#    y 0.000000 3.405010 0.000000 
#    z 0.000000 0.000000 3.752730 
# 
# 
# High freq. dielectric constant tensor:
#      x y z
#    x 1.742670 0.000000 0.000000 
#    y 0.000000 1.748200 0.000000 
#    z 0.000000 0.000000 1.774160 
# 
# From -- ./inp_files/696.got.cif
#   From: 2010.03.12/outbox.cif.g09.slc.cpg/sg28_1_cif.got.tgz:696.got - 2010.04.14 03:39:34.
