data_PCOD8168408
_publ_section_title
;
Structure prediction by ZEFSAII (Michael W. Deem and Ramdas Pophale) SiO2 
 PCOD8168408
Probable space group: P M A 2
;
_chemical_formula_sum "Si O2"
_cell_formula_units_Z 18
_cell_length_a 9.866026
_cell_length_b 9.784612
_cell_length_c 8.244377
_cell_angle_alpha 90.000000
_cell_angle_beta 90.000000
_cell_angle_gamma 90.000000
_cell_volume 795.872883
_symmetry_space_group_name_H-M "P M A 2"
_symmetry_group_IT_number 28
_symmetry_cell_setting 'orthorhombic'
loop_
_space_group_symop_operation_xyz
x,y,z
-x,-y,z
1/2-x,y,z
1/2+x,-y,z
loop_
_atom_site_type_symbol
_atom_site_label
_atom_site_fract_x
_atom_site_fract_y
_atom_site_fract_z
Si Si1 0.250000 0.890798 0.612790
Si Si2 0.029560 0.682429 0.503755
Si Si3 0.250000 0.528767 0.678162
Si Si4 0.750000 0.806158 0.614250
Si Si5 0.750000 0.232298 0.927851
Si Si6 0.493691 0.657092 0.122430
Si Si7 0.250000 0.282130 0.936091
O O1 0.114959 0.818118 0.545265
O O2 0.250000 0.903034 0.813046
O O3 0.250000 0.044243 0.534055
O O4 0.110427 0.545797 0.569974
O O5 0.877507 0.707510 0.571414
O O6 0.020727 0.664029 0.312797
O O7 0.250000 0.663594 0.781643
O O8 0.250000 0.408465 0.808446
O O9 0.750000 0.841442 0.807681
O O10 0.622281 0.252614 0.041949
O O11 0.500000 0.500000 0.062572
O O12 0.627848 0.727887 0.059681
#
# Coordination Sequence:
#
# PCOD8168408 Si02
#       7
#     2   4   2   2   2   4   2
#     4  10  23  48  66  88 127 180 229 261 316 382
#     4  10  24  41  68  92 132 170 220 259 336 381
#     4  10  21  42  62  95 128 183 194 267 333 408
#     4  12  25  41  67  95 124 172 233 280 291 385
#     4  10  20  41  68  88 129 173 206 251 333 386
#     4  12  23  40  62 101 134 164 202 268 332 400
#     4  12  25  38  65  98 138 162 216 269 335 377
#
# _framework density 22.616675999999998
#
# number of rings (size 3 to 8) (size 9 to 14) (size 15 to 20)
#    0.000    1.333    2.222    5.333    3.111    0.000 
#    0.000    6.667    0.000    0.000    0.000    0.000 
#    0.000    0.000    0.000    0.000    0.000    0.000 
#
# Total GULP energy -222987.872410 kJ/mol
# GULP energy per Si atom -12388.215134 kJ/mol
# Density = 2.256520 g / cm^3
# Si number density = 22.616676 Si / 1000 Ang^3
#
#
#
# Elastic Constant Matrix: (Units=GPa)
#
#
# Indices 1 2 3 4 5 6 
#
# 1 198.8925 18.4255 50.1125 0.0000 0.0000 0.0000
# 2 18.4255 93.3054 1.1514 0.0000 0.0000 0.0000
# 3 50.1125 1.1514 134.4059 0.0000 0.0000 0.0000
# 4 0.0000 0.0000 0.0000 16.6448 0.0000 0.0000
# 5 0.0000 0.0000 0.0000 0.0000 51.7871 0.0000
# 6 0.0000 0.0000 0.0000 0.0000 0.0000 7.6234
#
#
#
# Elastic Compliance Matrix: (Units=1/GPa)
#
#
# Indices 1 2 3 4 5 6 
#
# 1 0.005658 -0.001091 -0.002100 0.000000 0.000000 0.000000
# 2 -0.001091 0.010929 0.000313 0.000000 0.000000 0.000000
# 3 -0.002100 0.000313 0.008221 0.000000 0.000000 0.000000
# 4 0.000000 0.000000 0.000000 0.060079 0.000000 0.000000
# 5 0.000000 0.000000 0.000000 0.000000 0.019310 0.000000
# 6 0.000000 0.000000 0.000000 0.000000 0.000000 0.131175
#
#
# Mechanical properties :
#
#
# Convention : Reuss Voigt Hill
#
# Bulk Modulus (GPa) = 52.49045 62.88694 57.68870
# Shear Modulus (GPa) = 20.20373 39.00535 29.60454
#
# Velocity S-wave (km/s) = 2.99207 4.15737 3.62189
# Velocity P-wave (km/s) = 5.93260 7.13519 6.56150
#
# Compressibility (1/GPa) = 0.01905108
#
# Stress axis : x y z
#
# Youngs Moduli (GPa) = 176.73694 91.49833 121.64668
#
# Poissons Ratio (x) = 0.09986 0.25549
# Poissons Ratio (y) = 0.19289 -0.03811
# Poissons Ratio (z) = 0.37119 -0.02867
#
# Static dielectric constant tensor:
#      x y z
#    x 3.540760 0.000000 0.000000 
#    y 0.000000 8.495260 0.000000 
#    z 0.000000 0.000000 4.205530 
# 
# 
# High freq. dielectric constant tensor:
#      x y z
#    x 1.913880 0.000000 0.000000 
#    y 0.000000 1.882750 0.000000 
#    z 0.000000 0.000000 1.901010 
# 
# From -- ./inp_files/2226.got.cif
#   From: 2010.03.12/outbox.cif.g09.slc.cpg/sg28_2_cif.got.tgz:2226.got - 2010.04.14 03:39:34.
