data_PCOD8168525
_publ_section_title
;
Structure prediction by ZEFSAII (Michael W. Deem and Ramdas Pophale) SiO2 
 PCOD8168525
Probable space group: P C A 21
;
_chemical_formula_sum "Si O2"
_cell_formula_units_Z 32
_cell_length_a 24.327431
_cell_length_b 15.904737
_cell_length_c 5.169803
_cell_angle_alpha 90.000000
_cell_angle_beta 90.000000
_cell_angle_gamma 90.000000
_cell_volume 2000.307373
_symmetry_space_group_name_H-M "P C A 21"
_symmetry_group_IT_number 29
_symmetry_cell_setting 'orthorhombic'
loop_
_space_group_symop_operation_xyz
x,y,z
-x,-y,1/2+z
1/2-x,y,1/2+z
1/2+x,-y,z
loop_
_atom_site_type_symbol
_atom_site_label
_atom_site_fract_x
_atom_site_fract_y
_atom_site_fract_z
Si Si1 0.306363 0.620039 0.144590
Si Si2 0.715376 0.629832 0.062913
Si Si3 0.880674 0.949845 0.567471
Si Si4 0.283977 0.815813 0.117775
Si Si5 0.315014 0.547802 0.645472
Si Si6 0.786398 0.815019 0.628686
Si Si7 0.998846 0.948638 0.660175
Si Si8 0.883223 0.062053 0.067592
O O1 0.293987 0.717040 0.103760
O O2 0.340317 0.601000 0.406712
O O3 0.249967 0.567745 0.178752
O O4 0.342525 0.583197 0.907706
O O5 0.765376 0.622373 0.266526
O O6 0.673979 0.552115 0.114864
O O7 0.687630 0.721033 0.107038
O O8 0.835173 0.879754 0.598255
O O9 0.940594 0.903791 0.595393
O O10 0.873872 0.991447 0.286332
O O11 0.874410 0.021063 0.786722
O O12 0.254397 0.843707 0.380770
O O13 0.342055 0.861281 0.101681
O O14 0.740923 0.829193 0.407709
O O15 0.055028 0.897972 0.594978
O O16 0.000604 0.028949 0.464581
#
# Coordination Sequence:
#
# PCOD8168525 Si02
#       8
#     4   4   4   4   4   4   4   4
#     4  10  16  25  39  56  79 112 142 169 205 243
#     4  10  16  25  39  59  80 110 138 178 202 240
#     4  10  19  35  49  62  85 118 148 181 218 253
#     4  12  21  30  40  64  95 121 141 175 210 264
#     4  10  14  25  41  54  76 111 146 165 204 242
#     4  10  21  30  43  65  95 117 141 175 214 264
#     4   8  16  32  51  65  76 102 151 195 216 236
#     4  10  21  32  48  65  84 115 153 184 211 250
#
# _framework density 15.997541
#
# number of rings (size 3 to 8) (size 9 to 14) (size 15 to 20)
#    0.000    2.000    5.000    1.500    0.000    3.000 
#    0.000    0.000    0.000    0.000    0.000    0.000 
#    0.000    2.000    0.000    0.000    0.000    7.250 
#
# Total GULP energy -396430.942988 kJ/mol
# GULP energy per Si atom -12388.466968 kJ/mol
# Density = 1.596113 g / cm^3
# Si number density = 15.997541 Si / 1000 Ang^3
#
#
#
# Elastic Constant Matrix: (Units=GPa)
#
#
# Indices 1 2 3 4 5 6 
#
# 1 59.5061 35.3294 0.2960 0.0000 0.0000 0.0000
# 2 35.3294 54.2616 3.0062 0.0000 0.0000 0.0000
# 3 0.2960 3.0062 87.8952 0.0000 0.0000 0.0000
# 4 0.0000 0.0000 0.0000 17.8513 0.0000 0.0000
# 5 0.0000 0.0000 0.0000 0.0000 14.5307 0.0000
# 6 0.0000 0.0000 0.0000 0.0000 0.0000 -0.6520
#
#
#
# Elastic Compliance Matrix: (Units=1/GPa)
#
#
# Indices 1 2 3 4 5 6 
#
# 1 0.027418 -0.017881 0.000519 0.000000 0.000000 0.000000
# 2 -0.017881 0.030125 -0.000970 0.000000 0.000000 0.000000
# 3 0.000519 -0.000970 0.011409 0.000000 0.000000 0.000000
# 4 0.000000 0.000000 0.000000 0.056018 0.000000 0.000000
# 5 0.000000 0.000000 0.000000 0.000000 0.068820 0.000000
# 6 0.000000 0.000000 0.000000 0.000000 0.000000 -1.533720
#
#
# Mechanical properties :
#
#
# Convention : Reuss Voigt Hill
#
# Bulk Modulus (GPa) = 30.97050 30.99179 30.98115
# Shear Modulus (GPa) = -3.86846 17.21476 6.67315
#
# Velocity S-wave (km/s) = -1.55673 3.28394 2.04461
# Velocity P-wave (km/s) = 4.02124 5.81325 4.99821
#
# Compressibility (1/GPa) = 0.03228879
#
# Stress axis : x y z
#
# Youngs Moduli (GPa) = 36.47194 33.19510 87.65307
#
# Poissons Ratio (x) = 0.59355 -0.04551
# Poissons Ratio (y) = 0.65214 0.08503
# Poissons Ratio (z) = -0.01894 0.03220
#
# Static dielectric constant tensor:
#      x y z
#    x 2.794280 0.000000 0.000000 
#    y 0.000000 2.947370 0.000000 
#    z 0.000000 0.000000 4.140100 
# 
# 
# High freq. dielectric constant tensor:
#      x y z
#    x 1.554890 0.000000 0.000000 
#    y 0.000000 1.596000 0.000000 
#    z 0.000000 0.000000 1.654870 
# 
# From -- ./inp_files/583.got.cif
#   From: 2010.03.12/outbox.cif.g09.slc.cpg/sg29_1_cif.got.tgz:583.got - 2010.04.14 03:43:10.
