data_PCOD8168754
_publ_section_title
;
Structure prediction by ZEFSAII (Michael W. Deem and Ramdas Pophale) SiO2 
 PCOD8168754
Probable space group: P C A 21
;
_chemical_formula_sum "Si O2"
_cell_formula_units_Z 20
_cell_length_a 19.533832
_cell_length_b 6.889952
_cell_length_c 7.483716
_cell_angle_alpha 90.000000
_cell_angle_beta 90.000000
_cell_angle_gamma 90.000000
_cell_volume 1007.212119
_symmetry_space_group_name_H-M "P C A 21"
_symmetry_group_IT_number 29
_symmetry_cell_setting 'orthorhombic'
loop_
_space_group_symop_operation_xyz
x,y,z
-x,-y,1/2+z
1/2-x,y,1/2+z
1/2+x,-y,z
loop_
_atom_site_type_symbol
_atom_site_label
_atom_site_fract_x
_atom_site_fract_y
_atom_site_fract_z
Si Si1 0.667856 0.228063 0.268790
Si Si2 0.962857 0.304515 0.963344
Si Si3 0.685313 0.277921 0.861777
Si Si4 0.128082 0.006954 0.573827
Si Si5 0.585231 0.603132 0.730535
O O1 0.599791 0.349390 0.324578
O O2 0.735514 0.341293 0.337981
O O3 0.665122 0.022946 0.380016
O O4 0.669093 0.194666 0.057740
O O5 0.037034 0.290527 0.874370
O O6 0.964523 0.478180 0.105481
O O7 0.947089 0.098293 0.062264
O O8 0.641095 0.469452 0.825673
O O9 0.671442 0.103756 0.724940
O O10 0.123301 0.232876 0.615437
#
# Coordination Sequence:
#
# PCOD8168754 Si02
#       5
#     4   4   4   4   4
#     4  10  20  44  60  89 133 168 196 285 309 366
#     4   9  22  38  61  87 133 157 215 261 314 374
#     4  11  20  42  64  88 133 163 216 259 324 373
#     4   9  23  40  61  92 123 166 213 263 313 383
#     4  11  21  42  64  96 122 176 212 260 322 394
#
# _framework density 19.85679
#
# number of rings (size 3 to 8) (size 9 to 14) (size 15 to 20)
#    1.200    0.800    2.000    1.200    0.000    4.800 
#   14.400    0.000    0.000    0.000    0.000    0.000 
#    0.000    0.000    0.000    0.000    0.000    0.000 
#
# Total GULP energy -247816.524415 kJ/mol
# GULP energy per Si atom -12390.826221 kJ/mol
# Density = 1.981160 g / cm^3
# Si number density = 19.856790 Si / 1000 Ang^3
#
#
#
# Elastic Constant Matrix: (Units=GPa)
#
#
# Indices 1 2 3 4 5 6 
#
# 1 91.0982 23.3998 20.4664 0.0000 0.0000 0.0000
# 2 23.3998 82.3760 48.1598 0.0000 0.0000 0.0000
# 3 20.4664 48.1598 128.5025 0.0000 0.0000 0.0000
# 4 0.0000 0.0000 0.0000 25.5650 0.0000 0.0000
# 5 0.0000 0.0000 0.0000 0.0000 35.3481 0.0000
# 6 0.0000 0.0000 0.0000 0.0000 0.0000 11.8773
#
#
#
# Elastic Compliance Matrix: (Units=1/GPa)
#
#
# Indices 1 2 3 4 5 6 
#
# 1 0.011906 -0.002911 -0.000805 0.000000 0.000000 0.000000
# 2 -0.002911 0.016257 -0.005629 0.000000 0.000000 0.000000
# 3 -0.000805 -0.005629 0.010020 0.000000 0.000000 0.000000
# 4 0.000000 0.000000 0.000000 0.039116 0.000000 0.000000
# 5 0.000000 0.000000 0.000000 0.000000 0.028290 0.000000
# 6 0.000000 0.000000 0.000000 0.000000 0.000000 0.084194
#
#
# Mechanical properties :
#
#
# Convention : Reuss Voigt Hill
#
# Bulk Modulus (GPa) = 51.30342 54.00321 52.65331
# Shear Modulus (GPa) = 23.25883 28.55479 25.90681
#
# Velocity S-wave (km/s) = 3.42618 3.79626 3.61596
# Velocity P-wave (km/s) = 6.44550 6.81695 6.63382
#
# Compressibility (1/GPa) = 0.01949188
#
# Stress axis : x y z
#
# Youngs Moduli (GPa) = 83.99236 61.51014 99.80136
#
# Poissons Ratio (x) = 0.17907 0.08036
# Poissons Ratio (y) = 0.24452 0.56181
# Poissons Ratio (z) = 0.06763 0.34626
#
# Static dielectric constant tensor:
#      x y z
#    x 3.547090 0.000000 0.000000 
#    y 0.000000 3.165950 0.000000 
#    z 0.000000 0.000000 3.687510 
# 
# 
# High freq. dielectric constant tensor:
#      x y z
#    x 1.775400 0.000000 0.000000 
#    y 0.000000 1.737700 0.000000 
#    z 0.000000 0.000000 1.784680 
# 
# From -- ./inp_files/1961.got.cif
#   From: 2010.03.12/outbox.cif.g09.slc.cpg/sg29_1_cif.got.tgz:1961.got - 2010.04.14 03:43:10.
