data_PCOD8168916
_publ_section_title
;
Structure prediction by ZEFSAII (Michael W. Deem and Ramdas Pophale) SiO2 
 PCOD8168916
Probable space group: P C A 21
;
_chemical_formula_sum "Si O2"
_cell_formula_units_Z 32
_cell_length_a 14.259215
_cell_length_b 7.534348
_cell_length_c 12.934929
_cell_angle_alpha 90.000000
_cell_angle_beta 90.000000
_cell_angle_gamma 90.000000
_cell_volume 1389.649714
_symmetry_space_group_name_H-M "P C A 21"
_symmetry_group_IT_number 29
_symmetry_cell_setting 'orthorhombic'
loop_
_space_group_symop_operation_xyz
x,y,z
-x,-y,1/2+z
1/2-x,y,1/2+z
1/2+x,-y,z
loop_
_atom_site_type_symbol
_atom_site_label
_atom_site_fract_x
_atom_site_fract_y
_atom_site_fract_z
Si Si1 0.347910 0.476156 0.372950
Si Si2 0.282765 0.203506 0.945312
Si Si3 0.889334 0.486627 0.047829
Si Si4 0.088632 0.629591 0.081310
Si Si5 0.017761 0.734493 0.384069
Si Si6 0.136246 0.998221 0.263862
Si Si7 0.106585 0.040832 0.042937
Si Si8 0.758227 0.301176 0.207005
O O1 0.274842 0.316939 0.362302
O O2 0.358238 0.520606 0.492886
O O3 0.446585 0.403812 0.329006
O O4 0.306242 0.641172 0.312768
O O5 0.356219 0.103085 0.871298
O O6 0.335230 0.328735 0.027945
O O7 0.213760 0.067766 0.004563
O O8 0.832124 0.347383 0.117626
O O9 0.987864 0.540231 0.101322
O O10 0.902393 0.382049 0.940120
O O11 0.080763 0.832877 0.042493
O O12 0.156849 0.609136 0.180772
O O13 0.059664 0.846839 0.290331
O O14 0.965604 0.852573 0.471736
O O15 0.099017 0.108146 0.163747
O O16 0.234835 0.907435 0.225378
#
# Coordination Sequence:
#
# PCOD8168916 Si02
#       8
#     4   4   4   4   4   4   4   4
#     4  10  22  41  68  95 132 179 230 288 347 418
#     4  11  23  42  68  97 140 185 235 294 362 424
#     4  11  24  43  73  98 139 190 233 305 356 429
#     4  10  22  45  67 103 139 182 231 298 353 430
#     4  10  24  47  64 100 142 177 239 296 356 432
#     4  11  25  42  69 101 140 188 231 297 369 440
#     4  10  24  45  69 100 145 182 238 294 361 443
#     4  11  24  41  70 100 133 185 237 288 358 424
#
# _framework density 23.027386
#
# number of rings (size 3 to 8) (size 9 to 14) (size 15 to 20)
#    0.000    1.500    1.250    2.250    8.750    0.000 
#   11.250    0.000    0.000    0.000    0.000    0.000 
#    0.000    0.000    0.000    0.000    0.000    0.000 
#
# Total GULP energy -396536.095954 kJ/mol
# GULP energy per Si atom -12391.752999 kJ/mol
# Density = 2.297497 g / cm^3
# Si number density = 23.027386 Si / 1000 Ang^3
#
#
#
# Elastic Constant Matrix: (Units=GPa)
#
#
# Indices 1 2 3 4 5 6 
#
# 1 92.3280 18.1853 34.1671 0.0000 0.0000 0.0000
# 2 18.1853 60.4625 9.0275 0.0000 0.0000 0.0000
# 3 34.1671 9.0275 83.0512 0.0000 0.0000 0.0000
# 4 0.0000 0.0000 0.0000 33.3276 0.0000 0.0000
# 5 0.0000 0.0000 0.0000 0.0000 34.5988 0.0000
# 6 0.0000 0.0000 0.0000 0.0000 0.0000 40.8759
#
#
#
# Elastic Compliance Matrix: (Units=1/GPa)
#
#
# Indices 1 2 3 4 5 6 
#
# 1 0.013378 -0.003255 -0.005150 0.000000 0.000000 0.000000
# 2 -0.003255 0.017604 -0.000575 0.000000 0.000000 0.000000
# 3 -0.005150 -0.000575 0.014222 0.000000 0.000000 0.000000
# 4 0.000000 0.000000 0.000000 0.030005 0.000000 0.000000
# 5 0.000000 0.000000 0.000000 0.000000 0.028903 0.000000
# 6 0.000000 0.000000 0.000000 0.000000 0.000000 0.024464
#
#
# Mechanical properties :
#
#
# Convention : Reuss Voigt Hill
#
# Bulk Modulus (GPa) = 36.70348 39.84463 38.27406
# Shear Modulus (GPa) = 32.13048 33.39126 32.76087
#
# Velocity S-wave (km/s) = 3.73945 3.81211 3.77595
# Velocity P-wave (km/s) = 5.88373 6.05945 5.97223
#
# Compressibility (1/GPa) = 0.02724537
#
# Stress axis : x y z
#
# Youngs Moduli (GPa) = 74.75096 56.80569 70.31436
#
# Poissons Ratio (x) = 0.18489 0.36211
# Poissons Ratio (y) = 0.24329 0.04040
# Poissons Ratio (z) = 0.38495 0.03264
#
# Static dielectric constant tensor:
#      x y z
#    x 4.338850 0.000000 0.000000 
#    y 0.000000 4.143120 0.000000 
#    z 0.000000 0.000000 4.108710 
# 
# 
# High freq. dielectric constant tensor:
#      x y z
#    x 1.915060 0.000000 0.000000 
#    y 0.000000 1.903560 0.000000 
#    z 0.000000 0.000000 1.908860 
# 
# From -- ./inp_files/3450.got.cif
#   From: 2010.03.12/outbox.cif.g09.slc.cpg/sg29_2_cif.got.tgz:3450.got - 2010.04.14 03:43:10.
