data_PCOD8168353
_publ_section_title
;
Structure prediction by ZEFSAII (Michael W. Deem and Ramdas Pophale) SiO2 
 PCOD8168353
Probable space group: P M A 2
;
_chemical_formula_sum "Si O2"
_cell_formula_units_Z 28
_cell_length_a 8.628729
_cell_length_b 14.391760
_cell_length_c 12.680626
_cell_angle_alpha 90.000000
_cell_angle_beta 90.000000
_cell_angle_gamma 90.000000
_cell_volume 1574.713067
_symmetry_space_group_name_H-M "P M A 2"
_symmetry_group_IT_number 28
_symmetry_cell_setting 'orthorhombic'
loop_
_space_group_symop_operation_xyz
x,y,z
-x,-y,z
1/2-x,y,z
1/2+x,-y,z
loop_
_atom_site_type_symbol
_atom_site_label
_atom_site_fract_x
_atom_site_fract_y
_atom_site_fract_z
Si Si1 0.568811 0.403576 0.673800
Si Si2 0.931922 0.722987 0.089772
Si Si3 0.067020 0.720732 0.482794
Si Si4 0.933116 0.602542 0.292633
Si Si5 0.566944 0.903058 0.404382
Si Si6 0.567101 0.096771 0.174842
Si Si7 0.933903 0.401010 0.912625
O O1 0.500000 0.500000 0.632402
O O2 0.750000 0.417202 0.671296
O O3 0.517049 0.322157 0.595081
O O4 0.514032 0.380449 0.792405
O O5 0.750000 0.741649 0.087461
O O6 0.978940 0.656987 0.186706
O O7 0.019953 0.821008 0.096643
O O8 0.987160 0.678174 0.981346
O O9 0.250000 0.733313 0.472115
O O10 0.009345 0.654117 0.390568
O O11 0.985631 0.820767 0.480988
O O12 0.750000 0.598720 0.309468
O O13 0.000000 0.500000 0.282965
O O14 0.750000 0.909324 0.399293
O O15 0.503985 0.880582 0.288582
O O16 0.500000 0.000000 0.448052
O O17 0.750000 0.088652 0.185572
O O18 0.500000 0.000000 0.130275
O O19 0.750000 0.400075 0.927934
O O20 0.000000 0.500000 0.949825
#
# Coordination Sequence:
#
# PCOD8168353 Si02
#       7
#     4   4   4   4   4   4   4
#     4   9  20  36  55  79 107 141 183 228 268 316
#     4  11  22  36  54  79 110 142 181 223 268 320
#     4  11  21  35  55  79 108 142 180 221 271 322
#     4  11  23  35  49  73 109 144 177 217 265 320
#     4  11  21  35  54  79 109 142 180 221 266 319
#     4  11  21  35  56  80 109 143 179 220 267 319
#     4  10  20  36  56  79 107 142 185 228 271 318
#
# _framework density 17.781016000000001
#
# number of rings (size 3 to 8) (size 9 to 14) (size 15 to 20)
#    0.000    1.429    1.429    6.000    0.000    5.714 
#    0.000    0.000    0.000    0.857    0.000    4.000 
#    0.000    0.000    0.000    0.000    0.000    0.000 
#
# Total GULP energy -347319.901185 kJ/mol
# GULP energy per Si atom -12404.282185 kJ/mol
# Density = 1.774055 g / cm^3
# Si number density = 17.781016 Si / 1000 Ang^3
#
#
#
# Elastic Constant Matrix: (Units=GPa)
#
#
# Indices 1 2 3 4 5 6 
#
# 1 107.2248 56.6213 40.2475 0.0000 0.0000 0.0000
# 2 56.6213 159.3752 66.3026 0.0000 0.0000 0.0000
# 3 40.2475 66.3026 87.4063 0.0000 0.0000 0.0000
# 4 0.0000 0.0000 0.0000 35.8317 0.0000 0.0000
# 5 0.0000 0.0000 0.0000 0.0000 26.9168 0.0000
# 6 0.0000 0.0000 0.0000 0.0000 0.0000 35.8636
#
#
#
# Elastic Compliance Matrix: (Units=1/GPa)
#
#
# Indices 1 2 3 4 5 6 
#
# 1 0.012128 -0.002901 -0.003384 0.000000 0.000000 0.000000
# 2 -0.002901 0.009861 -0.006145 0.000000 0.000000 0.000000
# 3 -0.003384 -0.006145 0.017660 0.000000 0.000000 0.000000
# 4 0.000000 0.000000 0.000000 0.027908 0.000000 0.000000
# 5 0.000000 0.000000 0.000000 0.000000 0.037151 0.000000
# 6 0.000000 0.000000 0.000000 0.000000 0.000000 0.027883
#
#
# Mechanical properties :
#
#
# Convention : Reuss Voigt Hill
#
# Bulk Modulus (GPa) = 67.61131 75.59434 71.60282
# Shear Modulus (GPa) = 30.79148 32.44476 31.61812
#
# Velocity S-wave (km/s) = 4.16589 4.27627 4.22144
# Velocity P-wave (km/s) = 7.82602 8.18464 8.00734
#
# Compressibility (1/GPa) = 0.01479043
#
# Stress axis : x y z
#
# Youngs Moduli (GPa) = 82.45144 101.40542 56.62478
#
# Poissons Ratio (x) = 0.29418 0.19162
# Poissons Ratio (y) = 0.23919 0.34794
# Poissons Ratio (z) = 0.27902 0.62310
#
# Static dielectric constant tensor:
#      x y z
#    x 3.390730 0.000000 0.000000 
#    y 0.000000 3.417020 0.000000 
#    z 0.000000 0.000000 3.365310 
# 
# 
# High freq. dielectric constant tensor:
#      x y z
#    x 1.706430 0.000000 0.000000 
#    y 0.000000 1.695480 0.000000 
#    z 0.000000 0.000000 1.668410 
# 
# From -- ./inp_files/4858.got.cif
#   From: 2010.03.12/outbox.cif.g09.slc.cpg/sg28_3_cif.got.tgz:4858.got - 2010.04.14 03:39:34.
