data_PCOD8168893
_publ_section_title
;
Structure prediction by ZEFSAII (Michael W. Deem and Ramdas Pophale) SiO2 
 PCOD8168893
Probable space group: P C A 21
;
_chemical_formula_sum "Si O2"
_cell_formula_units_Z 32
_cell_length_a 8.382620
_cell_length_b 11.736505
_cell_length_c 14.864709
_cell_angle_alpha 90.000000
_cell_angle_beta 90.000000
_cell_angle_gamma 90.000000
_cell_volume 1462.429634
_symmetry_space_group_name_H-M "P C A 21"
_symmetry_group_IT_number 29
_symmetry_cell_setting 'orthorhombic'
loop_
_space_group_symop_operation_xyz
x,y,z
-x,-y,1/2+z
1/2-x,y,1/2+z
1/2+x,-y,z
loop_
_atom_site_type_symbol
_atom_site_label
_atom_site_fract_x
_atom_site_fract_y
_atom_site_fract_z
Si Si1 0.734672 0.256100 0.539750
Si Si2 0.265180 0.153686 0.408391
Si Si3 0.632506 0.699195 0.064397
Si Si4 0.405565 0.304244 0.762056
Si Si5 0.370008 0.912281 0.893171
Si Si6 0.941624 0.458271 0.830184
Si Si7 0.192134 0.518087 0.962797
Si Si8 0.228521 0.755594 0.245425
O O1 0.554861 0.299779 0.546147
O O2 0.731450 0.148275 0.472856
O O3 0.852549 0.354878 0.499892
O O4 0.797936 0.223549 0.639235
O O5 0.264068 0.212763 0.505794
O O6 0.201643 0.245129 0.337213
O O7 0.444234 0.115582 0.389385
O O8 0.147148 0.046764 0.406955
O O9 0.667653 0.733797 0.166824
O O10 0.686776 0.570583 0.044047
O O11 0.389689 0.440734 0.764244
O O12 0.592239 0.277662 0.770909
O O13 0.302721 0.874437 0.796173
O O14 0.874423 0.467653 0.932068
O O15 0.897691 0.338285 0.783574
O O16 0.123101 0.475397 0.864913
#
# Coordination Sequence:
#
# PCOD8168893 Si02
#       8
#     4   4   4   4   4   4   4   4
#     4  10  22  41  64  91 127 168 210 261 314 377
#     4  11  24  43  67  88 121 165 211 268 324 380
#     4  10  22  40  62  92 129 166 210 260 315 376
#     4  11  23  40  63  94 128 168 211 260 316 379
#     4  11  23  44  65  89 120 163 211 266 324 381
#     4  12  21  36  65  90 132 170 204 250 309 373
#     4  12  20  39  62  92 130 171 205 249 310 370
#     4  11  23  41  64  94 129 167 212 262 316 378
#
# _framework density 21.881394
#
# number of rings (size 3 to 8) (size 9 to 14) (size 15 to 20)
#    0.000    1.000    5.000    2.250    0.000    1.000 
#    2.250    2.500    0.000    0.000    0.000    0.000 
#    0.000    0.000    0.000    0.000    0.000    0.000 
#
# Total GULP energy -396581.958576 kJ/mol
# GULP energy per Si atom -12393.186205 kJ/mol
# Density = 2.183159 g / cm^3
# Si number density = 21.881394 Si / 1000 Ang^3
#
#
#
# Elastic Constant Matrix: (Units=GPa)
#
#
# Indices 1 2 3 4 5 6 
#
# 1 35.1834 10.1446 21.2750 0.0000 0.0000 0.0000
# 2 10.1446 88.7423 11.2130 0.0000 0.0000 0.0000
# 3 21.2750 11.2130 96.7183 0.0000 0.0000 0.0000
# 4 0.0000 0.0000 0.0000 20.9422 0.0000 0.0000
# 5 0.0000 0.0000 0.0000 0.0000 31.6860 0.0000
# 6 0.0000 0.0000 0.0000 0.0000 0.0000 34.3377
#
#
#
# Elastic Compliance Matrix: (Units=1/GPa)
#
#
# Indices 1 2 3 4 5 6 
#
# 1 0.033524 -0.002944 -0.007033 0.000000 0.000000 0.000000
# 2 -0.002944 0.011695 -0.000708 0.000000 0.000000 0.000000
# 3 -0.007033 -0.000708 0.011968 0.000000 0.000000 0.000000
# 4 0.000000 0.000000 0.000000 0.047750 0.000000 0.000000
# 5 0.000000 0.000000 0.000000 0.000000 0.031560 0.000000
# 6 0.000000 0.000000 0.000000 0.000000 0.000000 0.029123
#
#
# Mechanical properties :
#
#
# Convention : Reuss Voigt Hill
#
# Bulk Modulus (GPa) = 27.91952 33.98990 30.95471
# Shear Modulus (GPa) = 25.13463 29.26060 27.19761
#
# Velocity S-wave (km/s) = 3.39289 3.66079 3.52938
# Velocity P-wave (km/s) = 5.30435 5.78238 5.54852
#
# Compressibility (1/GPa) = 0.03581724
#
# Stress axis : x y z
#
# Youngs Moduli (GPa) = 29.82933 85.50966 83.55293
#
# Poissons Ratio (x) = 0.25171 0.58763
# Poissons Ratio (y) = 0.08781 0.05918
# Poissons Ratio (z) = 0.20979 0.06057
#
# Static dielectric constant tensor:
#      x y z
#    x 3.866890 0.000000 0.000000 
#    y 0.000000 3.939390 0.000000 
#    z 0.000000 0.000000 4.134460 
# 
# 
# High freq. dielectric constant tensor:
#      x y z
#    x 1.860760 0.000000 0.000000 
#    y 0.000000 1.851520 0.000000 
#    z 0.000000 0.000000 1.864230 
# 
# From -- ./inp_files/4348.got.cif
#   From: 2010.03.12/outbox.cif.g09.slc.cpg/sg29_3_cif.got.tgz:4348.got - 2010.04.14 03:43:10.
