data_PCOD8168993
_publ_section_title
;
Structure prediction by ZEFSAII (Michael W. Deem and Ramdas Pophale) SiO2 
 PCOD8168993
Probable space group: P C A 21
;
_chemical_formula_sum "Si O2"
_cell_formula_units_Z 28
_cell_length_a 14.656139
_cell_length_b 8.696922
_cell_length_c 10.181014
_cell_angle_alpha 90.000000
_cell_angle_beta 90.000000
_cell_angle_gamma 90.000000
_cell_volume 1297.705618
_symmetry_space_group_name_H-M "P C A 21"
_symmetry_group_IT_number 29
_symmetry_cell_setting 'orthorhombic'
loop_
_space_group_symop_operation_xyz
x,y,z
-x,-y,1/2+z
1/2-x,y,1/2+z
1/2+x,-y,z
loop_
_atom_site_type_symbol
_atom_site_label
_atom_site_fract_x
_atom_site_fract_y
_atom_site_fract_z
Si Si1 0.915837 0.146846 0.108730
Si Si2 0.113799 0.086835 0.112637
Si Si3 0.171229 0.012585 0.383297
Si Si4 0.354324 0.862321 0.388839
Si Si5 0.587704 0.483340 0.584079
Si Si6 0.747225 0.693231 0.987632
Si Si7 0.917057 0.483780 0.386916
O O1 0.877228 0.076683 0.243346
O O2 0.870668 0.311326 0.075062
O O3 0.022629 0.186731 0.126557
O O4 0.902053 0.017472 0.997823
O O5 0.126434 0.983687 0.242324
O O6 0.200073 0.199808 0.097968
O O7 0.095695 0.970905 0.992951
O O8 0.207806 0.188083 0.384332
O O9 0.246747 0.882678 0.409705
O O10 0.382866 0.688169 0.409067
O O11 0.672180 0.592902 0.549156
O O12 0.554844 0.515178 0.734705
O O13 0.504434 0.496581 0.481098
O O14 0.667426 0.594749 0.920379
#
# Coordination Sequence:
#
# PCOD8168993 Si02
#       7
#     4   4   4   4   4   4   4
#     4  11  23  43  65  99 135 172 228 281 335 401
#     4  11  23  42  66 101 133 175 224 282 332 406
#     4  11  24  42  70  98 134 179 223 278 344 404
#     4  10  23  42  65  96 132 175 222 275 335 403
#     4  11  26  43  72 100 139 184 226 288 337 414
#     4  11  24  44  70 101 137 180 223 281 342 407
#     4  11  25  46  68 103 140 179 234 279 345 409
#
# _framework density 21.576543999999998
#
# number of rings (size 3 to 8) (size 9 to 14) (size 15 to 20)
#    0.000    1.143    1.429    4.286    6.000    4.571 
#    0.000    0.000    0.000    0.000    0.000    0.000 
#    0.000    0.000    0.000    0.000    0.000    0.000 
#
# Total GULP energy -347112.985203 kJ/mol
# GULP energy per Si atom -12396.892329 kJ/mol
# Density = 2.152743 g / cm^3
# Si number density = 21.576544 Si / 1000 Ang^3
#
#
#
# Elastic Constant Matrix: (Units=GPa)
#
#
# Indices 1 2 3 4 5 6 
#
# 1 110.3047 40.4179 49.6720 0.0000 0.0000 0.0000
# 2 40.4179 102.5910 57.3458 0.0000 0.0000 0.0000
# 3 49.6720 57.3458 162.9772 0.0000 0.0000 0.0000
# 4 0.0000 0.0000 0.0000 12.2259 0.0000 0.0000
# 5 0.0000 0.0000 0.0000 0.0000 30.1438 0.0000
# 6 0.0000 0.0000 0.0000 0.0000 0.0000 17.4965
#
#
#
# Elastic Compliance Matrix: (Units=1/GPa)
#
#
# Indices 1 2 3 4 5 6 
#
# 1 0.011264 -0.003135 -0.002330 0.000000 0.000000 0.000000
# 2 -0.003135 0.013007 -0.003621 0.000000 0.000000 0.000000
# 3 -0.002330 -0.003621 0.008120 0.000000 0.000000 0.000000
# 4 0.000000 0.000000 0.000000 0.081794 0.000000 0.000000
# 5 0.000000 0.000000 0.000000 0.000000 0.033174 0.000000
# 6 0.000000 0.000000 0.000000 0.000000 0.000000 0.057154
#
#
# Mechanical properties :
#
#
# Convention : Reuss Voigt Hill
#
# Bulk Modulus (GPa) = 70.33190 74.52715 72.42953
# Shear Modulus (GPa) = 21.98532 27.20238 24.59385
#
# Velocity S-wave (km/s) = 3.19556 3.55454 3.37982
# Velocity P-wave (km/s) = 6.80314 7.17371 6.99088
#
# Compressibility (1/GPa) = 0.01421830
#
# Stress axis : x y z
#
# Youngs Moduli (GPa) = 88.78022 76.88331 123.15275
#
# Poissons Ratio (x) = 0.24105 0.28692
# Poissons Ratio (y) = 0.27835 0.44594
# Poissons Ratio (z) = 0.20684 0.27840
#
# Static dielectric constant tensor:
#      x y z
#    x 3.883000 0.000000 0.000000 
#    y 0.000000 3.859940 0.000000 
#    z 0.000000 0.000000 4.035500 
# 
# 
# High freq. dielectric constant tensor:
#      x y z
#    x 1.853800 0.000000 0.000000 
#    y 0.000000 1.848190 0.000000 
#    z 0.000000 0.000000 1.858120 
# 
# From -- ./inp_files/1775.got.cif
#   From: 2010.03.12/outbox.cif.g09.slc.cpg/sg29_1_cif.got.tgz:1775.got - 2010.04.14 03:43:10.
