data_PCOD8168489
_publ_section_title
;
Structure prediction by ZEFSAII (Michael W. Deem and Ramdas Pophale) SiO2 
 PCOD8168489
Probable space group: P M A 2
;
_chemical_formula_sum "Si O2"
_cell_formula_units_Z 22
_cell_length_a 14.782257
_cell_length_b 5.216942
_cell_length_c 12.553266
_cell_angle_alpha 90.000000
_cell_angle_beta 90.000000
_cell_angle_gamma 90.000000
_cell_volume 968.084994
_symmetry_space_group_name_H-M "P M A 2"
_symmetry_group_IT_number 28
_symmetry_cell_setting 'orthorhombic'
loop_
_space_group_symop_operation_xyz
x,y,z
-x,-y,z
1/2-x,y,z
1/2+x,-y,z
loop_
_atom_site_type_symbol
_atom_site_label
_atom_site_fract_x
_atom_site_fract_y
_atom_site_fract_z
Si Si1 0.095252 0.899861 0.381370
Si Si2 0.849573 0.340863 0.055369
Si Si3 0.250000 0.314294 0.687070
Si Si4 0.250000 0.820742 0.548786
Si Si5 0.906393 0.613930 0.852438
Si Si6 0.648326 0.592338 0.266996
Si Si7 0.000000 0.000000 0.999833
O O1 0.160352 0.864794 0.480881
O O2 0.128717 0.116775 0.299128
O O3 0.085405 0.627169 0.320745
O O4 0.000000 0.000000 0.427296
O O5 0.750000 0.211239 0.072258
O O6 0.860389 0.576811 0.138369
O O7 0.855998 0.420957 0.932342
O O8 0.936471 0.163357 0.078730
O O9 0.250000 0.030821 0.640491
O O10 0.158983 0.329099 0.755326
O O11 0.250000 0.534805 0.597505
O O12 0.929274 0.859273 0.922933
O O13 0.000000 0.500000 0.806020
O O14 0.750000 0.521326 0.304091
#
# Coordination Sequence:
#
# PCOD8168489 Si02
#       7
#     4   4   2   2   4   4   2
#     4  12  26  47  75 102 141 182 235 292 358 417
#     4  10  23  40  68 105 148 188 232 274 346 420
#     4  12  28  46  80  95 137 182 234 296 368 413
#     4  12  28  50  72 103 135 174 240 308 354 419
#     4  10  24  43  67 104 143 179 236 283 347 422
#     4  11  23  44  73 106 146 189 229 280 344 427
#     4  10  24  40  66  98 160 182 234 292 330 430
#
# _framework density 22.725277999999999
#
# number of rings (size 3 to 8) (size 9 to 14) (size 15 to 20)
#    0.000    1.091    2.727    1.636   10.182    4.364 
#    0.000    0.000    0.000    0.000    0.000    0.000 
#    0.000    0.000    0.000    0.000    0.000    0.000 
#
# Total GULP energy -272725.016234 kJ/mol
# GULP energy per Si atom -12396.591647 kJ/mol
# Density = 2.267355 g / cm^3
# Si number density = 22.725278 Si / 1000 Ang^3
#
#
#
# Elastic Constant Matrix: (Units=GPa)
#
#
# Indices 1 2 3 4 5 6 
#
# 1 133.1162 11.1742 41.1578 0.0000 0.0000 0.0000
# 2 11.1742 81.3231 5.1312 0.0000 0.0000 0.0000
# 3 41.1578 5.1312 79.7288 0.0000 0.0000 0.0000
# 4 0.0000 0.0000 0.0000 33.6785 0.0000 0.0000
# 5 0.0000 0.0000 0.0000 0.0000 7.3173 0.0000
# 6 0.0000 0.0000 0.0000 0.0000 0.0000 25.7644
#
#
#
# Elastic Compliance Matrix: (Units=1/GPa)
#
#
# Indices 1 2 3 4 5 6 
#
# 1 0.009011 -0.000949 -0.004591 0.000000 0.000000 0.000000
# 2 -0.000949 0.012447 -0.000311 0.000000 0.000000 0.000000
# 3 -0.004591 -0.000311 0.014932 0.000000 0.000000 0.000000
# 4 0.000000 0.000000 0.000000 0.029692 0.000000 0.000000
# 5 0.000000 0.000000 0.000000 0.000000 0.136663 0.000000
# 6 0.000000 0.000000 0.000000 0.000000 0.000000 0.038813
#
#
# Mechanical properties :
#
#
# Convention : Reuss Voigt Hill
#
# Bulk Modulus (GPa) = 40.50401 45.45494 42.97948
# Shear Modulus (GPa) = 19.12118 29.13236 24.12677
#
# Velocity S-wave (km/s) = 2.90385 3.58430 3.26186
# Velocity P-wave (km/s) = 5.39492 6.09713 5.75674
#
# Compressibility (1/GPa) = 0.02468891
#
# Stress axis : x y z
#
# Youngs Moduli (GPa) = 110.97221 80.34316 66.96838
#
# Poissons Ratio (x) = 0.07621 0.30744
# Poissons Ratio (y) = 0.10526 0.02085
# Poissons Ratio (z) = 0.50945 0.02502
#
# Static dielectric constant tensor:
#      x y z
#    x 4.467510 0.000000 0.000000 
#    y 0.000000 4.156200 0.000000 
#    z 0.000000 0.000000 3.840020 
# 
# 
# High freq. dielectric constant tensor:
#      x y z
#    x 1.918230 0.000000 0.000000 
#    y 0.000000 1.896400 0.000000 
#    z 0.000000 0.000000 1.882320 
# 
# From -- ./inp_files/5486.got.cif
#   From: 2010.03.12/outbox.cif.g09.slc.cpg/sg28_3_cif.got.tgz:5486.got - 2010.04.14 03:39:34.
