data_PCOD8168839
_publ_section_title
;
Structure prediction by ZEFSAII (Michael W. Deem and Ramdas Pophale) SiO2 
 PCOD8168839
Probable space group: P C A 21
;
_chemical_formula_sum "Si O2"
_cell_formula_units_Z 32
_cell_length_a 10.396473
_cell_length_b 16.959485
_cell_length_c 7.899848
_cell_angle_alpha 90.000000
_cell_angle_beta 90.000000
_cell_angle_gamma 90.000000
_cell_volume 1392.891940
_symmetry_space_group_name_H-M "P C A 21"
_symmetry_group_IT_number 29
_symmetry_cell_setting 'orthorhombic'
loop_
_space_group_symop_operation_xyz
x,y,z
-x,-y,1/2+z
1/2-x,y,1/2+z
1/2+x,-y,z
loop_
_atom_site_type_symbol
_atom_site_label
_atom_site_fract_x
_atom_site_fract_y
_atom_site_fract_z
Si Si1 0.771195 0.907764 0.360870
Si Si2 0.052314 0.152591 0.574788
Si Si3 0.896401 0.036516 0.766639
Si Si4 0.891105 0.283213 0.686490
Si Si5 0.643908 0.456813 0.250677
Si Si6 0.889161 0.260434 0.083214
Si Si7 0.001592 0.099346 0.099588
Si Si8 0.080638 0.565419 0.637466
O O1 0.851675 0.854649 0.233761
O O2 0.629814 0.869027 0.402775
O O3 0.849346 0.910465 0.537547
O O4 0.743933 0.994829 0.278991
O O5 0.925278 0.097576 0.612328
O O6 0.003975 0.243152 0.574273
O O7 0.007686 0.967965 0.744977
O O8 0.908378 0.081075 0.943939
O O9 0.890616 0.376731 0.648535
O O10 0.914321 0.264730 0.883190
O O11 0.759165 0.245056 0.622774
O O12 0.611321 0.446227 0.443513
O O13 0.797806 0.473366 0.237387
O O14 0.556332 0.526708 0.178636
O O15 0.932802 0.341299 0.176247
O O16 0.968612 0.187397 0.164605
#
# Coordination Sequence:
#
# PCOD8168839 Si02
#       8
#     4   4   4   4   4   4   4   4
#     4  11  22  39  59  81 121 158 200 266 307 366
#     4  11  23  41  58  85 123 159 210 255 319 364
#     4  11  22  38  58  84 116 159 210 257 313 368
#     4  10  22  41  63  95 125 163 208 260 309 390
#     4  10  21  41  68  97 133 171 216 266 328 395
#     4  10  22  42  64  91 129 166 207 260 315 387
#     4  11  23  41  59  86 117 162 209 257 319 368
#     4  10  21  41  69  97 136 170 218 267 328 398
#
# _framework density 22.973786
#
# number of rings (size 3 to 8) (size 9 to 14) (size 15 to 20)
#    0.000    1.500    5.000    0.750    0.000    5.000 
#    2.250    1.250    0.000    0.000    0.000    0.000 
#    0.000    0.000    0.000    0.000    0.000    0.000 
#
# Total GULP energy -396494.849650 kJ/mol
# GULP energy per Si atom -12390.464052 kJ/mol
# Density = 2.292150 g / cm^3
# Si number density = 22.973786 Si / 1000 Ang^3
#
#
#
# Elastic Constant Matrix: (Units=GPa)
#
#
# Indices 1 2 3 4 5 6 
#
# 1 83.3155 40.7667 -8.5595 0.0000 0.0000 0.0000
# 2 40.7667 109.4017 3.3555 0.0000 0.0000 0.0000
# 3 -8.5595 3.3555 3.7348 0.0000 0.0000 0.0000
# 4 0.0000 0.0000 0.0000 27.8757 0.0000 0.0000
# 5 0.0000 0.0000 0.0000 0.0000 36.3393 0.0000
# 6 0.0000 0.0000 0.0000 0.0000 0.0000 49.0300
#
#
#
# Elastic Compliance Matrix: (Units=1/GPa)
#
#
# Indices 1 2 3 4 5 6 
#
# 1 0.024023 -0.010942 0.064887 0.000000 0.000000 0.000000
# 2 -0.010942 0.014383 -0.038000 0.000000 0.000000 0.000000
# 3 0.064887 -0.038000 0.450607 0.000000 0.000000 0.000000
# 4 0.000000 0.000000 0.000000 0.035874 0.000000 0.000000
# 5 0.000000 0.000000 0.000000 0.000000 0.027518 0.000000
# 6 0.000000 0.000000 0.000000 0.000000 0.000000 0.020396
#
#
# Mechanical properties :
#
#
# Convention : Reuss Voigt Hill
#
# Bulk Modulus (GPa) = 1.91974 29.73083 15.82529
# Shear Modulus (GPa) = 6.99747 33.37494 20.18621
#
# Velocity S-wave (km/s) = 1.74713 3.81562 2.96744
# Velocity P-wave (km/s) = 2.21526 5.69045 4.31790
#
# Compressibility (1/GPa) = 0.52090349
#
# Stress axis : x y z
#
# Youngs Moduli (GPa) = 41.62736 69.52455 2.21923
#
# Poissons Ratio (x) = 0.76072 -0.14400
# Poissons Ratio (y) = 0.45548 0.08433
# Poissons Ratio (z) = -2.70107 2.64191
#
# Static dielectric constant tensor:
#      x y z
#    x 3.592940 0.000000 0.000000 
#    y 0.000000 4.447710 0.000000 
#    z 0.000000 0.000000 4.141740 
# 
# 
# High freq. dielectric constant tensor:
#      x y z
#    x 1.901150 0.000000 0.000000 
#    y 0.000000 1.892960 0.000000 
#    z 0.000000 0.000000 1.913950 
# 
# From -- ./inp_files/1551.got.cif
#   From: 2010.03.12/outbox.cif.g09.slc.cpg/sg29_1_cif.got.tgz:1551.got - 2010.04.14 03:43:10.
