data_PCOD8168490
_publ_section_title
;
Structure prediction by ZEFSAII (Michael W. Deem and Ramdas Pophale) SiO2 
 PCOD8168490
Probable space group: P M A 2
;
_chemical_formula_sum "Si O2"
_cell_formula_units_Z 32
_cell_length_a 9.198542
_cell_length_b 14.506509
_cell_length_c 12.193513
_cell_angle_alpha 90.000000
_cell_angle_beta 90.000000
_cell_angle_gamma 90.000000
_cell_volume 1627.086917
_symmetry_space_group_name_H-M "P M A 2"
_symmetry_group_IT_number 28
_symmetry_cell_setting 'orthorhombic'
loop_
_space_group_symop_operation_xyz
x,y,z
-x,-y,z
1/2-x,y,z
1/2+x,-y,z
loop_
_atom_site_type_symbol
_atom_site_label
_atom_site_fract_x
_atom_site_fract_y
_atom_site_fract_z
Si Si1 0.913241 0.418353 0.064310
Si Si2 0.078590 0.910650 0.157273
Si Si3 0.579415 0.910715 0.695299
Si Si4 0.076674 0.401088 0.428304
Si Si5 0.413390 0.342493 0.875348
Si Si6 0.087631 0.135182 0.941260
Si Si7 0.077580 0.288854 0.640791
Si Si8 0.085151 0.718679 0.253787
O O1 0.750000 0.452045 0.048942
O O2 0.922937 0.325369 0.133393
O O3 0.000000 0.500000 0.127214
O O4 0.982642 0.408291 0.944243
O O5 0.250000 0.925334 0.153729
O O6 0.038387 0.824711 0.236297
O O7 0.000000 0.000000 0.209227
O O8 0.024771 0.898116 0.032694
O O9 0.750000 0.922734 0.677413
O O10 0.539795 0.904919 0.823846
O O11 0.522631 0.817607 0.633628
O O12 0.500000 0.000000 0.644051
O O13 0.250000 0.414652 0.422717
O O14 0.025015 0.350896 0.539681
O O15 0.000000 0.500000 0.418755
O O16 0.027257 0.333188 0.331879
O O17 0.250000 0.383026 0.873016
O O18 0.412348 0.244624 0.934698
O O19 0.479734 0.335655 0.752677
O O20 0.250000 0.100830 0.972709
O O21 0.250000 0.284161 0.648684
O O22 0.250000 0.710377 0.300301
#
# Coordination Sequence:
#
# PCOD8168490 Si02
#       8
#     4   4   4   4   4   4   4   4
#     4  11  22  36  54  81 114 148 185 229 285 342
#     4  11  22  36  55  82 116 152 190 234 280 334
#     4   9  17  31  51  79 115 153 191 228 271 327
#     4  11  23  41  66  88 109 143 190 241 292 346
#     4   9  17  33  56  81 114 152 187 227 278 336
#     4   9  17  30  51  79 113 154 192 228 273 328
#     4   8  18  37  58  82 114 149 186 231 283 337
#     4  10  23  42  60  82 115 148 188 241 286 333
#
# _framework density 19.66705
#
# number of rings (size 3 to 8) (size 9 to 14) (size 15 to 20)
#    0.000    2.250    1.250    3.375    0.000    5.000 
#    0.000    6.250    0.000    3.000    0.000    0.000 
#    0.000    0.000    0.000    0.000    0.000    0.000 
#
# Total GULP energy -396703.974466 kJ/mol
# GULP energy per Si atom -12396.999202 kJ/mol
# Density = 1.962229 g / cm^3
# Si number density = 19.667050 Si / 1000 Ang^3
#
#
#
# Elastic Constant Matrix: (Units=GPa)
#
#
# Indices 1 2 3 4 5 6 
#
# 1 97.2263 59.3806 42.4880 0.0000 0.0000 0.0000
# 2 59.3806 134.9512 49.3876 0.0000 0.0000 0.0000
# 3 42.4880 49.3876 80.4381 0.0000 0.0000 0.0000
# 4 0.0000 0.0000 0.0000 25.1279 0.0000 0.0000
# 5 0.0000 0.0000 0.0000 0.0000 19.2687 0.0000
# 6 0.0000 0.0000 0.0000 0.0000 0.0000 33.4179
#
#
#
# Elastic Compliance Matrix: (Units=1/GPa)
#
#
# Indices 1 2 3 4 5 6 
#
# 1 0.015579 -0.004957 -0.005185 0.000000 0.000000 0.000000
# 2 -0.004957 0.011135 -0.004218 0.000000 0.000000 0.000000
# 3 -0.005185 -0.004218 0.017761 0.000000 0.000000 0.000000
# 4 0.000000 0.000000 0.000000 0.039796 0.000000 0.000000
# 5 0.000000 0.000000 0.000000 0.000000 0.051898 0.000000
# 6 0.000000 0.000000 0.000000 0.000000 0.000000 0.029924
#
#
# Mechanical properties :
#
#
# Convention : Reuss Voigt Hill
#
# Bulk Modulus (GPa) = 63.47928 68.34754 65.91341
# Shear Modulus (GPa) = 24.99183 26.32020 25.65602
#
# Velocity S-wave (km/s) = 3.56862 3.66223 3.61573
# Velocity P-wave (km/s) = 7.02333 7.26019 7.14274
#
# Compressibility (1/GPa) = 0.01575317
#
# Stress axis : x y z
#
# Youngs Moduli (GPa) = 64.18946 89.80571 56.30413
#
# Poissons Ratio (x) = 0.44520 0.29194
# Poissons Ratio (y) = 0.31821 0.23751
# Poissons Ratio (z) = 0.33283 0.37882
#
# Static dielectric constant tensor:
#      x y z
#    x 3.462220 0.000000 0.000000 
#    y 0.000000 3.798040 0.000000 
#    z 0.000000 0.000000 3.436590 
# 
# 
# High freq. dielectric constant tensor:
#      x y z
#    x 1.754120 0.000000 0.000000 
#    y 0.000000 1.781150 0.000000 
#    z 0.000000 0.000000 1.741290 
# 
# From -- ./inp_files/5108.got.cif
#   From: 2010.03.12/outbox.cif.g09.slc.cpg/sg28_3_cif.got.tgz:5108.got - 2010.04.14 03:39:34.
