data_PCOD8168622
_publ_section_title
;
Structure prediction by ZEFSAII (Michael W. Deem and Ramdas Pophale) SiO2 
 PCOD8168622
Probable space group: P C A 21
;
_chemical_formula_sum "Si O2"
_cell_formula_units_Z 32
_cell_length_a 9.629999
_cell_length_b 10.466123
_cell_length_c 17.092526
_cell_angle_alpha 90.000000
_cell_angle_beta 90.000000
_cell_angle_gamma 90.000000
_cell_volume 1722.734399
_symmetry_space_group_name_H-M "P C A 21"
_symmetry_group_IT_number 29
_symmetry_cell_setting 'orthorhombic'
loop_
_space_group_symop_operation_xyz
x,y,z
-x,-y,1/2+z
1/2-x,y,1/2+z
1/2+x,-y,z
loop_
_atom_site_type_symbol
_atom_site_label
_atom_site_fract_x
_atom_site_fract_y
_atom_site_fract_z
Si Si1 0.304675 0.340021 0.406810
Si Si2 0.060028 0.223746 0.333958
Si Si3 0.960440 0.991759 0.244609
Si Si4 0.201823 0.371846 0.086136
Si Si5 0.187349 0.140200 0.186668
Si Si6 0.040898 0.723626 0.294728
Si Si7 0.818920 0.403139 0.315050
Si Si8 0.948710 0.513224 0.170143
O O1 0.175553 0.238278 0.402790
O O2 0.335525 0.377040 0.495598
O O3 0.441885 0.278941 0.370100
O O4 0.271753 0.468721 0.358596
O O5 0.157206 0.243403 0.256369
O O6 0.954920 0.338787 0.352709
O O7 0.975345 0.089095 0.320690
O O8 0.806702 0.958848 0.215059
O O9 0.044485 0.865565 0.263509
O O10 0.046562 0.057767 0.173315
O O11 0.221123 0.222619 0.110399
O O12 0.349812 0.439079 0.100258
O O13 0.079085 0.439754 0.134045
O O14 0.194346 0.695065 0.323811
O O15 0.996782 0.629386 0.225071
O O16 0.855049 0.420540 0.223514
#
# Coordination Sequence:
#
# PCOD8168622 Si02
#       8
#     4   4   4   4   4   4   4   4
#     4  11  24  38  59  87 133 161 194 251 324 374
#     4  10  21  39  61  88 118 157 204 252 300 358
#     4  10  19  36  65  84 112 153 211 253 289 350
#     4  12  24  39  59  92 132 160 193 259 326 373
#     4  10  20  39  61  88 113 155 204 260 297 352
#     4  11  20  37  62  91 114 161 212 251 293 362
#     4  11  21  36  61  92 116 160 207 253 296 366
#     4  11  21  38  60  86 122 161 205 251 307 367
#
# _framework density 18.575120999999999
#
# number of rings (size 3 to 8) (size 9 to 14) (size 15 to 20)
#    0.750    0.500    5.000    3.000    3.500    0.000 
#    0.000    1.250    0.000    1.500    0.000    0.000 
#    0.000    0.000    0.000    0.000    0.000    0.000 
#
# Total GULP energy -396423.666511 kJ/mol
# GULP energy per Si atom -12388.239578 kJ/mol
# Density = 1.853284 g / cm^3
# Si number density = 18.575121 Si / 1000 Ang^3
#
#
#
# Elastic Constant Matrix: (Units=GPa)
#
#
# Indices 1 2 3 4 5 6 
#
# 1 115.5662 36.0580 30.9818 0.0000 0.0000 0.0000
# 2 36.0580 75.3743 20.1641 0.0000 0.0000 0.0000
# 3 30.9818 20.1641 80.7721 0.0000 0.0000 0.0000
# 4 0.0000 0.0000 0.0000 14.8947 0.0000 0.0000
# 5 0.0000 0.0000 0.0000 0.0000 15.2858 0.0000
# 6 0.0000 0.0000 0.0000 0.0000 0.0000 37.1267
#
#
#
# Elastic Compliance Matrix: (Units=1/GPa)
#
#
# Indices 1 2 3 4 5 6 
#
# 1 0.010837 -0.004364 -0.003067 0.000000 0.000000 0.000000
# 2 -0.004364 0.015974 -0.002314 0.000000 0.000000 0.000000
# 3 -0.003067 -0.002314 0.014135 0.000000 0.000000 0.000000
# 4 0.000000 0.000000 0.000000 0.067138 0.000000 0.000000
# 5 0.000000 0.000000 0.000000 0.000000 0.065420 0.000000
# 6 0.000000 0.000000 0.000000 0.000000 0.000000 0.026935
#
#
# Mechanical properties :
#
#
# Convention : Reuss Voigt Hill
#
# Bulk Modulus (GPa) = 46.60833 49.56893 48.08863
# Shear Modulus (GPa) = 22.01870 25.76204 23.89037
#
# Velocity S-wave (km/s) = 3.44668 3.72817 3.59018
# Velocity P-wave (km/s) = 6.40201 6.72874 6.56741
#
# Compressibility (1/GPa) = 0.02145539
#
# Stress axis : x y z
#
# Youngs Moduli (GPa) = 92.27761 62.60321 70.74784
#
# Poissons Ratio (x) = 0.27318 0.21701
# Poissons Ratio (y) = 0.40266 0.16370
# Poissons Ratio (z) = 0.28305 0.14486
#
# Static dielectric constant tensor:
#      x y z
#    x 3.517650 0.000000 0.000000 
#    y 0.000000 3.454040 0.000000 
#    z 0.000000 0.000000 3.068530 
# 
# 
# High freq. dielectric constant tensor:
#      x y z
#    x 1.741560 0.000000 0.000000 
#    y 0.000000 1.721770 0.000000 
#    z 0.000000 0.000000 1.675230 
# 
# From -- ./inp_files/5025.got.cif
#   From: 2010.03.12/outbox.cif.g09.slc.cpg/sg29_3_cif.got.tgz:5025.got - 2010.04.14 03:43:10.
