data_PCOD8168501
_publ_section_title
;
Structure prediction by ZEFSAII (Michael W. Deem and Ramdas Pophale) SiO2 
 PCOD8168501
Probable space group: P M A 2
;
_chemical_formula_sum "Si O2"
_cell_formula_units_Z 20
_cell_length_a 20.134942
_cell_length_b 6.436958
_cell_length_c 7.291784
_cell_angle_alpha 90.000000
_cell_angle_beta 90.000000
_cell_angle_gamma 90.000000
_cell_volume 945.071907
_symmetry_space_group_name_H-M "P M A 2"
_symmetry_group_IT_number 28
_symmetry_cell_setting 'orthorhombic'
loop_
_space_group_symop_operation_xyz
x,y,z
-x,-y,z
1/2-x,y,z
1/2+x,-y,z
loop_
_atom_site_type_symbol
_atom_site_label
_atom_site_fract_x
_atom_site_fract_y
_atom_site_fract_z
Si Si1 0.750000 0.373960 0.623910
Si Si2 0.500000 0.500000 0.578116
Si Si3 0.750000 0.690528 0.920953
Si Si4 0.750000 0.313052 0.200517
Si Si5 0.436057 0.121592 0.399000
Si Si6 0.892648 0.184591 0.712662
Si Si7 0.645034 0.994859 0.065455
O O1 0.750000 0.603141 0.713663
O O2 0.750000 0.401339 0.406285
O O3 0.816287 0.257899 0.693519
O O4 0.453694 0.355690 0.453176
O O5 0.551877 0.364374 0.696037
O O6 0.750000 0.504279 0.064343
O O7 0.686373 0.833030 0.946055
O O8 0.685545 0.173899 0.168669
O O9 0.389226 0.138420 0.223658
O O10 0.500000 0.000000 0.329552
O O11 0.403578 0.999431 0.568325
O O12 0.904333 0.100494 0.918789
#
# Coordination Sequence:
#
# PCOD8168501 Si02
#       7
#     2   2   2   2   4   4   4
#     4  12  23  44  73  99 139 181 228 293 346 408
#     4  10  26  48  70 102 140 190 238 278 354 420
#     4  11  26  39  65 110 136 168 232 284 351 417
#     4  11  23  43  68 101 137 179 224 283 349 417
#     4  10  24  45  67  97 134 183 232 285 341 414
#     4  11  24  46  72 101 142 181 235 292 348 413
#     4  11  24  44  69 100 137 179 227 286 350 411
#
# _framework density 21.162410000000001
#
# number of rings (size 3 to 8) (size 9 to 14) (size 15 to 20)
#    0.000    1.200    4.000    0.600    5.600    2.400 
#    0.000    2.000    0.000    0.000    0.000    0.000 
#    0.000    0.000    0.000    0.000    0.000    0.000 
#
# Total GULP energy -248012.309319 kJ/mol
# GULP energy per Si atom -12400.615466 kJ/mol
# Density = 2.111424 g / cm^3
# Si number density = 21.162410 Si / 1000 Ang^3
#
#
#
# Elastic Constant Matrix: (Units=GPa)
#
#
# Indices 1 2 3 4 5 6 
#
# 1 111.5377 55.2497 57.8655 0.0000 0.0000 0.0000
# 2 55.2497 143.4841 73.7693 0.0000 0.0000 0.0000
# 3 57.8655 73.7693 168.8010 0.0000 0.0000 0.0000
# 4 0.0000 0.0000 0.0000 24.7802 0.0000 0.0000
# 5 0.0000 0.0000 0.0000 0.0000 -7.5456 0.0000
# 6 0.0000 0.0000 0.0000 0.0000 0.0000 4.0998
#
#
#
# Elastic Compliance Matrix: (Units=1/GPa)
#
#
# Indices 1 2 3 4 5 6 
#
# 1 0.011957 -0.003220 -0.002692 0.000000 0.000000 0.000000
# 2 -0.003220 0.009856 -0.003204 0.000000 0.000000 0.000000
# 3 -0.002692 -0.003204 0.008247 0.000000 0.000000 0.000000
# 4 0.000000 0.000000 0.000000 0.040355 0.000000 0.000000
# 5 0.000000 0.000000 0.000000 0.000000 -0.132528 0.000000
# 6 0.000000 0.000000 0.000000 0.000000 0.000000 0.243917
#
#
# Mechanical properties :
#
#
# Convention : Reuss Voigt Hill
#
# Bulk Modulus (GPa) = 84.53444 88.62129 86.57786
# Shear Modulus (GPa) = 24.51243 20.06277 22.28760
#
# Velocity S-wave (km/s) = 3.40707 3.08236 3.24878
# Velocity P-wave (km/s) = 7.45049 7.39159 7.42110
#
# Compressibility (1/GPa) = 0.01182950
#
# Stress axis : x y z
#
# Youngs Moduli (GPa) = 83.63189 101.45626 121.25900
#
# Poissons Ratio (x) = 0.32673 0.32638
# Poissons Ratio (y) = 0.26933 0.38845
# Poissons Ratio (z) = 0.22510 0.32502
#
# Static dielectric constant tensor:
#      x y z
#    x 3.972290 0.000000 0.000000 
#    y 0.000000 4.019460 0.000000 
#    z 0.000000 0.000000 3.862120 
# 
# 
# High freq. dielectric constant tensor:
#      x y z
#    x 1.834900 0.000000 0.000000 
#    y 0.000000 1.838120 0.000000 
#    z 0.000000 0.000000 1.836330 
# 
# From -- ./inp_files/3728.got.cif
#   From: 2010.03.12/outbox.cif.g09.slc.cpg/sg28_2_cif.got.tgz:3728.got - 2010.04.14 03:39:34.
