data_PCOD8168383
_publ_section_title
;
Structure prediction by ZEFSAII (Michael W. Deem and Ramdas Pophale) SiO2 
 PCOD8168383
Probable space group: P M A 2
;
_chemical_formula_sum "Si O2"
_cell_formula_units_Z 24
_cell_length_a 8.431026
_cell_length_b 9.491257
_cell_length_c 15.150516
_cell_angle_alpha 90.000000
_cell_angle_beta 90.000000
_cell_angle_gamma 90.000000
_cell_volume 1212.359964
_symmetry_space_group_name_H-M "P M A 2"
_symmetry_group_IT_number 28
_symmetry_cell_setting 'orthorhombic'
loop_
_space_group_symop_operation_xyz
x,y,z
-x,-y,z
1/2-x,y,z
1/2+x,-y,z
loop_
_atom_site_type_symbol
_atom_site_label
_atom_site_fract_x
_atom_site_fract_y
_atom_site_fract_z
Si Si1 0.936544 0.656567 0.087340
Si Si2 0.563764 0.656108 0.397320
Si Si3 0.065099 0.648867 0.585320
Si Si4 0.936364 0.847272 0.931330
Si Si5 0.437434 0.153674 0.731988
Si Si6 0.436125 0.842102 0.245373
O O1 0.750000 0.647057 0.081914
O O2 0.000000 0.500000 0.097031
O O3 0.983144 0.748893 0.170712
O O4 0.005375 0.730492 0.998628
O O5 0.500000 0.500000 0.375663
O O6 0.750000 0.660861 0.378170
O O7 0.528683 0.698381 0.498267
O O8 0.475866 0.772271 0.338964
O O9 0.250000 0.639451 0.561839
O O10 0.000000 0.500000 0.617399
O O11 0.035510 0.750363 0.666434
O O12 0.750000 0.857282 0.940295
O O13 0.984538 0.803902 0.831967
O O14 0.000000 0.000000 0.958061
O O15 0.250000 0.165750 0.715371
O O16 0.500000 0.000000 0.711357
O O17 0.250000 0.844517 0.229585
O O18 0.500000 0.000000 0.242276
#
# Coordination Sequence:
#
# PCOD8168383 Si02
#       6
#     4   4   4   4   4   4
#     4  11  23  40  60  87 118 154 194 238 287 341
#     4  11  22  40  63  88 117 153 192 237 287 342
#     4  11  22  38  59  86 117 154 194 239 289 343
#     4   9  20  37  59  84 115 151 193 239 289 342
#     4  10  20  37  58  85 117 154 195 240 289 343
#     4  12  25  42  62  88 118 152 191 237 287 343
#
# _framework density 19.796102000000001
#
# number of rings (size 3 to 8) (size 9 to 14) (size 15 to 20)
#    0.000    1.333    0.000    7.500    0.000    4.667 
#    0.000    5.000    0.000    0.000    0.000    0.000 
#    0.000    0.000    0.000    0.000    0.000    0.000 
#
# Total GULP energy -297673.509888 kJ/mol
# GULP energy per Si atom -12403.062912 kJ/mol
# Density = 1.975105 g / cm^3
# Si number density = 19.796102 Si / 1000 Ang^3
#
#
#
# Elastic Constant Matrix: (Units=GPa)
#
#
# Indices 1 2 3 4 5 6 
#
# 1 48.9763 10.6470 2.6570 0.0000 0.0000 0.0000
# 2 10.6470 134.0420 79.5007 0.0000 0.0000 0.0000
# 3 2.6570 79.5007 111.7944 0.0000 0.0000 0.0000
# 4 0.0000 0.0000 0.0000 -85.3367 0.0000 0.0000
# 5 0.0000 0.0000 0.0000 0.0000 3.9427 0.0000
# 6 0.0000 0.0000 0.0000 0.0000 0.0000 36.6721
#
#
#
# Elastic Compliance Matrix: (Units=1/GPa)
#
#
# Indices 1 2 3 4 5 6 
#
# 1 0.020867 -0.002358 0.001181 0.000000 0.000000 0.000000
# 2 -0.002358 0.013169 -0.009309 0.000000 0.000000 0.000000
# 3 0.001181 -0.009309 0.015537 0.000000 0.000000 0.000000
# 4 0.000000 0.000000 0.000000 -0.011718 0.000000 0.000000
# 5 0.000000 0.000000 0.000000 0.000000 0.253633 0.000000
# 6 0.000000 0.000000 0.000000 0.000000 0.000000 0.027269
#
#
# Mechanical properties :
#
#
# Convention : Reuss Voigt Hill
#
# Bulk Modulus (GPa) = 34.96439 53.38023 44.17231
# Shear Modulus (GPa) = 14.31600 4.52283 9.41942
#
# Velocity S-wave (km/s) = 2.69210 1.51317 2.18370
# Velocity P-wave (km/s) = 5.23105 5.48420 5.35912
#
# Compressibility (1/GPa) = 0.02860053
#
# Stress axis : x y z
#
# Youngs Moduli (GPa) = 47.92360 75.93859 64.36445
#
# Poissons Ratio (x) = 0.17904 -0.07600
# Poissons Ratio (y) = 0.11299 0.59914
# Poissons Ratio (z) = -0.05658 0.70688
#
# Static dielectric constant tensor:
#      x y z
#    x 3.722880 0.000000 0.000000 
#    y 0.000000 4.342450 0.000000 
#    z 0.000000 0.000000 3.870390 
# 
# 
# High freq. dielectric constant tensor:
#      x y z
#    x 1.785410 0.000000 0.000000 
#    y 0.000000 1.774770 0.000000 
#    z 0.000000 0.000000 1.785820 
# 
# From -- ./inp_files/6040.got.cif
#   From: 2010.03.12/outbox.cif.g09.slc.cpg/sg28_4_cif.got.tgz:6040.got - 2010.04.14 03:39:34.
