data_PCOD8168427
_publ_section_title
;
Structure prediction by ZEFSAII (Michael W. Deem and Ramdas Pophale) SiO2 
 PCOD8168427
Probable space group: P M A 2
;
_chemical_formula_sum "Si O2"
_cell_formula_units_Z 32
_cell_length_a 17.408858
_cell_length_b 8.749843
_cell_length_c 10.519875
_cell_angle_alpha 90.000000
_cell_angle_beta 90.000000
_cell_angle_gamma 90.000000
_cell_volume 1602.437585
_symmetry_space_group_name_H-M "P M A 2"
_symmetry_group_IT_number 28
_symmetry_cell_setting 'orthorhombic'
loop_
_space_group_symop_operation_xyz
x,y,z
-x,-y,z
1/2-x,y,z
1/2+x,-y,z
loop_
_atom_site_type_symbol
_atom_site_label
_atom_site_fract_x
_atom_site_fract_y
_atom_site_fract_z
Si Si1 0.334736 0.910850 0.185240
Si Si2 0.915897 0.445873 0.931353
Si Si3 0.340932 0.561616 0.461274
Si Si4 0.341178 0.900655 0.460862
Si Si5 0.580725 0.083732 0.940083
Si Si6 0.158967 0.377641 0.708841
Si Si7 0.164341 0.547316 0.183271
Si Si8 0.412295 0.055726 0.693499
O O1 0.250000 0.980898 0.170969
O O2 0.370803 0.957345 0.321907
O O3 0.330993 0.729143 0.177072
O O4 0.383202 0.981045 0.069684
O O5 0.920323 0.264628 0.938789
O O6 0.857411 0.502839 0.822460
O O7 0.000000 0.500000 0.896360
O O8 0.889031 0.513587 0.068270
O O9 0.250000 0.574967 0.451099
O O10 0.374210 0.731152 0.490242
O O11 0.365897 0.451035 0.574352
O O12 0.369893 0.500138 0.322473
O O13 0.250000 0.895874 0.456579
O O14 0.367766 0.020567 0.564688
O O15 0.626560 0.032890 0.812987
O O16 0.500000 0.000000 0.926799
O O17 0.250000 0.335502 0.710496
O O18 0.101644 0.234257 0.723125
O O19 0.250000 0.479064 0.164233
O O20 0.500000 0.000000 0.675631
#
# Coordination Sequence:
#
# PCOD8168427 Si02
#       8
#     4   4   4   4   4   4   4   4
#     4   8  16  31  55  82 106 138 185 232 276 331
#     4  11  21  36  57  82 114 148 186 236 289 344
#     4   8  16  33  58  83 107 137 182 234 282 334
#     4   9  17  34  58  82 108 144 187 231 280 341
#     4  10  21  37  55  78 111 149 187 227 281 342
#     4  11  23  39  59  86 116 152 198 247 293 346
#     4   8  15  32  56  81 107 139 181 230 280 339
#     4  11  23  38  53  78 115 153 192 237 291 345
#
# _framework density 19.969577000000001
#
# number of rings (size 3 to 8) (size 9 to 14) (size 15 to 20)
#    0.000    2.500    0.000    4.500    0.000    2.000 
#    0.000    6.875    0.000    3.000    0.000    0.000 
#    0.000    0.000    0.000    0.000    0.000    0.000 
#
# Total GULP energy -396527.450831 kJ/mol
# GULP energy per Si atom -12391.482838 kJ/mol
# Density = 1.992412 g / cm^3
# Si number density = 19.969577 Si / 1000 Ang^3
#
#
#
# Elastic Constant Matrix: (Units=GPa)
#
#
# Indices 1 2 3 4 5 6 
#
# 1 42.6888 19.2874 33.7824 0.0000 0.0000 0.0000
# 2 19.2874 69.2184 41.4717 0.0000 0.0000 0.0000
# 3 33.7824 41.4717 183.0552 0.0000 0.0000 0.0000
# 4 0.0000 0.0000 0.0000 12.8651 0.0000 0.0000
# 5 0.0000 0.0000 0.0000 0.0000 23.4945 0.0000
# 6 0.0000 0.0000 0.0000 0.0000 0.0000 23.9790
#
#
#
# Elastic Compliance Matrix: (Units=1/GPa)
#
#
# Indices 1 2 3 4 5 6 
#
# 1 0.029247 -0.005688 -0.004109 0.000000 0.000000 0.000000
# 2 -0.005688 0.017822 -0.002988 0.000000 0.000000 0.000000
# 3 -0.004109 -0.002988 0.006898 0.000000 0.000000 0.000000
# 4 0.000000 0.000000 0.000000 0.077730 0.000000 0.000000
# 5 0.000000 0.000000 0.000000 0.000000 0.042563 0.000000
# 6 0.000000 0.000000 0.000000 0.000000 0.000000 0.041703
#
#
# Mechanical properties :
#
#
# Convention : Reuss Voigt Hill
#
# Bulk Modulus (GPa) = 35.21394 53.78281 44.49837
# Shear Modulus (GPa) = 19.92048 25.42911 22.67479
#
# Velocity S-wave (km/s) = 3.16181 3.57233 3.37332
# Velocity P-wave (km/s) = 5.56790 6.63372 6.12404
#
# Compressibility (1/GPa) = 0.02839784
#
# Stress axis : x y z
#
# Youngs Moduli (GPa) = 34.19186 56.11005 144.96845
#
# Poissons Ratio (x) = 0.31914 0.59565
# Poissons Ratio (y) = 0.19447 0.43317
# Poissons Ratio (z) = 0.14049 0.16766
#
# Static dielectric constant tensor:
#      x y z
#    x 3.491530 0.000000 0.000000 
#    y 0.000000 3.434940 0.000000 
#    z 0.000000 0.000000 4.327870 
# 
# 
# High freq. dielectric constant tensor:
#      x y z
#    x 1.751010 0.000000 0.000000 
#    y 0.000000 1.753060 0.000000 
#    z 0.000000 0.000000 1.808670 
# 
# From -- ./inp_files/5637.got.cif
#   From: 2010.03.12/outbox.cif.g09.slc.cpg/sg28_3_cif.got.tgz:5637.got - 2010.04.14 03:39:34.
