data_PCOD8168327
_publ_section_title
;
Structure prediction by ZEFSAII (Michael W. Deem and Ramdas Pophale) SiO2 
 PCOD8168327
Probable space group: P M A 2
;
_chemical_formula_sum "Si O2"
_cell_formula_units_Z 24
_cell_length_a 8.727752
_cell_length_b 9.438110
_cell_length_c 15.261331
_cell_angle_alpha 90.000000
_cell_angle_beta 90.000000
_cell_angle_gamma 90.000000
_cell_volume 1257.128996
_symmetry_space_group_name_H-M "P M A 2"
_symmetry_group_IT_number 28
_symmetry_cell_setting 'orthorhombic'
loop_
_space_group_symop_operation_xyz
x,y,z
-x,-y,z
1/2-x,y,z
1/2+x,-y,z
loop_
_atom_site_type_symbol
_atom_site_label
_atom_site_fract_x
_atom_site_fract_y
_atom_site_fract_z
Si Si1 0.931840 0.845105 0.903920
Si Si2 0.570272 0.354231 0.561729
Si Si3 0.931951 0.152785 0.408691
Si Si4 0.568010 0.845330 0.228611
Si Si5 0.069595 0.344806 0.066769
Si Si6 0.431660 0.650691 0.760384
O O1 0.750000 0.856498 0.898012
O O2 0.997295 0.778546 0.815130
O O3 0.986392 0.745750 0.983605
O O4 0.000000 0.000000 0.918637
O O5 0.500000 0.500000 0.529428
O O6 0.750000 0.369806 0.557936
O O7 0.511345 0.238322 0.493332
O O8 0.518221 0.316956 0.660402
O O9 0.750000 0.147792 0.399983
O O10 0.002103 0.217646 0.319490
O O11 0.000000 0.000000 0.423566
O O12 0.750000 0.859206 0.233846
O O13 0.514429 0.737221 0.153509
O O14 0.500000 0.000000 0.208400
O O15 0.250000 0.361397 0.065781
O O16 0.000000 0.500000 0.063254
O O17 0.500000 0.500000 0.791501
O O18 0.250000 0.645918 0.772755
#
# Coordination Sequence:
#
# PCOD8168327 Si02
#       6
#     4   4   4   4   4   4
#     4  11  23  39  58  83 111 144 182 224 272 324
#     4   9  20  36  55  79 109 143 181 221 268 319
#     4  10  20  35  54  79 108 142 180 221 267 318
#     4  10  20  36  56  80 107 140 179 221 267 318
#     4  10  23  39  57  81 110 142 179 219 267 321
#     4  10  20  37  58  82 111 145 183 226 272 324
#
# _framework density 19.091118999999999
#
# number of rings (size 3 to 8) (size 9 to 14) (size 15 to 20)
#    0.000    2.000    0.000    4.000    0.000    7.333 
#    0.000    5.000    0.000    0.000    0.000    0.000 
#    0.000    0.000    0.000    0.000    0.000    0.000 
#
# Total GULP energy -297642.319625 kJ/mol
# GULP energy per Si atom -12401.763318 kJ/mol
# Density = 1.904767 g / cm^3
# Si number density = 19.091119 Si / 1000 Ang^3
#
#
#
# Elastic Constant Matrix: (Units=GPa)
#
#
# Indices 1 2 3 4 5 6 
#
# 1 65.9779 44.3084 45.2506 0.0000 0.0000 0.0000
# 2 44.3084 136.3170 92.8083 0.0000 0.0000 0.0000
# 3 45.2506 92.8083 145.9691 0.0000 0.0000 0.0000
# 4 0.0000 0.0000 0.0000 46.0291 0.0000 0.0000
# 5 0.0000 0.0000 0.0000 0.0000 32.6599 0.0000
# 6 0.0000 0.0000 0.0000 0.0000 0.0000 34.9242
#
#
#
# Elastic Compliance Matrix: (Units=1/GPa)
#
#
# Indices 1 2 3 4 5 6 
#
# 1 0.020480 -0.004116 -0.003732 0.000000 0.000000 0.000000
# 2 -0.004116 0.013762 -0.007474 0.000000 0.000000 0.000000
# 3 -0.003732 -0.007474 0.012760 0.000000 0.000000 0.000000
# 4 0.000000 0.000000 0.000000 0.021725 0.000000 0.000000
# 5 0.000000 0.000000 0.000000 0.000000 0.030619 0.000000
# 6 0.000000 0.000000 0.000000 0.000000 0.000000 0.028633
#
#
# Mechanical properties :
#
#
# Convention : Reuss Voigt Hill
#
# Bulk Modulus (GPa) = 61.13191 79.22206 70.17699
# Shear Modulus (GPa) = 30.47346 33.78240 32.12793
#
# Velocity S-wave (km/s) = 3.99960 4.21115 4.10673
# Velocity P-wave (km/s) = 7.30888 8.07663 7.70232
#
# Compressibility (1/GPa) = 0.01635807
#
# Stress axis : x y z
#
# Youngs Moduli (GPa) = 48.82735 72.66159 78.37107
#
# Poissons Ratio (x) = 0.29909 0.29247
# Poissons Ratio (y) = 0.20098 0.58576
# Poissons Ratio (z) = 0.18221 0.54309
#
# Static dielectric constant tensor:
#      x y z
#    x 3.492100 0.000000 0.000000 
#    y 0.000000 3.479430 0.000000 
#    z 0.000000 0.000000 3.922080 
# 
# 
# High freq. dielectric constant tensor:
#      x y z
#    x 1.748850 0.000000 0.000000 
#    y 0.000000 1.741280 0.000000 
#    z 0.000000 0.000000 1.758200 
# 
# From -- ./inp_files/6025.got.cif
#   From: 2010.03.12/outbox.cif.g09.slc.cpg/sg28_4_cif.got.tgz:6025.got - 2010.04.14 03:39:34.
