data_PCOD8168306
_publ_section_title
;
Structure prediction by ZEFSAII (Michael W. Deem and Ramdas Pophale) SiO2 
 PCOD8168306
Probable space group: P M A 2
;
_chemical_formula_sum "Si O2"
_cell_formula_units_Z 32
_cell_length_a 8.942087
_cell_length_b 14.669686
_cell_length_c 12.248248
_cell_angle_alpha 90.000000
_cell_angle_beta 90.000000
_cell_angle_gamma 90.000000
_cell_volume 1606.695881
_symmetry_space_group_name_H-M "P M A 2"
_symmetry_group_IT_number 28
_symmetry_cell_setting 'orthorhombic'
loop_
_space_group_symop_operation_xyz
x,y,z
-x,-y,z
1/2-x,y,z
1/2+x,-y,z
loop_
_atom_site_type_symbol
_atom_site_label
_atom_site_fract_x
_atom_site_fract_y
_atom_site_fract_z
Si Si1 0.582706 0.632687 0.391090
Si Si2 0.080874 0.166188 0.316848
Si Si3 0.927213 0.408975 0.611330
Si Si4 0.926157 0.099221 0.893880
Si Si5 0.072848 0.408257 0.145931
Si Si6 0.577576 0.221202 0.698767
Si Si7 0.922025 0.085083 0.510061
Si Si8 0.074501 0.777161 0.100810
O O1 0.750000 0.598338 0.419867
O O2 0.580027 0.741067 0.384990
O O3 0.470399 0.598466 0.483776
O O4 0.530134 0.594681 0.273922
O O5 0.250000 0.137329 0.286985
O O6 0.003600 0.092288 0.393660
O O7 0.985486 0.172511 0.207420
O O8 0.750000 0.414305 0.618575
O O9 0.989473 0.323164 0.682653
O O10 0.000000 0.500000 0.662142
O O11 0.750000 0.083973 0.878135
O O12 0.995640 0.160237 0.794652
O O13 0.964048 0.155488 0.002152
O O14 0.000000 0.000000 0.897469
O O15 0.250000 0.407784 0.128327
O O16 0.000000 0.500000 0.095873
O O17 0.005761 0.320428 0.083835
O O18 0.750000 0.231377 0.729785
O O19 0.554935 0.174077 0.582369
O O20 0.750000 0.063553 0.489964
O O21 0.000000 0.000000 0.571783
O O22 0.250000 0.758969 0.111873
#
# Coordination Sequence:
#
# PCOD8168306 Si02
#       8
#     4   4   4   4   4   4   4   4
#     4   9  18  32  51  78 112 151 192 232 276 329
#     4  10  20  35  55  81 117 154 190 238 286 341
#     4  11  21  34  54  81 114 153 191 232 279 336
#     4  10  22  42  66  89 112 145 192 244 297 350
#     4  10  20  34  54  83 119 158 198 242 288 343
#     4   9  20  39  60  83 115 150 188 237 290 343
#     4  11  21  35  56  84 115 151 189 230 288 352
#     4  10  21  37  59  85 116 154 194 241 294 348
#
# _framework density 19.916651000000002
#
# number of rings (size 3 to 8) (size 9 to 14) (size 15 to 20)
#    0.000    2.000    1.250    3.375    0.000    5.000 
#    0.000    3.750    0.000    1.500    0.000    0.000 
#    0.000    0.000    0.000    0.000    0.000    0.000 
#
# Total GULP energy -396732.669525 kJ/mol
# GULP energy per Si atom -12397.895923 kJ/mol
# Density = 1.987132 g / cm^3
# Si number density = 19.916651 Si / 1000 Ang^3
#
#
#
# Elastic Constant Matrix: (Units=GPa)
#
#
# Indices 1 2 3 4 5 6 
#
# 1 93.6531 63.9243 42.0616 0.0000 0.0000 0.0000
# 2 63.9243 158.0017 54.1434 0.0000 0.0000 0.0000
# 3 42.0616 54.1434 76.7837 0.0000 0.0000 0.0000
# 4 0.0000 0.0000 0.0000 19.5118 0.0000 0.0000
# 5 0.0000 0.0000 0.0000 0.0000 16.0818 0.0000
# 6 0.0000 0.0000 0.0000 0.0000 0.0000 36.8013
#
#
#
# Elastic Compliance Matrix: (Units=1/GPa)
#
#
# Indices 1 2 3 4 5 6 
#
# 1 0.016444 -0.004702 -0.005692 0.000000 0.000000 0.000000
# 2 -0.004702 0.009690 -0.004257 0.000000 0.000000 0.000000
# 3 -0.005692 -0.004257 0.019144 0.000000 0.000000 0.000000
# 4 0.000000 0.000000 0.000000 0.051251 0.000000 0.000000
# 5 0.000000 0.000000 0.000000 0.000000 0.062182 0.000000
# 6 0.000000 0.000000 0.000000 0.000000 0.000000 0.027173
#
#
# Mechanical properties :
#
#
# Convention : Reuss Voigt Hill
#
# Bulk Modulus (GPa) = 62.59900 72.07746 67.33823
# Shear Modulus (GPa) = 22.67457 25.69961 24.18709
#
# Velocity S-wave (km/s) = 3.37779 3.59605 3.48863
# Velocity P-wave (km/s) = 6.83457 7.31507 7.07890
#
# Compressibility (1/GPa) = 0.01597470
#
# Stress axis : x y z
#
# Youngs Moduli (GPa) = 60.81357 103.19578 52.23697
#
# Poissons Ratio (x) = 0.48526 0.29733
# Poissons Ratio (y) = 0.28596 0.22238
# Poissons Ratio (z) = 0.34615 0.43932
#
# Static dielectric constant tensor:
#      x y z
#    x 3.536990 0.000000 0.000000 
#    y 0.000000 3.880090 0.000000 
#    z 0.000000 0.000000 3.419870 
# 
# 
# High freq. dielectric constant tensor:
#      x y z
#    x 1.770280 0.000000 0.000000 
#    y 0.000000 1.793550 0.000000 
#    z 0.000000 0.000000 1.751730 
# 
# From -- ./inp_files/5005.got.cif
#   From: 2010.03.12/outbox.cif.g09.slc.cpg/sg28_3_cif.got.tgz:5005.got - 2010.04.14 03:39:34.
