data_PCOD8168199
_publ_section_title
;
Structure prediction by ZEFSAII (Michael W. Deem and Ramdas Pophale) SiO2 
 PCOD8168199
Probable space group: P M A 2
;
_chemical_formula_sum "Si O2"
_cell_formula_units_Z 30
_cell_length_a 18.947598
_cell_length_b 7.502486
_cell_length_c 11.034780
_cell_angle_alpha 90.000000
_cell_angle_beta 90.000000
_cell_angle_gamma 90.000000
_cell_volume 1568.639095
_symmetry_space_group_name_H-M "P M A 2"
_symmetry_group_IT_number 28
_symmetry_cell_setting 'orthorhombic'
loop_
_space_group_symop_operation_xyz
x,y,z
-x,-y,z
1/2-x,y,z
1/2+x,-y,z
loop_
_atom_site_type_symbol
_atom_site_label
_atom_site_fract_x
_atom_site_fract_y
_atom_site_fract_z
Si Si1 0.376985 0.478517 0.182400
Si Si2 0.828679 0.149631 0.127192
Si Si3 0.169839 0.134600 0.306667
Si Si4 0.573434 0.914451 0.771604
Si Si5 0.420611 0.444783 0.908988
Si Si6 0.449212 0.158955 0.495607
Si Si7 0.665146 0.214712 0.862422
Si Si8 0.000000 0.500000 0.368303
O O1 0.326199 0.647758 0.172576
O O2 0.330784 0.314829 0.228933
O O3 0.434401 0.531852 0.281216
O O4 0.411894 0.433048 0.053435
O O5 0.750000 0.074629 0.116349
O O6 0.866671 0.018980 0.222886
O O7 0.862191 0.142932 0.993385
O O8 0.250000 0.088875 0.344227
O O9 0.125700 0.146583 0.429084
O O10 0.596514 0.750863 0.856843
O O11 0.565515 0.837055 0.637568
O O12 0.500000 0.000000 0.817708
O O13 0.633151 0.070407 0.769148
O O14 0.500000 0.500000 0.875534
O O15 0.367339 0.587210 0.845971
O O16 0.490284 0.335382 0.457628
O O17 0.500000 0.000000 0.456435
O O18 0.750000 0.226917 0.850367
#
# Coordination Sequence:
#
# PCOD8168199 Si02
#       8
#     4   4   4   4   4   4   4   2
#     4  10  19  33  54  84 113 144 180 237 292 346
#     4   9  18  33  54  79 111 144 175 223 285 344
#     4  10  20  36  57  83 113 149 191 233 283 348
#     4  11  23  38  60  83 115 158 201 250 293 347
#     4  11  21  37  61  91 119 154 202 242 296 357
#     4  10  23  38  57  80 110 154 195 239 289 335
#     4  10  22  39  59  88 121 152 192 242 299 356
#     4  10  20  34  52  78 110 140 184 238 284 338
#
# _framework density 19.124858
#
# number of rings (size 3 to 8) (size 9 to 14) (size 15 to 20)
#    0.000    1.867    2.000    2.000    0.933    1.600 
#    0.000    0.667    0.000    0.000    0.000    0.000 
#    0.000    0.000    0.000    0.000    0.000    0.000 
#
# Total GULP energy -371959.264694 kJ/mol
# GULP energy per Si atom -12398.642156 kJ/mol
# Density = 1.908133 g / cm^3
# Si number density = 19.124858 Si / 1000 Ang^3
#
#
#
# Elastic Constant Matrix: (Units=GPa)
#
#
# Indices 1 2 3 4 5 6 
#
# 1 95.3354 44.4803 27.8411 0.0000 0.0000 0.0000
# 2 44.4803 125.6948 61.6778 0.0000 0.0000 0.0000
# 3 27.8411 61.6778 89.6452 0.0000 0.0000 0.0000
# 4 0.0000 0.0000 0.0000 32.3074 0.0000 0.0000
# 5 0.0000 0.0000 0.0000 0.0000 3.5284 0.0000
# 6 0.0000 0.0000 0.0000 0.0000 0.0000 32.6180
#
#
#
# Elastic Compliance Matrix: (Units=1/GPa)
#
#
# Indices 1 2 3 4 5 6 
#
# 1 0.012661 -0.003851 -0.001282 0.000000 0.000000 0.000000
# 2 -0.003851 0.013182 -0.007874 0.000000 0.000000 0.000000
# 3 -0.001282 -0.007874 0.016971 0.000000 0.000000 0.000000
# 4 0.000000 0.000000 0.000000 0.030953 0.000000 0.000000
# 5 0.000000 0.000000 0.000000 0.000000 0.283414 0.000000
# 6 0.000000 0.000000 0.000000 0.000000 0.000000 0.030658
#
#
# Mechanical properties :
#
#
# Convention : Reuss Voigt Hill
#
# Bulk Modulus (GPa) = 59.52649 64.29708 61.91178
# Shear Modulus (GPa) = 11.92035 25.46917 18.69476
#
# Velocity S-wave (km/s) = 2.49929 3.65325 3.12991
# Velocity P-wave (km/s) = 6.28660 7.17549 6.74570
#
# Compressibility (1/GPa) = 0.01679924
#
# Stress axis : x y z
#
# Youngs Moduli (GPa) = 78.98567 75.86069 58.92566
#
# Poissons Ratio (x) = 0.29214 0.07557
# Poissons Ratio (y) = 0.30417 0.46395
# Poissons Ratio (z) = 0.10129 0.59729
#
# Static dielectric constant tensor:
#      x y z
#    x 3.377210 0.000000 0.000000 
#    y 0.000000 3.658080 0.000000 
#    z 0.000000 0.000000 3.398780 
# 
# 
# High freq. dielectric constant tensor:
#      x y z
#    x 1.736970 0.000000 0.000000 
#    y 0.000000 1.758280 0.000000 
#    z 0.000000 0.000000 1.735390 
# 
# From -- ./inp_files/5821.got.cif
#   From: 2010.03.12/outbox.cif.g09.slc.cpg/sg28_3_cif.got.tgz:5821.got - 2010.04.14 03:39:34.
