data_PCOD8168458
_publ_section_title
;
Structure prediction by ZEFSAII (Michael W. Deem and Ramdas Pophale) SiO2 
 PCOD8168458
Probable space group: P M A 2
;
_chemical_formula_sum "Si O2"
_cell_formula_units_Z 20
_cell_length_a 14.308359
_cell_length_b 13.034770
_cell_length_c 5.067384
_cell_angle_alpha 90.000000
_cell_angle_beta 90.000000
_cell_angle_gamma 90.000000
_cell_volume 945.098375
_symmetry_space_group_name_H-M "P M A 2"
_symmetry_group_IT_number 28
_symmetry_cell_setting 'orthorhombic'
loop_
_space_group_symop_operation_xyz
x,y,z
-x,-y,z
1/2-x,y,z
1/2+x,-y,z
loop_
_atom_site_type_symbol
_atom_site_label
_atom_site_fract_x
_atom_site_fract_y
_atom_site_fract_z
Si Si1 0.540150 0.109682 0.662960
Si Si2 0.538785 0.678166 0.748771
Si Si3 0.353453 0.839883 0.164633
Si Si4 0.358951 0.402056 0.244195
Si Si5 0.355046 0.619530 0.998699
O O1 0.463548 0.200321 0.685729
O O2 0.576922 0.104990 0.364661
O O3 0.500000 0.000000 0.738974
O O4 0.624338 0.131547 0.863559
O O5 0.595259 0.616918 0.527971
O O6 0.591948 0.668860 0.026835
O O7 0.433746 0.630735 0.771116
O O8 0.250000 0.878483 0.229373
O O9 0.362058 0.716709 0.195735
O O10 0.250000 0.374009 0.259285
O O11 0.375880 0.520453 0.174103
O O12 0.250000 0.613781 0.871565
#
# Coordination Sequence:
#
# PCOD8168458 Si02
#       5
#     4   4   4   4   4
#     4  11  23  41  61  86 118 156 201 254 306 353
#     4  11  23  41  63  89 122 163 203 249 301 358
#     4  10  21  39  62  90 118 151 197 251 303 360
#     4  11  24  42  62  91 128 166 202 240 292 366
#     4   9  21  39  64  94 124 156 197 248 305 363
#
# _framework density 21.161818
#
# number of rings (size 3 to 8) (size 9 to 14) (size 15 to 20)
#    0.000    1.600    0.000    4.800    0.000    8.800 
#    0.000   19.000    0.000    1.200    0.000    0.000 
#    0.000    0.000    0.000    0.000    0.000    0.000 
#
# Total GULP energy -248042.916395 kJ/mol
# GULP energy per Si atom -12402.145820 kJ/mol
# Density = 2.111365 g / cm^3
# Si number density = 21.161818 Si / 1000 Ang^3
#
#
#
# Elastic Constant Matrix: (Units=GPa)
#
#
# Indices 1 2 3 4 5 6 
#
# 1 129.7598 45.4886 37.4914 0.0000 0.0000 0.0000
# 2 45.4886 110.7449 6.6152 0.0000 0.0000 0.0000
# 3 37.4914 6.6152 86.7744 0.0000 0.0000 0.0000
# 4 0.0000 0.0000 0.0000 23.7932 0.0000 0.0000
# 5 0.0000 0.0000 0.0000 0.0000 37.2597 0.0000
# 6 0.0000 0.0000 0.0000 0.0000 0.0000 18.7052
#
#
#
# Elastic Compliance Matrix: (Units=1/GPa)
#
#
# Indices 1 2 3 4 5 6 
#
# 1 0.010301 -0.003984 -0.004147 0.000000 0.000000 0.000000
# 2 -0.003984 0.010612 0.000912 0.000000 0.000000 0.000000
# 3 -0.004147 0.000912 0.013246 0.000000 0.000000 0.000000
# 4 0.000000 0.000000 0.000000 0.042029 0.000000 0.000000
# 5 0.000000 0.000000 0.000000 0.000000 0.026839 0.000000
# 6 0.000000 0.000000 0.000000 0.000000 0.000000 0.053461
#
#
# Mechanical properties :
#
#
# Convention : Reuss Voigt Hill
#
# Bulk Modulus (GPa) = 50.70409 56.27439 53.48924
# Shear Modulus (GPa) = 28.16928 31.79723 29.98326
#
# Velocity S-wave (km/s) = 3.65243 3.88051 3.76820
# Velocity P-wave (km/s) = 6.46523 6.83579 6.65309
#
# Compressibility (1/GPa) = 0.01972227
#
# Stress axis : x y z
#
# Youngs Moduli (GPa) = 97.07600 94.23730 75.49253
#
# Poissons Ratio (x) = 0.37540 0.31307
# Poissons Ratio (y) = 0.38670 -0.06886
# Poissons Ratio (z) = 0.40258 -0.08596
#
# Static dielectric constant tensor:
#      x y z
#    x 4.001310 0.000000 0.000000 
#    y 0.000000 3.813410 0.000000 
#    z 0.000000 0.000000 3.643620 
# 
# 
# High freq. dielectric constant tensor:
#      x y z
#    x 1.834130 0.000000 0.000000 
#    y 0.000000 1.820710 0.000000 
#    z 0.000000 0.000000 1.830560 
# 
# From -- ./inp_files/703.got.cif
#   From: 2010.03.12/outbox.cif.g09.slc.cpg/sg28_1_cif.got.tgz:703.got - 2010.04.14 03:39:34.
