data_PCOD8168242
_publ_section_title
;
Structure prediction by ZEFSAII (Michael W. Deem and Ramdas Pophale) SiO2 
 PCOD8168242
Probable space group: P M A 2
;
_chemical_formula_sum "Si O2"
_cell_formula_units_Z 28
_cell_length_a 8.489534
_cell_length_b 9.433289
_cell_length_c 18.025986
_cell_angle_alpha 90.000000
_cell_angle_beta 90.000000
_cell_angle_gamma 90.000000
_cell_volume 1443.597167
_symmetry_space_group_name_H-M "P M A 2"
_symmetry_group_IT_number 28
_symmetry_cell_setting 'orthorhombic'
loop_
_space_group_symop_operation_xyz
x,y,z
-x,-y,z
1/2-x,y,z
1/2+x,-y,z
loop_
_atom_site_type_symbol
_atom_site_label
_atom_site_fract_x
_atom_site_fract_y
_atom_site_fract_z
Si Si1 0.064908 0.656541 0.487770
Si Si2 0.063205 0.159481 0.618545
Si Si3 0.063733 0.343472 0.074008
Si Si4 0.066370 0.154219 0.779538
Si Si5 0.563241 0.842478 0.939235
Si Si6 0.935610 0.151964 0.200424
Si Si7 0.564486 0.850436 0.362098
O O1 0.250000 0.654551 0.472088
O O2 0.000000 0.500000 0.498597
O O3 0.029544 0.743140 0.561811
O O4 0.975884 0.726385 0.418725
O O5 0.250000 0.161021 0.601996
O O6 0.024396 0.227824 0.700626
O O7 0.000000 0.000000 0.611247
O O8 0.250000 0.345606 0.073309
O O9 0.000000 0.500000 0.068495
O O10 0.006065 0.274408 0.149898
O O11 0.994379 0.257527 0.003525
O O12 0.250000 0.138056 0.785791
O O13 0.007709 0.221729 0.858091
O O14 0.000000 0.000000 0.773576
O O15 0.750000 0.847985 0.945183
O O16 0.500000 0.000000 0.951177
O O17 0.750000 0.150858 0.193134
O O18 0.984018 0.185907 0.284292
O O19 0.000000 0.000000 0.173997
O O20 0.750000 0.862635 0.350281
O O21 0.500000 0.000000 0.393581
#
# Coordination Sequence:
#
# PCOD8168242 Si02
#       7
#     4   4   4   4   4   4   4
#     4  12  25  41  58  81 113 149 188 229 277 331
#     4  10  19  34  57  84 113 147 187 231 278 328
#     4  11  23  38  55  79 112 150 190 231 278 331
#     4   8  15  29  51  79 109 140 179 228 277 325
#     4   9  18  33  55  81 109 142 183 230 278 329
#     4  11  22  39  62  88 115 145 183 227 275 326
#     4  11  22  40  64  90 116 145 183 226 273 324
#
# _framework density 19.395994000000002
#
# number of rings (size 3 to 8) (size 9 to 14) (size 15 to 20)
#    0.000    1.714    0.000    6.429    0.000    3.429 
#    0.000    3.571    0.000    1.714    0.000    0.000 
#    0.000    0.000    0.000    0.000    0.000    0.000 
#
# Total GULP energy -347050.891866 kJ/mol
# GULP energy per Si atom -12394.674709 kJ/mol
# Density = 1.935185 g / cm^3
# Si number density = 19.395994 Si / 1000 Ang^3
#
#
#
# Elastic Constant Matrix: (Units=GPa)
#
#
# Indices 1 2 3 4 5 6 
#
# 1 51.2362 19.9915 14.0829 0.0000 0.0000 0.0000
# 2 19.9915 112.0713 65.1802 0.0000 0.0000 0.0000
# 3 14.0829 65.1802 116.4483 0.0000 0.0000 0.0000
# 4 0.0000 0.0000 0.0000 -9.3316 0.0000 0.0000
# 5 0.0000 0.0000 0.0000 0.0000 21.7669 0.0000
# 6 0.0000 0.0000 0.0000 0.0000 0.0000 31.3976
#
#
#
# Elastic Compliance Matrix: (Units=1/GPa)
#
#
# Indices 1 2 3 4 5 6 
#
# 1 0.021011 -0.003366 -0.000657 0.000000 0.000000 0.000000
# 2 -0.003366 0.013769 -0.007300 0.000000 0.000000 0.000000
# 3 -0.000657 -0.007300 0.012753 0.000000 0.000000 0.000000
# 4 0.000000 0.000000 0.000000 -0.107163 0.000000 0.000000
# 5 0.000000 0.000000 0.000000 0.000000 0.045941 0.000000
# 6 0.000000 0.000000 0.000000 0.000000 0.000000 0.031850
#
#
# Mechanical properties :
#
#
# Convention : Reuss Voigt Hill
#
# Bulk Modulus (GPa) = 40.18069 53.14055 46.66062
# Shear Modulus (GPa) = 101.82711 20.79998 61.31355
#
# Velocity S-wave (km/s) = 7.25348 3.27828 5.62851
# Velocity P-wave (km/s) = 9.53476 6.46426 8.14550
#
# Compressibility (1/GPa) = 0.02488758
#
# Stress axis : x y z
#
# Youngs Moduli (GPa) = 47.59330 72.62754 78.41326
#
# Poissons Ratio (x) = 0.24446 0.05152
# Poissons Ratio (y) = 0.16020 0.57241
# Poissons Ratio (z) = 0.03127 0.53017
#
# Static dielectric constant tensor:
#      x y z
#    x 3.644030 0.000000 0.000000 
#    y 0.000000 3.398960 0.000000 
#    z 0.000000 0.000000 4.193350 
# 
# 
# High freq. dielectric constant tensor:
#      x y z
#    x 1.766470 0.000000 0.000000 
#    y 0.000000 1.728380 0.000000 
#    z 0.000000 0.000000 1.782180 
# 
# From -- ./inp_files/6835.got.cif
#   From: 2010.03.12/outbox.cif.g09.slc.cpg/sg28_4_cif.got.tgz:6835.got - 2010.04.14 03:39:34.
