data_PCOD8168387
_publ_section_title
;
Structure prediction by ZEFSAII (Michael W. Deem and Ramdas Pophale) SiO2 
 PCOD8168387
Probable space group: P M A 2
;
_chemical_formula_sum "Si O2"
_cell_formula_units_Z 32
_cell_length_a 10.824361
_cell_length_b 16.212719
_cell_length_c 8.468926
_cell_angle_alpha 90.000000
_cell_angle_beta 90.000000
_cell_angle_gamma 90.000000
_cell_volume 1486.231499
_symmetry_space_group_name_H-M "P M A 2"
_symmetry_group_IT_number 28
_symmetry_cell_setting 'orthorhombic'
loop_
_space_group_symop_operation_xyz
x,y,z
-x,-y,z
1/2-x,y,z
1/2+x,-y,z
loop_
_atom_site_type_symbol
_atom_site_label
_atom_site_fract_x
_atom_site_fract_y
_atom_site_fract_z
Si Si1 0.385338 0.723804 0.200880
Si Si2 0.971153 0.849082 0.998704
Si Si3 0.108700 0.066286 0.301526
Si Si4 0.616252 0.466027 0.233390
Si Si5 0.614919 0.724183 0.765357
Si Si6 0.387068 0.450656 0.895528
Si Si7 0.526936 0.194150 0.503764
Si Si8 0.889774 0.063458 0.740585
O O1 0.250000 0.741472 0.133516
O O2 0.413363 0.627433 0.188783
O O3 0.389774 0.757426 0.379184
O O4 0.479249 0.770955 0.091717
O O5 0.883838 0.809537 0.865598
O O6 0.080933 0.900102 0.914198
O O7 0.896736 0.908183 0.117239
O O8 0.250000 0.033559 0.334305
O O9 0.082745 0.143912 0.415291
O O10 0.000000 0.000000 0.335833
O O11 0.500000 0.500000 0.338559
O O12 0.750000 0.473134 0.320074
O O13 0.617445 0.524343 0.079100
O O14 0.750000 0.711456 0.694513
O O15 0.579434 0.645797 0.873646
O O16 0.526096 0.734197 0.615958
O O17 0.500000 0.500000 0.810784
O O18 0.250000 0.470384 0.822885
O O19 0.611923 0.133315 0.606507
O O20 0.750000 0.024672 0.744983
O O21 0.000000 0.000000 0.696449
#
# Coordination Sequence:
#
# PCOD8168387 Si02
#       8
#     4   4   4   4   4   4   4   4
#     4  10  20  37  60  85 117 155 194 240 290 342
#     4  10  21  36  59  88 118 148 192 246 297 348
#     4  11  24  40  60  86 116 153 196 243 296 353
#     4   9  17  31  54  84 114 145 183 227 279 337
#     4  10  20  37  60  85 117 155 194 240 290 342
#     4   9  17  31  54  84 114 145 183 227 279 337
#     4  10  23  40  59  82 114 154 200 242 287 344
#     4  11  24  40  60  86 116 153 196 243 296 353
#
# _framework density 21.530965999999999
#
# number of rings (size 3 to 8) (size 9 to 14) (size 15 to 20)
#    0.000    2.000    0.000    3.750    0.000    8.000 
#    0.000    6.875    0.000    3.000    0.000    0.000 
#    0.000    0.000    0.000    0.000    0.000    0.000 
#
# Total GULP energy -396434.818758 kJ/mol
# GULP energy per Si atom -12388.588086 kJ/mol
# Density = 2.148196 g / cm^3
# Si number density = 21.530966 Si / 1000 Ang^3
#
#
#
# Elastic Constant Matrix: (Units=GPa)
#
#
# Indices 1 2 3 4 5 6 
#
# 1 155.7353 40.5685 0.6970 0.0000 0.0000 0.0000
# 2 40.5685 85.0967 16.0631 0.0000 0.0000 0.0000
# 3 0.6970 16.0631 62.2387 0.0000 0.0000 0.0000
# 4 0.0000 0.0000 0.0000 25.7008 0.0000 0.0000
# 5 0.0000 0.0000 0.0000 0.0000 6.2447 0.0000
# 6 0.0000 0.0000 0.0000 0.0000 0.0000 30.5758
#
#
#
# Elastic Compliance Matrix: (Units=1/GPa)
#
#
# Indices 1 2 3 4 5 6 
#
# 1 0.007376 -0.003680 0.000867 0.000000 0.000000 0.000000
# 2 -0.003680 0.014189 -0.003621 0.000000 0.000000 0.000000
# 3 0.000867 -0.003621 0.016992 0.000000 0.000000 0.000000
# 4 0.000000 0.000000 0.000000 0.038909 0.000000 0.000000
# 5 0.000000 0.000000 0.000000 0.000000 0.160135 0.000000
# 6 0.000000 0.000000 0.000000 0.000000 0.000000 0.032706
#
#
# Mechanical properties :
#
#
# Convention : Reuss Voigt Hill
#
# Bulk Modulus (GPa) = 38.92619 46.41421 42.67020
# Shear Modulus (GPa) = 17.13867 28.88707 23.01287
#
# Velocity S-wave (km/s) = 2.82441 3.66683 3.27284
# Velocity P-wave (km/s) = 5.36235 6.28739 5.84321
#
# Compressibility (1/GPa) = 0.02568964
#
# Stress axis : x y z
#
# Youngs Moduli (GPa) = 135.57651 70.47601 58.85136
#
# Poissons Ratio (x) = 0.25935 -0.05103
# Poissons Ratio (y) = 0.49893 0.21309
# Poissons Ratio (z) = -0.11757 0.25518
#
# Static dielectric constant tensor:
#      x y z
#    x 4.328060 0.000000 0.000000 
#    y 0.000000 3.891420 0.000000 
#    z 0.000000 0.000000 3.742010 
# 
# 
# High freq. dielectric constant tensor:
#      x y z
#    x 1.853560 0.000000 0.000000 
#    y 0.000000 1.845680 0.000000 
#    z 0.000000 0.000000 1.820460 
# 
# From -- ./inp_files/3114.got.cif
#   From: 2010.03.12/outbox.cif.g09.slc.cpg/sg28_2_cif.got.tgz:3114.got - 2010.04.14 03:39:34.
