data_PCOD8168625
_publ_section_title
;
Structure prediction by ZEFSAII (Michael W. Deem and Ramdas Pophale) SiO2 
 PCOD8168625
Probable space group: P C A 21
;
_chemical_formula_sum "Si O2"
_cell_formula_units_Z 32
_cell_length_a 17.662186
_cell_length_b 9.999644
_cell_length_c 9.350771
_cell_angle_alpha 90.000000
_cell_angle_beta 90.000000
_cell_angle_gamma 90.000000
_cell_volume 1651.491771
_symmetry_space_group_name_H-M "P C A 21"
_symmetry_group_IT_number 29
_symmetry_cell_setting 'orthorhombic'
loop_
_space_group_symop_operation_xyz
x,y,z
-x,-y,1/2+z
1/2-x,y,1/2+z
1/2+x,-y,z
loop_
_atom_site_type_symbol
_atom_site_label
_atom_site_fract_x
_atom_site_fract_y
_atom_site_fract_z
Si Si1 0.205241 0.241751 0.542400
Si Si2 0.741802 0.579799 0.291736
Si Si3 0.024548 0.071932 0.272504
Si Si4 0.164917 0.037719 0.095531
Si Si5 0.591118 0.988480 0.552287
Si Si6 0.691682 0.407205 0.043883
Si Si7 0.392114 0.804809 0.410283
Si Si8 0.715724 0.174109 0.659823
O O1 0.205759 0.337638 0.680993
O O2 0.194744 0.320995 0.393508
O O3 0.281754 0.152500 0.529482
O O4 0.130356 0.154972 0.554995
O O5 0.684659 0.494908 0.189480
O O6 0.793092 0.492720 0.400415
O O7 0.101939 0.114116 0.191606
O O8 0.048815 0.981025 0.405104
O O9 0.973492 0.198051 0.329540
O O10 0.970937 0.980583 0.176263
O O11 0.216170 0.932596 0.186375
O O12 0.119820 0.952886 0.976162
O O13 0.650117 0.107129 0.567350
O O14 0.759986 0.303363 0.070473
O O15 0.614351 0.319319 0.021950
O O16 0.318992 0.780554 0.309907
#
# Coordination Sequence:
#
# PCOD8168625 Si02
#       8
#     4   4   4   4   4   4   4   4
#     4  10  22  37  59  88 119 149 191 249 279 350
#     4  10  21  35  58  87 110 153 197 245 284 317
#     4  11  21  36  53  90 119 159 177 227 296 375
#     4  10  21  33  59  88 116 147 188 228 307 349
#     4  10  22  36  57  87 126 146 188 225 310 349
#     4  10  19  37  57  86 111 146 201 245 280 330
#     4  10  20  35  55  87 122 148 183 245 290 343
#     4   9  20  33  60  87 115 144 183 254 286 335
#
# _framework density 19.376421000000001
#
# number of rings (size 3 to 8) (size 9 to 14) (size 15 to 20)
#    0.000    2.000    2.500    0.750   10.500    0.000 
#    0.000    0.000    0.000    4.500    9.750    0.000 
#    0.000    0.000    0.000    0.000    0.000    0.000 
#
# Total GULP energy -396497.930092 kJ/mol
# GULP energy per Si atom -12390.560315 kJ/mol
# Density = 1.933232 g / cm^3
# Si number density = 19.376421 Si / 1000 Ang^3
#
#
#
# Elastic Constant Matrix: (Units=GPa)
#
#
# Indices 1 2 3 4 5 6 
#
# 1 102.3566 32.8654 41.9585 0.0000 0.0000 0.0000
# 2 32.8654 96.0453 47.2934 0.0000 0.0000 0.0000
# 3 41.9585 47.2934 126.1130 0.0000 0.0000 0.0000
# 4 0.0000 0.0000 0.0000 34.2410 0.0000 0.0000
# 5 0.0000 0.0000 0.0000 0.0000 33.9591 0.0000
# 6 0.0000 0.0000 0.0000 0.0000 0.0000 11.0158
#
#
#
# Elastic Compliance Matrix: (Units=1/GPa)
#
#
# Indices 1 2 3 4 5 6 
#
# 1 0.011813 -0.002584 -0.002961 0.000000 0.000000 0.000000
# 2 -0.002584 0.013335 -0.004141 0.000000 0.000000 0.000000
# 3 -0.002961 -0.004141 0.010468 0.000000 0.000000 0.000000
# 4 0.000000 0.000000 0.000000 0.029205 0.000000 0.000000
# 5 0.000000 0.000000 0.000000 0.000000 0.029447 0.000000
# 6 0.000000 0.000000 0.000000 0.000000 0.000000 0.090779
#
#
# Mechanical properties :
#
#
# Convention : Reuss Voigt Hill
#
# Bulk Modulus (GPa) = 61.56475 63.19438 62.37956
# Shear Modulus (GPa) = 23.82836 29.33635 26.58236
#
# Velocity S-wave (km/s) = 3.51060 3.89527 3.70792
# Velocity P-wave (km/s) = 6.94798 7.27432 7.11302
#
# Compressibility (1/GPa) = 0.01624306
#
# Stress axis : x y z
#
# Youngs Moduli (GPa) = 84.64944 74.99011 95.53351
#
# Poissons Ratio (x) = 0.19379 0.28290
# Poissons Ratio (y) = 0.21875 0.39560
# Poissons Ratio (z) = 0.25067 0.31053
#
# Static dielectric constant tensor:
#      x y z
#    x 3.519240 0.000000 0.000000 
#    y 0.000000 3.563810 0.000000 
#    z 0.000000 0.000000 3.820070 
# 
# 
# High freq. dielectric constant tensor:
#      x y z
#    x 1.734190 0.000000 0.000000 
#    y 0.000000 1.738690 0.000000 
#    z 0.000000 0.000000 1.771290 
# 
# From -- ./inp_files/2193.got.cif
#   From: 2010.03.12/outbox.cif.g09.slc.cpg/sg29_2_cif.got.tgz:2193.got - 2010.04.14 03:43:10.
