data_PCOD8168755
_publ_section_title
;
Structure prediction by ZEFSAII (Michael W. Deem and Ramdas Pophale) SiO2 
 PCOD8168755
Probable space group: P C A 21
;
_chemical_formula_sum "Si O2"
_cell_formula_units_Z 32
_cell_length_a 11.016990
_cell_length_b 10.811206
_cell_length_c 12.652136
_cell_angle_alpha 90.000000
_cell_angle_beta 90.000000
_cell_angle_gamma 90.000000
_cell_volume 1506.957310
_symmetry_space_group_name_H-M "P C A 21"
_symmetry_group_IT_number 29
_symmetry_cell_setting 'orthorhombic'
loop_
_space_group_symop_operation_xyz
x,y,z
-x,-y,1/2+z
1/2-x,y,1/2+z
1/2+x,-y,z
loop_
_atom_site_type_symbol
_atom_site_label
_atom_site_fract_x
_atom_site_fract_y
_atom_site_fract_z
Si Si1 0.157571 0.332511 0.957510
Si Si2 0.111421 0.870829 0.834136
Si Si3 0.631182 0.942532 0.013439
Si Si4 0.436441 0.318443 0.906669
Si Si5 0.393076 0.579030 0.577996
Si Si6 0.297801 0.718688 0.959627
Si Si7 0.031205 0.568318 0.313996
Si Si8 0.376626 0.940983 0.092855
O O1 0.296205 0.314541 0.930478
O O2 0.098000 0.370737 0.844542
O O3 0.110258 0.203603 0.004206
O O4 0.125099 0.435755 0.045618
O O5 0.205562 0.766381 0.870864
O O6 0.131470 0.895301 0.711985
O O7 0.977957 0.814904 0.860486
O O8 0.133254 0.997876 0.897046
O O9 0.512107 0.000006 0.074958
O O10 0.759623 0.970405 0.072649
O O11 0.472538 0.420116 0.819039
O O12 0.499671 0.354209 0.015916
O O13 0.268765 0.651050 0.556256
O O14 0.425778 0.603684 0.698675
O O15 0.379600 0.616315 0.905080
O O16 0.373933 0.829599 0.009092
#
# Coordination Sequence:
#
# PCOD8168755 Si02
#       8
#     4   4   4   4   4   4   4   4
#     4  11  23  44  64 100 136 172 230 294 331 426
#     4  10  24  44  67  92 133 181 224 279 353 407
#     4  11  25  45  66  98 135 174 236 289 334 423
#     4  10  23  42  64  97 136 170 228 287 337 421
#     4  10  23  41  65  99 139 178 216 278 363 419
#     4  10  20  44  66  96 134 172 225 280 336 435
#     4  11  22  40  68  98 134 179 217 281 358 417
#     4  11  24  44  72  94 133 186 228 288 348 412
#
# _framework density 21.234840999999999
#
# number of rings (size 3 to 8) (size 9 to 14) (size 15 to 20)
#    0.000    1.500    2.500    1.500    1.750    4.000 
#    9.000    0.000    0.000    0.000    0.000    0.000 
#    0.000    0.000    0.000    0.000    0.000    0.000 
#
# Total GULP energy -396716.289590 kJ/mol
# GULP energy per Si atom -12397.384050 kJ/mol
# Density = 2.118651 g / cm^3
# Si number density = 21.234841 Si / 1000 Ang^3
#
#
#
# Elastic Constant Matrix: (Units=GPa)
#
#
# Indices 1 2 3 4 5 6 
#
# 1 110.9539 9.2443 10.9312 0.0000 0.0000 0.0000
# 2 9.2443 74.5408 2.3524 0.0000 0.0000 0.0000
# 3 10.9312 2.3524 100.3313 0.0000 0.0000 0.0000
# 4 0.0000 0.0000 0.0000 19.1983 0.0000 0.0000
# 5 0.0000 0.0000 0.0000 0.0000 20.9177 0.0000
# 6 0.0000 0.0000 0.0000 0.0000 0.0000 33.8197
#
#
#
# Elastic Compliance Matrix: (Units=1/GPa)
#
#
# Indices 1 2 3 4 5 6 
#
# 1 0.009201 -0.001110 -0.000976 0.000000 0.000000 0.000000
# 2 -0.001110 0.013559 -0.000197 0.000000 0.000000 0.000000
# 3 -0.000976 -0.000197 0.010078 0.000000 0.000000 0.000000
# 4 0.000000 0.000000 0.000000 0.052088 0.000000 0.000000
# 5 0.000000 0.000000 0.000000 0.000000 0.047806 0.000000
# 6 0.000000 0.000000 0.000000 0.000000 0.000000 0.029569
#
#
# Mechanical properties :
#
#
# Convention : Reuss Voigt Hill
#
# Bulk Modulus (GPa) = 35.37148 36.76462 36.06805
# Shear Modulus (GPa) = 28.36187 32.34036 30.35112
#
# Velocity S-wave (km/s) = 3.65859 3.90678 3.78472
# Velocity P-wave (km/s) = 5.87712 6.14015 6.01007
#
# Compressibility (1/GPa) = 0.02827137
#
# Stress axis : x y z
#
# Youngs Moduli (GPa) = 108.67835 73.74963 99.22619
#
# Poissons Ratio (x) = 0.08189 0.09689
# Poissons Ratio (y) = 0.12067 0.01954
# Poissons Ratio (z) = 0.10612 0.01452
#
# Static dielectric constant tensor:
#      x y z
#    x 4.182260 0.000000 0.000000 
#    y 0.000000 3.961210 0.000000 
#    z 0.000000 0.000000 3.553940 
# 
# 
# High freq. dielectric constant tensor:
#      x y z
#    x 1.853040 0.000000 0.000000 
#    y 0.000000 1.834970 0.000000 
#    z 0.000000 0.000000 1.817730 
# 
# From -- ./inp_files/3214.got.cif
#   From: 2010.03.12/outbox.cif.g09.slc.cpg/sg29_2_cif.got.tgz:3214.got - 2010.04.14 03:43:10.
