data_PCOD8168024
_publ_section_title
;
Structure prediction by ZEFSAII (Michael W. Deem and Ramdas Pophale) SiO2 
 PCOD8168024
Probable space group: P M A 2
;
_chemical_formula_sum "Si O2"
_cell_formula_units_Z 32
_cell_length_a 8.734326
_cell_length_b 14.004046
_cell_length_c 12.769084
_cell_angle_alpha 90.000000
_cell_angle_beta 90.000000
_cell_angle_gamma 90.000000
_cell_volume 1561.862041
_symmetry_space_group_name_H-M "P M A 2"
_symmetry_group_IT_number 28
_symmetry_cell_setting 'orthorhombic'
loop_
_space_group_symop_operation_xyz
x,y,z
-x,-y,z
1/2-x,y,z
1/2+x,-y,z
loop_
_atom_site_type_symbol
_atom_site_label
_atom_site_fract_x
_atom_site_fract_y
_atom_site_fract_z
Si Si1 0.426134 0.100637 0.875000
Si Si2 0.568672 0.105195 0.084292
Si Si3 0.425288 0.292312 0.391199
Si Si4 0.073196 0.603511 0.202306
Si Si5 0.426805 0.603511 0.966311
Si Si6 0.925290 0.707673 0.777414
Si Si7 0.928637 0.395595 0.584299
Si Si8 0.073868 0.100636 0.293574
O O1 0.250000 0.081035 0.902909
O O2 0.442733 0.176869 0.780431
O O3 0.500000 0.000000 0.840618
O O4 0.506921 0.150256 0.976249
O O5 0.750000 0.109046 0.084285
O O6 0.506929 0.150267 0.192333
O O7 0.500000 0.000000 0.084308
O O8 0.250000 0.321831 0.410995
O O9 0.478494 0.330202 0.279309
O O10 0.526219 0.335837 0.482688
O O11 0.442719 0.176856 0.388155
O O12 0.250000 0.597917 0.237432
O O13 0.060316 0.645631 0.084309
O O14 0.000000 0.500000 0.207128
O O15 0.500000 0.500000 0.961483
O O16 0.250000 0.597918 0.931186
O O17 0.521508 0.669804 0.889314
O O18 0.750000 0.678159 0.757622
O O19 0.026218 0.664113 0.685944
O O20 0.750000 0.410822 0.584298
O O21 0.000000 0.500000 0.584261
O O22 0.250000 0.081036 0.265655
O O23 0.000000 0.000000 0.327953
#
# Coordination Sequence:
#
# PCOD8168024 Si02
#       8
#     4   4   4   4   4   4   4   4
#     4  10  21  37  58  86 122 163 205 252 302 357
#     4  10  18  30  52  80 117 160 203 248 294 352
#     4  11  24  41  63  90 122 159 204 253 306 363
#     4  10  21  37  58  87 122 159 199 245 303 366
#     4  10  21  37  58  87 122 159 199 245 303 366
#     4  11  24  41  63  90 122 159 204 253 306 363
#     4  12  26  46  71  94 121 156 201 254 308 366
#     4  10  21  37  58  86 122 163 205 252 302 357
#
# _framework density 20.488365000000002
#
# number of rings (size 3 to 8) (size 9 to 14) (size 15 to 20)
#    0.000    1.500    0.000    6.750    1.750    5.500 
#    0.000    0.625    0.000    0.000    0.000    0.000 
#    0.000    0.000    0.000    0.000    0.000    0.000 
#
# Total GULP energy -396764.043598 kJ/mol
# GULP energy per Si atom -12398.876362 kJ/mol
# Density = 2.044173 g / cm^3
# Si number density = 20.488365 Si / 1000 Ang^3
#
#
#
# Elastic Constant Matrix: (Units=GPa)
#
#
# Indices 1 2 3 4 5 6 
#
# 1 170.2286 52.3589 49.4361 0.0000 0.0000 0.0000
# 2 52.3589 91.6849 59.8037 0.0000 0.0000 0.0000
# 3 49.4361 59.8037 97.5839 0.0000 0.0000 0.0000
# 4 0.0000 0.0000 0.0000 30.7590 0.0000 0.0000
# 5 0.0000 0.0000 0.0000 0.0000 36.4983 0.0000
# 6 0.0000 0.0000 0.0000 0.0000 0.0000 31.4316
#
#
#
# Elastic Compliance Matrix: (Units=1/GPa)
#
#
# Indices 1 2 3 4 5 6 
#
# 1 0.007335 -0.002940 -0.001914 0.000000 0.000000 0.000000
# 2 -0.002940 0.019349 -0.010368 0.000000 0.000000 0.000000
# 3 -0.001914 -0.010368 0.017571 0.000000 0.000000 0.000000
# 4 0.000000 0.000000 0.000000 0.032511 0.000000 0.000000
# 5 0.000000 0.000000 0.000000 0.000000 0.027399 0.000000
# 6 0.000000 0.000000 0.000000 0.000000 0.000000 0.031815
#
#
# Mechanical properties :
#
#
# Convention : Reuss Voigt Hill
#
# Bulk Modulus (GPa) = 72.41100 75.85498 74.13299
# Shear Modulus (GPa) = 29.23500 32.93102 31.08301
#
# Velocity S-wave (km/s) = 3.78154 4.01347 3.89923
# Velocity P-wave (km/s) = 7.38146 7.65383 7.51888
#
# Compressibility (1/GPa) = 0.01381006
#
# Stress axis : x y z
#
# Youngs Moduli (GPa) = 136.33985 51.68194 56.91087
#
# Poissons Ratio (x) = 0.15196 0.10891
# Poissons Ratio (y) = 0.40088 0.59008
# Poissons Ratio (z) = 0.26092 0.53586
#
# Static dielectric constant tensor:
#      x y z
#    x 3.865800 0.000000 0.000000 
#    y 0.000000 3.668400 0.000000 
#    z 0.000000 0.000000 4.154980 
# 
# 
# High freq. dielectric constant tensor:
#      x y z
#    x 1.819790 0.000000 0.000000 
#    y 0.000000 1.808050 0.000000 
#    z 0.000000 0.000000 1.784930 
# 
# From -- ./inp_files/5105.got.cif
#   From: 2010.03.12/outbox.cif.g09.slc.cpg/sg28_3_cif.got.tgz:5105.got - 2010.04.14 03:39:34.
