data_PCOD8168114
_publ_section_title
;
Structure prediction by ZEFSAII (Michael W. Deem and Ramdas Pophale) SiO2 
 PCOD8168114
Probable space group: P M A 2
;
_chemical_formula_sum "Si O2"
_cell_formula_units_Z 32
_cell_length_a 9.214483
_cell_length_b 14.496708
_cell_length_c 12.089474
_cell_angle_alpha 90.000000
_cell_angle_beta 90.000000
_cell_angle_gamma 90.000000
_cell_volume 1614.907940
_symmetry_space_group_name_H-M "P M A 2"
_symmetry_group_IT_number 28
_symmetry_cell_setting 'orthorhombic'
loop_
_space_group_symop_operation_xyz
x,y,z
-x,-y,z
1/2-x,y,z
1/2+x,-y,z
loop_
_atom_site_type_symbol
_atom_site_label
_atom_site_fract_x
_atom_site_fract_y
_atom_site_fract_z
Si Si1 0.582632 0.273015 0.252380
Si Si2 0.412746 0.418257 0.832137
Si Si3 0.915209 0.714733 0.636508
Si Si4 0.416618 0.673226 0.010171
Si Si5 0.913513 0.848691 0.956304
Si Si6 0.583881 0.910056 0.199170
Si Si7 0.921760 0.401476 0.456992
Si Si8 0.917056 0.911853 0.715172
O O1 0.750000 0.241916 0.261787
O O2 0.555610 0.331198 0.141039
O O3 0.485460 0.181215 0.253739
O O4 0.536953 0.341705 0.349843
O O5 0.500000 0.500000 0.769651
O O6 0.250000 0.451711 0.852015
O O7 0.419653 0.325980 0.760110
O O8 0.487423 0.404518 0.951463
O O9 0.750000 0.708830 0.590443
O O10 0.969105 0.820075 0.649895
O O11 0.023737 0.657474 0.560778
O O12 0.250000 0.657742 0.979161
O O13 0.464554 0.771517 0.963073
O O14 0.750000 0.805393 0.949315
O O15 0.945994 0.907358 0.846771
O O16 0.925784 0.911039 0.065856
O O17 0.750000 0.914919 0.239052
O O18 0.500000 0.000000 0.243851
O O19 0.750000 0.418068 0.467803
O O20 0.000000 0.500000 0.451203
O O21 0.750000 0.927399 0.689997
O O22 0.000000 0.000000 0.666016
#
# Coordination Sequence:
#
# PCOD8168114 Si02
#       8
#     4   4   4   4   4   4   4   4
#     4   9  21  40  59  84 118 152 194 244 291 344
#     4  11  22  37  56  82 117 152 189 234 289 350
#     4  10  22  41  62  84 117 153 192 243 290 342
#     4  10  19  33  55  83 116 153 191 233 286 343
#     4   9  17  32  51  77 116 159 197 234 282 335
#     4  10  19  31  54  85 120 160 200 240 287 343
#     4  11  24  43  67  90 113 145 192 246 298 353
#     4  10  20  35  55  83 118 155 193 235 284 339
#
# _framework density 19.815369
#
# number of rings (size 3 to 8) (size 9 to 14) (size 15 to 20)
#    0.000    2.000    1.250    2.250    0.000    5.500 
#    0.000    1.875    0.000    1.500    0.000    0.000 
#    0.000    0.000    0.000    0.000    0.000    0.000 
#
# Total GULP energy -396783.168284 kJ/mol
# GULP energy per Si atom -12399.474009 kJ/mol
# Density = 1.977027 g / cm^3
# Si number density = 19.815369 Si / 1000 Ang^3
#
#
#
# Elastic Constant Matrix: (Units=GPa)
#
#
# Indices 1 2 3 4 5 6 
#
# 1 123.9853 75.2286 51.9498 0.0000 0.0000 0.0000
# 2 75.2286 143.5958 49.3534 0.0000 0.0000 0.0000
# 3 51.9498 49.3534 77.7869 0.0000 0.0000 0.0000
# 4 0.0000 0.0000 0.0000 24.1317 0.0000 0.0000
# 5 0.0000 0.0000 0.0000 0.0000 23.9910 0.0000
# 6 0.0000 0.0000 0.0000 0.0000 0.0000 39.5935
#
#
#
# Elastic Compliance Matrix: (Units=1/GPa)
#
#
# Indices 1 2 3 4 5 6 
#
# 1 0.013628 -0.005130 -0.005846 0.000000 0.000000 0.000000
# 2 -0.005130 0.010837 -0.003450 0.000000 0.000000 0.000000
# 3 -0.005846 -0.003450 0.018949 0.000000 0.000000 0.000000
# 4 0.000000 0.000000 0.000000 0.041439 0.000000 0.000000
# 5 0.000000 0.000000 0.000000 0.000000 0.041682 0.000000
# 6 0.000000 0.000000 0.000000 0.000000 0.000000 0.025257
#
#
# Mechanical properties :
#
#
# Convention : Reuss Voigt Hill
#
# Bulk Modulus (GPa) = 68.67464 77.60353 73.13908
# Shear Modulus (GPa) = 26.95435 28.79898 27.87667
#
# Velocity S-wave (km/s) = 3.69219 3.81644 3.75483
# Velocity P-wave (km/s) = 7.27385 7.65954 7.46919
#
# Compressibility (1/GPa) = 0.01456142
#
# Stress axis : x y z
#
# Youngs Moduli (GPa) = 73.37911 92.27389 52.77329
#
# Poissons Ratio (x) = 0.47338 0.30854
# Poissons Ratio (y) = 0.37644 0.18206
# Poissons Ratio (z) = 0.42901 0.31833
#
# Static dielectric constant tensor:
#      x y z
#    x 3.667420 0.000000 0.000000 
#    y 0.000000 3.538990 0.000000 
#    z 0.000000 0.000000 3.464440 
# 
# 
# High freq. dielectric constant tensor:
#      x y z
#    x 1.778410 0.000000 0.000000 
#    y 0.000000 1.774600 0.000000 
#    z 0.000000 0.000000 1.752980 
# 
# From -- ./inp_files/5080.got.cif
#   From: 2010.03.12/outbox.cif.g09.slc.cpg/sg28_3_cif.got.tgz:5080.got - 2010.04.14 03:39:34.
