data_PCOD8168051
_publ_section_title
;
Structure prediction by ZEFSAII (Michael W. Deem and Ramdas Pophale) SiO2 
 PCOD8168051
Probable space group: P M A 2
;
_chemical_formula_sum "Si O2"
_cell_formula_units_Z 28
_cell_length_a 8.748416
_cell_length_b 14.450481
_cell_length_c 12.855084
_cell_angle_alpha 90.000000
_cell_angle_beta 90.000000
_cell_angle_gamma 90.000000
_cell_volume 1625.124540
_symmetry_space_group_name_H-M "P M A 2"
_symmetry_group_IT_number 28
_symmetry_cell_setting 'orthorhombic'
loop_
_space_group_symop_operation_xyz
x,y,z
-x,-y,z
1/2-x,y,z
1/2+x,-y,z
loop_
_atom_site_type_symbol
_atom_site_label
_atom_site_fract_x
_atom_site_fract_y
_atom_site_fract_z
Si Si1 0.430909 0.402824 0.633440
Si Si2 0.430659 0.399242 0.021048
Si Si3 0.570295 0.596663 0.400221
Si Si4 0.068961 0.904964 0.135969
Si Si5 0.068944 0.286310 0.824050
Si Si6 0.430144 0.274181 0.215083
Si Si7 0.931425 0.905348 0.909723
O O1 0.500000 0.500000 0.669558
O O2 0.250000 0.411469 0.638768
O O3 0.485696 0.377141 0.516803
O O4 0.491290 0.324608 0.713388
O O5 0.500000 0.500000 0.031383
O O6 0.250000 0.408941 0.016412
O O7 0.481442 0.339215 0.120144
O O8 0.496514 0.348906 0.918034
O O9 0.500000 0.500000 0.362953
O O10 0.750000 0.583292 0.396581
O O11 0.518952 0.677431 0.322469
O O12 0.250000 0.913332 0.127147
O O13 0.021351 0.821931 0.211887
O O14 0.000000 0.000000 0.182094
O O15 0.997705 0.885606 0.023291
O O16 0.250000 0.291352 0.829648
O O17 0.017259 0.179572 0.836016
O O18 0.250000 0.253937 0.211105
O O19 0.750000 0.913936 0.918884
O O20 0.000000 0.000000 0.862273
#
# Coordination Sequence:
#
# PCOD8168051 Si02
#       7
#     4   4   4   4   4   4   4
#     4   9  17  31  49  71  95 127 167 200 239 281
#     4  10  19  30  43  64  95 128 157 191 236 285
#     4   9  18  31  50  72  97 129 166 206 240 282
#     4  11  21  33  51  74  98 126 160 199 241 290
#     4   9  17  30  48  67  95 130 158 194 241 288
#     4  10  19  33  49  68  98 131 162 196 240 287
#     4  10  18  32  50  70  97 128 160 197 241 290
#
# _framework density 17.229448999999999
#
# number of rings (size 3 to 8) (size 9 to 14) (size 15 to 20)
#    0.000    2.286    1.429    3.429    0.000    1.143 
#    0.000    1.429    0.000    0.857    0.000    2.000 
#    0.000    0.000    0.000    0.000    0.000    0.000 
#
# Total GULP energy -347173.377301 kJ/mol
# GULP energy per Si atom -12399.049189 kJ/mol
# Density = 1.719023 g / cm^3
# Si number density = 17.229449 Si / 1000 Ang^3
#
#
#
# Elastic Constant Matrix: (Units=GPa)
#
#
# Indices 1 2 3 4 5 6 
#
# 1 51.2997 42.5223 27.0194 0.0000 0.0000 0.0000
# 2 42.5223 168.2565 79.5659 0.0000 0.0000 0.0000
# 3 27.0194 79.5659 104.6314 0.0000 0.0000 0.0000
# 4 0.0000 0.0000 0.0000 28.1448 0.0000 0.0000
# 5 0.0000 0.0000 0.0000 0.0000 6.3696 0.0000
# 6 0.0000 0.0000 0.0000 0.0000 0.0000 31.5096
#
#
#
# Elastic Compliance Matrix: (Units=1/GPa)
#
#
# Indices 1 2 3 4 5 6 
#
# 1 0.025100 -0.005119 -0.002589 0.000000 0.000000 0.000000
# 2 -0.005119 0.010325 -0.006529 0.000000 0.000000 0.000000
# 3 -0.002589 -0.006529 0.015191 0.000000 0.000000 0.000000
# 4 0.000000 0.000000 0.000000 0.035531 0.000000 0.000000
# 5 0.000000 0.000000 0.000000 0.000000 0.156997 0.000000
# 6 0.000000 0.000000 0.000000 0.000000 0.000000 0.031736
#
#
# Mechanical properties :
#
#
# Convention : Reuss Voigt Hill
#
# Bulk Modulus (GPa) = 45.16493 69.15588 57.16041
# Shear Modulus (GPa) = 16.09091 24.87678 20.48384
#
# Velocity S-wave (km/s) = 3.05932 3.80393 3.45176
# Velocity P-wave (km/s) = 6.22495 7.71482 7.00958
#
# Compressibility (1/GPa) = 0.02214107
#
# Stress axis : x y z
#
# Youngs Moduli (GPa) = 39.84044 96.85555 65.82807
#
# Poissons Ratio (x) = 0.49581 0.17042
# Poissons Ratio (y) = 0.20395 0.42981
# Poissons Ratio (z) = 0.10314 0.63240
#
# Static dielectric constant tensor:
#      x y z
#    x 3.124310 0.000000 0.000000 
#    y 0.000000 3.422540 0.000000 
#    z 0.000000 0.000000 3.371750 
# 
# 
# High freq. dielectric constant tensor:
#      x y z
#    x 1.652620 0.000000 0.000000 
#    y 0.000000 1.670610 0.000000 
#    z 0.000000 0.000000 1.648860 
# 
# From -- ./inp_files/4825.got.cif
#   From: 2010.03.12/outbox.cif.g09.slc.cpg/sg28_3_cif.got.tgz:4825.got - 2010.04.14 03:39:34.
