data_PCOD8168262
_publ_section_title
;
Structure prediction by ZEFSAII (Michael W. Deem and Ramdas Pophale) SiO2 
 PCOD8168262
Probable space group: P M A 2
;
_chemical_formula_sum "Si O2"
_cell_formula_units_Z 32
_cell_length_a 8.921968
_cell_length_b 14.512936
_cell_length_c 12.337479
_cell_angle_alpha 90.000000
_cell_angle_beta 90.000000
_cell_angle_gamma 90.000000
_cell_volume 1597.505521
_symmetry_space_group_name_H-M "P M A 2"
_symmetry_group_IT_number 28
_symmetry_cell_setting 'orthorhombic'
loop_
_space_group_symop_operation_xyz
x,y,z
-x,-y,z
1/2-x,y,z
1/2+x,-y,z
loop_
_atom_site_type_symbol
_atom_site_label
_atom_site_fract_x
_atom_site_fract_y
_atom_site_fract_z
Si Si1 0.571879 0.792627 0.453310
Si Si2 0.080787 0.632817 0.174246
Si Si3 0.574706 0.589949 0.390319
Si Si4 0.573302 0.100404 0.650907
Si Si5 0.076582 0.787923 0.866784
Si Si6 0.576038 0.409571 0.933442
Si Si7 0.926576 0.910702 0.033462
Si Si8 0.920022 0.158658 0.236104
O O1 0.750000 0.803207 0.457964
O O2 0.523514 0.684527 0.449434
O O3 0.497232 0.840994 0.554877
O O4 0.510346 0.844281 0.347962
O O5 0.250000 0.596290 0.193562
O O6 0.079086 0.742178 0.181208
O O7 0.972193 0.590318 0.264315
O O8 0.017073 0.605998 0.056269
O O9 0.500000 0.500000 0.446965
O O10 0.750000 0.578226 0.398642
O O11 0.750000 0.088733 0.632511
O O12 0.535983 0.159390 0.757229
O O13 0.500000 0.000000 0.659809
O O14 0.250000 0.803259 0.899619
O O15 0.041537 0.678702 0.857067
O O16 0.971397 0.822936 0.962877
O O17 0.500000 0.500000 0.881912
O O18 0.750000 0.429102 0.937892
O O19 0.750000 0.920193 0.039247
O O20 0.994388 0.908056 0.154023
O O21 0.000000 0.000000 0.975559
O O22 0.750000 0.124374 0.255928
#
# Coordination Sequence:
#
# PCOD8168262 Si02
#       8
#     4   4   4   4   4   4   4   4
#     4  10  22  40  61  89 123 155 198 251 300 356
#     4   9  17  31  53  79 115 160 198 240 289 342
#     4  10  20  33  53  83 120 160 201 245 290 346
#     4  11  24  43  69  92 114 151 199 252 307 364
#     4  10  22  43  64  86 120 157 200 251 301 354
#     4  10  20  35  55  84 120 159 199 242 293 348
#     4  12  24  37  58  88 121 158 198 241 300 364
#     4  10  19  36  59  85 121 160 197 242 298 354
#
# _framework density 20.031230999999998
#
# number of rings (size 3 to 8) (size 9 to 14) (size 15 to 20)
#    0.000    1.750    1.250    3.375    0.000    6.500 
#    0.000    3.125    0.000    3.000    0.000    0.000 
#    0.000    0.000    0.000    0.000    0.000    0.000 
#
# Total GULP energy -396805.615921 kJ/mol
# GULP energy per Si atom -12400.175498 kJ/mol
# Density = 1.998564 g / cm^3
# Si number density = 20.031231 Si / 1000 Ang^3
#
#
#
# Elastic Constant Matrix: (Units=GPa)
#
#
# Indices 1 2 3 4 5 6 
#
# 1 105.6988 63.5612 54.6106 0.0000 0.0000 0.0000
# 2 63.5612 140.6490 64.4751 0.0000 0.0000 0.0000
# 3 54.6106 64.4751 103.3778 0.0000 0.0000 0.0000
# 4 0.0000 0.0000 0.0000 22.9705 0.0000 0.0000
# 5 0.0000 0.0000 0.0000 0.0000 18.4337 0.0000
# 6 0.0000 0.0000 0.0000 0.0000 0.0000 36.7664
#
#
#
# Elastic Compliance Matrix: (Units=1/GPa)
#
#
# Indices 1 2 3 4 5 6 
#
# 1 0.014666 -0.004308 -0.005061 0.000000 0.000000 0.000000
# 2 -0.004308 0.011222 -0.004723 0.000000 0.000000 0.000000
# 3 -0.005061 -0.004723 0.015292 0.000000 0.000000 0.000000
# 4 0.000000 0.000000 0.000000 0.043534 0.000000 0.000000
# 5 0.000000 0.000000 0.000000 0.000000 0.054248 0.000000
# 6 0.000000 0.000000 0.000000 0.000000 0.000000 0.027199
#
#
# Mechanical properties :
#
#
# Convention : Reuss Voigt Hill
#
# Bulk Modulus (GPa) = 76.94279 79.44660 78.19470
# Shear Modulus (GPa) = 25.16639 26.77269 25.96954
#
# Velocity S-wave (km/s) = 3.54836 3.65985 3.60453
# Velocity P-wave (km/s) = 7.43523 7.58991 7.51297
#
# Compressibility (1/GPa) = 0.01299667
#
# Stress axis : x y z
#
# Youngs Moduli (GPa) = 68.18451 89.11173 65.39163
#
# Poissons Ratio (x) = 0.38388 0.33093
# Poissons Ratio (y) = 0.29373 0.30886
# Poissons Ratio (z) = 0.34507 0.42089
#
# Static dielectric constant tensor:
#      x y z
#    x 3.631960 0.000000 0.000000 
#    y 0.000000 3.899680 0.000000 
#    z 0.000000 0.000000 3.471990 
# 
# 
# High freq. dielectric constant tensor:
#      x y z
#    x 1.784840 0.000000 0.000000 
#    y 0.000000 1.797290 0.000000 
#    z 0.000000 0.000000 1.756980 
# 
# From -- ./inp_files/5109.got.cif
#   From: 2010.03.12/outbox.cif.g09.slc.cpg/sg28_3_cif.got.tgz:5109.got - 2010.04.14 03:39:34.
