data_PCOD8168593
_publ_section_title
;
Structure prediction by ZEFSAII (Michael W. Deem and Ramdas Pophale) SiO2 
 PCOD8168593
Probable space group: P C A 21
;
_chemical_formula_sum "Si O2"
_cell_formula_units_Z 32
_cell_length_a 19.774667
_cell_length_b 9.957584
_cell_length_c 8.998891
_cell_angle_alpha 90.000000
_cell_angle_beta 90.000000
_cell_angle_gamma 90.000000
_cell_volume 1771.952799
_symmetry_space_group_name_H-M "P C A 21"
_symmetry_group_IT_number 29
_symmetry_cell_setting 'orthorhombic'
loop_
_space_group_symop_operation_xyz
x,y,z
-x,-y,1/2+z
1/2-x,y,1/2+z
1/2+x,-y,z
loop_
_atom_site_type_symbol
_atom_site_label
_atom_site_fract_x
_atom_site_fract_y
_atom_site_fract_z
Si Si1 0.821101 0.337853 0.541710
Si Si2 0.908832 0.088884 0.195705
Si Si3 0.432049 0.447961 0.543442
Si Si4 0.060466 0.174584 0.539429
Si Si5 0.560466 0.825415 0.195391
Si Si6 0.432048 0.447960 0.191378
Si Si7 0.321100 0.662147 0.193111
Si Si8 0.408832 0.911116 0.539115
O O1 0.871435 0.455097 0.593018
O O2 0.750000 0.361950 0.617411
O O3 0.810356 0.342870 0.367411
O O4 0.851510 0.193709 0.588842
O O5 0.851510 0.193710 0.145978
O O6 0.902093 0.047045 0.367410
O O7 0.980731 0.159219 0.167455
O O8 0.900050 0.957223 0.095289
O O9 0.413149 0.300346 0.601285
O O10 0.442298 0.447488 0.367410
O O11 0.500001 0.500000 0.617409
O O12 0.077270 0.197835 0.367410
O O13 0.086851 0.300345 0.633535
O O14 0.980731 0.159218 0.567364
O O15 0.599949 0.957222 0.139530
O O16 0.371433 0.544902 0.141802
#
# Coordination Sequence:
#
# PCOD8168593 Si02
#       8
#     4   4   4   4   4   4   4   4
#     4  10  22  39  57  81 114 149 189 232 281 339
#     4   9  18  35  54  79 113 144 179 228 278 329
#     4  11  21  36  57  84 115 148 187 236 285 334
#     4  10  19  33  55  85 113 140 183 231 278 331
#     4  10  19  33  55  85 113 140 183 231 278 331
#     4  11  21  36  57  84 115 148 187 236 285 334
#     4  10  22  39  57  81 114 149 189 232 281 339
#     4   9  18  35  54  79 113 144 179 228 278 329
#
# _framework density 18.059170999999999
#
# number of rings (size 3 to 8) (size 9 to 14) (size 15 to 20)
#    0.000    2.000    2.500    1.500    0.000    4.000 
#    0.000    1.250    0.000    0.000    0.000    0.000 
#    0.000    0.000    0.000    0.000    0.000    0.000 
#
# Total GULP energy -396911.551881 kJ/mol
# GULP energy per Si atom -12403.485996 kJ/mol
# Density = 1.801807 g / cm^3
# Si number density = 18.059171 Si / 1000 Ang^3
#
#
#
# Elastic Constant Matrix: (Units=GPa)
#
#
# Indices 1 2 3 4 5 6 
#
# 1 118.5748 74.7230 51.6428 0.0000 0.0000 0.0000
# 2 74.7230 137.6079 59.5343 0.0000 0.0000 0.0000
# 3 51.6428 59.5343 74.0248 0.0000 0.0000 0.0000
# 4 0.0000 0.0000 0.0000 36.7651 0.0000 0.0000
# 5 0.0000 0.0000 0.0000 0.0000 29.3792 0.0000
# 6 0.0000 0.0000 0.0000 0.0000 0.0000 25.6256
#
#
#
# Elastic Compliance Matrix: (Units=1/GPa)
#
#
# Indices 1 2 3 4 5 6 
#
# 1 0.014231 -0.005264 -0.005695 0.000000 0.000000 0.000000
# 2 -0.005264 0.013092 -0.006857 0.000000 0.000000 0.000000
# 3 -0.005695 -0.006857 0.022996 0.000000 0.000000 0.000000
# 4 0.000000 0.000000 0.000000 0.027200 0.000000 0.000000
# 5 0.000000 0.000000 0.000000 0.000000 0.034038 0.000000
# 6 0.000000 0.000000 0.000000 0.000000 0.000000 0.039024
#
#
# Mechanical properties :
#
#
# Convention : Reuss Voigt Hill
#
# Bulk Modulus (GPa) = 68.08033 78.00086 73.04059
# Shear Modulus (GPa) = 26.16341 27.97448 27.06894
#
# Velocity S-wave (km/s) = 3.81039 3.94006 3.87577
# Velocity P-wave (km/s) = 7.55904 7.99902 7.78214
#
# Compressibility (1/GPa) = 0.01468853
#
# Stress axis : x y z
#
# Youngs Moduli (GPa) = 70.27021 76.38317 43.48513
#
# Poissons Ratio (x) = 0.40207 0.24763
# Poissons Ratio (y) = 0.36989 0.29817
# Poissons Ratio (z) = 0.40016 0.52375
#
# Static dielectric constant tensor:
#      x y z
#    x 3.223230 0.000000 0.000000 
#    y 0.000000 3.670190 0.000000 
#    z 0.000000 0.000000 3.353120 
# 
# 
# High freq. dielectric constant tensor:
#      x y z
#    x 1.672050 0.000000 0.000000 
#    y 0.000000 1.715250 0.000000 
#    z 0.000000 0.000000 1.704020 
# 
# From -- ./inp_files/2273.got.cif
#   From: 2010.03.12/outbox.cif.g09.slc.cpg/sg29_2_cif.got.tgz:2273.got - 2010.04.14 03:43:10.
