data_PCOD8168615
_publ_section_title
;
Structure prediction by ZEFSAII (Michael W. Deem and Ramdas Pophale) SiO2 
 PCOD8168615
Probable space group: P C A 21
;
_chemical_formula_sum "Si O2"
_cell_formula_units_Z 32
_cell_length_a 7.595739
_cell_length_b 18.164126
_cell_length_c 12.227191
_cell_angle_alpha 90.000000
_cell_angle_beta 90.000000
_cell_angle_gamma 90.000000
_cell_volume 1686.985056
_symmetry_space_group_name_H-M "P C A 21"
_symmetry_group_IT_number 29
_symmetry_cell_setting 'orthorhombic'
loop_
_space_group_symop_operation_xyz
x,y,z
-x,-y,1/2+z
1/2-x,y,1/2+z
1/2+x,-y,z
loop_
_atom_site_type_symbol
_atom_site_label
_atom_site_fract_x
_atom_site_fract_y
_atom_site_fract_z
Si Si1 0.079526 0.912483 0.407330
Si Si2 0.683228 0.435669 0.498639
Si Si3 0.738700 0.965841 0.032034
Si Si4 0.942797 0.091520 0.655671
Si Si5 0.260194 0.786591 0.528817
Si Si6 0.964951 0.335600 0.401717
Si Si7 0.959219 0.327978 0.148924
Si Si8 0.300947 0.402550 0.499140
O O1 0.914210 0.912911 0.489208
O O2 0.014711 0.909739 0.283417
O O3 0.194794 0.840626 0.432985
O O4 0.189706 0.987113 0.428901
O O5 0.839276 0.406228 0.421211
O O6 0.682322 0.391871 0.614970
O O7 0.491109 0.419731 0.440910
O O8 0.705610 0.520937 0.527902
O O9 0.881033 0.911815 0.084044
O O10 0.678512 0.021709 0.127014
O O11 0.848882 0.167867 0.626646
O O12 0.403101 0.731855 0.476515
O O13 0.093776 0.744795 0.581131
O O14 0.953601 0.311559 0.276300
O O15 0.168670 0.355145 0.425039
O O16 0.154089 0.355846 0.109791
#
# Coordination Sequence:
#
# PCOD8168615 Si02
#       8
#     4   4   4   4   4   4   4   4
#     4  10  19  36  60  79 117 149 185 239 291 335
#     4   9  20  39  59  86 117 140 190 241 287 340
#     4   9  20  34  56  89 112 137 197 240 279 350
#     4  10  19  36  57  84 109 155 184 236 295 331
#     4  10  22  38  56  82 117 151 195 235 279 348
#     4  11  20  41  59  80 119 153 188 241 285 341
#     4   9  22  38  57  85 111 153 194 227 291 346
#     4  10  20  40  58  89 116 144 191 243 285 345
#
# _framework density 18.96875
#
# number of rings (size 3 to 8) (size 9 to 14) (size 15 to 20)
#    0.750    1.500    1.250    1.500    0.000    2.000 
#    4.500    6.250    0.000    0.000    0.000    0.000 
#    0.000    0.000    0.000    0.000    0.000    0.000 
#
# Total GULP energy -396600.279227 kJ/mol
# GULP energy per Si atom -12393.758726 kJ/mol
# Density = 1.892558 g / cm^3
# Si number density = 18.968750 Si / 1000 Ang^3
#
#
#
# Elastic Constant Matrix: (Units=GPa)
#
#
# Indices 1 2 3 4 5 6 
#
# 1 107.0875 34.5323 23.9280 0.0000 0.0000 0.0000
# 2 34.5323 89.1321 34.2054 0.0000 0.0000 0.0000
# 3 23.9280 34.2054 96.9893 0.0000 0.0000 0.0000
# 4 0.0000 0.0000 0.0000 10.1931 0.0000 0.0000
# 5 0.0000 0.0000 0.0000 0.0000 20.4611 0.0000
# 6 0.0000 0.0000 0.0000 0.0000 0.0000 33.6868
#
#
#
# Elastic Compliance Matrix: (Units=1/GPa)
#
#
# Indices 1 2 3 4 5 6 
#
# 1 0.010828 -0.003666 -0.001378 0.000000 0.000000 0.000000
# 2 -0.003666 0.014217 -0.004109 0.000000 0.000000 0.000000
# 3 -0.001378 -0.004109 0.012100 0.000000 0.000000 0.000000
# 4 0.000000 0.000000 0.000000 0.098105 0.000000 0.000000
# 5 0.000000 0.000000 0.000000 0.000000 0.048873 0.000000
# 6 0.000000 0.000000 0.000000 0.000000 0.000000 0.029685
#
#
# Mechanical properties :
#
#
# Convention : Reuss Voigt Hill
#
# Bulk Modulus (GPa) = 53.08767 53.17115 53.12941
# Shear Modulus (GPa) = 20.97353 26.23774 23.60563
#
# Velocity S-wave (km/s) = 3.32880 3.72319 3.53150
# Velocity P-wave (km/s) = 6.54387 6.82456 6.68569
#
# Compressibility (1/GPa) = 0.01883676
#
# Stress axis : x y z
#
# Youngs Moduli (GPa) = 92.34963 70.33976 82.64631
#
# Poissons Ratio (x) = 0.25788 0.11393
# Poissons Ratio (y) = 0.33858 0.33962
# Poissons Ratio (z) = 0.12730 0.28905
#
# Static dielectric constant tensor:
#      x y z
#    x 3.540450 0.000000 0.000000 
#    y 0.000000 3.426110 0.000000 
#    z 0.000000 0.000000 3.132040 
# 
# 
# High freq. dielectric constant tensor:
#      x y z
#    x 1.739420 0.000000 0.000000 
#    y 0.000000 1.740560 0.000000 
#    z 0.000000 0.000000 1.712430 
# 
# From -- ./inp_files/2982.got.cif
#   From: 2010.03.12/outbox.cif.g09.slc.cpg/sg29_2_cif.got.tgz:2982.got - 2010.04.14 03:43:10.
