data_PCOD8168377
_publ_section_title
;
Structure prediction by ZEFSAII (Michael W. Deem and Ramdas Pophale) SiO2 
 PCOD8168377
Probable space group: P M A 2
;
_chemical_formula_sum "Si O2"
_cell_formula_units_Z 28
_cell_length_a 8.666405
_cell_length_b 9.879322
_cell_length_c 17.470302
_cell_angle_alpha 90.000000
_cell_angle_beta 90.000000
_cell_angle_gamma 90.000000
_cell_volume 1495.775908
_symmetry_space_group_name_H-M "P M A 2"
_symmetry_group_IT_number 28
_symmetry_cell_setting 'orthorhombic'
loop_
_space_group_symop_operation_xyz
x,y,z
-x,-y,z
1/2-x,y,z
1/2+x,-y,z
loop_
_atom_site_type_symbol
_atom_site_label
_atom_site_fract_x
_atom_site_fract_y
_atom_site_fract_z
Si Si1 0.932996 0.354996 0.160520
Si Si2 0.432996 0.645004 0.919312
Si Si3 0.932507 0.142720 0.454070
Si Si4 0.931502 0.359567 0.335233
Si Si5 0.567493 0.142720 0.625762
Si Si6 0.933742 0.848247 0.039916
Si Si7 0.568498 0.359567 0.744599
O O1 0.750000 0.356508 0.147467
O O2 0.980316 0.327179 0.248281
O O3 0.000000 0.500000 0.133259
O O4 0.007900 0.232198 0.114208
O O5 0.500000 0.500000 0.946573
O O6 0.250000 0.643492 0.932365
O O7 0.480316 0.672821 0.831551
O O8 0.507901 0.767802 0.965625
O O9 0.750000 0.134840 0.449480
O O10 0.000021 0.248217 0.392797
O O11 0.986311 0.182977 0.539916
O O12 0.000000 0.000000 0.429426
O O13 0.750000 0.368158 0.342281
O O14 0.000000 0.500000 0.363369
O O15 0.750000 0.134840 0.630353
O O16 0.499979 0.248218 0.687035
O O17 0.500000 0.000000 0.650407
O O18 0.750000 0.855802 0.039916
O O19 0.000000 0.000000 0.039916
O O20 0.500000 0.500000 0.716464
O O21 0.750000 0.368158 0.737551
#
# Coordination Sequence:
#
# PCOD8168377 Si02
#       7
#     4   4   4   4   4   4   4
#     4  10  20  37  58  80 107 140 177 215 260 313
#     4  10  20  37  58  80 107 140 177 215 260 313
#     4   9  18  33  51  73 103 138 175 214 257 306
#     4   9  19  34  53  78 106 136 172 214 257 304
#     4   9  18  33  51  73 103 138 175 214 257 306
#     4  12  25  40  57  80 108 138 174 216 263 312
#     4   9  19  34  53  78 106 136 172 214 257 304
#
# _framework density 18.719380999999998
#
# number of rings (size 3 to 8) (size 9 to 14) (size 15 to 20)
#    0.000    2.286    0.000    2.571    0.000    4.000 
#    0.000    2.857    0.000    0.000    0.000    0.000 
#    0.000    0.000    0.000    0.000    0.000    0.000 
#
# Total GULP energy -347200.664331 kJ/mol
# GULP energy per Si atom -12400.023726 kJ/mol
# Density = 1.867678 g / cm^3
# Si number density = 18.719381 Si / 1000 Ang^3
#
#
#
# Elastic Constant Matrix: (Units=GPa)
#
#
# Indices 1 2 3 4 5 6 
#
# 1 58.7952 50.9526 33.0005 0.0000 0.0000 0.0000
# 2 50.9526 186.5699 109.4348 0.0000 0.0000 0.0000
# 3 33.0005 109.4348 126.5202 0.0000 0.0000 0.0000
# 4 0.0000 0.0000 0.0000 38.1581 0.0000 0.0000
# 5 0.0000 0.0000 0.0000 0.0000 58.3311 0.0000
# 6 0.0000 0.0000 0.0000 0.0000 0.0000 36.2185
#
#
#
# Elastic Compliance Matrix: (Units=1/GPa)
#
#
# Indices 1 2 3 4 5 6 
#
# 1 0.022359 -0.005451 -0.001117 0.000000 0.000000 0.000000
# 2 -0.005451 0.012209 -0.009138 0.000000 0.000000 0.000000
# 3 -0.001117 -0.009138 0.016099 0.000000 0.000000 0.000000
# 4 0.000000 0.000000 0.000000 0.026207 0.000000 0.000000
# 5 0.000000 0.000000 0.000000 0.000000 0.017144 0.000000
# 6 0.000000 0.000000 0.000000 0.000000 0.000000 0.027610
#
#
# Mechanical properties :
#
#
# Convention : Reuss Voigt Hill
#
# Bulk Modulus (GPa) = 51.93557 84.29571 68.11564
# Shear Modulus (GPa) = 31.35604 38.44137 34.89871
#
# Velocity S-wave (km/s) = 4.09719 4.53654 4.32245
# Velocity P-wave (km/s) = 7.08428 8.51876 7.83442
#
# Compressibility (1/GPa) = 0.01925463
#
# Stress axis : x y z
#
# Youngs Moduli (GPa) = 44.72440 81.90791 62.11384
#
# Poissons Ratio (x) = 0.44650 0.06938
# Poissons Ratio (y) = 0.24380 0.56762
# Poissons Ratio (z) = 0.04995 0.74850
#
# Static dielectric constant tensor:
#      x y z
#    x 3.380600 0.000000 0.000000 
#    y 0.000000 3.546720 0.000000 
#    z 0.000000 0.000000 3.770300 
# 
# 
# High freq. dielectric constant tensor:
#      x y z
#    x 1.726050 0.000000 0.000000 
#    y 0.000000 1.728210 0.000000 
#    z 0.000000 0.000000 1.737280 
# 
# From -- ./inp_files/6771.got.cif
#   From: 2010.03.12/outbox.cif.g09.slc.cpg/sg28_4_cif.got.tgz:6771.got - 2010.04.14 03:39:34.
