data_PCOD8168265
_publ_section_title
;
Structure prediction by ZEFSAII (Michael W. Deem and Ramdas Pophale) SiO2 
 PCOD8168265
Probable space group: P M A 2
;
_chemical_formula_sum "Si O2"
_cell_formula_units_Z 24
_cell_length_a 17.214278
_cell_length_b 7.408065
_cell_length_c 8.769491
_cell_angle_alpha 90.000000
_cell_angle_beta 90.000000
_cell_angle_gamma 90.000000
_cell_volume 1118.324870
_symmetry_space_group_name_H-M "P M A 2"
_symmetry_group_IT_number 28
_symmetry_cell_setting 'orthorhombic'
loop_
_space_group_symop_operation_xyz
x,y,z
-x,-y,z
1/2-x,y,z
1/2+x,-y,z
loop_
_atom_site_type_symbol
_atom_site_label
_atom_site_fract_x
_atom_site_fract_y
_atom_site_fract_z
Si Si1 0.663595 0.075352 0.562610
Si Si2 0.071451 0.268967 0.579537
Si Si3 0.425729 0.392749 0.258813
Si Si4 0.915940 0.357125 0.719443
Si Si5 0.974507 0.192574 0.018854
Si Si6 0.160284 0.749474 0.236495
O O1 0.750000 0.995513 0.558467
O O2 0.606963 0.921273 0.629860
O O3 0.659846 0.235972 0.688937
O O4 0.642021 0.164336 0.400470
O O5 0.099444 0.273185 0.402869
O O6 0.104207 0.434423 0.683336
O O7 0.978635 0.275739 0.598058
O O8 0.500000 0.500000 0.320428
O O9 0.452438 0.276334 0.112201
O O10 0.356636 0.533930 0.224428
O O11 0.951043 0.335086 0.888328
O O12 0.898924 0.152641 0.121882
O O13 0.000000 0.000000 0.949140
O O14 0.250000 0.780843 0.189226
#
# Coordination Sequence:
#
# PCOD8168265 Si02
#       6
#     4   4   4   4   4   4
#     4  11  23  40  63  91 126 166 210 258 319 384
#     4  11  21  38  65  94 120 164 213 265 311 377
#     4  10  19  37  62  90 122 163 215 266 320 374
#     4  11  23  40  62  94 129 160 211 266 317 372
#     4  11  23  39  65  93 127 172 219 269 321 389
#     4  10  22  40  61  91 129 167 212 268 322 380
#
# _framework density 21.460667999999998
#
# number of rings (size 3 to 8) (size 9 to 14) (size 15 to 20)
#    0.000    1.333    3.333    3.500    7.000    2.000 
#    0.000    0.833    0.000    0.000    0.000    0.000 
#    0.000    0.000    0.000    0.000    0.000    0.000 
#
# Total GULP energy -297403.810856 kJ/mol
# GULP energy per Si atom -12391.825452 kJ/mol
# Density = 2.141182 g / cm^3
# Si number density = 21.460668 Si / 1000 Ang^3
#
#
#
# Elastic Constant Matrix: (Units=GPa)
#
#
# Indices 1 2 3 4 5 6 
#
# 1 62.9565 31.9075 6.9656 0.0000 0.0000 0.0000
# 2 31.9075 121.2695 39.5269 0.0000 0.0000 0.0000
# 3 6.9656 39.5269 106.4055 0.0000 0.0000 0.0000
# 4 0.0000 0.0000 0.0000 23.6207 0.0000 0.0000
# 5 0.0000 0.0000 0.0000 0.0000 18.5484 0.0000
# 6 0.0000 0.0000 0.0000 0.0000 0.0000 22.3145
#
#
#
# Elastic Compliance Matrix: (Units=1/GPa)
#
#
# Indices 1 2 3 4 5 6 
#
# 1 0.018370 -0.005053 0.000675 0.000000 0.000000 0.000000
# 2 -0.005053 0.010772 -0.003671 0.000000 0.000000 0.000000
# 3 0.000675 -0.003671 0.010717 0.000000 0.000000 0.000000
# 4 0.000000 0.000000 0.000000 0.042336 0.000000 0.000000
# 5 0.000000 0.000000 0.000000 0.000000 0.053913 0.000000
# 6 0.000000 0.000000 0.000000 0.000000 0.000000 0.044814
#
#
# Mechanical properties :
#
#
# Convention : Reuss Voigt Hill
#
# Bulk Modulus (GPa) = 42.08573 49.71459 45.90016
# Shear Modulus (GPa) = 24.39714 27.04550 25.72132
#
# Velocity S-wave (km/s) = 3.37535 3.55383 3.46574
# Velocity P-wave (km/s) = 5.90287 6.32893 6.11961
#
# Compressibility (1/GPa) = 0.02376102
#
# Stress axis : x y z
#
# Youngs Moduli (GPa) = 54.43513 92.83191 93.30584
#
# Poissons Ratio (x) = 0.46911 -0.06295
# Poissons Ratio (y) = 0.27508 0.34250
# Poissons Ratio (z) = -0.03672 0.34076
#
# Static dielectric constant tensor:
#      x y z
#    x 3.678940 0.000000 0.000000 
#    y 0.000000 3.914160 0.000000 
#    z 0.000000 0.000000 3.721160 
# 
# 
# High freq. dielectric constant tensor:
#      x y z
#    x 1.814440 0.000000 0.000000 
#    y 0.000000 1.849720 0.000000 
#    z 0.000000 0.000000 1.836150 
# 
# From -- ./inp_files/3797.got.cif
#   From: 2010.03.12/outbox.cif.g09.slc.cpg/sg28_2_cif.got.tgz:3797.got - 2010.04.14 03:39:34.
