data_PCOD8168715
_publ_section_title
;
Structure prediction by ZEFSAII (Michael W. Deem and Ramdas Pophale) SiO2 
 PCOD8168715
Probable space group: P C A 21
;
_chemical_formula_sum "Si O2"
_cell_formula_units_Z 28
_cell_length_a 17.100570
_cell_length_b 6.158885
_cell_length_c 13.104231
_cell_angle_alpha 90.000000
_cell_angle_beta 90.000000
_cell_angle_gamma 90.000000
_cell_volume 1380.143428
_symmetry_space_group_name_H-M "P C A 21"
_symmetry_group_IT_number 29
_symmetry_cell_setting 'orthorhombic'
loop_
_space_group_symop_operation_xyz
x,y,z
-x,-y,1/2+z
1/2-x,y,1/2+z
1/2+x,-y,z
loop_
_atom_site_type_symbol
_atom_site_label
_atom_site_fract_x
_atom_site_fract_y
_atom_site_fract_z
Si Si1 0.641595 0.808613 0.497680
Si Si2 0.641594 0.191388 0.008360
Si Si3 1.000000 0.110328 0.003020
Si Si4 0.589320 0.585032 0.146349
Si Si5 0.410680 0.585032 0.859692
Si Si6 0.734634 0.119713 0.353126
Si Si7 0.734634 0.880288 0.152914
O O1 0.606445 0.595375 0.445261
O O2 0.694138 0.754362 0.596992
O O3 0.572030 0.961495 0.537421
O O4 0.697943 0.929418 0.420004
O O5 0.694137 0.245637 0.909047
O O6 0.572029 0.038507 0.968619
O O7 0.606445 0.404627 0.060779
O O8 0.697943 0.070583 0.086036
O O9 0.975283 0.253979 0.905871
O O10 0.024717 0.253978 0.100170
O O11 0.553269 0.499999 0.253020
O O12 0.668885 0.704380 0.178692
O O13 0.331114 0.704378 0.827349
O O14 0.767175 0.000001 0.253020
#
# Coordination Sequence:
#
# PCOD8168715 Si02
#       7
#     4   4   4   4   4   4   4
#     4  10  21  40  61  87 126 157 213 258 314 379
#     4  10  21  40  61  87 126 157 213 258 314 379
#     4  10  24  40  58  90 126 170 204 262 318 380
#     4  11  21  40  67  89 124 170 212 257 324 379
#     4  11  21  40  67  89 124 170 212 257 324 379
#     4  10  20  38  63  92 118 161 206 265 313 371
#     4  10  20  38  63  92 118 161 206 265 313 371
#
# _framework density 20.287748000000001
#
# number of rings (size 3 to 8) (size 9 to 14) (size 15 to 20)
#    0.000    1.714    2.857    1.714    0.000    0.000 
#   10.286    0.000    0.000    0.000    0.000    0.000 
#    0.000    0.000    0.000    0.000    0.000    0.000 
#
# Total GULP energy -347202.364870 kJ/mol
# GULP energy per Si atom -12400.084460 kJ/mol
# Density = 2.024157 g / cm^3
# Si number density = 20.287748 Si / 1000 Ang^3
#
#
#
# Elastic Constant Matrix: (Units=GPa)
#
#
# Indices 1 2 3 4 5 6 
#
# 1 79.8283 20.0051 55.2594 0.0000 0.0000 0.0000
# 2 20.0051 84.5311 41.3133 0.0000 0.0000 0.0000
# 3 55.2594 41.3133 117.1267 0.0000 0.0000 0.0000
# 4 0.0000 0.0000 0.0000 33.0092 0.0000 0.0000
# 5 0.0000 0.0000 0.0000 0.0000 27.1895 0.0000
# 6 0.0000 0.0000 0.0000 0.0000 0.0000 -3.2224
#
#
#
# Elastic Compliance Matrix: (Units=1/GPa)
#
#
# Indices 1 2 3 4 5 6 
#
# 1 0.018603 -0.000137 -0.008729 0.000000 0.000000 0.000000
# 2 -0.000137 0.014295 -0.004978 0.000000 0.000000 0.000000
# 3 -0.008729 -0.004978 0.014412 0.000000 0.000000 0.000000
# 4 0.000000 0.000000 0.000000 0.030295 0.000000 0.000000
# 5 0.000000 0.000000 0.000000 0.000000 0.036779 0.000000
# 6 0.000000 0.000000 0.000000 0.000000 0.000000 -0.310328
#
#
# Mechanical properties :
#
#
# Convention : Reuss Voigt Hill
#
# Bulk Modulus (GPa) = 50.95820 57.18242 54.07031
# Shear Modulus (GPa) = -30.91826 22.38916 -4.26455
#
# Velocity S-wave (km/s) = -3.90806 3.32562 -1.45141
# Velocity P-wave (km/s) = 2.19279 6.55692 4.88884
#
# Compressibility (1/GPa) = 0.01962393
#
# Stress axis : x y z
#
# Youngs Moduli (GPa) = 53.75365 69.95400 69.38819
#
# Poissons Ratio (x) = 0.00956 0.60567
# Poissons Ratio (y) = 0.00735 0.34540
# Poissons Ratio (z) = 0.46920 0.34821
#
# Static dielectric constant tensor:
#      x y z
#    x 3.754440 0.000000 0.000000 
#    y 0.000000 3.755940 0.000000 
#    z 0.000000 0.000000 3.668680 
# 
# 
# High freq. dielectric constant tensor:
#      x y z
#    x 1.786210 0.000000 0.000000 
#    y 0.000000 1.797000 0.000000 
#    z 0.000000 0.000000 1.790410 
# 
# From -- ./inp_files/3598.got.cif
#   From: 2010.03.12/outbox.cif.g09.slc.cpg/sg29_2_cif.got.tgz:3598.got - 2010.04.14 03:43:10.
