data_PCOD8168251
_publ_section_title
;
Structure prediction by ZEFSAII (Michael W. Deem and Ramdas Pophale) SiO2 
 PCOD8168251
Probable space group: P M A 2
;
_chemical_formula_sum "Si O2"
_cell_formula_units_Z 32
_cell_length_a 14.388300
_cell_length_b 9.971291
_cell_length_c 9.438917
_cell_angle_alpha 90.000000
_cell_angle_beta 90.000000
_cell_angle_gamma 90.000000
_cell_volume 1354.200726
_symmetry_space_group_name_H-M "P M A 2"
_symmetry_group_IT_number 28
_symmetry_cell_setting 'orthorhombic'
loop_
_space_group_symop_operation_xyz
x,y,z
-x,-y,z
1/2-x,y,z
1/2+x,-y,z
loop_
_atom_site_type_symbol
_atom_site_label
_atom_site_fract_x
_atom_site_fract_y
_atom_site_fract_z
Si Si1 0.140148 0.064672 0.525140
Si Si2 0.100435 0.458641 0.755277
Si Si3 0.144594 0.152834 0.836509
Si Si4 0.646712 0.442266 0.458893
Si Si5 0.897191 0.548086 0.182793
Si Si6 0.846541 0.336620 0.963022
Si Si7 0.466943 0.821424 0.389370
Si Si8 0.980419 0.804580 0.073882
O O1 0.250000 0.089194 0.487475
O O2 0.126032 0.065813 0.695011
O O3 0.070440 0.175892 0.458070
O O4 0.104568 0.923300 0.463496
O O5 0.126648 0.309606 0.802449
O O6 0.106010 0.472213 0.587368
O O7 0.000000 0.500000 0.815924
O O8 0.162862 0.576814 0.819660
O O9 0.250000 0.133463 0.885791
O O10 0.078584 0.099100 0.966815
O O11 0.750000 0.385538 0.491731
O O12 0.653975 0.551905 0.333755
O O13 0.576678 0.324420 0.410582
O O14 0.842807 0.443785 0.088235
O O15 0.902946 0.692089 0.108778
O O16 0.000000 0.500000 0.211797
O O17 0.750000 0.251449 0.972375
O O18 0.934832 0.241479 0.974152
O O19 0.478717 0.861744 0.221923
#
# Coordination Sequence:
#
# PCOD8168251 Si02
#       8
#     4   4   4   4   4   4   4   4
#     4  10  25  49  72  97 127 174 236 294 347 397
#     4  12  22  37  59  92 143 185 224 277 334 408
#     4  11  23  42  67  99 138 182 229 277 339 413
#     4  12  24  36  61 102 141 182 226 273 337 408
#     4  10  19  35  54  90 138 177 212 260 330 404
#     4  11  20  35  57  91 139 183 218 264 331 410
#     4  11  24  45  73  96 133 178 226 291 346 397
#     4  11  23  40  65 100 138 182 222 274 343 413
#
# _framework density 23.630174
#
# number of rings (size 3 to 8) (size 9 to 14) (size 15 to 20)
#    0.000    1.000    5.000    3.375    1.750    1.500 
#    0.000    2.500    0.000    0.000    0.000    0.000 
#    0.000    0.000    0.000    0.000    0.000    0.000 
#
# Total GULP energy -396417.825933 kJ/mol
# GULP energy per Si atom -12388.057060 kJ/mol
# Density = 2.357639 g / cm^3
# Si number density = 23.630174 Si / 1000 Ang^3
#
#
#
# Elastic Constant Matrix: (Units=GPa)
#
#
# Indices 1 2 3 4 5 6 
#
# 1 152.3092 18.8052 40.4168 0.0000 0.0000 0.0000
# 2 18.8052 39.2765 13.1194 0.0000 0.0000 0.0000
# 3 40.4168 13.1194 138.6107 0.0000 0.0000 0.0000
# 4 0.0000 0.0000 0.0000 34.0502 0.0000 0.0000
# 5 0.0000 0.0000 0.0000 0.0000 96.9621 0.0000
# 6 0.0000 0.0000 0.0000 0.0000 0.0000 16.0460
#
#
#
# Elastic Compliance Matrix: (Units=1/GPa)
#
#
# Indices 1 2 3 4 5 6 
#
# 1 0.007428 -0.002926 -0.001889 0.000000 0.000000 0.000000
# 2 -0.002926 0.027444 -0.001745 0.000000 0.000000 0.000000
# 3 -0.001889 -0.001745 0.007930 0.000000 0.000000 0.000000
# 4 0.000000 0.000000 0.000000 0.029368 0.000000 0.000000
# 5 0.000000 0.000000 0.000000 0.000000 0.010313 0.000000
# 6 0.000000 0.000000 0.000000 0.000000 0.000000 0.062321
#
#
# Mechanical properties :
#
#
# Convention : Reuss Voigt Hill
#
# Bulk Modulus (GPa) = 33.68781 52.76436 43.22608
# Shear Modulus (GPa) = 29.79422 46.60199 38.19810
#
# Velocity S-wave (km/s) = 3.55470 4.44570 4.02493
# Velocity P-wave (km/s) = 5.57988 6.98069 6.31922
#
# Compressibility (1/GPa) = 0.02968433
#
# Stress axis : x y z
#
# Youngs Moduli (GPa) = 134.62457 36.43789 126.09742
#
# Poissons Ratio (x) = 0.10660 0.23820
# Poissons Ratio (y) = 0.39385 0.21998
# Poissons Ratio (z) = 0.25431 0.06357
#
# Static dielectric constant tensor:
#      x y z
#    x 4.237220 0.000000 0.000000 
#    y 0.000000 3.492480 0.000000 
#    z 0.000000 0.000000 4.570620 
# 
# 
# High freq. dielectric constant tensor:
#      x y z
#    x 1.952260 0.000000 0.000000 
#    y 0.000000 1.896490 0.000000 
#    z 0.000000 0.000000 1.953640 
# 
# From -- ./inp_files/3523.got.cif
#   From: 2010.03.12/outbox.cif.g09.slc.cpg/sg28_2_cif.got.tgz:3523.got - 2010.04.14 03:39:34.
