data_PCOD8168359
_publ_section_title
;
Structure prediction by ZEFSAII (Michael W. Deem and Ramdas Pophale) SiO2 
 PCOD8168359
Probable space group: P M A 2
;
_chemical_formula_sum "Si O2"
_cell_formula_units_Z 28
_cell_length_a 8.622706
_cell_length_b 9.807954
_cell_length_c 17.335314
_cell_angle_alpha 90.000000
_cell_angle_beta 90.000000
_cell_angle_gamma 90.000000
_cell_volume 1466.066640
_symmetry_space_group_name_H-M "P M A 2"
_symmetry_group_IT_number 28
_symmetry_cell_setting 'orthorhombic'
loop_
_space_group_symop_operation_xyz
x,y,z
-x,-y,z
1/2-x,y,z
1/2+x,-y,z
loop_
_atom_site_type_symbol
_atom_site_label
_atom_site_fract_x
_atom_site_fract_y
_atom_site_fract_z
Si Si1 0.566214 0.146443 0.620440
Si Si2 0.932939 0.857003 0.874507
Si Si3 0.927909 0.353182 0.162563
Si Si4 0.433909 0.348420 0.744085
Si Si5 0.568076 0.858869 0.047674
Si Si6 0.932699 0.858320 0.453909
Si Si7 0.570613 0.351766 0.338385
O O1 0.750000 0.141808 0.627282
O O2 0.500029 0.269436 0.670676
O O3 0.516552 0.179492 0.533432
O O4 0.500000 0.000000 0.647757
O O5 0.750000 0.870254 0.872183
O O6 0.988657 0.732957 0.820518
O O7 0.994304 0.827318 0.961205
O O8 0.000000 0.000000 0.843234
O O9 0.750000 0.357398 0.137238
O O10 0.946150 0.301821 0.250270
O O11 0.000000 0.500000 0.152613
O O12 0.020486 0.257133 0.105935
O O13 0.500000 0.500000 0.747888
O O14 0.250000 0.355671 0.737364
O O15 0.750000 0.872155 0.046203
O O16 0.500000 0.000000 0.078840
O O17 0.750000 0.870669 0.468406
O O18 0.968099 0.745681 0.390650
O O19 0.000000 0.000000 0.421781
O O20 0.500000 0.500000 0.348908
O O21 0.750000 0.351225 0.364263
#
# Coordination Sequence:
#
# PCOD8168359 Si02
#       7
#     4   4   4   4   4   4   4
#     4  11  22  39  61  85 113 147 185 226 275 330
#     4   9  20  37  58  82 110 145 185 228 276 331
#     4  10  21  37  57  81 111 148 187 229 278 332
#     4  11  23  39  57  83 115 147 186 230 277 327
#     4  10  20  36  57  83 113 146 186 231 278 328
#     4  11  22  38  60  86 114 146 185 229 276 326
#     4  10  21  38  58  82 112 147 187 229 277 332
#
# _framework density 19.098724000000001
#
# number of rings (size 3 to 8) (size 9 to 14) (size 15 to 20)
#    0.000    1.714    0.000    5.571    0.000    6.286 
#    0.000    4.286    0.000    0.000    0.000    0.000 
#    0.000    0.000    0.000    0.000    0.000    0.000 
#
# Total GULP energy -347282.520946 kJ/mol
# GULP energy per Si atom -12402.947177 kJ/mol
# Density = 1.905525 g / cm^3
# Si number density = 19.098724 Si / 1000 Ang^3
#
#
#
# Elastic Constant Matrix: (Units=GPa)
#
#
# Indices 1 2 3 4 5 6 
#
# 1 89.2896 40.0074 30.7409 0.0000 0.0000 0.0000
# 2 40.0074 123.5981 69.2544 0.0000 0.0000 0.0000
# 3 30.7409 69.2544 87.8083 0.0000 0.0000 0.0000
# 4 0.0000 0.0000 0.0000 27.1965 0.0000 0.0000
# 5 0.0000 0.0000 0.0000 0.0000 35.2699 0.0000
# 6 0.0000 0.0000 0.0000 0.0000 0.0000 38.2841
#
#
#
# Elastic Compliance Matrix: (Units=1/GPa)
#
#
# Indices 1 2 3 4 5 6 
#
# 1 0.013347 -0.003050 -0.002267 0.000000 0.000000 0.000000
# 2 -0.003050 0.015194 -0.010916 0.000000 0.000000 0.000000
# 3 -0.002267 -0.010916 0.020792 0.000000 0.000000 0.000000
# 4 0.000000 0.000000 0.000000 0.036769 0.000000 0.000000
# 5 0.000000 0.000000 0.000000 0.000000 0.028353 0.000000
# 6 0.000000 0.000000 0.000000 0.000000 0.000000 0.026120
#
#
# Mechanical properties :
#
#
# Convention : Reuss Voigt Hill
#
# Bulk Modulus (GPa) = 59.28899 64.52240 61.90569
# Shear Modulus (GPa) = 27.98551 30.86299 29.42425
#
# Velocity S-wave (km/s) = 3.83209 4.02428 3.92936
# Velocity P-wave (km/s) = 7.11974 7.44648 7.28494
#
# Compressibility (1/GPa) = 0.01686654
#
# Stress axis : x y z
#
# Youngs Moduli (GPa) = 74.92565 65.81337 48.09603
#
# Poissons Ratio (x) = 0.20072 0.10904
# Poissons Ratio (y) = 0.22851 0.52502
# Poissons Ratio (z) = 0.16986 0.71843
#
# Static dielectric constant tensor:
#      x y z
#    x 3.615000 0.000000 0.000000 
#    y 0.000000 3.583630 0.000000 
#    z 0.000000 0.000000 3.673280 
# 
# 
# High freq. dielectric constant tensor:
#      x y z
#    x 1.758690 0.000000 0.000000 
#    y 0.000000 1.744260 0.000000 
#    z 0.000000 0.000000 1.748870 
# 
# From -- ./inp_files/6763.got.cif
#   From: 2010.03.12/outbox.cif.g09.slc.cpg/sg28_4_cif.got.tgz:6763.got - 2010.04.14 03:39:34.
