data_PCOD8168899
_publ_section_title
;
Structure prediction by ZEFSAII (Michael W. Deem and Ramdas Pophale) SiO2 
 PCOD8168899
Probable space group: P C A 21
;
_chemical_formula_sum "Si O2"
_cell_formula_units_Z 28
_cell_length_a 21.512667
_cell_length_b 6.606800
_cell_length_c 8.573557
_cell_angle_alpha 90.000000
_cell_angle_beta 90.000000
_cell_angle_gamma 90.000000
_cell_volume 1218.558699
_symmetry_space_group_name_H-M "P C A 21"
_symmetry_group_IT_number 29
_symmetry_cell_setting 'orthorhombic'
loop_
_space_group_symop_operation_xyz
x,y,z
-x,-y,1/2+z
1/2-x,y,1/2+z
1/2+x,-y,z
loop_
_atom_site_type_symbol
_atom_site_label
_atom_site_fract_x
_atom_site_fract_y
_atom_site_fract_z
Si Si1 0.668392 0.907965 0.482160
Si Si2 0.471618 0.786938 0.524112
Si Si3 0.746061 0.568070 0.888411
Si Si4 0.085821 0.379470 0.688825
Si Si5 0.819420 0.336024 0.109233
Si Si6 0.937351 0.869764 0.752966
Si Si7 0.615442 0.563507 0.022681
O O1 0.691082 0.095421 0.590917
O O2 0.725525 0.798472 0.388610
O O3 0.637209 0.757631 0.604886
O O4 0.615521 0.978599 0.358380
O O5 0.517128 0.644993 0.624941
O O6 0.501720 0.820021 0.354585
O O7 0.406631 0.669712 0.513401
O O8 0.459625 0.996747 0.609091
O O9 0.801913 0.422307 0.940252
O O10 0.689794 0.568534 0.013811
O O11 0.723811 0.465326 0.728486
O O12 0.109072 0.611554 0.656092
O O13 0.086225 0.323198 0.871616
O O14 0.907436 0.665783 0.682474
#
# Coordination Sequence:
#
# PCOD8168899 Si02
#       7
#     4   4   4   4   4   4   4
#     4  10  23  43  65  92 132 174 223 282 332 399
#     4  11  24  41  64  94 128 167 214 269 330 409
#     4  10  23  40  61  96 127 167 229 278 327 407
#     4   9  22  41  61  90 124 163 216 264 319 402
#     4  10  22  40  65  89 126 173 212 269 342 389
#     4  11  25  41  65  97 131 174 221 273 343 412
#     4  11  23  40  63  90 128 168 211 271 333 394
#
# _framework density 22.977965999999999
#
# number of rings (size 3 to 8) (size 9 to 14) (size 15 to 20)
#    0.000    1.714    0.000    2.571    0.000   20.571 
#    0.000    0.000    0.000    0.000    0.000    0.000 
#    0.000    0.000    0.000    0.000    0.000    0.000 
#
# Total GULP energy -346979.149282 kJ/mol
# GULP energy per Si atom -12392.112474 kJ/mol
# Density = 2.292567 g / cm^3
# Si number density = 22.977966 Si / 1000 Ang^3
#
#
#
# Elastic Constant Matrix: (Units=GPa)
#
#
# Indices 1 2 3 4 5 6 
#
# 1 82.9505 37.2737 12.4776 0.0000 0.0000 0.0000
# 2 37.2737 111.9273 35.2172 0.0000 0.0000 0.0000
# 3 12.4776 35.2172 87.2654 0.0000 0.0000 0.0000
# 4 0.0000 0.0000 0.0000 40.6818 0.0000 0.0000
# 5 0.0000 0.0000 0.0000 0.0000 42.7603 0.0000
# 6 0.0000 0.0000 0.0000 0.0000 0.0000 31.3185
#
#
#
# Elastic Compliance Matrix: (Units=1/GPa)
#
#
# Indices 1 2 3 4 5 6 
#
# 1 0.014178 -0.004678 -0.000140 0.000000 0.000000 0.000000
# 2 -0.004678 0.011777 -0.004084 0.000000 0.000000 0.000000
# 3 -0.000140 -0.004084 0.013127 0.000000 0.000000 0.000000
# 4 0.000000 0.000000 0.000000 0.024581 0.000000 0.000000
# 5 0.000000 0.000000 0.000000 0.000000 0.023386 0.000000
# 6 0.000000 0.000000 0.000000 0.000000 0.000000 0.031930
#
#
# Mechanical properties :
#
#
# Convention : Reuss Voigt Hill
#
# Bulk Modulus (GPa) = 46.99165 50.23113 48.61139
# Shear Modulus (GPa) = 34.75217 36.09710 35.42463
#
# Velocity S-wave (km/s) = 3.89319 3.96781 3.93068
# Velocity P-wave (km/s) = 6.38000 6.54976 6.46544
#
# Compressibility (1/GPa) = 0.02128037
#
# Stress axis : x y z
#
# Youngs Moduli (GPa) = 70.53033 84.91035 76.17661
#
# Poissons Ratio (x) = 0.39719 0.01063
# Poissons Ratio (y) = 0.32992 0.31110
# Poissons Ratio (z) = 0.00984 0.34677
#
# Static dielectric constant tensor:
#      x y z
#    x 4.257360 0.000000 0.000000 
#    y 0.000000 3.919420 0.000000 
#    z 0.000000 0.000000 4.249620 
# 
# 
# High freq. dielectric constant tensor:
#      x y z
#    x 1.911410 0.000000 0.000000 
#    y 0.000000 1.889670 0.000000 
#    z 0.000000 0.000000 1.918670 
# 
# From -- ./inp_files/2432.got.cif
#   From: 2010.03.12/outbox.cif.g09.slc.cpg/sg29_2_cif.got.tgz:2432.got - 2010.04.14 03:43:10.
