data_PCOD8168019
_publ_section_title
;
Structure prediction by ZEFSAII (Michael W. Deem and Ramdas Pophale) SiO2 
 PCOD8168019
Probable space group: P M A 2
;
_chemical_formula_sum "Si O2"
_cell_formula_units_Z 24
_cell_length_a 8.396446
_cell_length_b 16.579819
_cell_length_c 9.255391
_cell_angle_alpha 90.000000
_cell_angle_beta 90.000000
_cell_angle_gamma 90.000000
_cell_volume 1288.457373
_symmetry_space_group_name_H-M "P M A 2"
_symmetry_group_IT_number 28
_symmetry_cell_setting 'orthorhombic'
loop_
_space_group_symop_operation_xyz
x,y,z
-x,-y,z
1/2-x,y,z
1/2+x,-y,z
loop_
_atom_site_type_symbol
_atom_site_label
_atom_site_fract_x
_atom_site_fract_y
_atom_site_fract_z
Si Si1 0.067083 0.665681 0.032940
Si Si2 0.064769 0.182869 0.881314
Si Si3 0.565341 0.586151 0.774353
Si Si4 0.060851 0.760606 0.296995
Si Si5 0.938404 0.085301 0.119906
Si Si6 0.562586 0.257927 0.619410
O O1 0.250000 0.637447 0.029801
O O2 0.006816 0.683973 0.196818
O O3 0.050329 0.750234 0.950381
O O4 0.964616 0.598682 0.947094
O O5 0.250000 0.203545 0.904148
O O6 0.022762 0.186120 0.710715
O O7 0.017775 0.099650 0.960822
O O8 0.500000 0.500000 0.724712
O O9 0.750000 0.592244 0.739555
O O10 0.474531 0.653927 0.682834
O O11 0.250000 0.762240 0.297875
O O12 0.999900 0.845434 0.230182
O O13 0.992200 0.748147 0.457203
O O14 0.750000 0.084753 0.104960
O O15 0.000000 0.000000 0.179804
O O16 0.750000 0.243056 0.619351
#
# Coordination Sequence:
#
# PCOD8168019 Si02
#       6
#     4   4   4   4   4   4
#     4   9  16  31  52  74  97 127 163 203 244 292
#     4  10  18  30  48  73  99 130 167 203 240 291
#     4  11  21  34  51  75 101 131 169 212 255 301
#     4   8  17  32  53  76 102 133 167 202 250 305
#     4  10  19  34  53  76 101 131 168 212 257 301
#     4  10  18  33  54  76 102 136 169 206 250 300
#
# _framework density 18.626926000000001
#
# number of rings (size 3 to 8) (size 9 to 14) (size 15 to 20)
#    0.000    2.333    0.000    7.500    0.000    0.000 
#    0.000   11.667    0.000    2.000    0.000    0.000 
#    0.000    0.000    0.000    0.000    0.000    0.000 
#
# Total GULP energy -297430.745026 kJ/mol
# GULP energy per Si atom -12392.947709 kJ/mol
# Density = 1.858453 g / cm^3
# Si number density = 18.626926 Si / 1000 Ang^3
#
#
#
# Elastic Constant Matrix: (Units=GPa)
#
#
# Indices 1 2 3 4 5 6 
#
# 1 63.4901 12.5840 20.7071 0.0000 0.0000 0.0000
# 2 12.5840 78.8181 37.4921 0.0000 0.0000 0.0000
# 3 20.7071 37.4921 138.5125 0.0000 0.0000 0.0000
# 4 0.0000 0.0000 0.0000 17.2380 0.0000 0.0000
# 5 0.0000 0.0000 0.0000 0.0000 16.4870 0.0000
# 6 0.0000 0.0000 0.0000 0.0000 0.0000 26.4362
#
#
#
# Elastic Compliance Matrix: (Units=1/GPa)
#
#
# Indices 1 2 3 4 5 6 
#
# 1 0.016755 -0.001703 -0.002044 0.000000 0.000000 0.000000
# 2 -0.001703 0.014736 -0.003734 0.000000 0.000000 0.000000
# 3 -0.002044 -0.003734 0.008536 0.000000 0.000000 0.000000
# 4 0.000000 0.000000 0.000000 0.058011 0.000000 0.000000
# 5 0.000000 0.000000 0.000000 0.000000 0.060654 0.000000
# 6 0.000000 0.000000 0.000000 0.000000 0.000000 0.037827
#
#
# Mechanical properties :
#
#
# Convention : Reuss Voigt Hill
#
# Bulk Modulus (GPa) = 39.89687 46.93190 43.41439
# Shear Modulus (GPa) = 22.74441 26.03473 24.38957
#
# Velocity S-wave (km/s) = 3.49814 3.74263 3.62245
# Velocity P-wave (km/s) = 6.14666 6.62773 6.39172
#
# Compressibility (1/GPa) = 0.02506462
#
# Stress axis : x y z
#
# Youngs Moduli (GPa) = 59.68520 67.86332 117.15342
#
# Poissons Ratio (x) = 0.11556 0.23944
# Poissons Ratio (y) = 0.10163 0.43745
# Poissons Ratio (z) = 0.12199 0.25340
#
# Static dielectric constant tensor:
#      x y z
#    x 3.252000 0.000000 0.000000 
#    y 0.000000 3.400360 0.000000 
#    z 0.000000 0.000000 3.924130 
# 
# 
# High freq. dielectric constant tensor:
#      x y z
#    x 1.721000 0.000000 0.000000 
#    y 0.000000 1.696750 0.000000 
#    z 0.000000 0.000000 1.717240 
# 
# From -- ./inp_files/2554.got.cif
#   From: 2010.03.12/outbox.cif.g09.slc.cpg/sg28_2_cif.got.tgz:2554.got - 2010.04.14 03:39:34.
