data_PCOD8168022
_publ_section_title
;
Structure prediction by ZEFSAII (Michael W. Deem and Ramdas Pophale) SiO2 
 PCOD8168022
Probable space group: P M A 2
;
_chemical_formula_sum "Si O2"
_cell_formula_units_Z 32
_cell_length_a 9.011363
_cell_length_b 19.132892
_cell_length_c 9.989555
_cell_angle_alpha 90.000000
_cell_angle_beta 90.000000
_cell_angle_gamma 90.000000
_cell_volume 1722.333492
_symmetry_space_group_name_H-M "P M A 2"
_symmetry_group_IT_number 28
_symmetry_cell_setting 'orthorhombic'
loop_
_space_group_symop_operation_xyz
x,y,z
-x,-y,z
1/2-x,y,z
1/2+x,-y,z
loop_
_atom_site_type_symbol
_atom_site_label
_atom_site_fract_x
_atom_site_fract_y
_atom_site_fract_z
Si Si1 0.922495 0.205894 0.870540
Si Si2 0.082285 0.068141 0.559663
Si Si3 0.575218 0.574688 0.233352
Si Si4 0.076365 0.429315 0.752834
Si Si5 0.074059 0.646947 0.993702
Si Si6 0.917028 0.931926 0.878683
Si Si7 0.423627 0.793119 0.562351
Si Si8 0.919582 0.659207 0.493880
O O1 0.750000 0.188425 0.879546
O O2 0.968353 0.219602 0.716880
O O3 0.007775 0.139254 0.931400
O O4 0.966050 0.273451 0.956729
O O5 0.250000 0.067978 0.506610
O O6 0.076128 0.066868 0.719220
O O7 0.000988 0.137264 0.505735
O O8 0.000000 0.000000 0.501342
O O9 0.500000 0.500000 0.212562
O O10 0.750000 0.568338 0.203980
O O11 0.500401 0.630959 0.135486
O O12 0.542094 0.601514 0.382688
O O13 0.250000 0.441273 0.780172
O O14 0.048087 0.372750 0.638552
O O15 0.000000 0.500000 0.702832
O O16 0.996099 0.405674 0.887415
O O17 0.250000 0.634963 0.998281
O O18 0.750000 0.933799 0.932381
O O19 0.000000 0.000000 0.937103
O O20 0.250000 0.802319 0.543108
O O21 0.478487 0.727316 0.475637
O O22 0.750000 0.683553 0.480725
#
# Coordination Sequence:
#
# PCOD8168022 Si02
#       8
#     4   4   4   4   4   4   4   4
#     4   9  18  31  48  73 105 138 174 218 263 312
#     4   9  16  26  41  66 102 142 180 218 262 313
#     4  11  24  42  60  80 106 140 180 225 272 325
#     4  11  22  36  56  80 106 136 172 217 268 324
#     4  11  22  38  57  80 108 141 178 221 270 322
#     4   9  16  25  41  66 100 140 177 214 258 309
#     4  10  18  30  50  76 106 140 177 220 268 318
#     4  10  22  38  56  79 107 139 177 221 271 323
#
# _framework density 18.579445
#
# number of rings (size 3 to 8) (size 9 to 14) (size 15 to 20)
#    0.000    2.000    1.250    3.000    0.000    6.000 
#    0.000    0.000    0.000    0.000    0.000    0.875 
#    0.000    2.000    0.000    0.000    0.000    0.000 
#
# Total GULP energy -396889.234601 kJ/mol
# GULP energy per Si atom -12402.788581 kJ/mol
# Density = 1.853716 g / cm^3
# Si number density = 18.579445 Si / 1000 Ang^3
#
#
#
# Elastic Constant Matrix: (Units=GPa)
#
#
# Indices 1 2 3 4 5 6 
#
# 1 118.6738 74.1095 23.2479 0.0000 0.0000 0.0000
# 2 74.1095 141.7235 14.3520 0.0000 0.0000 0.0000
# 3 23.2479 14.3520 40.1394 0.0000 0.0000 0.0000
# 4 0.0000 0.0000 0.0000 19.7583 0.0000 0.0000
# 5 0.0000 0.0000 0.0000 0.0000 19.2709 0.0000
# 6 0.0000 0.0000 0.0000 0.0000 0.0000 42.4021
#
#
#
# Elastic Compliance Matrix: (Units=1/GPa)
#
#
# Indices 1 2 3 4 5 6 
#
# 1 0.013603 -0.006553 -0.005536 0.000000 0.000000 0.000000
# 2 -0.006553 0.010477 0.000049 0.000000 0.000000 0.000000
# 3 -0.005536 0.000049 0.028102 0.000000 0.000000 0.000000
# 4 0.000000 0.000000 0.000000 0.050612 0.000000 0.000000
# 5 0.000000 0.000000 0.000000 0.000000 0.051892 0.000000
# 6 0.000000 0.000000 0.000000 0.000000 0.000000 0.023584
#
#
# Mechanical properties :
#
#
# Convention : Reuss Voigt Hill
#
# Bulk Modulus (GPa) = 35.58272 58.21727 46.90000
# Shear Modulus (GPa) = 23.61659 28.87475 26.24567
#
# Velocity S-wave (km/s) = 3.56914 3.94651 3.76256
# Velocity P-wave (km/s) = 6.01483 7.22280 6.64632
#
# Compressibility (1/GPa) = 0.02810353
#
# Stress axis : x y z
#
# Youngs Moduli (GPa) = 73.51431 95.44280 35.58488
#
# Poissons Ratio (x) = 0.62539 0.19698
# Poissons Ratio (y) = 0.48171 -0.00174
# Poissons Ratio (z) = 0.40694 -0.00466
#
# Static dielectric constant tensor:
#      x y z
#    x 3.530950 0.000000 0.000000 
#    y 0.000000 3.543390 0.000000 
#    z 0.000000 0.000000 3.000720 
# 
# 
# High freq. dielectric constant tensor:
#      x y z
#    x 1.734920 0.000000 0.000000 
#    y 0.000000 1.737010 0.000000 
#    z 0.000000 0.000000 1.668930 
# 
# From -- ./inp_files/5198.got.cif
#   From: 2010.03.12/outbox.cif.g09.slc.cpg/sg28_3_cif.got.tgz:5198.got - 2010.04.14 03:39:34.
