data_PCOD8168335
_publ_section_title
;
Structure prediction by ZEFSAII (Michael W. Deem and Ramdas Pophale) SiO2 
 PCOD8168335
Probable space group: P M A 2
;
_chemical_formula_sum "Si O2"
_cell_formula_units_Z 20
_cell_length_a 8.564654
_cell_length_b 9.805280
_cell_length_c 12.751501
_cell_angle_alpha 90.000000
_cell_angle_beta 90.000000
_cell_angle_gamma 90.000000
_cell_volume 1070.856142
_symmetry_space_group_name_H-M "P M A 2"
_symmetry_group_IT_number 28
_symmetry_cell_setting 'orthorhombic'
loop_
_space_group_symop_operation_xyz
x,y,z
-x,-y,z
1/2-x,y,z
1/2+x,-y,z
loop_
_atom_site_type_symbol
_atom_site_label
_atom_site_fract_x
_atom_site_fract_y
_atom_site_fract_z
Si Si1 0.931745 0.849043 0.620660
Si Si2 0.569664 0.852027 0.389324
Si Si3 0.934116 0.646184 0.009898
Si Si4 0.566739 0.355837 0.784704
Si Si5 0.566437 0.152546 0.179971
O O1 0.750000 0.852354 0.652090
O O2 0.951884 0.782927 0.503699
O O3 0.028926 0.756954 0.699187
O O4 0.000000 0.000000 0.627465
O O5 0.750000 0.861281 0.357044
O O6 0.478232 0.779225 0.293142
O O7 0.500000 0.000000 0.403464
O O8 0.750000 0.637354 0.010142
O O9 0.000000 0.500000 0.045134
O O10 0.989525 0.761419 0.088633
O O11 0.991453 0.687705 0.894672
O O12 0.500000 0.500000 0.745517
O O13 0.750000 0.369509 0.800817
O O14 0.750000 0.151436 0.164211
O O15 0.500000 0.000000 0.175395
#
# Coordination Sequence:
#
# PCOD8168335 Si02
#       5
#     4   4   4   4   4
#     4  10  20  35  56  83 112 143 181 223 267 317
#     4   9  17  31  52  78 109 143 178 218 267 319
#     4  11  22  39  59  80 108 142 180 221 270 324
#     4  11  22  38  58  80 108 143 181 221 270 323
#     4  11  21  35  56  83 112 143 181 223 268 317
#
# _framework density 18.676645000000001
#
# number of rings (size 3 to 8) (size 9 to 14) (size 15 to 20)
#    0.000    1.600    0.000    9.000    0.000    3.200 
#    0.000    5.000    0.000    4.800    0.000    0.000 
#    0.000    0.000    0.000    0.000    0.000    0.000 
#
# Total GULP energy -247953.123024 kJ/mol
# GULP energy per Si atom -12397.656151 kJ/mol
# Density = 1.863414 g / cm^3
# Si number density = 18.676645 Si / 1000 Ang^3
#
#
#
# Elastic Constant Matrix: (Units=GPa)
#
#
# Indices 1 2 3 4 5 6 
#
# 1 171.2317 38.4017 54.7232 0.0000 0.0000 0.0000
# 2 38.4017 73.9404 65.1359 0.0000 0.0000 0.0000
# 3 54.7232 65.1359 122.9139 0.0000 0.0000 0.0000
# 4 0.0000 0.0000 0.0000 -42.0406 0.0000 0.0000
# 5 0.0000 0.0000 0.0000 0.0000 22.9958 0.0000
# 6 0.0000 0.0000 0.0000 0.0000 0.0000 29.2649
#
#
#
# Elastic Compliance Matrix: (Units=1/GPa)
#
#
# Indices 1 2 3 4 5 6 
#
# 1 0.006914 -0.001649 -0.002205 0.000000 0.000000 0.000000
# 2 -0.001649 0.025759 -0.012916 0.000000 0.000000 0.000000
# 3 -0.002205 -0.012916 0.015962 0.000000 0.000000 0.000000
# 4 0.000000 0.000000 0.000000 -0.023787 0.000000 0.000000
# 5 0.000000 0.000000 0.000000 0.000000 0.043486 0.000000
# 6 0.000000 0.000000 0.000000 0.000000 0.000000 0.034171
#
#
# Mechanical properties :
#
#
# Convention : Reuss Voigt Hill
#
# Bulk Modulus (GPa) = 66.24391 76.06749 71.15570
# Shear Modulus (GPa) = 35.44136 16.03237 25.73686
#
# Velocity S-wave (km/s) = 4.36091 2.93306 3.71620
# Velocity P-wave (km/s) = 7.80401 7.23101 7.52297
#
# Compressibility (1/GPa) = 0.01509573
#
# Stress axis : x y z
#
# Youngs Moduli (GPa) = 144.62571 38.82093 62.64841
#
# Poissons Ratio (x) = 0.06402 0.13811
# Poissons Ratio (y) = 0.23850 0.80920
# Poissons Ratio (z) = 0.31883 0.50143
#
# Static dielectric constant tensor:
#      x y z
#    x 3.686550 0.000000 0.000000 
#    y 0.000000 3.170540 0.000000 
#    z 0.000000 0.000000 3.951850 
# 
# 
# High freq. dielectric constant tensor:
#      x y z
#    x 1.751420 0.000000 0.000000 
#    y 0.000000 1.693610 0.000000 
#    z 0.000000 0.000000 1.743400 
# 
# From -- ./inp_files/5967.got.cif
#   From: 2010.03.12/outbox.cif.g09.slc.cpg/sg28_3_cif.got.tgz:5967.got - 2010.04.14 03:39:34.
