data_PCOD8168075
_publ_section_title
;
Structure prediction by ZEFSAII (Michael W. Deem and Ramdas Pophale) SiO2 
 PCOD8168075
Probable space group: P M A 2
;
_chemical_formula_sum "Si O2"
_cell_formula_units_Z 32
_cell_length_a 8.954395
_cell_length_b 14.361910
_cell_length_c 15.517733
_cell_angle_alpha 90.000000
_cell_angle_beta 90.000000
_cell_angle_gamma 90.000000
_cell_volume 1995.614837
_symmetry_space_group_name_H-M "P M A 2"
_symmetry_group_IT_number 28
_symmetry_cell_setting 'orthorhombic'
loop_
_space_group_symop_operation_xyz
x,y,z
-x,-y,z
1/2-x,y,z
1/2+x,-y,z
loop_
_atom_site_type_symbol
_atom_site_label
_atom_site_fract_x
_atom_site_fract_y
_atom_site_fract_z
Si Si1 0.077263 0.711253 0.580440
Si Si2 0.073459 0.906453 0.315494
Si Si3 0.927046 0.601458 0.729573
Si Si4 0.075838 0.599418 0.086184
Si Si5 0.574967 0.400298 0.896826
Si Si6 0.924345 0.092050 0.512049
Si Si7 0.427689 0.712318 0.248128
Si Si8 0.923295 0.402728 0.409343
O O1 0.250000 0.698127 0.607749
O O2 0.034362 0.819730 0.571132
O O3 0.045643 0.663925 0.489364
O O4 0.968960 0.667593 0.650932
O O5 0.250000 0.916404 0.308733
O O6 0.021077 0.890959 0.414101
O O7 0.014416 0.817983 0.260545
O O8 0.000000 0.000000 0.277075
O O9 0.750000 0.590739 0.735452
O O10 0.000000 0.500000 0.715783
O O11 0.991818 0.650639 0.817107
O O12 0.250000 0.581194 0.100055
O O13 0.014513 0.672486 0.156706
O O14 0.000000 0.500000 0.098821
O O15 0.047047 0.644977 0.991237
O O16 0.500000 0.500000 0.901949
O O17 0.750000 0.408224 0.875916
O O18 0.750000 0.074819 0.512039
O O19 0.000000 0.000000 0.551844
O O20 0.250000 0.713528 0.253806
O O21 0.490405 0.646363 0.324180
O O22 0.750000 0.422353 0.396791
O O23 0.000000 0.500000 0.427293
#
# Coordination Sequence:
#
# PCOD8168075 Si02
#       8
#     4   4   4   4   4   4   4   4
#     4  10  19  32  47  65  91 123 155 186 225 270
#     4   9  16  29  47  65  87 117 151 188 226 263
#     4  11  21  32  47  67  91 121 154 190 230 271
#     4   9  17  28  45  67  91 120 152 185 221 265
#     4   9  16  28  45  65  88 115 149 188 228 268
#     4   9  17  30  48  67  88 118 152 190 231 268
#     4   9  16  29  46  64  89 122 153 180 218 267
#     4  10  19  30  43  60  88 124 156 181 212 256
#
# _framework density 16.035157000000002
#
# number of rings (size 3 to 8) (size 9 to 14) (size 15 to 20)
#    0.000    2.500    1.250    3.000    0.000    2.500 
#    0.000    1.250    0.000    0.000    0.000    0.875 
#    0.000    2.000    0.000    0.000    0.000    0.000 
#
# Total GULP energy -396628.656384 kJ/mol
# GULP energy per Si atom -12394.645512 kJ/mol
# Density = 1.599866 g / cm^3
# Si number density = 16.035157 Si / 1000 Ang^3
#
#
#
# Elastic Constant Matrix: (Units=GPa)
#
#
# Indices 1 2 3 4 5 6 
#
# 1 59.3283 37.6007 43.0825 0.0000 0.0000 0.0000
# 2 37.6007 99.9420 41.0677 0.0000 0.0000 0.0000
# 3 43.0825 41.0677 99.5355 0.0000 0.0000 0.0000
# 4 0.0000 0.0000 0.0000 49.5906 0.0000 0.0000
# 5 0.0000 0.0000 0.0000 0.0000 21.2163 0.0000
# 6 0.0000 0.0000 0.0000 0.0000 0.0000 22.5746
#
#
#
# Elastic Compliance Matrix: (Units=1/GPa)
#
#
# Indices 1 2 3 4 5 6 
#
# 1 0.027820 -0.006645 -0.009300 0.000000 0.000000 0.000000
# 2 -0.006645 0.013636 -0.002750 0.000000 0.000000 0.000000
# 3 -0.009300 -0.002750 0.015206 0.000000 0.000000 0.000000
# 4 0.000000 0.000000 0.000000 0.020165 0.000000 0.000000
# 5 0.000000 0.000000 0.000000 0.000000 0.047134 0.000000
# 6 0.000000 0.000000 0.000000 0.000000 0.000000 0.044298
#
#
# Mechanical properties :
#
#
# Convention : Reuss Voigt Hill
#
# Bulk Modulus (GPa) = 51.88623 55.81193 53.84908
# Shear Modulus (GPa) = 23.57684 27.81329 25.69507
#
# Velocity S-wave (km/s) = 3.83864 4.16927 4.00737
# Velocity P-wave (km/s) = 7.21629 7.61962 7.42070
#
# Compressibility (1/GPa) = 0.01927294
#
# Stress axis : x y z
#
# Youngs Moduli (GPa) = 35.94522 73.33622 65.76148
#
# Poissons Ratio (x) = 0.48733 0.61157
# Poissons Ratio (y) = 0.23886 0.18083
# Poissons Ratio (z) = 0.33428 0.20166
#
# Static dielectric constant tensor:
#      x y z
#    x 2.879640 0.000000 0.000000 
#    y 0.000000 2.868910 0.000000 
#    z 0.000000 0.000000 3.476710 
# 
# 
# High freq. dielectric constant tensor:
#      x y z
#    x 1.607160 0.000000 0.000000 
#    y 0.000000 1.595180 0.000000 
#    z 0.000000 0.000000 1.610990 
# 
# From -- ./inp_files/6408.got.cif
#   From: 2010.03.12/outbox.cif.g09.slc.cpg/sg28_4_cif.got.tgz:6408.got - 2010.04.14 03:39:34.
