data_PCOD8168420
_publ_section_title
;
Structure prediction by ZEFSAII (Michael W. Deem and Ramdas Pophale) SiO2 
 PCOD8168420
Probable space group: P M A 2
;
_chemical_formula_sum "Si O2"
_cell_formula_units_Z 28
_cell_length_a 8.730891
_cell_length_b 9.109090
_cell_length_c 17.842835
_cell_angle_alpha 90.000000
_cell_angle_beta 90.000000
_cell_angle_gamma 90.000000
_cell_volume 1419.049088
_symmetry_space_group_name_H-M "P M A 2"
_symmetry_group_IT_number 28
_symmetry_cell_setting 'orthorhombic'
loop_
_space_group_symop_operation_xyz
x,y,z
-x,-y,z
1/2-x,y,z
1/2+x,-y,z
loop_
_atom_site_type_symbol
_atom_site_label
_atom_site_fract_x
_atom_site_fract_y
_atom_site_fract_z
Si Si1 0.431321 0.658282 0.001510
Si Si2 0.067743 0.160324 0.579083
Si Si3 0.070853 0.847251 0.306481
Si Si4 0.569052 0.153752 0.139066
Si Si5 0.570420 0.158500 0.860842
Si Si6 0.930983 0.340049 0.445877
Si Si7 0.568525 0.340246 0.714560
O O1 0.500000 0.500000 0.989506
O O2 0.250000 0.646057 0.998001
O O3 0.487850 0.722174 0.081362
O O4 0.493766 0.761954 0.935086
O O5 0.250000 0.151436 0.577733
O O6 0.007159 0.223890 0.501169
O O7 0.012524 0.266202 0.644430
O O8 0.000000 0.000000 0.592889
O O9 0.250000 0.873762 0.305437
O O10 0.011398 0.805598 0.222991
O O11 0.027486 0.714879 0.362166
O O12 0.000000 0.000000 0.334769
O O13 0.750000 0.138765 0.136121
O O14 0.500000 0.000000 0.112581
O O15 0.750000 0.139768 0.866954
O O16 0.523569 0.251721 0.788607
O O17 0.500000 0.000000 0.852610
O O18 0.750000 0.345557 0.460125
O O19 0.000000 0.500000 0.458851
O O20 0.500000 0.500000 0.724805
O O21 0.750000 0.346847 0.700993
#
# Coordination Sequence:
#
# PCOD8168420 Si02
#       7
#     4   4   4   4   4   4   4
#     4  10  21  36  54  80 113 147 185 229 277 329
#     4  12  25  42  63  87 115 148 188 232 280 334
#     4   9  19  35  56  81 110 145 185 230 278 331
#     4   9  18  34  55  80 110 144 185 230 276 329
#     4  10  22  38  58  84 113 147 188 232 277 329
#     4  11  23  39  58  83 115 150 189 233 283 335
#     4  11  23  40  61  87 118 151 188 230 280 333
#
# _framework density 19.731522999999999
#
# number of rings (size 3 to 8) (size 9 to 14) (size 15 to 20)
#    0.000    1.714    0.000    4.286    0.000    6.286 
#    0.000    0.000    0.000    0.000    0.000    0.000 
#    0.000    0.000    0.000    0.000    0.000    0.000 
#
# Total GULP energy -347282.853596 kJ/mol
# GULP energy per Si atom -12402.959057 kJ/mol
# Density = 1.968661 g / cm^3
# Si number density = 19.731523 Si / 1000 Ang^3
#
#
#
# Elastic Constant Matrix: (Units=GPa)
#
#
# Indices 1 2 3 4 5 6 
#
# 1 67.1120 44.3145 45.5589 0.0000 0.0000 0.0000
# 2 44.3145 149.4708 63.6626 0.0000 0.0000 0.0000
# 3 45.5589 63.6626 123.8957 0.0000 0.0000 0.0000
# 4 0.0000 0.0000 0.0000 41.4335 0.0000 0.0000
# 5 0.0000 0.0000 0.0000 0.0000 10.7211 0.0000
# 6 0.0000 0.0000 0.0000 0.0000 0.0000 38.2036
#
#
#
# Elastic Compliance Matrix: (Units=1/GPa)
#
#
# Indices 1 2 3 4 5 6 
#
# 1 0.021452 -0.003841 -0.005915 0.000000 0.000000 0.000000
# 2 -0.003841 0.009252 -0.003342 0.000000 0.000000 0.000000
# 3 -0.005915 -0.003342 0.011963 0.000000 0.000000 0.000000
# 4 0.000000 0.000000 0.000000 0.024135 0.000000 0.000000
# 5 0.000000 0.000000 0.000000 0.000000 0.093274 0.000000
# 6 0.000000 0.000000 0.000000 0.000000 0.000000 0.026176
#
#
# Mechanical properties :
#
#
# Convention : Reuss Voigt Hill
#
# Bulk Modulus (GPa) = 60.70598 71.95006 66.32802
# Shear Modulus (GPa) = 22.94231 30.53447 26.73839
#
# Velocity S-wave (km/s) = 3.41357 3.93809 3.68518
# Velocity P-wave (km/s) = 6.80951 7.56451 7.19692
#
# Compressibility (1/GPa) = 0.01647284
#
# Stress axis : x y z
#
# Youngs Moduli (GPa) = 46.61627 108.08078 83.58777
#
# Poissons Ratio (x) = 0.41511 0.49440
# Poissons Ratio (y) = 0.17904 0.27934
# Poissons Ratio (z) = 0.27572 0.36120
#
# Static dielectric constant tensor:
#      x y z
#    x 3.582010 0.000000 0.000000 
#    y 0.000000 3.344260 0.000000 
#    z 0.000000 0.000000 4.080710 
# 
# 
# High freq. dielectric constant tensor:
#      x y z
#    x 1.767310 0.000000 0.000000 
#    y 0.000000 1.776050 0.000000 
#    z 0.000000 0.000000 1.788870 
# 
# From -- ./inp_files/6753.got.cif
#   From: 2010.03.12/outbox.cif.g09.slc.cpg/sg28_4_cif.got.tgz:6753.got - 2010.04.14 03:39:34.
