data_PCOD8168059
_publ_section_title
;
Structure prediction by ZEFSAII (Michael W. Deem and Ramdas Pophale) SiO2 
 PCOD8168059
Probable space group: P M A 2
;
_chemical_formula_sum "Si O2"
_cell_formula_units_Z 32
_cell_length_a 14.041988
_cell_length_b 9.496296
_cell_length_c 11.920315
_cell_angle_alpha 90.000000
_cell_angle_beta 90.000000
_cell_angle_gamma 90.000000
_cell_volume 1589.536748
_symmetry_space_group_name_H-M "P M A 2"
_symmetry_group_IT_number 28
_symmetry_cell_setting 'orthorhombic'
loop_
_space_group_symop_operation_xyz
x,y,z
-x,-y,z
1/2-x,y,z
1/2+x,-y,z
loop_
_atom_site_type_symbol
_atom_site_label
_atom_site_fract_x
_atom_site_fract_y
_atom_site_fract_z
Si Si1 0.362445 0.865511 0.395900
Si Si2 0.474968 0.349475 0.386632
Si Si3 0.134916 0.332148 0.615027
Si Si4 0.860990 0.870811 0.991420
Si Si5 0.033929 0.352828 0.841325
Si Si6 0.862058 0.874076 0.243427
Si Si7 0.852924 0.979914 0.606080
Si Si8 0.413965 0.906975 0.816233
O O1 0.250000 0.827428 0.400011
O O2 0.421700 0.723041 0.389615
O O3 0.406000 0.935432 0.508928
O O4 0.387046 0.973491 0.295487
O O5 0.500000 0.500000 0.331132
O O6 0.420729 0.384178 0.504332
O O7 0.406159 0.255558 0.310911
O O8 0.250000 0.358162 0.608336
O O9 0.090718 0.399681 0.728244
O O10 0.102238 0.170760 0.631896
O O11 0.750000 0.850306 0.994150
O O12 0.902694 0.873643 0.116883
O O13 0.899992 0.736352 0.924691
O O14 0.885178 0.021861 0.934533
O O15 0.000000 0.500000 0.897075
O O16 0.939266 0.257183 0.825080
O O17 0.750000 0.849437 0.246468
O O18 0.750000 0.947571 0.552466
O O19 0.836369 0.072406 0.718829
O O20 0.500000 0.000000 0.765013
#
# Coordination Sequence:
#
# PCOD8168059 Si02
#       8
#     4   4   4   4   4   4   4   4
#     4  10  22  38  60  89 117 151 198 250 295 350
#     4  12  25  38  59  88 124 161 192 239 300 363
#     4  11  21  37  61  87 120 160 202 242 292 352
#     4  10  21  40  63  85 112 150 200 255 301 347
#     4  11  23  37  56  88 124 160 194 237 295 364
#     4  10  22  41  64  87 111 151 207 255 298 348
#     4  10  18  32  57  85 110 142 194 246 289 336
#     4  10  19  32  57  84 112 145 192 239 287 343
#
# _framework density 20.131651999999999
#
# number of rings (size 3 to 8) (size 9 to 14) (size 15 to 20)
#    0.000    1.500    3.750    2.625    0.000    4.500 
#    0.000    3.750    0.000    3.000    0.000    0.000 
#    0.000    0.000    0.000    0.000    0.000    0.000 
#
# Total GULP energy -396479.588401 kJ/mol
# GULP energy per Si atom -12389.987138 kJ/mol
# Density = 2.008583 g / cm^3
# Si number density = 20.131652 Si / 1000 Ang^3
#
#
#
# Elastic Constant Matrix: (Units=GPa)
#
#
# Indices 1 2 3 4 5 6 
#
# 1 68.4564 32.0756 26.7577 0.0000 0.0000 0.0000
# 2 32.0756 119.5002 23.4475 0.0000 0.0000 0.0000
# 3 26.7577 23.4475 123.4299 0.0000 0.0000 0.0000
# 4 0.0000 0.0000 0.0000 8.6535 0.0000 0.0000
# 5 0.0000 0.0000 0.0000 0.0000 23.9417 0.0000
# 6 0.0000 0.0000 0.0000 0.0000 0.0000 18.7181
#
#
#
# Elastic Compliance Matrix: (Units=1/GPa)
#
#
# Indices 1 2 3 4 5 6 
#
# 1 0.017755 -0.004166 -0.003058 0.000000 0.000000 0.000000
# 2 -0.004166 0.009670 -0.000934 0.000000 0.000000 0.000000
# 3 -0.003058 -0.000934 0.008942 0.000000 0.000000 0.000000
# 4 0.000000 0.000000 0.000000 0.115560 0.000000 0.000000
# 5 0.000000 0.000000 0.000000 0.000000 0.041768 0.000000
# 6 0.000000 0.000000 0.000000 0.000000 0.000000 0.053424
#
#
# Mechanical properties :
#
#
# Convention : Reuss Voigt Hill
#
# Bulk Modulus (GPa) = 49.87017 52.88312 51.37665
# Shear Modulus (GPa) = 18.51046 25.53637 22.02341
#
# Velocity S-wave (km/s) = 3.03557 3.56542 3.31111
# Velocity P-wave (km/s) = 6.09196 6.57840 6.33985
#
# Compressibility (1/GPa) = 0.02005207
#
# Stress axis : x y z
#
# Youngs Moduli (GPa) = 56.32267 103.41739 111.83170
#
# Poissons Ratio (x) = 0.43081 0.34194
# Poissons Ratio (y) = 0.23462 0.10443
# Poissons Ratio (z) = 0.17221 0.09657
#
# Static dielectric constant tensor:
#      x y z
#    x 3.767000 0.000000 0.000000 
#    y 0.000000 3.463940 0.000000 
#    z 0.000000 0.000000 3.842550 
# 
# 
# High freq. dielectric constant tensor:
#      x y z
#    x 1.796060 0.000000 0.000000 
#    y 0.000000 1.767120 0.000000 
#    z 0.000000 0.000000 1.782880 
# 
# From -- ./inp_files/5561.got.cif
#   From: 2010.03.12/outbox.cif.g09.slc.cpg/sg28_3_cif.got.tgz:5561.got - 2010.04.14 03:39:34.
