data_PCOD8168233
_publ_section_title
;
Structure prediction by ZEFSAII (Michael W. Deem and Ramdas Pophale) SiO2 
 PCOD8168233
Probable space group: P M A 2
;
_chemical_formula_sum "Si O2"
_cell_formula_units_Z 32
_cell_length_a 14.594733
_cell_length_b 8.777562
_cell_length_c 14.005347
_cell_angle_alpha 90.000000
_cell_angle_beta 90.000000
_cell_angle_gamma 90.000000
_cell_volume 1794.171417
_symmetry_space_group_name_H-M "P M A 2"
_symmetry_group_IT_number 28
_symmetry_cell_setting 'orthorhombic'
loop_
_space_group_symop_operation_xyz
x,y,z
-x,-y,z
1/2-x,y,z
1/2+x,-y,z
loop_
_atom_site_type_symbol
_atom_site_label
_atom_site_fract_x
_atom_site_fract_y
_atom_site_fract_z
Si Si1 0.643039 0.322372 0.179780
Si Si2 0.983270 0.175608 0.035275
Si Si3 0.856069 0.326798 0.399425
Si Si4 0.851882 0.605451 0.054211
Si Si5 0.087604 0.593672 0.885893
Si Si6 0.852134 0.347043 0.680194
Si Si7 0.353725 0.396517 0.534250
Si Si8 0.979960 0.175003 0.546074
O O1 0.750000 0.284327 0.165794
O O2 0.584542 0.193043 0.125678
O O3 0.613992 0.326807 0.289753
O O4 0.618790 0.487467 0.136616
O O5 0.080179 0.253104 0.059040
O O6 0.939356 0.252974 0.942057
O O7 0.000000 0.000000 0.012692
O O8 0.750000 0.282079 0.411380
O O9 0.874753 0.492652 0.444850
O O10 0.916308 0.201265 0.453856
O O11 0.750000 0.669390 0.071190
O O12 0.853564 0.516410 0.953733
O O13 0.145152 0.641136 0.794056
O O14 0.000000 0.500000 0.850213
O O15 0.750000 0.290804 0.651193
O O16 0.869724 0.511447 0.632426
O O17 0.927550 0.229569 0.641478
O O18 0.250000 0.332824 0.528208
O O19 0.422998 0.257149 0.531816
O O20 0.000000 0.000000 0.559333
#
# Coordination Sequence:
#
# PCOD8168233 Si02
#       8
#     4   4   4   4   4   4   4   4
#     4   9  18  34  56  76  97 129 172 215 251 290
#     4  10  21  33  49  76 109 138 164 199 250 308
#     4   9  18  35  56  76  97 128 172 216 251 290
#     4   9  18  33  52  75  99 130 172 214 251 290
#     4   9  17  32  54  75  98 131 170 211 249 291
#     4  10  19  34  56  77  97 128 171 215 251 291
#     4   9  19  34  53  75  98 129 172 214 250 290
#     4  11  22  33  50  76 108 139 162 198 251 308
#
# _framework density 17.835531
#
# number of rings (size 3 to 8) (size 9 to 14) (size 15 to 20)
#    0.000    2.500    0.000    4.875    0.000    5.000 
#    0.000    0.000    0.000    3.000    0.000    0.000 
#    0.000    0.000    0.000    0.000    0.000    0.000 
#
# Total GULP energy -396814.740892 kJ/mol
# GULP energy per Si atom -12400.460653 kJ/mol
# Density = 1.779494 g / cm^3
# Si number density = 17.835531 Si / 1000 Ang^3
#
#
#
# Elastic Constant Matrix: (Units=GPa)
#
#
# Indices 1 2 3 4 5 6 
#
# 1 90.5955 48.1464 31.4172 0.0000 0.0000 0.0000
# 2 48.1464 100.9408 29.8792 0.0000 0.0000 0.0000
# 3 31.4172 29.8792 121.4750 0.0000 0.0000 0.0000
# 4 0.0000 0.0000 0.0000 8.8698 0.0000 0.0000
# 5 0.0000 0.0000 0.0000 0.0000 28.8825 0.0000
# 6 0.0000 0.0000 0.0000 0.0000 0.0000 14.1086
#
#
#
# Elastic Compliance Matrix: (Units=1/GPa)
#
#
# Indices 1 2 3 4 5 6 
#
# 1 0.015381 -0.006643 -0.002344 0.000000 0.000000 0.000000
# 2 -0.006643 0.013553 -0.001616 0.000000 0.000000 0.000000
# 3 -0.002344 -0.001616 0.009236 0.000000 0.000000 0.000000
# 4 0.000000 0.000000 0.000000 0.112742 0.000000 0.000000
# 5 0.000000 0.000000 0.000000 0.000000 0.034623 0.000000
# 6 0.000000 0.000000 0.000000 0.000000 0.000000 0.070879
#
#
# Mechanical properties :
#
#
# Convention : Reuss Voigt Hill
#
# Bulk Modulus (GPa) = 58.94335 59.09963 59.02149
# Shear Modulus (GPa) = 17.65073 23.94343 20.79708
#
# Velocity S-wave (km/s) = 3.14927 3.66793 3.41845
# Velocity P-wave (km/s) = 6.80763 7.15165 6.98176
#
# Compressibility (1/GPa) = 0.01696544
#
# Stress axis : x y z
#
# Youngs Moduli (GPa) = 65.01466 73.78214 108.27371
#
# Poissons Ratio (x) = 0.49010 0.25381
# Poissons Ratio (y) = 0.43186 0.17494
# Poissons Ratio (z) = 0.15241 0.11921
#
# Static dielectric constant tensor:
#      x y z
#    x 3.490570 0.000000 0.000000 
#    y 0.000000 2.917250 0.000000 
#    z 0.000000 0.000000 3.350880 
# 
# 
# High freq. dielectric constant tensor:
#      x y z
#    x 1.708030 0.000000 0.000000 
#    y 0.000000 1.654660 0.000000 
#    z 0.000000 0.000000 1.693350 
# 
# From -- ./inp_files/6567.got.cif
#   From: 2010.03.12/outbox.cif.g09.slc.cpg/sg28_4_cif.got.tgz:6567.got - 2010.04.14 03:39:34.
