data_PCOD8168861
_publ_section_title
;
Structure prediction by ZEFSAII (Michael W. Deem and Ramdas Pophale) SiO2 
 PCOD8168861
Probable space group: P C A 21
;
_chemical_formula_sum "Si O2"
_cell_formula_units_Z 28
_cell_length_a 9.593083
_cell_length_b 12.321248
_cell_length_c 10.757557
_cell_angle_alpha 90.000000
_cell_angle_beta 90.000000
_cell_angle_gamma 90.000000
_cell_volume 1271.529841
_symmetry_space_group_name_H-M "P C A 21"
_symmetry_group_IT_number 29
_symmetry_cell_setting 'orthorhombic'
loop_
_space_group_symop_operation_xyz
x,y,z
-x,-y,1/2+z
1/2-x,y,1/2+z
1/2+x,-y,z
loop_
_atom_site_type_symbol
_atom_site_label
_atom_site_fract_x
_atom_site_fract_y
_atom_site_fract_z
Si Si1 0.096420 0.098426 0.549250
Si Si2 0.306430 0.643119 0.448386
Si Si3 0.493972 0.711341 0.927252
Si Si4 0.473031 0.326455 0.148216
Si Si5 0.244301 0.402442 0.465405
Si Si6 0.413610 0.106014 0.575532
Si Si7 0.052376 0.239129 0.322143
O O1 0.063270 0.200395 0.635199
O O2 0.256523 0.064989 0.565428
O O3 0.060038 0.131134 0.407721
O O4 0.007298 0.998358 0.598968
O O5 0.165503 0.710208 0.469687
O O6 0.382971 0.642824 0.580955
O O7 0.259658 0.522281 0.408725
O O8 0.405140 0.698306 0.343792
O O9 0.509087 0.655410 0.792982
O O10 0.602745 0.639253 0.007793
O O11 0.541971 0.836394 0.945424
O O12 0.351938 0.401429 0.088670
O O13 0.177813 0.321367 0.360984
O O14 0.435432 0.197622 0.681980
#
# Coordination Sequence:
#
# PCOD8168861 Si02
#       7
#     4   4   4   4   4   4   4
#     4  10  25  43  67  98 132 188 235 286 359 419
#     4  10  24  44  68 102 134 184 232 287 352 425
#     4  12  24  40  69 100 132 183 233 285 353 429
#     4  10  24  46  63  99 148 167 236 300 339 430
#     4  10  21  47  69  96 139 183 228 283 366 416
#     4  12  26  43  71  98 138 189 236 294 368 411
#     4  10  24  47  67 103 149 174 236 309 343 432
#
# _framework density 22.020717000000001
#
# number of rings (size 3 to 8) (size 9 to 14) (size 15 to 20)
#    0.000    1.714    2.857    2.571    8.000    1.143 
#    5.143    0.000    0.000    0.000    0.000    0.000 
#    0.000    0.000    0.000    0.000    0.000    0.000 
#
# Total GULP energy -347087.626354 kJ/mol
# GULP energy per Si atom -12395.986655 kJ/mol
# Density = 2.197060 g / cm^3
# Si number density = 22.020717 Si / 1000 Ang^3
#
#
#
# Elastic Constant Matrix: (Units=GPa)
#
#
# Indices 1 2 3 4 5 6 
#
# 1 189.4841 57.7074 34.7747 0.0000 0.0000 0.0000
# 2 57.7074 116.5476 20.4229 0.0000 0.0000 0.0000
# 3 34.7747 20.4229 84.7261 0.0000 0.0000 0.0000
# 4 0.0000 0.0000 0.0000 20.9853 0.0000 0.0000
# 5 0.0000 0.0000 0.0000 0.0000 14.9049 0.0000
# 6 0.0000 0.0000 0.0000 0.0000 0.0000 43.3873
#
#
#
# Elastic Compliance Matrix: (Units=1/GPa)
#
#
# Indices 1 2 3 4 5 6 
#
# 1 0.006518 -0.002880 -0.001981 0.000000 0.000000 0.000000
# 2 -0.002880 0.010231 -0.001284 0.000000 0.000000 0.000000
# 3 -0.001981 -0.001284 0.012925 0.000000 0.000000 0.000000
# 4 0.000000 0.000000 0.000000 0.047652 0.000000 0.000000
# 5 0.000000 0.000000 0.000000 0.000000 0.067092 0.000000
# 6 0.000000 0.000000 0.000000 0.000000 0.000000 0.023048
#
#
# Mechanical properties :
#
#
# Convention : Reuss Voigt Hill
#
# Bulk Modulus (GPa) = 57.52361 68.50752 63.01557
# Shear Modulus (GPa) = 26.94645 34.37901 30.66273
#
# Velocity S-wave (km/s) = 3.50192 3.95550 3.73560
# Velocity P-wave (km/s) = 6.52154 7.21383 6.87640
#
# Compressibility (1/GPa) = 0.01738416
#
# Stress axis : x y z
#
# Youngs Moduli (GPa) = 153.41528 97.73879 77.36738
#
# Poissons Ratio (x) = 0.28152 0.15327
# Poissons Ratio (y) = 0.44188 0.09934
# Poissons Ratio (z) = 0.30392 0.12550
#
# Static dielectric constant tensor:
#      x y z
#    x 4.193230 0.000000 0.000000 
#    y 0.000000 3.840730 0.000000 
#    z 0.000000 0.000000 3.734700 
# 
# 
# High freq. dielectric constant tensor:
#      x y z
#    x 1.886830 0.000000 0.000000 
#    y 0.000000 1.860170 0.000000 
#    z 0.000000 0.000000 1.845720 
# 
# From -- ./inp_files/2891.got.cif
#   From: 2010.03.12/outbox.cif.g09.slc.cpg/sg29_2_cif.got.tgz:2891.got - 2010.04.14 03:43:10.
