data_PCOD8168152
_publ_section_title
;
Structure prediction by ZEFSAII (Michael W. Deem and Ramdas Pophale) SiO2 
 PCOD8168152
Probable space group: P M A 2
;
_chemical_formula_sum "Si O2"
_cell_formula_units_Z 24
_cell_length_a 8.841468
_cell_length_b 9.111817
_cell_length_c 15.541050
_cell_angle_alpha 90.000000
_cell_angle_beta 90.000000
_cell_angle_gamma 90.000000
_cell_volume 1252.015559
_symmetry_space_group_name_H-M "P M A 2"
_symmetry_group_IT_number 28
_symmetry_cell_setting 'orthorhombic'
loop_
_space_group_symop_operation_xyz
x,y,z
-x,-y,z
1/2-x,y,z
1/2+x,-y,z
loop_
_atom_site_type_symbol
_atom_site_label
_atom_site_fract_x
_atom_site_fract_y
_atom_site_fract_z
Si Si1 0.928816 0.842724 0.930130
Si Si2 0.575034 0.343061 0.591335
Si Si3 0.071049 0.339371 0.424181
Si Si4 0.571310 0.841441 0.258727
Si Si5 0.071986 0.341646 0.095768
Si Si6 0.426191 0.659552 0.782068
O O1 0.750000 0.858640 0.922130
O O2 0.993522 0.775412 0.842984
O O3 0.977552 0.739800 0.008955
O O4 0.000000 0.000000 0.947258
O O5 0.500000 0.500000 0.598140
O O6 0.750000 0.358227 0.567070
O O7 0.490346 0.260915 0.512259
O O8 0.553604 0.272022 0.685769
O O9 0.250000 0.353675 0.428037
O O10 0.017348 0.240478 0.344841
O O11 0.000000 0.500000 0.413335
O O12 0.750000 0.858346 0.255516
O O13 0.511181 0.749993 0.177102
O O14 0.500000 0.000000 0.255947
O O15 0.250000 0.360748 0.101226
O O16 0.000000 0.500000 0.096750
O O17 0.500000 0.500000 0.792589
O O18 0.250000 0.643802 0.805592
#
# Coordination Sequence:
#
# PCOD8168152 Si02
#       6
#     4   4   4   4   4   4
#     4  11  23  38  57  81 111 146 182 223 272 325
#     4   9  17  30  51  78 107 140 178 222 270 316
#     4  10  19  32  53  80 108 140 180 224 267 315
#     4  10  22  38  55  79 110 143 179 218 265 319
#     4  10  22  39  59  84 110 139 178 221 266 318
#     4  10  20  35  56  82 111 144 184 228 273 323
#
# _framework density 19.169091999999999
#
# number of rings (size 3 to 8) (size 9 to 14) (size 15 to 20)
#    0.000    2.000    0.000    4.500    0.000    6.667 
#    0.000    0.833    0.000    2.000    0.000    0.000 
#    0.000    0.000    0.000    0.000    0.000    0.000 
#
# Total GULP energy -297562.190775 kJ/mol
# GULP energy per Si atom -12398.424616 kJ/mol
# Density = 1.912546 g / cm^3
# Si number density = 19.169092 Si / 1000 Ang^3
#
#
#
# Elastic Constant Matrix: (Units=GPa)
#
#
# Indices 1 2 3 4 5 6 
#
# 1 80.4721 46.0260 59.8141 0.0000 0.0000 0.0000
# 2 46.0260 126.0295 76.3909 0.0000 0.0000 0.0000
# 3 59.8141 76.3909 175.7946 0.0000 0.0000 0.0000
# 4 0.0000 0.0000 0.0000 14.7937 0.0000 0.0000
# 5 0.0000 0.0000 0.0000 0.0000 30.5279 0.0000
# 6 0.0000 0.0000 0.0000 0.0000 0.0000 33.9200
#
#
#
# Elastic Compliance Matrix: (Units=1/GPa)
#
#
# Indices 1 2 3 4 5 6 
#
# 1 0.017922 -0.003868 -0.004417 0.000000 0.000000 0.000000
# 2 -0.003868 0.011607 -0.003728 0.000000 0.000000 0.000000
# 3 -0.004417 -0.003728 0.008811 0.000000 0.000000 0.000000
# 4 0.000000 0.000000 0.000000 0.067596 0.000000 0.000000
# 5 0.000000 0.000000 0.000000 0.000000 0.032757 0.000000
# 6 0.000000 0.000000 0.000000 0.000000 0.000000 0.029481
#
#
# Mechanical properties :
#
#
# Convention : Reuss Voigt Hill
#
# Bulk Modulus (GPa) = 69.85802 82.97315 76.41559
# Shear Modulus (GPa) = 25.38443 29.18599 27.28521
#
# Velocity S-wave (km/s) = 3.64296 3.90623 3.77689
# Velocity P-wave (km/s) = 7.36322 7.98271 7.67921
#
# Compressibility (1/GPa) = 0.01431475
#
# Stress axis : x y z
#
# Youngs Moduli (GPa) = 55.79686 86.15813 113.49093
#
# Poissons Ratio (x) = 0.33323 0.50133
# Poissons Ratio (y) = 0.21580 0.42305
# Poissons Ratio (z) = 0.24647 0.32116
#
# Static dielectric constant tensor:
#      x y z
#    x 3.553210 0.000000 0.000000 
#    y 0.000000 3.230310 0.000000 
#    z 0.000000 0.000000 4.352730 
# 
# 
# High freq. dielectric constant tensor:
#      x y z
#    x 1.753760 0.000000 0.000000 
#    y 0.000000 1.721710 0.000000 
#    z 0.000000 0.000000 1.772810 
# 
# From -- ./inp_files/6032.got.cif
#   From: 2010.03.12/outbox.cif.g09.slc.cpg/sg28_4_cif.got.tgz:6032.got - 2010.04.14 03:39:34.
