data_PCOD8168329
_publ_section_title
;
Structure prediction by ZEFSAII (Michael W. Deem and Ramdas Pophale) SiO2 
 PCOD8168329
Probable space group: P M A 2
;
_chemical_formula_sum "Si O2"
_cell_formula_units_Z 32
_cell_length_a 8.756258
_cell_length_b 16.486967
_cell_length_c 10.830063
_cell_angle_alpha 90.000000
_cell_angle_beta 90.000000
_cell_angle_gamma 90.000000
_cell_volume 1563.472695
_symmetry_space_group_name_H-M "P M A 2"
_symmetry_group_IT_number 28
_symmetry_cell_setting 'orthorhombic'
loop_
_space_group_symop_operation_xyz
x,y,z
-x,-y,z
1/2-x,y,z
1/2+x,-y,z
loop_
_atom_site_type_symbol
_atom_site_label
_atom_site_fract_x
_atom_site_fract_y
_atom_site_fract_z
Si Si1 0.419934 0.922235 0.173390
Si Si2 0.072404 0.221444 0.059286
Si Si3 0.577013 0.377335 0.173007
Si Si4 0.580222 0.081230 0.461443
Si Si5 0.431528 0.244676 0.550608
Si Si6 0.920166 0.423716 0.904728
Si Si7 0.567645 0.253409 0.816449
Si Si8 0.070046 0.415375 0.426395
O O1 0.250000 0.906972 0.116351
O O2 0.542675 0.853093 0.148087
O O3 0.401929 0.934464 0.317959
O O4 0.500000 0.000000 0.112241
O O5 0.250000 0.243503 0.051018
O O6 0.979793 0.291442 0.126520
O O7 0.003545 0.197776 0.924499
O O8 0.750000 0.369555 0.223389
O O9 0.471706 0.411628 0.281729
O O10 0.571101 0.434645 0.052878
O O11 0.750000 0.089958 0.520984
O O12 0.487752 0.165708 0.476349
O O13 0.500000 0.000000 0.519675
O O14 0.250000 0.244232 0.554133
O O15 0.500072 0.230861 0.685482
O O16 0.488414 0.331789 0.493368
O O17 0.750000 0.423376 0.855090
O O18 0.996831 0.342109 0.854571
O O19 0.000000 0.500000 0.840943
O O20 0.750000 0.246463 0.816617
O O21 0.250000 0.422212 0.440310
O O22 0.000000 0.500000 0.481675
#
# Coordination Sequence:
#
# PCOD8168329 Si02
#       8
#     4   4   4   4   4   4   4   4
#     4  10  20  35  57  87 120 151 184 224 276 338
#     4  11  21  35  57  84 114 148 186 230 285 344
#     4  10  20  35  55  81 113 148 189 236 288 345
#     4  10  21  38  63  92 121 154 191 236 288 345
#     4  11  24  41  60  84 115 153 199 247 294 345
#     4   9  19  33  52  78 106 138 178 228 281 335
#     4  10  22  40  58  78 107 146 192 237 284 339
#     4  11  24  39  57  84 119 158 199 244 294 351
#
# _framework density 20.467258000000001
#
# number of rings (size 3 to 8) (size 9 to 14) (size 15 to 20)
#    0.000    1.750    0.000    5.250    0.000   10.000 
#    0.000    3.125    0.000    0.000    0.000    0.000 
#    0.000    0.000    0.000    0.000    0.000    0.000 
#
# Total GULP energy -396572.419412 kJ/mol
# GULP energy per Si atom -12392.888107 kJ/mol
# Density = 2.042067 g / cm^3
# Si number density = 20.467258 Si / 1000 Ang^3
#
#
#
# Elastic Constant Matrix: (Units=GPa)
#
#
# Indices 1 2 3 4 5 6 
#
# 1 81.6128 36.2319 13.6180 0.0000 0.0000 0.0000
# 2 36.2319 110.5260 7.5757 0.0000 0.0000 0.0000
# 3 13.6180 7.5757 39.3789 0.0000 0.0000 0.0000
# 4 0.0000 0.0000 0.0000 11.4269 0.0000 0.0000
# 5 0.0000 0.0000 0.0000 0.0000 18.5192 0.0000
# 6 0.0000 0.0000 0.0000 0.0000 0.0000 36.4714
#
#
#
# Elastic Compliance Matrix: (Units=1/GPa)
#
#
# Indices 1 2 3 4 5 6 
#
# 1 0.015027 -0.004631 -0.004306 0.000000 0.000000 0.000000
# 2 -0.004631 0.010596 -0.000437 0.000000 0.000000 0.000000
# 3 -0.004306 -0.000437 0.026967 0.000000 0.000000 0.000000
# 4 0.000000 0.000000 0.000000 0.087513 0.000000 0.000000
# 5 0.000000 0.000000 0.000000 0.000000 0.053998 0.000000
# 6 0.000000 0.000000 0.000000 0.000000 0.000000 0.027419
#
#
# Mechanical properties :
#
#
# Convention : Reuss Voigt Hill
#
# Bulk Modulus (GPa) = 29.54825 38.48543 34.01684
# Shear Modulus (GPa) = 19.87684 24.88962 22.38323
#
# Velocity S-wave (km/s) = 3.11971 3.49100 3.31057
# Velocity P-wave (km/s) = 5.23880 5.92399 5.59190
#
# Compressibility (1/GPa) = 0.03384295
#
# Stress axis : x y z
#
# Youngs Moduli (GPa) = 66.54506 94.37775 37.08177
#
# Poissons Ratio (x) = 0.43707 0.15967
# Poissons Ratio (y) = 0.30817 0.01620
# Poissons Ratio (z) = 0.28653 0.04123
#
# Static dielectric constant tensor:
#      x y z
#    x 3.856000 0.000000 0.000000 
#    y 0.000000 3.936620 0.000000 
#    z 0.000000 0.000000 3.568060 
# 
# 
# High freq. dielectric constant tensor:
#      x y z
#    x 1.810560 0.000000 0.000000 
#    y 0.000000 1.805380 0.000000 
#    z 0.000000 0.000000 1.775050 
# 
# From -- ./inp_files/5018.got.cif
#   From: 2010.03.12/outbox.cif.g09.slc.cpg/sg28_3_cif.got.tgz:5018.got - 2010.04.14 03:39:34.
