data_PCOD8168493
_publ_section_title
;
Structure prediction by ZEFSAII (Michael W. Deem and Ramdas Pophale) SiO2 
 PCOD8168493
Probable space group: P M A 2
;
_chemical_formula_sum "Si O2"
_cell_formula_units_Z 20
_cell_length_a 28.051349
_cell_length_b 4.898150
_cell_length_c 5.636653
_cell_angle_alpha 90.000000
_cell_angle_beta 90.000000
_cell_angle_gamma 90.000000
_cell_volume 774.474516
_symmetry_space_group_name_H-M "P M A 2"
_symmetry_group_IT_number 28
_symmetry_cell_setting 'orthorhombic'
loop_
_space_group_symop_operation_xyz
x,y,z
-x,-y,z
1/2-x,y,z
1/2+x,-y,z
loop_
_atom_site_type_symbol
_atom_site_label
_atom_site_fract_x
_atom_site_fract_y
_atom_site_fract_z
Si Si1 0.000000 0.000000 0.738060
Si Si2 0.250000 0.428830 0.741750
Si Si3 0.851057 0.950880 0.419151
Si Si4 0.351631 0.548071 0.749183
Si Si5 0.750000 0.075758 0.432353
Si Si6 0.500000 0.500000 0.412973
Si Si7 0.923131 0.748378 0.074252
O O1 0.016962 0.749645 0.576128
O O2 0.954933 0.921893 0.895484
O O3 0.299230 0.513089 0.876142
O O4 0.250000 0.108763 0.674891
O O5 0.250000 0.606008 0.497557
O O6 0.853573 0.646704 0.520476
O O7 0.799263 0.006253 0.295212
O O8 0.860220 0.150281 0.643477
O O9 0.890641 0.969784 0.213333
O O10 0.391937 0.476878 0.938597
O O11 0.544698 0.579574 0.254883
#
# Coordination Sequence:
#
# PCOD8168493 Si02
#       7
#     2   2   4   4   2   2   4
#     4  12  30  52  72 100 142 184 236 304 362 418
#     4   8  16  37  64  97 143 182 215 275 344 403
#     4  10  23  42  69 105 143 181 229 284 341 417
#     4  10  23  42  69 105 143 181 229 284 341 417
#     4   8  16  37  64  97 143 182 215 275 344 403
#     4  12  30  52  72 100 142 184 236 304 362 418
#     4  12  28  47  76 104 134 189 242 288 360 420
#
# _framework density 25.823961000000001
#
# number of rings (size 3 to 8) (size 9 to 14) (size 15 to 20)
#    0.000    1.600    0.000    2.400    0.000   18.400 
#    0.000    0.000    0.000   14.400    0.000    4.200 
#    0.000    0.000    0.000    0.000    0.000    0.000 
#
# Total GULP energy -247986.254661 kJ/mol
# GULP energy per Si atom -12399.312733 kJ/mol
# Density = 2.576518 g / cm^3
# Si number density = 25.823961 Si / 1000 Ang^3
#
#
#
# Elastic Constant Matrix: (Units=GPa)
#
#
# Indices 1 2 3 4 5 6 
#
# 1 243.3719 51.9191 94.9308 0.0000 0.0000 0.0000
# 2 51.9191 119.4550 43.2515 0.0000 0.0000 0.0000
# 3 94.9308 43.2515 114.5171 0.0000 0.0000 0.0000
# 4 0.0000 0.0000 0.0000 38.9100 0.0000 0.0000
# 5 0.0000 0.0000 0.0000 0.0000 10.3983 0.0000
# 6 0.0000 0.0000 0.0000 0.0000 0.0000 -42.4533
#
#
#
# Elastic Compliance Matrix: (Units=1/GPa)
#
#
# Indices 1 2 3 4 5 6 
#
# 1 0.006166 -0.000961 -0.004749 0.000000 0.000000 0.000000
# 2 -0.000961 0.009847 -0.002923 0.000000 0.000000 0.000000
# 3 -0.004749 -0.002923 0.013773 0.000000 0.000000 0.000000
# 4 0.000000 0.000000 0.000000 0.025700 0.000000 0.000000
# 5 0.000000 0.000000 0.000000 0.000000 0.096169 0.000000
# 6 0.000000 0.000000 0.000000 0.000000 0.000000 -0.023555
#
#
# Mechanical properties :
#
#
# Convention : Reuss Voigt Hill
#
# Bulk Modulus (GPa) = 79.86103 95.28297 87.57200
# Shear Modulus (GPa) = 33.43612 20.52049 26.97831
#
# Velocity S-wave (km/s) = 3.60220 2.82198 3.23569
# Velocity P-wave (km/s) = 6.94935 6.89893 6.92419
#
# Compressibility (1/GPa) = 0.01252175
#
# Stress axis : x y z
#
# Youngs Moduli (GPa) = 162.17469 101.55228 72.60704
#
# Poissons Ratio (x) = 0.09755 0.34479
# Poissons Ratio (y) = 0.15579 0.21222
# Poissons Ratio (z) = 0.77013 0.29682
#
# Static dielectric constant tensor:
#      x y z
#    x 5.271760 0.000000 0.000000 
#    y 0.000000 4.311390 0.000000 
#    z 0.000000 0.000000 4.275200 
# 
# 
# High freq. dielectric constant tensor:
#      x y z
#    x 2.063730 0.000000 0.000000 
#    y 0.000000 2.045540 0.000000 
#    z 0.000000 0.000000 1.996550 
# 
# From -- ./inp_files/1712.got.cif
#   From: 2010.03.12/outbox.cif.g09.slc.cpg/sg28_1_cif.got.tgz:1712.got - 2010.04.14 03:39:34.
