data_PCOD8168767
_publ_section_title
;
Structure prediction by ZEFSAII (Michael W. Deem and Ramdas Pophale) SiO2 
 PCOD8168767
Probable space group: P C A 21
;
_chemical_formula_sum "Si O2"
_cell_formula_units_Z 24
_cell_length_a 26.023520
_cell_length_b 5.175784
_cell_length_c 8.233324
_cell_angle_alpha 90.000000
_cell_angle_beta 90.000000
_cell_angle_gamma 90.000000
_cell_volume 1108.963851
_symmetry_space_group_name_H-M "P C A 21"
_symmetry_group_IT_number 29
_symmetry_cell_setting 'orthorhombic'
loop_
_space_group_symop_operation_xyz
x,y,z
-x,-y,1/2+z
1/2-x,y,1/2+z
1/2+x,-y,z
loop_
_atom_site_type_symbol
_atom_site_label
_atom_site_fract_x
_atom_site_fract_y
_atom_site_fract_z
Si Si1 0.542376 0.228964 0.136910
Si Si2 0.820703 0.756529 0.094116
Si Si3 0.879689 0.256337 0.143291
Si Si4 0.009566 0.729763 0.506532
Si Si5 0.289337 0.243412 0.465225
Si Si6 0.848383 0.256812 0.516266
O O1 0.517252 0.454498 0.030108
O O2 0.522439 0.241986 0.318787
O O3 0.529520 0.954268 0.056940
O O4 0.603980 0.258060 0.139977
O O5 0.855882 0.508640 0.058573
O O6 0.801042 0.755446 0.276585
O O7 0.854439 0.008679 0.057518
O O8 0.771989 0.753423 0.976488
O O9 0.940293 0.249735 0.117564
O O10 0.870531 0.255486 0.334841
O O11 0.313690 0.493154 0.551586
O O12 0.312831 0.990822 0.550744
#
# Coordination Sequence:
#
# PCOD8168767 Si02
#       6
#     4   4   4   4   4   4
#     4  12  25  42  65  93 124 162 205 254 307 366
#     4  10  21  36  57  83 115 153 195 244 297 351
#     4  10  21  38  58  84 117 155 197 246 299 353
#     4  12  25  42  65  93 124 162 205 254 307 366
#     4  10  21  36  57  83 115 153 195 244 297 351
#     4  10  21  38  58  84 117 155 197 246 299 353
#
# _framework density 21.641825999999998
#
# number of rings (size 3 to 8) (size 9 to 14) (size 15 to 20)
#    0.000    1.333    0.000    6.000    0.000    5.333 
#    0.000    0.000    0.000    0.000    0.000    0.000 
#    0.000    0.000    0.000    0.000    0.000    0.000 
#
# Total GULP energy -297788.531576 kJ/mol
# GULP energy per Si atom -12407.855482 kJ/mol
# Density = 2.159257 g / cm^3
# Si number density = 21.641826 Si / 1000 Ang^3
#
#
#
# Elastic Constant Matrix: (Units=GPa)
#
#
# Indices 1 2 3 4 5 6 
#
# 1 90.0103 37.8171 -16.6133 0.0000 0.0000 0.0000
# 2 37.8171 158.9506 7.6563 0.0000 0.0000 0.0000
# 3 -16.6133 7.6563 35.1581 0.0000 0.0000 0.0000
# 4 0.0000 0.0000 0.0000 8.2844 0.0000 0.0000
# 5 0.0000 0.0000 0.0000 0.0000 32.3129 0.0000
# 6 0.0000 0.0000 0.0000 0.0000 0.0000 42.6802
#
#
#
# Elastic Compliance Matrix: (Units=1/GPa)
#
#
# Indices 1 2 3 4 5 6 
#
# 1 0.014036 -0.003698 0.007438 0.000000 0.000000 0.000000
# 2 -0.003698 0.007332 -0.003344 0.000000 0.000000 0.000000
# 3 0.007438 -0.003344 0.032686 0.000000 0.000000 0.000000
# 4 0.000000 0.000000 0.000000 0.120708 0.000000 0.000000
# 5 0.000000 0.000000 0.000000 0.000000 0.030947 0.000000
# 6 0.000000 0.000000 0.000000 0.000000 0.000000 0.023430
#
#
# Mechanical properties :
#
#
# Convention : Reuss Voigt Hill
#
# Bulk Modulus (GPa) = 18.23278 37.98211 28.10745
# Shear Modulus (GPa) = 20.27331 33.67278 26.97305
#
# Velocity S-wave (km/s) = 3.06398 3.94878 3.53418
# Velocity P-wave (km/s) = 4.57825 6.19508 5.44699
#
# Compressibility (1/GPa) = 0.05484626
#
# Stress axis : x y z
#
# Youngs Moduli (GPa) = 71.24430 136.38691 30.59438
#
# Poissons Ratio (x) = 0.50432 -0.22755
# Poissons Ratio (y) = 0.26344 0.10231
# Poissons Ratio (z) = -0.52990 0.45607
#
# Static dielectric constant tensor:
#      x y z
#    x 3.995990 0.000000 0.000000 
#    y 0.000000 4.381280 0.000000 
#    z 0.000000 0.000000 3.616100 
# 
# 
# High freq. dielectric constant tensor:
#      x y z
#    x 1.861910 0.000000 0.000000 
#    y 0.000000 1.870190 0.000000 
#    z 0.000000 0.000000 1.835370 
# 
# From -- ./inp_files/2372.got.cif
#   From: 2010.03.12/outbox.cif.g09.slc.cpg/sg29_2_cif.got.tgz:2372.got - 2010.04.14 03:43:10.
