data_PCOD8168903
_publ_section_title
;
Structure prediction by ZEFSAII (Michael W. Deem and Ramdas Pophale) SiO2 
 PCOD8168903
Probable space group: P C A 21
;
_chemical_formula_sum "Si O2"
_cell_formula_units_Z 32
_cell_length_a 9.345969
_cell_length_b 10.233911
_cell_length_c 14.165142
_cell_angle_alpha 90.000000
_cell_angle_beta 90.000000
_cell_angle_gamma 90.000000
_cell_volume 1354.836551
_symmetry_space_group_name_H-M "P C A 21"
_symmetry_group_IT_number 29
_symmetry_cell_setting 'orthorhombic'
loop_
_space_group_symop_operation_xyz
x,y,z
-x,-y,1/2+z
1/2-x,y,1/2+z
1/2+x,-y,z
loop_
_atom_site_type_symbol
_atom_site_label
_atom_site_fract_x
_atom_site_fract_y
_atom_site_fract_z
Si Si1 0.735577 0.842952 0.117910
Si Si2 0.118086 0.409640 0.572899
Si Si3 0.542575 0.603950 0.787554
Si Si4 0.563600 0.247967 0.948802
Si Si5 0.838385 0.877420 0.818094
Si Si6 0.026090 0.105069 0.845557
Si Si7 0.988369 0.007805 0.037652
Si Si8 0.270791 0.546421 0.897900
O O1 0.767936 0.709045 0.064411
O O2 0.735583 0.807611 0.228478
O O3 0.852891 0.953830 0.094908
O O4 0.576686 0.892861 0.100494
O O5 0.082546 0.446796 0.681728
O O6 0.180248 0.525518 0.507502
O O7 0.971752 0.360240 0.525300
O O8 0.509500 0.758246 0.792349
O O9 0.398951 0.534312 0.823144
O O10 0.663760 0.566597 0.863043
O O11 0.426143 0.227186 0.879797
O O12 0.699217 0.307877 0.892494
O O13 0.590751 0.111873 0.002480
O O14 0.693529 0.927884 0.871344
O O15 0.945506 0.993834 0.783244
O O16 0.940318 0.090837 0.945223
#
# Coordination Sequence:
#
# PCOD8168903 Si02
#       8
#     4   4   4   4   4   4   4   4
#     4  11  22  41  70 105 144 184 238 296 371 447
#     4  11  25  49  71 101 149 191 246 320 372 447
#     4  12  28  46  76 108 144 202 258 309 383 450
#     4  10  24  46  69 100 145 194 237 310 373 435
#     4  11  23  42  70 104 150 189 243 303 376 454
#     4  11  23  43  69 105 146 195 237 304 373 444
#     4  10  22  40  68 101 146 186 231 294 370 445
#     4  12  27  49  75 104 146 197 260 312 378 446
#
# _framework density 23.619085999999999
#
# number of rings (size 3 to 8) (size 9 to 14) (size 15 to 20)
#    0.000    1.000    2.500    4.500    8.750    0.000 
#    0.000    0.000    0.000    0.000    0.000    0.000 
#    0.000    0.000    0.000    0.000    0.000    0.000 
#
# Total GULP energy -396514.926036 kJ/mol
# GULP energy per Si atom -12391.091439 kJ/mol
# Density = 2.356533 g / cm^3
# Si number density = 23.619086 Si / 1000 Ang^3
#
#
#
# Elastic Constant Matrix: (Units=GPa)
#
#
# Indices 1 2 3 4 5 6 
#
# 1 100.4845 20.1390 31.3957 0.0000 0.0000 0.0000
# 2 20.1390 53.5212 25.3436 0.0000 0.0000 0.0000
# 3 31.3957 25.3436 119.5458 0.0000 0.0000 0.0000
# 4 0.0000 0.0000 0.0000 37.2996 0.0000 0.0000
# 5 0.0000 0.0000 0.0000 0.0000 36.8785 0.0000
# 6 0.0000 0.0000 0.0000 0.0000 0.0000 34.8349
#
#
#
# Elastic Compliance Matrix: (Units=1/GPa)
#
#
# Indices 1 2 3 4 5 6 
#
# 1 0.011304 -0.003166 -0.002298 0.000000 0.000000 0.000000
# 2 -0.003166 0.021656 -0.003760 0.000000 0.000000 0.000000
# 3 -0.002298 -0.003760 0.009765 0.000000 0.000000 0.000000
# 4 0.000000 0.000000 0.000000 0.026810 0.000000 0.000000
# 5 0.000000 0.000000 0.000000 0.000000 0.027116 0.000000
# 6 0.000000 0.000000 0.000000 0.000000 0.000000 0.028707
#
#
# Mechanical properties :
#
#
# Convention : Reuss Voigt Hill
#
# Bulk Modulus (GPa) = 41.18693 47.47868 44.33281
# Shear Modulus (GPa) = 32.91711 34.91416 33.91563
#
# Velocity S-wave (km/s) = 3.73723 3.84893 3.79349
# Velocity P-wave (km/s) = 6.00819 6.31647 6.16426
#
# Compressibility (1/GPa) = 0.02427955
#
# Stress axis : x y z
#
# Youngs Moduli (GPa) = 88.46351 46.17749 102.40188
#
# Poissons Ratio (x) = 0.14618 0.23528
# Poissons Ratio (y) = 0.28003 0.38499
# Poissons Ratio (z) = 0.20326 0.17361
#
# Static dielectric constant tensor:
#      x y z
#    x 4.375180 0.000000 0.000000 
#    y 0.000000 3.961510 0.000000 
#    z 0.000000 0.000000 4.378620 
# 
# 
# High freq. dielectric constant tensor:
#      x y z
#    x 1.939120 0.000000 0.000000 
#    y 0.000000 1.918060 0.000000 
#    z 0.000000 0.000000 1.938060 
# 
# From -- ./inp_files/4293.got.cif
#   From: 2010.03.12/outbox.cif.g09.slc.cpg/sg29_3_cif.got.tgz:4293.got - 2010.04.14 03:43:10.
