data_PCOD8168284
_publ_section_title
;
Structure prediction by ZEFSAII (Michael W. Deem and Ramdas Pophale) SiO2 
 PCOD8168284
Probable space group: P M A 2
;
_chemical_formula_sum "Si O2"
_cell_formula_units_Z 28
_cell_length_a 8.820702
_cell_length_b 9.939136
_cell_length_c 17.908426
_cell_angle_alpha 90.000000
_cell_angle_beta 90.000000
_cell_angle_gamma 90.000000
_cell_volume 1570.034515
_symmetry_space_group_name_H-M "P M A 2"
_symmetry_group_IT_number 28
_symmetry_cell_setting 'orthorhombic'
loop_
_space_group_symop_operation_xyz
x,y,z
-x,-y,z
1/2-x,y,z
1/2+x,-y,z
loop_
_atom_site_type_symbol
_atom_site_label
_atom_site_fract_x
_atom_site_fract_y
_atom_site_fract_z
Si Si1 0.924528 0.138032 0.806270
Si Si2 0.925947 0.139776 0.981419
Si Si3 0.425893 0.354571 0.538536
Si Si4 0.072053 0.645946 0.234913
Si Si5 0.926902 0.645554 0.702826
Si Si6 0.930106 0.648274 0.087614
Si Si7 0.073419 0.646423 0.396743
O O1 0.750000 0.131994 0.783879
O O2 0.948458 0.160728 0.893727
O O3 0.002088 0.260655 0.764850
O O4 0.000000 0.000000 0.779437
O O5 0.750000 0.139813 0.004304
O O6 0.000000 0.000000 0.007846
O O7 0.013392 0.262144 0.019433
O O8 0.500000 0.500000 0.541197
O O9 0.250000 0.368389 0.521893
O O10 0.455519 0.289169 0.620111
O O11 0.500799 0.273438 0.468006
O O12 0.250000 0.634731 0.217362
O O13 0.044264 0.718431 0.315799
O O14 0.000000 0.500000 0.240476
O O15 0.988589 0.718297 0.165217
O O16 0.750000 0.629678 0.718517
O O17 0.000000 0.500000 0.709907
O O18 0.750000 0.639248 0.087028
O O19 0.000000 0.500000 0.078908
O O20 0.250000 0.630924 0.411252
O O21 0.000000 0.500000 0.394092
#
# Coordination Sequence:
#
# PCOD8168284 Si02
#       7
#     4   4   4   4   4   4   4
#     4  10  21  37  57  77  99 129 164 204 248 296
#     4  10  21  38  57  77 100 128 164 204 247 297
#     4   9  16  25  39  61  91 126 161 199 241 286
#     4   9  16  26  40  62  93 127 162 201 244 290
#     4  10  20  33  50  74 104 135 168 207 251 296
#     4  11  21  33  51  75 103 135 168 206 251 295
#     4   9  15  22  36  58  87 124 161 197 239 286
#
# _framework density 17.834002999999999
#
# number of rings (size 3 to 8) (size 9 to 14) (size 15 to 20)
#    0.000    2.286    0.000    5.571    0.000    5.714 
#    0.000    0.000    0.000    0.000    0.000    1.000 
#    0.000    2.286    0.000    0.000    0.000    0.000 
#
# Total GULP energy -346931.957931 kJ/mol
# GULP energy per Si atom -12390.427069 kJ/mol
# Density = 1.779341 g / cm^3
# Si number density = 17.834003 Si / 1000 Ang^3
#
#
#
# Elastic Constant Matrix: (Units=GPa)
#
#
# Indices 1 2 3 4 5 6 
#
# 1 153.4414 45.7572 65.9221 0.0000 0.0000 0.0000
# 2 45.7572 62.9688 48.0714 0.0000 0.0000 0.0000
# 3 65.9221 48.0714 91.0882 0.0000 0.0000 0.0000
# 4 0.0000 0.0000 0.0000 -0.1747 0.0000 0.0000
# 5 0.0000 0.0000 0.0000 0.0000 33.3170 0.0000
# 6 0.0000 0.0000 0.0000 0.0000 0.0000 23.8591
#
#
#
# Elastic Compliance Matrix: (Units=1/GPa)
#
#
# Indices 1 2 3 4 5 6 
#
# 1 0.009753 -0.002845 -0.005557 0.000000 0.000000 0.000000
# 2 -0.002845 0.027426 -0.012415 0.000000 0.000000 0.000000
# 3 -0.005557 -0.012415 0.021552 0.000000 0.000000 0.000000
# 4 0.000000 0.000000 0.000000 -5.723121 0.000000 0.000000
# 5 0.000000 0.000000 0.000000 0.000000 0.030015 0.000000
# 6 0.000000 0.000000 0.000000 0.000000 0.000000 0.041913
#
#
# Mechanical properties :
#
#
# Convention : Reuss Voigt Hill
#
# Bulk Modulus (GPa) = 58.48930 69.66664 64.07797
# Shear Modulus (GPa) = -0.90169 21.25011 10.17421
#
# Velocity S-wave (km/s) = -0.71183 3.45563 2.39109
# Velocity P-wave (km/s) = 5.67381 7.42095 6.60540
#
# Compressibility (1/GPa) = 0.01709714
#
# Stress axis : x y z
#
# Youngs Moduli (GPa) = 102.53349 36.46180 46.39915
#
# Poissons Ratio (x) = 0.10372 0.25784
# Poissons Ratio (y) = 0.29168 0.57605
# Poissons Ratio (z) = 0.56978 0.45268
#
# Static dielectric constant tensor:
#      x y z
#    x 3.525950 0.000000 0.000000 
#    y 0.000000 2.770790 0.000000 
#    z 0.000000 0.000000 4.375010 
# 
# 
# High freq. dielectric constant tensor:
#      x y z
#    x 1.714230 0.000000 0.000000 
#    y 0.000000 1.620940 0.000000 
#    z 0.000000 0.000000 1.716880 
# 
# From -- ./inp_files/7013.got.cif
#   From: 2010.03.12/outbox.cif.g09.slc.cpg/sg28_4_cif.got.tgz:7013.got - 2010.04.14 03:39:34.
