data_PCOD8168360
_publ_section_title
;
Structure prediction by ZEFSAII (Michael W. Deem and Ramdas Pophale) SiO2 
 PCOD8168360
Probable space group: P M A 2
;
_chemical_formula_sum "Si O2"
_cell_formula_units_Z 32
_cell_length_a 16.613273
_cell_length_b 4.984443
_cell_length_c 17.907877
_cell_angle_alpha 90.000000
_cell_angle_beta 90.000000
_cell_angle_gamma 90.000000
_cell_volume 1482.913908
_symmetry_space_group_name_H-M "P M A 2"
_symmetry_group_IT_number 28
_symmetry_cell_setting 'orthorhombic'
loop_
_space_group_symop_operation_xyz
x,y,z
-x,-y,z
1/2-x,y,z
1/2+x,-y,z
loop_
_atom_site_type_symbol
_atom_site_label
_atom_site_fract_x
_atom_site_fract_y
_atom_site_fract_z
Si Si1 0.659430 0.293910 0.119670
Si Si2 0.840697 0.776760 0.022162
Si Si3 0.840645 0.877519 0.495509
Si Si4 0.341856 0.396315 0.739985
Si Si5 0.053199 0.741723 0.258816
Si Si6 0.158155 0.607603 0.399419
Si Si7 0.052997 0.258301 0.879983
Si Si8 0.840583 0.118548 0.643816
O O1 0.750000 0.358068 0.146792
O O2 0.621812 0.557582 0.079502
O O3 0.611798 0.184797 0.191211
O O4 0.657663 0.064303 0.058972
O O5 0.750000 0.684890 0.002337
O O6 0.887888 0.821363 0.945958
O O7 0.750000 0.801340 0.520191
O O8 0.842754 0.095939 0.431315
O O9 0.885339 0.998038 0.569637
O O10 0.878601 0.605943 0.459909
O O11 0.250000 0.482028 0.761147
O O12 0.397935 0.387676 0.811694
O O13 0.378434 0.609756 0.679324
O O14 0.342461 0.100047 0.707895
O O15 0.102611 0.615909 0.327318
O O16 0.000000 0.500000 0.228183
O O17 0.000000 0.000000 0.282140
O O18 0.250000 0.521807 0.378418
O O19 0.000000 0.500000 0.911596
O O20 0.000000 0.000000 0.855695
O O21 0.750000 0.194496 0.618796
#
# Coordination Sequence:
#
# PCOD8168360 Si02
#       8
#     4   4   4   4   4   4   4   4
#     4  10  22  41  64  88 115 150 195 245 296 353
#     4  10  22  41  64  88 115 150 195 245 296 353
#     4   9  17  31  56  88 114 141 188 245 291 336
#     4  10  20  36  58  83 115 153 192 237 290 348
#     4  12  25  39  58  85 120 158 196 241 291 350
#     4  10  20  36  58  83 115 153 192 237 290 348
#     4  12  25  39  58  85 120 158 196 241 291 350
#     4   9  17  31  56  88 114 141 188 245 291 336
#
# _framework density 21.579135000000001
#
# number of rings (size 3 to 8) (size 9 to 14) (size 15 to 20)
#    0.000    1.750    0.000    4.500    0.000    6.000 
#    0.000   10.000    0.000   11.250    0.000    0.000 
#    0.000    0.000    0.000    0.000    0.000    0.000 
#
# Total GULP energy -396691.997683 kJ/mol
# GULP energy per Si atom -12396.624928 kJ/mol
# Density = 2.153002 g / cm^3
# Si number density = 21.579135 Si / 1000 Ang^3
#
#
#
# Elastic Constant Matrix: (Units=GPa)
#
#
# Indices 1 2 3 4 5 6 
#
# 1 62.5288 24.0021 46.6401 0.0000 0.0000 0.0000
# 2 24.0021 113.3647 17.5215 0.0000 0.0000 0.0000
# 3 46.6401 17.5215 112.2814 0.0000 0.0000 0.0000
# 4 0.0000 0.0000 0.0000 39.3619 0.0000 0.0000
# 5 0.0000 0.0000 0.0000 0.0000 -44.0950 0.0000
# 6 0.0000 0.0000 0.0000 0.0000 0.0000 15.7545
#
#
#
# Elastic Compliance Matrix: (Units=1/GPa)
#
#
# Indices 1 2 3 4 5 6 
#
# 1 0.024614 -0.003721 -0.009644 0.000000 0.000000 0.000000
# 2 -0.003721 0.009602 0.000047 0.000000 0.000000 0.000000
# 3 -0.009644 0.000047 0.012905 0.000000 0.000000 0.000000
# 4 0.000000 0.000000 0.000000 0.025405 0.000000 0.000000
# 5 0.000000 0.000000 0.000000 0.000000 -0.022678 0.000000
# 6 0.000000 0.000000 0.000000 0.000000 0.000000 0.063474
#
#
# Mechanical properties :
#
#
# Convention : Reuss Voigt Hill
#
# Bulk Modulus (GPa) = 48.81445 51.61137 50.21291
# Shear Modulus (GPa) = 34.06354 15.53836 24.80095
#
# Velocity S-wave (km/s) = 3.97740 2.68631 3.39381
# Velocity P-wave (km/s) = 6.61537 5.79576 6.21908
#
# Compressibility (1/GPa) = 0.02048574
#
# Stress axis : x y z
#
# Youngs Moduli (GPa) = 40.62705 104.14946 77.49135
#
# Poissons Ratio (x) = 0.38753 0.74730
# Poissons Ratio (y) = 0.15117 -0.00366
# Poissons Ratio (z) = 0.39180 -0.00493
#
# Static dielectric constant tensor:
#      x y z
#    x 3.820190 0.000000 0.000000 
#    y 0.000000 3.986250 0.000000 
#    z 0.000000 0.000000 3.804190 
# 
# 
# High freq. dielectric constant tensor:
#      x y z
#    x 1.813720 0.000000 0.000000 
#    y 0.000000 1.866680 0.000000 
#    z 0.000000 0.000000 1.850060 
# 
# From -- ./inp_files/6983.got.cif
#   From: 2010.03.12/outbox.cif.g09.slc.cpg/sg28_4_cif.got.tgz:6983.got - 2010.04.14 03:39:34.
