data_PCOD8168398
_publ_section_title
;
Structure prediction by ZEFSAII (Michael W. Deem and Ramdas Pophale) SiO2 
 PCOD8168398
Probable space group: P M A 2
;
_chemical_formula_sum "Si O2"
_cell_formula_units_Z 32
_cell_length_a 8.432541
_cell_length_b 15.410035
_cell_length_c 11.876648
_cell_angle_alpha 90.000000
_cell_angle_beta 90.000000
_cell_angle_gamma 90.000000
_cell_volume 1543.319955
_symmetry_space_group_name_H-M "P M A 2"
_symmetry_group_IT_number 28
_symmetry_cell_setting 'orthorhombic'
loop_
_space_group_symop_operation_xyz
x,y,z
-x,-y,z
1/2-x,y,z
1/2+x,-y,z
loop_
_atom_site_type_symbol
_atom_site_label
_atom_site_fract_x
_atom_site_fract_y
_atom_site_fract_z
Si Si1 0.565838 0.093512 0.718800
Si Si2 0.433460 0.152209 0.949653
Si Si3 0.934918 0.407954 0.197472
Si Si4 0.564086 0.646710 0.967698
Si Si5 0.564567 0.089438 0.179200
Si Si6 0.062364 0.408249 0.722319
Si Si7 0.063919 0.243884 0.323062
Si Si8 0.936707 0.749976 0.577391
O O1 0.750000 0.097164 0.692281
O O2 0.537137 0.112904 0.849729
O O3 0.478911 0.162224 0.640353
O O4 0.500000 0.000000 0.685393
O O5 0.250000 0.141176 0.916606
O O6 0.477393 0.252021 0.968510
O O7 0.470768 0.100978 0.062873
O O8 0.750000 0.399418 0.224830
O O9 0.000000 0.500000 0.241089
O O10 0.032261 0.334186 0.261420
O O11 0.963509 0.400248 0.063972
O O12 0.750000 0.631015 0.989420
O O13 0.505187 0.606779 0.850061
O O14 0.750000 0.084601 0.154315
O O15 0.531632 0.167231 0.264199
O O16 0.500000 0.000000 0.233660
O O17 0.250000 0.405735 0.717208
O O18 0.989765 0.332522 0.643660
O O19 0.000000 0.500000 0.677053
O O20 0.250000 0.222846 0.316784
O O21 0.998743 0.249474 0.450239
O O22 0.750000 0.739777 0.575439
#
# Coordination Sequence:
#
# PCOD8168398 Si02
#       8
#     4   4   4   4   4   4   4   4
#     4  12  25  41  65  95 129 166 210 258 313 376
#     4  11  21  39  66  94 130 167 205 254 314 378
#     4  12  25  41  64  93 130 167 212 261 313 380
#     4  10  20  37  64  92 127 165 204 252 315 377
#     4  12  25  42  65  95 129 165 208 257 314 380
#     4  10  21  39  62  92 125 161 200 249 305 366
#     4  11  24  44  68  92 123 165 213 266 320 376
#     4  10  23  45  67  89 123 166 212 261 316 371
#
# _framework density 20.734521999999998
#
# number of rings (size 3 to 8) (size 9 to 14) (size 15 to 20)
#    0.000    1.000    2.500    4.875    0.000    4.500 
#    0.000    1.250    0.000    0.000    0.000    0.000 
#    0.000    0.000    0.000    0.000    0.000    0.000 
#
# Total GULP energy -397018.113091 kJ/mol
# GULP energy per Si atom -12406.816034 kJ/mol
# Density = 2.068733 g / cm^3
# Si number density = 20.734522 Si / 1000 Ang^3
#
#
#
# Elastic Constant Matrix: (Units=GPa)
#
#
# Indices 1 2 3 4 5 6 
#
# 1 22.4214 2.7775 2.3567 0.0000 0.0000 0.0000
# 2 2.7775 147.2397 45.0175 0.0000 0.0000 0.0000
# 3 2.3567 45.0175 126.5163 0.0000 0.0000 0.0000
# 4 0.0000 0.0000 0.0000 31.0655 0.0000 0.0000
# 5 0.0000 0.0000 0.0000 0.0000 7.8416 0.0000
# 6 0.0000 0.0000 0.0000 0.0000 0.0000 33.5958
#
#
#
# Elastic Compliance Matrix: (Units=1/GPa)
#
#
# Indices 1 2 3 4 5 6 
#
# 1 0.044745 -0.000661 -0.000598 0.000000 0.000000 0.000000
# 2 -0.000661 0.007630 -0.002703 0.000000 0.000000 0.000000
# 3 -0.000598 -0.002703 0.008877 0.000000 0.000000 0.000000
# 4 0.000000 0.000000 0.000000 0.032190 0.000000 0.000000
# 5 0.000000 0.000000 0.000000 0.000000 0.127525 0.000000
# 6 0.000000 0.000000 0.000000 0.000000 0.000000 0.029766
#
#
# Mechanical properties :
#
#
# Convention : Reuss Voigt Hill
#
# Bulk Modulus (GPa) = 18.75184 44.05340 31.40262
# Shear Modulus (GPa) = 18.08753 30.90230 24.49491
#
# Velocity S-wave (km/s) = 2.95674 3.86473 3.44082
# Velocity P-wave (km/s) = 4.55191 6.41930 5.56450
#
# Compressibility (1/GPa) = 0.05332809
#
# Stress axis : x y z
#
# Youngs Moduli (GPa) = 22.34888 131.05342 112.65094
#
# Poissons Ratio (x) = 0.08664 0.06739
# Poissons Ratio (y) = 0.01478 0.30447
# Poissons Ratio (z) = 0.01337 0.35421
#
# Static dielectric constant tensor:
#      x y z
#    x 3.646800 0.000000 0.000000 
#    y 0.000000 3.888020 0.000000 
#    z 0.000000 0.000000 3.866610 
# 
# 
# High freq. dielectric constant tensor:
#      x y z
#    x 1.807590 0.000000 0.000000 
#    y 0.000000 1.830370 0.000000 
#    z 0.000000 0.000000 1.807860 
# 
# From -- ./inp_files/5090.got.cif
#   From: 2010.03.12/outbox.cif.g09.slc.cpg/sg28_3_cif.got.tgz:5090.got - 2010.04.14 03:39:34.
