data_PCOD8168994
_publ_section_title
;
Structure prediction by ZEFSAII (Michael W. Deem and Ramdas Pophale) SiO2 
 PCOD8168994
Probable space group: P C A 21
;
_chemical_formula_sum "Si O2"
_cell_formula_units_Z 32
_cell_length_a 13.063761
_cell_length_b 8.833880
_cell_length_c 12.926033
_cell_angle_alpha 90.000000
_cell_angle_beta 90.000000
_cell_angle_gamma 90.000000
_cell_volume 1491.711996
_symmetry_space_group_name_H-M "P C A 21"
_symmetry_group_IT_number 29
_symmetry_cell_setting 'orthorhombic'
loop_
_space_group_symop_operation_xyz
x,y,z
-x,-y,1/2+z
1/2-x,y,1/2+z
1/2+x,-y,z
loop_
_atom_site_type_symbol
_atom_site_label
_atom_site_fract_x
_atom_site_fract_y
_atom_site_fract_z
Si Si1 0.487943 0.741195 0.764710
Si Si2 0.724404 0.120824 0.223873
Si Si3 0.943676 0.595484 0.055937
Si Si4 0.768866 0.669625 0.462588
Si Si5 0.587542 0.283326 0.663996
Si Si6 0.108985 0.122168 0.093169
Si Si7 0.078707 0.539547 0.873318
Si Si8 0.641323 0.942980 0.871728
O O1 0.366553 0.769312 0.760090
O O2 0.532386 0.700335 0.653010
O O3 0.507662 0.604845 0.844500
O O4 0.544640 0.894098 0.801311
O O5 0.800160 0.210056 0.145151
O O6 0.679883 0.969197 0.172703
O O7 0.797208 0.081824 0.321974
O O8 0.845628 0.656145 0.997553
O O9 0.926851 0.421421 0.086050
O O10 0.034869 0.617310 0.975436
O O11 0.838287 0.716437 0.563180
O O12 0.808245 0.517640 0.405743
O O13 0.777694 0.803894 0.378153
O O14 0.501148 0.156363 0.643408
O O15 0.581541 0.339693 0.782138
O O16 0.098924 0.020462 0.987872
#
# Coordination Sequence:
#
# PCOD8168994 Si02
#       8
#     4   4   4   4   4   4   4   4
#     4  10  23  43  62  96 137 166 225 280 333 401
#     4  12  25  40  68 100 129 177 228 276 328 400
#     4  11  22  41  69  95 133 174 217 279 339 402
#     4   9  21  42  65  90 123 179 219 255 342 396
#     4  11  25  41  66 101 134 170 229 278 335 399
#     4  10  23  44  63  91 139 176 216 273 334 405
#     4  10  23  42  65  99 131 169 219 288 332 392
#     4   9  22  45  62  92 130 181 215 263 339 395
#
# _framework density 21.451862999999999
#
# number of rings (size 3 to 8) (size 9 to 14) (size 15 to 20)
#    0.750    1.000    1.250    1.500    5.250    3.000 
#    2.250    0.000    0.000    0.000    0.000    0.000 
#    0.000    0.000    0.000    0.000    0.000    0.000 
#
# Total GULP energy -396688.825313 kJ/mol
# GULP energy per Si atom -12396.525791 kJ/mol
# Density = 2.140304 g / cm^3
# Si number density = 21.451863 Si / 1000 Ang^3
#
#
#
# Elastic Constant Matrix: (Units=GPa)
#
#
# Indices 1 2 3 4 5 6 
#
# 1 91.2017 35.7472 5.2076 0.0000 0.0000 0.0000
# 2 35.7472 48.2077 16.6514 0.0000 0.0000 0.0000
# 3 5.2076 16.6514 71.1717 0.0000 0.0000 0.0000
# 4 0.0000 0.0000 0.0000 19.6394 0.0000 0.0000
# 5 0.0000 0.0000 0.0000 0.0000 28.4907 0.0000
# 6 0.0000 0.0000 0.0000 0.0000 0.0000 35.3592
#
#
#
# Elastic Compliance Matrix: (Units=1/GPa)
#
#
# Indices 1 2 3 4 5 6 
#
# 1 0.015646 -0.012192 0.001708 0.000000 0.000000 0.000000
# 2 -0.012192 0.032067 -0.006610 0.000000 0.000000 0.000000
# 3 0.001708 -0.006610 0.015472 0.000000 0.000000 0.000000
# 4 0.000000 0.000000 0.000000 0.050918 0.000000 0.000000
# 5 0.000000 0.000000 0.000000 0.000000 0.035099 0.000000
# 6 0.000000 0.000000 0.000000 0.000000 0.000000 0.028281
#
#
# Mechanical properties :
#
#
# Convention : Reuss Voigt Hill
#
# Bulk Modulus (GPa) = 34.48714 36.19929 35.34321
# Shear Modulus (GPa) = 22.58989 26.89618 24.74304
#
# Velocity S-wave (km/s) = 3.24859 3.54473 3.39989
# Velocity P-wave (km/s) = 5.49387 5.80214 5.65011
#
# Compressibility (1/GPa) = 0.02899632
#
# Stress axis : x y z
#
# Youngs Moduli (GPa) = 63.91499 31.18445 64.63215
#
# Poissons Ratio (x) = 0.38019 -0.11036
# Poissons Ratio (y) = 0.77922 0.42725
# Poissons Ratio (z) = -0.10914 0.20614
#
# Static dielectric constant tensor:
#      x y z
#    x 3.726850 0.000000 0.000000 
#    y 0.000000 3.749260 0.000000 
#    z 0.000000 0.000000 3.886770 
# 
# 
# High freq. dielectric constant tensor:
#      x y z
#    x 1.838520 0.000000 0.000000 
#    y 0.000000 1.832270 0.000000 
#    z 0.000000 0.000000 1.844270 
# 
# From -- ./inp_files/4570.got.cif
#   From: 2010.03.12/outbox.cif.g09.slc.cpg/sg29_3_cif.got.tgz:4570.got - 2010.04.14 03:43:10.
