data_PCOD8168577
_publ_section_title
;
Structure prediction by ZEFSAII (Michael W. Deem and Ramdas Pophale) SiO2 
 PCOD8168577
Probable space group: P C A 21
;
_chemical_formula_sum "Si O2"
_cell_formula_units_Z 32
_cell_length_a 13.988990
_cell_length_b 11.932905
_cell_length_c 8.860150
_cell_angle_alpha 90.000000
_cell_angle_beta 90.000000
_cell_angle_gamma 90.000000
_cell_volume 1479.018537
_symmetry_space_group_name_H-M "P C A 21"
_symmetry_group_IT_number 29
_symmetry_cell_setting 'orthorhombic'
loop_
_space_group_symop_operation_xyz
x,y,z
-x,-y,1/2+z
1/2-x,y,1/2+z
1/2+x,-y,z
loop_
_atom_site_type_symbol
_atom_site_label
_atom_site_fract_x
_atom_site_fract_y
_atom_site_fract_z
Si Si1 0.477517 0.240650 0.418660
Si Si2 0.869770 0.083410 0.005605
Si Si3 0.819691 0.150341 0.667604
Si Si4 0.275864 0.596802 0.672856
Si Si5 0.814394 0.648714 0.606391
Si Si6 0.875761 0.673895 0.939665
Si Si7 0.476613 0.137332 0.091774
Si Si8 0.121504 0.571131 0.457905
O O1 0.537976 0.162672 0.534934
O O2 0.381392 0.285018 0.491322
O O3 0.455519 0.173819 0.264714
O O4 0.543193 0.348280 0.386840
O O5 0.830811 0.110834 0.839498
O O6 0.781922 0.103890 0.117098
O O7 0.904705 0.958163 0.035802
O O8 0.826408 0.284305 0.640835
O O9 0.911599 0.101025 0.576585
O O10 0.326165 0.487169 0.594670
O O11 0.163849 0.603895 0.622752
O O12 0.282770 0.574815 0.852336
O O13 0.835216 0.694398 0.772958
O O14 0.707515 0.684584 0.564101
O O15 0.958597 0.761124 0.977166
O O16 0.924162 0.551879 0.955883
#
# Coordination Sequence:
#
# PCOD8168577 Si02
#       8
#     4   4   4   4   4   4   4   4
#     4  11  23  43  65  98 136 176 227 277 338 405
#     4  11  26  44  68  97 129 181 224 285 333 394
#     4  11  23  45  69  96 128 169 226 282 336 398
#     4  10  18  41  64  99 132 170 218 276 340 404
#     4  10  23  38  66  97 136 176 218 274 345 407
#     4  10  23  41  62  98 134 178 220 273 341 403
#     4  11  26  44  66  96 139 180 229 277 335 406
#     4  10  20  38  66  97 136 170 218 278 340 405
#
# _framework density 21.63597
#
# number of rings (size 3 to 8) (size 9 to 14) (size 15 to 20)
#    0.000    1.500    3.750    0.750    1.750    9.000 
#    2.250    0.000    0.000    0.000    0.000    0.000 
#    0.000    0.000    0.000    0.000    0.000    0.000 
#
# Total GULP energy -396513.345948 kJ/mol
# GULP energy per Si atom -12391.042061 kJ/mol
# Density = 2.158673 g / cm^3
# Si number density = 21.635970 Si / 1000 Ang^3
#
#
#
# Elastic Constant Matrix: (Units=GPa)
#
#
# Indices 1 2 3 4 5 6 
#
# 1 61.0854 41.9318 14.7158 0.0000 0.0000 0.0000
# 2 41.9318 124.7916 29.0947 0.0000 0.0000 0.0000
# 3 14.7158 29.0947 56.4577 0.0000 0.0000 0.0000
# 4 0.0000 0.0000 0.0000 31.3257 0.0000 0.0000
# 5 0.0000 0.0000 0.0000 0.0000 36.9384 0.0000
# 6 0.0000 0.0000 0.0000 0.0000 0.0000 27.8441
#
#
#
# Elastic Compliance Matrix: (Units=1/GPa)
#
#
# Indices 1 2 3 4 5 6 
#
# 1 0.021503 -0.006727 -0.002138 0.000000 0.000000 0.000000
# 2 -0.006727 0.011212 -0.004025 0.000000 0.000000 0.000000
# 3 -0.002138 -0.004025 0.020344 0.000000 0.000000 0.000000
# 4 0.000000 0.000000 0.000000 0.031923 0.000000 0.000000
# 5 0.000000 0.000000 0.000000 0.000000 0.027072 0.000000
# 6 0.000000 0.000000 0.000000 0.000000 0.000000 0.035914
#
#
# Mechanical properties :
#
#
# Convention : Reuss Voigt Hill
#
# Bulk Modulus (GPa) = 36.65746 45.97991 41.31869
# Shear Modulus (GPa) = 27.34621 29.66114 28.50368
#
# Velocity S-wave (km/s) = 3.55903 3.70661 3.63357
# Velocity P-wave (km/s) = 5.81967 6.29415 6.06155
#
# Compressibility (1/GPa) = 0.02727958
#
# Stress axis : x y z
#
# Youngs Moduli (GPa) = 46.50453 89.19014 49.15522
#
# Poissons Ratio (x) = 0.59997 0.10511
# Poissons Ratio (y) = 0.31283 0.19783
# Poissons Ratio (z) = 0.09944 0.35895
#
# Static dielectric constant tensor:
#      x y z
#    x 3.847830 0.000000 0.000000 
#    y 0.000000 4.022920 0.000000 
#    z 0.000000 0.000000 3.915860 
# 
# 
# High freq. dielectric constant tensor:
#      x y z
#    x 1.840170 0.000000 0.000000 
#    y 0.000000 1.854570 0.000000 
#    z 0.000000 0.000000 1.844570 
# 
# From -- ./inp_files/1840.got.cif
#   From: 2010.03.12/outbox.cif.g09.slc.cpg/sg29_1_cif.got.tgz:1840.got - 2010.04.14 03:43:10.
