data_PCOD8168459
_publ_section_title
;
Structure prediction by ZEFSAII (Michael W. Deem and Ramdas Pophale) SiO2 
 PCOD8168459
Probable space group: P M A 2
;
_chemical_formula_sum "Si O2"
_cell_formula_units_Z 32
_cell_length_a 8.452005
_cell_length_b 15.445720
_cell_length_c 11.816908
_cell_angle_alpha 90.000000
_cell_angle_beta 90.000000
_cell_angle_gamma 90.000000
_cell_volume 1542.665465
_symmetry_space_group_name_H-M "P M A 2"
_symmetry_group_IT_number 28
_symmetry_cell_setting 'orthorhombic'
loop_
_space_group_symop_operation_xyz
x,y,z
-x,-y,z
1/2-x,y,z
1/2+x,-y,z
loop_
_atom_site_type_symbol
_atom_site_label
_atom_site_fract_x
_atom_site_fract_y
_atom_site_fract_z
Si Si1 0.937081 0.591824 0.597680
Si Si2 0.934904 0.090991 0.605653
Si Si3 0.435988 0.142195 0.373615
Si Si4 0.938101 0.660679 0.361340
Si Si5 0.562586 0.088973 0.137672
Si Si6 0.066337 0.747814 0.990773
Si Si7 0.435126 0.247391 0.745974
Si Si8 0.064928 0.408299 0.125444
O O1 0.750000 0.591024 0.593551
O O2 0.004636 0.611016 0.471696
O O3 0.995378 0.665698 0.683604
O O4 0.000000 0.500000 0.641616
O O5 0.750000 0.099764 0.632706
O O6 0.966114 0.095214 0.471757
O O7 0.032496 0.166791 0.665129
O O8 0.000000 0.000000 0.653129
O O9 0.250000 0.136033 0.400617
O O10 0.496257 0.240744 0.365486
O O11 0.475012 0.094948 0.257320
O O12 0.750000 0.658644 0.358723
O O13 0.009162 0.616646 0.248077
O O14 0.750000 0.087826 0.153260
O O15 0.500000 0.000000 0.080626
O O16 0.507113 0.168096 0.058870
O O17 0.250000 0.731740 0.011611
O O18 0.033689 0.763776 0.859702
O O19 0.973932 0.663476 0.032378
O O20 0.250000 0.252573 0.773876
O O21 0.250000 0.415957 0.137485
O O22 0.000000 0.500000 0.083255
#
# Coordination Sequence:
#
# PCOD8168459 Si02
#       8
#     4   4   4   4   4   4   4   4
#     4  10  21  39  62  92 125 160 201 248 305 367
#     4  12  25  42  65  95 128 165 208 256 312 374
#     4  11  20  38  65  93 128 165 204 252 309 374
#     4   9  18  35  61  91 125 161 199 246 308 371
#     4  11  24  41  63  93 126 162 205 254 310 373
#     4  11  25  44  64  90 124 162 213 267 312 373
#     4  11  24  44  67  90 123 166 212 262 315 370
#     4  11  22  39  64  94 126 166 207 256 315 376
#
# _framework density 20.743316
#
# number of rings (size 3 to 8) (size 9 to 14) (size 15 to 20)
#    0.000    1.250    2.500    3.750    0.000    3.500 
#    0.000    3.125    0.000    0.000    0.000    0.000 
#    0.000    0.000    0.000    0.000    0.000    0.000 
#
# Total GULP energy -396984.881334 kJ/mol
# GULP energy per Si atom -12405.777542 kJ/mol
# Density = 2.069610 g / cm^3
# Si number density = 20.743316 Si / 1000 Ang^3
#
#
#
# Elastic Constant Matrix: (Units=GPa)
#
#
# Indices 1 2 3 4 5 6 
#
# 1 50.2528 21.4803 8.4209 0.0000 0.0000 0.0000
# 2 21.4803 162.7657 37.6046 0.0000 0.0000 0.0000
# 3 8.4209 37.6046 103.0622 0.0000 0.0000 0.0000
# 4 0.0000 0.0000 0.0000 8.1363 0.0000 0.0000
# 5 0.0000 0.0000 0.0000 0.0000 30.9083 0.0000
# 6 0.0000 0.0000 0.0000 0.0000 0.0000 31.5984
#
#
#
# Elastic Compliance Matrix: (Units=1/GPa)
#
#
# Indices 1 2 3 4 5 6 
#
# 1 0.021146 -0.002612 -0.000775 0.000000 0.000000 0.000000
# 2 -0.002612 0.007032 -0.002352 0.000000 0.000000 0.000000
# 3 -0.000775 -0.002352 0.010625 0.000000 0.000000 0.000000
# 4 0.000000 0.000000 0.000000 0.122906 0.000000 0.000000
# 5 0.000000 0.000000 0.000000 0.000000 0.032354 0.000000
# 6 0.000000 0.000000 0.000000 0.000000 0.000000 0.031647
#
#
# Mechanical properties :
#
#
# Convention : Reuss Voigt Hill
#
# Bulk Modulus (GPa) = 36.59737 50.12138 43.35938
# Shear Modulus (GPa) = 20.30092 30.70026 25.50059
#
# Velocity S-wave (km/s) = 3.13177 3.85126 3.51000
# Velocity P-wave (km/s) = 5.54604 6.63260 6.11351
#
# Compressibility (1/GPa) = 0.02732437
#
# Stress axis : x y z
#
# Youngs Moduli (GPa) = 47.29134 142.20845 94.12197
#
# Poissons Ratio (x) = 0.37139 0.07293
# Poissons Ratio (y) = 0.12350 0.22141
# Poissons Ratio (z) = 0.03664 0.33453
#
# Static dielectric constant tensor:
#      x y z
#    x 3.534380 0.000000 0.000000 
#    y 0.000000 4.192470 0.000000 
#    z 0.000000 0.000000 3.719540 
# 
# 
# High freq. dielectric constant tensor:
#      x y z
#    x 1.802120 0.000000 0.000000 
#    y 0.000000 1.829500 0.000000 
#    z 0.000000 0.000000 1.807020 
# 
# From -- ./inp_files/5113.got.cif
#   From: 2010.03.12/outbox.cif.g09.slc.cpg/sg28_3_cif.got.tgz:5113.got - 2010.04.14 03:39:34.
