data_PCOD8168363
_publ_section_title
;
Structure prediction by ZEFSAII (Michael W. Deem and Ramdas Pophale) SiO2 
 PCOD8168363
Probable space group: P M A 2
;
_chemical_formula_sum "Si O2"
_cell_formula_units_Z 28
_cell_length_a 8.917314
_cell_length_b 9.091003
_cell_length_c 17.665208
_cell_angle_alpha 90.000000
_cell_angle_beta 90.000000
_cell_angle_gamma 90.000000
_cell_volume 1432.071217
_symmetry_space_group_name_H-M "P M A 2"
_symmetry_group_IT_number 28
_symmetry_cell_setting 'orthorhombic'
loop_
_space_group_symop_operation_xyz
x,y,z
-x,-y,z
1/2-x,y,z
1/2+x,-y,z
loop_
_atom_site_type_symbol
_atom_site_label
_atom_site_fract_x
_atom_site_fract_y
_atom_site_fract_z
Si Si1 0.427186 0.158444 0.208450
Si Si2 0.575028 0.650228 0.782994
Si Si3 0.426843 0.156009 0.920022
Si Si4 0.075990 0.657599 0.340221
Si Si5 0.076439 0.847793 0.488100
Si Si6 0.572885 0.654155 0.610497
Si Si7 0.925694 0.656574 0.061710
O O1 0.250000 0.142518 0.218760
O O2 0.493200 0.243549 0.279393
O O3 0.471571 0.243871 0.132621
O O4 0.500000 0.000000 0.203673
O O5 0.500000 0.500000 0.809893
O O6 0.750000 0.623667 0.790901
O O7 0.521830 0.780183 0.838672
O O8 0.530538 0.690842 0.697288
O O9 0.250000 0.135581 0.924900
O O10 0.500000 0.000000 0.933177
O O11 0.484253 0.265326 0.985532
O O12 0.250000 0.640985 0.318214
O O13 0.055565 0.731564 0.421458
O O14 0.000000 0.500000 0.343306
O O15 0.250000 0.876078 0.506550
O O16 0.995255 0.786462 0.562476
O O17 0.000000 0.000000 0.463686
O O18 0.500000 0.500000 0.585373
O O19 0.750000 0.643320 0.597376
O O20 0.750000 0.631034 0.058106
O O21 0.000000 0.500000 0.071582
#
# Coordination Sequence:
#
# PCOD8168363 Si02
#       7
#     4   4   4   4   4   4   4
#     4  11  23  39  60  87 118 151 188 231 281 334
#     4   9  19  35  56  82 111 145 186 230 276 330
#     4  10  21  37  55  80 113 147 186 230 278 330
#     4  11  24  41  62  87 115 149 189 232 279 333
#     4  11  24  40  59  84 114 149 188 232 283 336
#     4  10  20  36  58  84 114 148 188 233 281 335
#     4  10  22  38  58  84 113 147 188 232 277 330
#
# _framework density 19.552099999999999
#
# number of rings (size 3 to 8) (size 9 to 14) (size 15 to 20)
#    0.000    1.714    0.000    3.857    0.000    9.143 
#    0.000    1.429    0.000    0.000    0.000    0.000 
#    0.000    0.000    0.000    0.000    0.000    0.000 
#
# Total GULP energy -347339.354275 kJ/mol
# GULP energy per Si atom -12404.976938 kJ/mol
# Density = 1.950760 g / cm^3
# Si number density = 19.552100 Si / 1000 Ang^3
#
#
#
# Elastic Constant Matrix: (Units=GPa)
#
#
# Indices 1 2 3 4 5 6 
#
# 1 83.4834 66.8272 53.0971 0.0000 0.0000 0.0000
# 2 66.8272 163.5508 64.3526 0.0000 0.0000 0.0000
# 3 53.0971 64.3526 110.9738 0.0000 0.0000 0.0000
# 4 0.0000 0.0000 0.0000 29.1054 0.0000 0.0000
# 5 0.0000 0.0000 0.0000 0.0000 17.4841 0.0000
# 6 0.0000 0.0000 0.0000 0.0000 0.0000 42.5634
#
#
#
# Elastic Compliance Matrix: (Units=1/GPa)
#
#
# Indices 1 2 3 4 5 6 
#
# 1 0.020925 -0.005973 -0.006548 0.000000 0.000000 0.000000
# 2 -0.005973 0.009627 -0.002725 0.000000 0.000000 0.000000
# 3 -0.006548 -0.002725 0.013724 0.000000 0.000000 0.000000
# 4 0.000000 0.000000 0.000000 0.034358 0.000000 0.000000
# 5 0.000000 0.000000 0.000000 0.000000 0.057195 0.000000
# 6 0.000000 0.000000 0.000000 0.000000 0.000000 0.023494
#
#
# Mechanical properties :
#
#
# Convention : Reuss Voigt Hill
#
# Bulk Modulus (GPa) = 72.54731 80.72908 76.63820
# Shear Modulus (GPa) = 25.71898 29.41266 27.56582
#
# Velocity S-wave (km/s) = 3.63079 3.88277 3.75889
# Velocity P-wave (km/s) = 7.40014 7.84092 7.62371
#
# Compressibility (1/GPa) = 0.01378411
#
# Stress axis : x y z
#
# Youngs Moduli (GPa) = 47.79060 103.87313 72.86537
#
# Poissons Ratio (x) = 0.62049 0.47710
# Poissons Ratio (y) = 0.28548 0.19853
# Poissons Ratio (z) = 0.31292 0.28301
#
# Static dielectric constant tensor:
#      x y z
#    x 3.655300 0.000000 0.000000 
#    y 0.000000 3.568520 0.000000 
#    z 0.000000 0.000000 3.848650 
# 
# 
# High freq. dielectric constant tensor:
#      x y z
#    x 1.766830 0.000000 0.000000 
#    y 0.000000 1.770210 0.000000 
#    z 0.000000 0.000000 1.777210 
# 
# From -- ./inp_files/6789.got.cif
#   From: 2010.03.12/outbox.cif.g09.slc.cpg/sg28_4_cif.got.tgz:6789.got - 2010.04.14 03:39:34.
