data_PCOD8168842
_publ_section_title
;
Structure prediction by ZEFSAII (Michael W. Deem and Ramdas Pophale) SiO2 
 PCOD8168842
Probable space group: P C A 21
;
_chemical_formula_sum "Si O2"
_cell_formula_units_Z 32
_cell_length_a 13.732397
_cell_length_b 9.116470
_cell_length_c 13.259108
_cell_angle_alpha 90.000000
_cell_angle_beta 90.000000
_cell_angle_gamma 90.000000
_cell_volume 1659.920794
_symmetry_space_group_name_H-M "P C A 21"
_symmetry_group_IT_number 29
_symmetry_cell_setting 'orthorhombic'
loop_
_space_group_symop_operation_xyz
x,y,z
-x,-y,1/2+z
1/2-x,y,1/2+z
1/2+x,-y,z
loop_
_atom_site_type_symbol
_atom_site_label
_atom_site_fract_x
_atom_site_fract_y
_atom_site_fract_z
Si Si1 0.814306 0.115767 0.995750
Si Si2 0.683162 0.919278 0.877619
Si Si3 0.749383 0.607678 0.818376
Si Si4 0.591156 0.589139 0.659661
Si Si5 0.265679 0.561567 0.014325
Si Si6 0.600554 0.578673 0.143598
Si Si7 0.975494 0.869567 0.541645
Si Si8 0.602539 0.930157 0.658243
O O1 0.765734 0.041296 0.897823
O O2 0.757509 0.263649 0.024419
O O3 0.927665 0.155535 0.972680
O O4 0.810528 0.001979 0.090754
O O5 0.734647 0.761671 0.874662
O O6 0.626705 0.956700 0.775051
O O7 0.609462 0.928227 0.970950
O O8 0.650412 0.560437 0.762272
O O9 0.837487 0.625240 0.740445
O O10 0.774526 0.481253 0.897367
O O11 0.638132 0.497242 0.569237
O O12 0.481262 0.537034 0.677492
O O13 0.594637 0.759814 0.631015
O O14 0.167733 0.494690 0.059542
O O15 0.551600 0.721005 0.097165
O O16 0.000649 0.990517 0.628370
#
# Coordination Sequence:
#
# PCOD8168842 Si02
#       8
#     4   4   4   4   4   4   4   4
#     4  10  24  41  64  97 128 172 221 269 321 396
#     4  11  22  43  66  93 134 174 217 272 336 391
#     4  10  24  39  65  95 124 175 215 262 331 389
#     4  10  21  42  61  94 129 166 218 264 332 383
#     4  11  22  40  64  92 128 165 215 268 318 390
#     4  11  23  40  66  90 130 170 208 276 324 384
#     4  10  23  43  63  96 131 171 217 270 326 396
#     4   9  23  42  63  93 130 167 219 271 318 403
#
# _framework density 19.278027999999999
#
# number of rings (size 3 to 8) (size 9 to 14) (size 15 to 20)
#    0.750    1.000    2.500    0.750    5.250    7.000 
#    0.000    0.000    0.000    0.000    0.000    0.000 
#    0.000    0.000    0.000    0.000    0.000    0.000 
#
# Total GULP energy -396799.600442 kJ/mol
# GULP energy per Si atom -12399.987514 kJ/mol
# Density = 1.923415 g / cm^3
# Si number density = 19.278028 Si / 1000 Ang^3
#
#
#
# Elastic Constant Matrix: (Units=GPa)
#
#
# Indices 1 2 3 4 5 6 
#
# 1 101.8265 38.9897 44.8703 0.0000 0.0000 0.0000
# 2 38.9897 103.0843 48.7650 0.0000 0.0000 0.0000
# 3 44.8703 48.7650 92.6545 0.0000 0.0000 0.0000
# 4 0.0000 0.0000 0.0000 28.9319 0.0000 0.0000
# 5 0.0000 0.0000 0.0000 0.0000 28.5653 0.0000
# 6 0.0000 0.0000 0.0000 0.0000 0.0000 38.3106
#
#
#
# Elastic Compliance Matrix: (Units=1/GPa)
#
#
# Indices 1 2 3 4 5 6 
#
# 1 0.012980 -0.002578 -0.004929 0.000000 0.000000 0.000000
# 2 -0.002578 0.013429 -0.005819 0.000000 0.000000 0.000000
# 3 -0.004929 -0.005819 0.016243 0.000000 0.000000 0.000000
# 4 0.000000 0.000000 0.000000 0.034564 0.000000 0.000000
# 5 0.000000 0.000000 0.000000 0.000000 0.035008 0.000000
# 6 0.000000 0.000000 0.000000 0.000000 0.000000 0.026102
#
#
# Mechanical properties :
#
#
# Convention : Reuss Voigt Hill
#
# Bulk Modulus (GPa) = 62.50470 62.53502 62.51986
# Shear Modulus (GPa) = 29.35828 30.15758 29.75793
#
# Velocity S-wave (km/s) = 3.90665 3.95948 3.93315
# Velocity P-wave (km/s) = 7.26928 7.30836 7.28885
#
# Compressibility (1/GPa) = 0.01599880
#
# Stress axis : x y z
#
# Youngs Moduli (GPa) = 77.04387 74.46787 61.56641
#
# Poissons Ratio (x) = 0.19194 0.30347
# Poissons Ratio (y) = 0.19858 0.35828
# Poissons Ratio (z) = 0.37976 0.43336
#
# Static dielectric constant tensor:
#      x y z
#    x 3.529730 0.000000 0.000000 
#    y 0.000000 3.509500 0.000000 
#    z 0.000000 0.000000 3.392790 
# 
# 
# High freq. dielectric constant tensor:
#      x y z
#    x 1.750730 0.000000 0.000000 
#    y 0.000000 1.757750 0.000000 
#    z 0.000000 0.000000 1.744480 
# 
# From -- ./inp_files/3524.got.cif
#   From: 2010.03.12/outbox.cif.g09.slc.cpg/sg29_2_cif.got.tgz:3524.got - 2010.04.14 03:43:10.
