data_PCOD8168731
_publ_section_title
;
Structure prediction by ZEFSAII (Michael W. Deem and Ramdas Pophale) SiO2 
 PCOD8168731
Probable space group: P C A 21
;
_chemical_formula_sum "Si O2"
_cell_formula_units_Z 32
_cell_length_a 14.128526
_cell_length_b 8.755690
_cell_length_c 13.009901
_cell_angle_alpha 90.000000
_cell_angle_beta 90.000000
_cell_angle_gamma 90.000000
_cell_volume 1609.389723
_symmetry_space_group_name_H-M "P C A 21"
_symmetry_group_IT_number 29
_symmetry_cell_setting 'orthorhombic'
loop_
_space_group_symop_operation_xyz
x,y,z
-x,-y,1/2+z
1/2-x,y,1/2+z
1/2+x,-y,z
loop_
_atom_site_type_symbol
_atom_site_label
_atom_site_fract_x
_atom_site_fract_y
_atom_site_fract_z
Si Si1 0.131486 0.897568 0.316300
Si Si2 0.177181 0.066764 0.819913
Si Si3 0.887771 0.519540 0.481473
Si Si4 0.443224 0.571442 0.272313
Si Si5 0.383595 0.592216 0.703572
Si Si6 0.767560 0.596316 0.304255
Si Si7 0.977380 0.838388 0.479139
Si Si8 0.518344 0.091752 0.701092
O O1 0.149106 0.759853 0.236673
O O2 0.074326 0.834414 0.414113
O O3 0.234263 0.959547 0.350054
O O4 0.071435 0.031732 0.264121
O O5 0.216581 0.226764 0.777215
O O6 0.109316 0.083286 0.918567
O O7 0.115551 0.993984 0.728403
O O8 0.947413 0.419829 0.397803
O O9 0.863604 0.422348 0.582097
O O10 0.788980 0.572199 0.426511
O O11 0.949963 0.666845 0.511220
O O12 0.506787 0.432625 0.229099
O O13 0.338721 0.513577 0.239451
O O14 0.469986 0.730161 0.222943
O O15 0.335627 0.456394 0.770216
O O16 0.997404 0.935685 0.581225
#
# Coordination Sequence:
#
# PCOD8168731 Si02
#       8
#     4   4   4   4   4   4   4   4
#     4  11  24  40  62  98 130 170 208 271 321 386
#     4  10  22  42  62  91 136 160 212 271 317 392
#     4   9  21  41  64  91 121 167 215 262 307 377
#     4  10  20  40  63  90 123 157 215 263 307 380
#     4  12  20  41  67  87 129 170 210 261 319 378
#     4   9  22  43  60  93 125 164 215 266 303 382
#     4  10  21  43  64  90 131 169 214 263 328 381
#     4  11  22  40  66  94 123 171 207 269 328 378
#
# _framework density 19.883313000000001
#
# number of rings (size 3 to 8) (size 9 to 14) (size 15 to 20)
#    0.750    1.000    2.500    2.250    0.000    3.000 
#    9.000    0.000    0.000    0.000    0.000    0.000 
#    0.000    0.000    0.000    0.000    0.000    0.000 
#
# Total GULP energy -396667.015832 kJ/mol
# GULP energy per Si atom -12395.844245 kJ/mol
# Density = 1.983806 g / cm^3
# Si number density = 19.883313 Si / 1000 Ang^3
#
#
#
# Elastic Constant Matrix: (Units=GPa)
#
#
# Indices 1 2 3 4 5 6 
#
# 1 81.4036 24.4603 20.1764 0.0000 0.0000 0.0000
# 2 24.4603 96.0042 18.7321 0.0000 0.0000 0.0000
# 3 20.1764 18.7321 92.7810 0.0000 0.0000 0.0000
# 4 0.0000 0.0000 0.0000 28.3569 0.0000 0.0000
# 5 0.0000 0.0000 0.0000 0.0000 19.7083 0.0000
# 6 0.0000 0.0000 0.0000 0.0000 0.0000 35.1125
#
#
#
# Elastic Compliance Matrix: (Units=1/GPa)
#
#
# Indices 1 2 3 4 5 6 
#
# 1 0.013791 -0.003049 -0.002384 0.000000 0.000000 0.000000
# 2 -0.003049 0.011517 -0.001662 0.000000 0.000000 0.000000
# 3 -0.002384 -0.001662 0.011632 0.000000 0.000000 0.000000
# 4 0.000000 0.000000 0.000000 0.035265 0.000000 0.000000
# 5 0.000000 0.000000 0.000000 0.000000 0.050740 0.000000
# 6 0.000000 0.000000 0.000000 0.000000 0.000000 0.028480
#
#
# Mechanical properties :
#
#
# Convention : Reuss Voigt Hill
#
# Bulk Modulus (GPa) = 43.95325 44.10294 44.02810
# Shear Modulus (GPa) = 28.86863 30.42355 29.64609
#
# Velocity S-wave (km/s) = 3.81452 3.91590 3.86554
# Velocity P-wave (km/s) = 6.44626 6.53259 6.48957
#
# Compressibility (1/GPa) = 0.02275144
#
# Stress axis : x y z
#
# Youngs Moduli (GPa) = 72.50927 86.82571 85.96955
#
# Poissons Ratio (x) = 0.26471 0.20491
# Poissons Ratio (y) = 0.22106 0.14291
# Poissons Ratio (z) = 0.17283 0.14433
#
# Static dielectric constant tensor:
#      x y z
#    x 3.589930 0.000000 0.000000 
#    y 0.000000 3.513640 0.000000 
#    z 0.000000 0.000000 3.435640 
# 
# 
# High freq. dielectric constant tensor:
#      x y z
#    x 1.775660 0.000000 0.000000 
#    y 0.000000 1.777890 0.000000 
#    z 0.000000 0.000000 1.761040 
# 
# From -- ./inp_files/3516.got.cif
#   From: 2010.03.12/outbox.cif.g09.slc.cpg/sg29_2_cif.got.tgz:3516.got - 2010.04.14 03:43:10.
