data_PCOD8168482
_publ_section_title
;
Structure prediction by ZEFSAII (Michael W. Deem and Ramdas Pophale) SiO2 
 PCOD8168482
Probable space group: P M A 2
;
_chemical_formula_sum "Si O2"
_cell_formula_units_Z 22
_cell_length_a 14.697335
_cell_length_b 5.318390
_cell_length_c 12.817286
_cell_angle_alpha 90.000000
_cell_angle_beta 90.000000
_cell_angle_gamma 90.000000
_cell_volume 1001.878022
_symmetry_space_group_name_H-M "P M A 2"
_symmetry_group_IT_number 28
_symmetry_cell_setting 'orthorhombic'
loop_
_space_group_symop_operation_xyz
x,y,z
-x,-y,z
1/2-x,y,z
1/2+x,-y,z
loop_
_atom_site_type_symbol
_atom_site_label
_atom_site_fract_x
_atom_site_fract_y
_atom_site_fract_z
Si Si1 0.107943 0.979744 0.380020
Si Si2 0.848896 0.330205 0.053718
Si Si3 0.250000 0.422977 0.688470
Si Si4 0.250000 0.933896 0.555491
Si Si5 0.904578 0.609955 0.853817
Si Si6 0.606610 0.518626 0.263101
Si Si7 0.000000 0.000000 0.987632
O O1 0.157433 0.927089 0.489167
O O2 0.142722 0.239656 0.327036
O O3 0.141271 0.746835 0.309018
O O4 0.000000 0.000000 0.400051
O O5 0.750000 0.195035 0.062772
O O6 0.857130 0.541760 0.144059
O O7 0.854213 0.438562 0.937933
O O8 0.938618 0.158878 0.067985
O O9 0.250000 0.209797 0.603175
O O10 0.159926 0.368117 0.755258
O O11 0.250000 0.703210 0.638662
O O12 0.000000 0.500000 0.814081
O O13 0.926643 0.869362 0.912116
O O14 0.500000 0.500000 0.267599
#
# Coordination Sequence:
#
# PCOD8168482 Si02
#       7
#     4   4   2   2   4   4   2
#     4  10  24  45  69  96 137 177 229 284 346 407
#     4  11  24  39  67 105 146 183 232 275 341 418
#     4  12  28  46  74 101 135 174 238 294 354 415
#     4  12  28  46  72  99 133 172 236 306 348 411
#     4  10  24  44  68 100 143 180 231 278 350 414
#     4  10  22  41  68 100 139 185 223 271 335 416
#     4  10  24  42  66  96 154 188 226 284 334 430
#
# _framework density 21.958762
#
# number of rings (size 3 to 8) (size 9 to 14) (size 15 to 20)
#    0.000    1.455    0.909    2.727   15.273    1.455 
#    0.000    0.000    0.000    0.000    0.000    0.000 
#    0.000    0.000    0.000    0.000    0.000    0.000 
#
# Total GULP energy -272639.155173 kJ/mol
# GULP energy per Si atom -12392.688872 kJ/mol
# Density = 2.190878 g / cm^3
# Si number density = 21.958762 Si / 1000 Ang^3
#
#
#
# Elastic Constant Matrix: (Units=GPa)
#
#
# Indices 1 2 3 4 5 6 
#
# 1 112.1387 34.9599 50.0064 0.0000 0.0000 0.0000
# 2 34.9599 117.8677 25.8459 0.0000 0.0000 0.0000
# 3 50.0064 25.8459 90.3474 0.0000 0.0000 0.0000
# 4 0.0000 0.0000 0.0000 23.1536 0.0000 0.0000
# 5 0.0000 0.0000 0.0000 0.0000 37.7582 0.0000
# 6 0.0000 0.0000 0.0000 0.0000 0.0000 -12.3908
#
#
#
# Elastic Compliance Matrix: (Units=1/GPa)
#
#
# Indices 1 2 3 4 5 6 
#
# 1 0.012407 -0.002320 -0.006204 0.000000 0.000000 0.000000
# 2 -0.002320 0.009486 -0.001430 0.000000 0.000000 0.000000
# 3 -0.006204 -0.001430 0.014911 0.000000 0.000000 0.000000
# 4 0.000000 0.000000 0.000000 0.043190 0.000000 0.000000
# 5 0.000000 0.000000 0.000000 0.000000 0.026484 0.000000
# 6 0.000000 0.000000 0.000000 0.000000 0.000000 -0.080705
#
#
# Mechanical properties :
#
#
# Convention : Reuss Voigt Hill
#
# Bulk Modulus (GPa) = 59.17916 60.21980 59.69948
# Shear Modulus (GPa) = 97.44433 23.67363 60.55898
#
# Velocity S-wave (km/s) = 6.66876 3.28700 5.25722
# Velocity P-wave (km/s) = 9.29006 6.47220 8.00608
#
# Compressibility (1/GPa) = 0.01689784
#
# Stress axis : x y z
#
# Youngs Moduli (GPa) = 80.59897 105.42300 67.06448
#
# Poissons Ratio (x) = 0.24455 0.41604
# Poissons Ratio (y) = 0.18696 0.09588
# Poissons Ratio (z) = 0.50001 0.15072
#
# Static dielectric constant tensor:
#      x y z
#    x 3.850720 0.000000 0.000000 
#    y 0.000000 4.349010 0.000000 
#    z 0.000000 0.000000 3.813570 
# 
# 
# High freq. dielectric constant tensor:
#      x y z
#    x 1.880810 0.000000 0.000000 
#    y 0.000000 1.862510 0.000000 
#    z 0.000000 0.000000 1.857290 
# 
# From -- ./inp_files/5485.got.cif
#   From: 2010.03.12/outbox.cif.g09.slc.cpg/sg28_3_cif.got.tgz:5485.got - 2010.04.14 03:39:34.
