data_PCOD8168544
_publ_section_title
;
Structure prediction by ZEFSAII (Michael W. Deem and Ramdas Pophale) SiO2 
 PCOD8168544
Probable space group: P C A 21
;
_chemical_formula_sum "Si O2"
_cell_formula_units_Z 28
_cell_length_a 15.955038
_cell_length_b 17.003777
_cell_length_c 5.036806
_cell_angle_alpha 90.000000
_cell_angle_beta 90.000000
_cell_angle_gamma 90.000000
_cell_volume 1366.464858
_symmetry_space_group_name_H-M "P C A 21"
_symmetry_group_IT_number 29
_symmetry_cell_setting 'orthorhombic'
loop_
_space_group_symop_operation_xyz
x,y,z
-x,-y,1/2+z
1/2-x,y,1/2+z
1/2+x,-y,z
loop_
_atom_site_type_symbol
_atom_site_label
_atom_site_fract_x
_atom_site_fract_y
_atom_site_fract_z
Si Si1 0.299964 0.716208 0.379050
Si Si2 0.191667 0.467436 0.827457
Si Si3 0.994156 0.821906 0.419047
Si Si4 0.451224 0.357466 0.385432
Si Si5 0.948829 0.983687 0.308339
Si Si6 0.898525 0.142596 0.419357
Si Si7 0.445218 0.603174 0.379332
O O1 0.264090 0.686273 0.657559
O O2 0.312089 0.810542 0.365995
O O3 0.391951 0.682048 0.334510
O O4 0.236963 0.477846 0.547033
O O5 0.145735 0.382728 0.844640
O O6 0.117490 0.530386 0.857956
O O7 0.951708 0.737123 0.382921
O O8 0.028750 0.831093 0.715438
O O9 0.925393 0.892002 0.363973
O O10 0.070831 0.834510 0.214361
O O11 0.482733 0.396500 0.658374
O O12 0.510702 0.395356 0.163283
O O13 0.878423 0.048978 0.386438
O O14 0.027896 0.005706 0.499481
#
# Coordination Sequence:
#
# PCOD8168544 Si02
#       7
#     4   4   4   4   4   4   4
#     4  12  22  33  52  79 117 156 187 233 296 347
#     4  12  26  44  61  86 120 154 189 237 298 357
#     4  10  17  33  54  85 105 141 187 245 275 319
#     4  12  22  39  66  88 114 148 199 246 288 335
#     4   8  16  27  50  74 106 140 177 228 278 319
#     4  10  18  33  49  77 116 145 190 229 277 337
#     4  12  23  41  60  87 114 152 199 240 286 350
#
# _framework density 20.490828
#
# number of rings (size 3 to 8) (size 9 to 14) (size 15 to 20)
#    0.000    1.143    2.857    5.143    0.000    0.000 
#    0.000    0.000    0.000    1.714    0.000    0.000 
#    0.000    0.000    0.000    0.000    0.000    0.000 
#
# Total GULP energy -347070.990515 kJ/mol
# GULP energy per Si atom -12395.392518 kJ/mol
# Density = 2.044419 g / cm^3
# Si number density = 20.490828 Si / 1000 Ang^3
#
#
#
# Elastic Constant Matrix: (Units=GPa)
#
#
# Indices 1 2 3 4 5 6 
#
# 1 42.0229 28.6868 2.9184 0.0000 0.0000 0.0000
# 2 28.6868 117.4073 21.1347 0.0000 0.0000 0.0000
# 3 2.9184 21.1347 79.0313 0.0000 0.0000 0.0000
# 4 0.0000 0.0000 0.0000 24.4149 0.0000 0.0000
# 5 0.0000 0.0000 0.0000 0.0000 22.6825 0.0000
# 6 0.0000 0.0000 0.0000 0.0000 0.0000 27.1342
#
#
#
# Elastic Compliance Matrix: (Units=1/GPa)
#
#
# Indices 1 2 3 4 5 6 
#
# 1 0.028615 -0.007145 0.000854 0.000000 0.000000 0.000000
# 2 -0.007145 0.010732 -0.002606 0.000000 0.000000 0.000000
# 3 0.000854 -0.002606 0.013319 0.000000 0.000000 0.000000
# 4 0.000000 0.000000 0.000000 0.040959 0.000000 0.000000
# 5 0.000000 0.000000 0.000000 0.000000 0.044087 0.000000
# 6 0.000000 0.000000 0.000000 0.000000 0.000000 0.036854
#
#
# Mechanical properties :
#
#
# Convention : Reuss Voigt Hill
#
# Bulk Modulus (GPa) = 28.67706 38.21571 33.44639
# Shear Modulus (GPa) = 24.51173 27.22776 25.86974
#
# Velocity S-wave (km/s) = 3.46241 3.64920 3.55703
# Velocity P-wave (km/s) = 5.47812 6.03706 5.76437
#
# Compressibility (1/GPa) = 0.03487108
#
# Stress axis : x y z
#
# Youngs Moduli (GPa) = 34.94667 93.17591 75.08281
#
# Poissons Ratio (x) = 0.66578 -0.06413
# Poissons Ratio (y) = 0.24971 0.19568
# Poissons Ratio (z) = -0.02985 0.24284
#
# Static dielectric constant tensor:
#      x y z
#    x 3.321050 0.000000 0.000000 
#    y 0.000000 4.287420 0.000000 
#    z 0.000000 0.000000 3.868280 
# 
# 
# High freq. dielectric constant tensor:
#      x y z
#    x 1.742810 0.000000 0.000000 
#    y 0.000000 1.820780 0.000000 
#    z 0.000000 0.000000 1.825290 
# 
# From -- ./inp_files/256.got.cif
#   From: 2010.03.12/outbox.cif.g09.slc.cpg/sg29_1_cif.got.tgz:256.got - 2010.04.14 03:43:10.
