data_PCOD8168694
_publ_section_title
;
Structure prediction by ZEFSAII (Michael W. Deem and Ramdas Pophale) SiO2 
 PCOD8168694
Probable space group: P C A 21
;
_chemical_formula_sum "Si O2"
_cell_formula_units_Z 28
_cell_length_a 20.186351
_cell_length_b 12.498594
_cell_length_c 5.341617
_cell_angle_alpha 90.000000
_cell_angle_beta 90.000000
_cell_angle_gamma 90.000000
_cell_volume 1347.695340
_symmetry_space_group_name_H-M "P C A 21"
_symmetry_group_IT_number 29
_symmetry_cell_setting 'orthorhombic'
loop_
_space_group_symop_operation_xyz
x,y,z
-x,-y,1/2+z
1/2-x,y,1/2+z
1/2+x,-y,z
loop_
_atom_site_type_symbol
_atom_site_label
_atom_site_fract_x
_atom_site_fract_y
_atom_site_fract_z
Si Si1 0.959307 0.016504 0.444860
Si Si2 0.091844 0.194874 0.885288
Si Si3 0.712750 0.716663 0.647606
Si Si4 0.536840 0.242273 0.107265
Si Si5 0.211958 0.535644 0.664165
Si Si6 0.083369 0.584060 0.423722
Si Si7 0.045996 0.370858 0.210351
O O1 0.931316 0.138360 0.471998
O O2 0.899130 0.929334 0.470695
O O3 0.011036 0.990171 0.665454
O O4 0.098713 0.283729 0.104614
O O5 0.141431 0.225095 0.661058
O O6 0.014701 0.197786 0.810192
O O7 0.746538 0.755774 0.391964
O O8 0.702335 0.590772 0.657297
O O9 0.593676 0.314108 0.239303
O O10 0.495841 0.320357 0.930759
O O11 0.256105 0.573115 0.425651
O O12 0.139212 0.590474 0.639996
O O13 0.093075 0.469814 0.286522
O O14 0.007110 0.585619 0.510609
#
# Coordination Sequence:
#
# PCOD8168694 Si02
#       7
#     4   4   4   4   4   4   4
#     4  10  20  37  58  85 116 150 191 233 290 359
#     4  10  22  36  59  83 119 156 192 247 303 357
#     4  10  23  37  57  85 116 156 202 247 293 351
#     4  10  21  36  56  87 119 154 191 242 303 361
#     4  10  24  40  58  81 115 165 203 239 279 350
#     4  11  23  34  57  86 123 154 192 239 303 357
#     4  11  21  34  55  89 120 153 183 245 307 355
#
# _framework density 20.776209000000001
#
# number of rings (size 3 to 8) (size 9 to 14) (size 15 to 20)
#    0.000    1.714    2.857    0.857   12.000    0.000 
#    0.000    0.000    0.000    1.714    0.000    0.000 
#    0.000    0.000    0.000    0.000    0.000    0.000 
#
# Total GULP energy -347028.998110 kJ/mol
# GULP energy per Si atom -12393.892790 kJ/mol
# Density = 2.072892 g / cm^3
# Si number density = 20.776209 Si / 1000 Ang^3
#
#
#
# Elastic Constant Matrix: (Units=GPa)
#
#
# Indices 1 2 3 4 5 6 
#
# 1 62.9287 21.6793 19.9130 0.0000 0.0000 0.0000
# 2 21.6793 107.9711 25.5023 0.0000 0.0000 0.0000
# 3 19.9130 25.5023 89.6709 0.0000 0.0000 0.0000
# 4 0.0000 0.0000 0.0000 25.2319 0.0000 0.0000
# 5 0.0000 0.0000 0.0000 0.0000 23.7432 0.0000
# 6 0.0000 0.0000 0.0000 0.0000 0.0000 10.9727
#
#
#
# Elastic Compliance Matrix: (Units=1/GPa)
#
#
# Indices 1 2 3 4 5 6 
#
# 1 0.017870 -0.002842 -0.003160 0.000000 0.000000 0.000000
# 2 -0.002842 0.010381 -0.002321 0.000000 0.000000 0.000000
# 3 -0.003160 -0.002321 0.012514 0.000000 0.000000 0.000000
# 4 0.000000 0.000000 0.000000 0.039632 0.000000 0.000000
# 5 0.000000 0.000000 0.000000 0.000000 0.042117 0.000000
# 6 0.000000 0.000000 0.000000 0.000000 0.000000 0.091135
#
#
# Mechanical properties :
#
#
# Convention : Reuss Voigt Hill
#
# Bulk Modulus (GPa) = 41.46230 43.86222 42.66226
# Shear Modulus (GPa) = 20.97891 24.88798 22.93344
#
# Velocity S-wave (km/s) = 3.18111 3.46483 3.32600
# Velocity P-wave (km/s) = 5.78728 6.09626 5.94378
#
# Compressibility (1/GPa) = 0.02411829
#
# Stress axis : x y z
#
# Youngs Moduli (GPa) = 55.95983 96.33393 79.91180
#
# Poissons Ratio (x) = 0.27375 0.25254
# Poissons Ratio (y) = 0.15902 0.18549
# Poissons Ratio (z) = 0.17684 0.22361
#
# Static dielectric constant tensor:
#      x y z
#    x 3.523620 0.000000 0.000000 
#    y 0.000000 4.209110 0.000000 
#    z 0.000000 0.000000 3.963340 
# 
# 
# High freq. dielectric constant tensor:
#      x y z
#    x 1.768860 0.000000 0.000000 
#    y 0.000000 1.805740 0.000000 
#    z 0.000000 0.000000 1.825350 
# 
# From -- ./inp_files/404.got.cif
#   From: 2010.03.12/outbox.cif.g09.slc.cpg/sg29_1_cif.got.tgz:404.got - 2010.04.14 03:43:10.
