data_PCOD8168915
_publ_section_title
;
Structure prediction by ZEFSAII (Michael W. Deem and Ramdas Pophale) SiO2 
 PCOD8168915
Probable space group: P C A 21
;
_chemical_formula_sum "Si O2"
_cell_formula_units_Z 32
_cell_length_a 12.134946
_cell_length_b 8.878616
_cell_length_c 14.419497
_cell_angle_alpha 90.000000
_cell_angle_beta 90.000000
_cell_angle_gamma 90.000000
_cell_volume 1553.578607
_symmetry_space_group_name_H-M "P C A 21"
_symmetry_group_IT_number 29
_symmetry_cell_setting 'orthorhombic'
loop_
_space_group_symop_operation_xyz
x,y,z
-x,-y,1/2+z
1/2-x,y,1/2+z
1/2+x,-y,z
loop_
_atom_site_type_symbol
_atom_site_label
_atom_site_fract_x
_atom_site_fract_y
_atom_site_fract_z
Si Si1 0.369316 0.554886 0.373800
Si Si2 0.138223 0.752018 0.232799
Si Si3 0.720080 0.580517 0.243238
Si Si4 0.005254 0.681874 0.700419
Si Si5 0.041762 0.503275 0.520228
Si Si6 0.193919 0.743970 0.441194
Si Si7 0.829645 0.086564 0.124237
Si Si8 0.094307 0.247220 0.637664
O O1 0.267773 0.441510 0.348000
O O2 0.420770 0.601118 0.276230
O O3 0.454711 0.470821 0.438365
O O4 0.322499 0.705763 0.422964
O O5 0.177791 0.583328 0.208743
O O6 0.137269 0.786248 0.343292
O O7 0.220109 0.866540 0.179965
O O8 0.013499 0.776936 0.200304
O O9 0.618748 0.700354 0.242051
O O10 0.819902 0.635102 0.180358
O O11 0.991240 0.572726 0.613136
O O12 0.060878 0.838501 0.669282
O O13 0.149139 0.591742 0.488554
O O14 0.063413 0.325119 0.538855
O O15 0.181837 0.877339 0.514902
O O16 0.843106 0.908731 0.126042
#
# Coordination Sequence:
#
# PCOD8168915 Si02
#       8
#     4   4   4   4   4   4   4   4
#     4  11  20  39  69 100 128 173 232 293 335 394
#     4  11  22  46  71  96 139 181 234 289 337 408
#     4  11  20  40  70  99 131 172 241 283 333 407
#     4  11  22  42  67  95 135 179 228 280 346 409
#     4  11  22  38  67  99 129 175 231 293 333 400
#     4  10  22  41  68  93 132 178 233 282 336 405
#     4  11  25  45  64 100 144 186 222 278 358 424
#     4  12  25  41  68 102 138 184 225 280 360 411
#
# _framework density 20.597605000000001
#
# number of rings (size 3 to 8) (size 9 to 14) (size 15 to 20)
#    0.000    1.000    5.000    3.750    3.500    0.000 
#    2.250    2.500    0.000    0.000    0.000    0.000 
#    0.000    0.000    0.000    0.000    0.000    0.000 
#
# Total GULP energy -396660.831579 kJ/mol
# GULP energy per Si atom -12395.650987 kJ/mol
# Density = 2.055072 g / cm^3
# Si number density = 20.597605 Si / 1000 Ang^3
#
#
#
# Elastic Constant Matrix: (Units=GPa)
#
#
# Indices 1 2 3 4 5 6 
#
# 1 81.6900 29.4700 20.8817 0.0000 0.0000 0.0000
# 2 29.4700 88.6097 44.9108 0.0000 0.0000 0.0000
# 3 20.8817 44.9108 117.0761 0.0000 0.0000 0.0000
# 4 0.0000 0.0000 0.0000 18.9647 0.0000 0.0000
# 5 0.0000 0.0000 0.0000 0.0000 31.9887 0.0000
# 6 0.0000 0.0000 0.0000 0.0000 0.0000 23.5961
#
#
#
# Elastic Compliance Matrix: (Units=1/GPa)
#
#
# Indices 1 2 3 4 5 6 
#
# 1 0.013983 -0.004204 -0.000881 0.000000 0.000000 0.000000
# 2 -0.004204 0.015273 -0.005109 0.000000 0.000000 0.000000
# 3 -0.000881 -0.005109 0.010658 0.000000 0.000000 0.000000
# 4 0.000000 0.000000 0.000000 0.052729 0.000000 0.000000
# 5 0.000000 0.000000 0.000000 0.000000 0.031261 0.000000
# 6 0.000000 0.000000 0.000000 0.000000 0.000000 0.042380
#
#
# Mechanical properties :
#
#
# Convention : Reuss Voigt Hill
#
# Bulk Modulus (GPa) = 51.21317 53.10009 52.15663
# Shear Modulus (GPa) = 25.88229 27.71748 26.79989
#
# Velocity S-wave (km/s) = 3.54866 3.67231 3.61101
# Velocity P-wave (km/s) = 6.45819 6.61943 6.53931
#
# Compressibility (1/GPa) = 0.01952623
#
# Stress axis : x y z
#
# Youngs Moduli (GPa) = 71.51409 65.47511 93.82192
#
# Poissons Ratio (x) = 0.27525 0.08270
# Poissons Ratio (y) = 0.30063 0.47933
# Poissons Ratio (z) = 0.06304 0.33451
#
# Static dielectric constant tensor:
#      x y z
#    x 4.037830 0.000000 0.000000 
#    y 0.000000 3.423070 0.000000 
#    z 0.000000 0.000000 3.977890 
# 
# 
# High freq. dielectric constant tensor:
#      x y z
#    x 1.821660 0.000000 0.000000 
#    y 0.000000 1.769920 0.000000 
#    z 0.000000 0.000000 1.813280 
# 
# From -- ./inp_files/4563.got.cif
#   From: 2010.03.12/outbox.cif.g09.slc.cpg/sg29_3_cif.got.tgz:4563.got - 2010.04.14 03:43:10.
