data_PCOD8168668
_publ_section_title
;
Structure prediction by ZEFSAII (Michael W. Deem and Ramdas Pophale) SiO2 
 PCOD8168668
Probable space group: P C A 21
;
_chemical_formula_sum "Si O2"
_cell_formula_units_Z 28
_cell_length_a 15.841630
_cell_length_b 8.864805
_cell_length_c 8.739375
_cell_angle_alpha 90.000000
_cell_angle_beta 90.000000
_cell_angle_gamma 90.000000
_cell_volume 1227.296307
_symmetry_space_group_name_H-M "P C A 21"
_symmetry_group_IT_number 29
_symmetry_cell_setting 'orthorhombic'
loop_
_space_group_symop_operation_xyz
x,y,z
-x,-y,1/2+z
1/2-x,y,1/2+z
1/2+x,-y,z
loop_
_atom_site_type_symbol
_atom_site_label
_atom_site_fract_x
_atom_site_fract_y
_atom_site_fract_z
Si Si1 0.463417 0.586947 0.449770
Si Si2 0.671596 0.180885 0.935273
Si Si3 0.368357 0.256833 0.843296
Si Si4 0.153484 0.899954 0.289434
Si Si5 0.497854 0.695947 0.772478
Si Si6 0.643474 0.906479 0.776646
Si Si7 0.269770 0.227764 0.564348
O O1 0.370998 0.655741 0.410343
O O2 0.538392 0.679223 0.365909
O O3 0.471303 0.591242 0.632020
O O4 0.463826 0.412587 0.402168
O O5 0.661399 0.121377 0.107590
O O6 0.768360 0.170265 0.883061
O O7 0.617687 0.076778 0.816382
O O8 0.326484 0.323194 0.685355
O O9 0.366836 0.073028 0.836799
O O10 0.307393 0.316917 0.981862
O O11 0.076394 0.794820 0.345818
O O12 0.567522 0.811708 0.705531
O O13 0.724965 0.906168 0.665234
O O14 0.668201 0.838898 0.940654
#
# Coordination Sequence:
#
# PCOD8168668 Si02
#       7
#     4   4   4   4   4   4   4
#     4  11  27  45  60  89 131 171 211 253 311 374
#     4  11  22  42  66  97 124 159 207 262 312 369
#     4  11  19  42  65  97 123 159 205 265 309 372
#     4  11  22  42  66  97 124 159 207 262 312 369
#     4  11  27  45  60  89 131 171 211 253 311 374
#     4  11  19  42  65  97 123 159 205 265 309 372
#     4  10  20  34  70  98 124 152 208 256 320 366
#
# _framework density 22.814377
#
# number of rings (size 3 to 8) (size 9 to 14) (size 15 to 20)
#    0.000    1.143    5.714    0.857    2.000    1.143 
#    5.143    0.000    0.000    0.000    0.000    0.000 
#    0.000    0.000    0.000    0.000    0.000    0.000 
#
# Total GULP energy -346923.240169 kJ/mol
# GULP energy per Si atom -12390.115720 kJ/mol
# Density = 2.276245 g / cm^3
# Si number density = 22.814377 Si / 1000 Ang^3
#
#
#
# Elastic Constant Matrix: (Units=GPa)
#
#
# Indices 1 2 3 4 5 6 
#
# 1 84.7045 32.3664 -7.5267 0.0000 0.0000 0.0000
# 2 32.3664 70.3686 -8.3133 0.0000 0.0000 0.0000
# 3 -7.5267 -8.3133 57.0157 0.0000 0.0000 0.0000
# 4 0.0000 0.0000 0.0000 28.2146 0.0000 0.0000
# 5 0.0000 0.0000 0.0000 0.0000 30.3715 0.0000
# 6 0.0000 0.0000 0.0000 0.0000 0.0000 29.3607
#
#
#
# Elastic Compliance Matrix: (Units=1/GPa)
#
#
# Indices 1 2 3 4 5 6 
#
# 1 0.014373 -0.006499 0.000950 0.000000 0.000000 0.000000
# 2 -0.006499 0.017398 0.001679 0.000000 0.000000 0.000000
# 3 0.000950 0.001679 0.017909 0.000000 0.000000 0.000000
# 4 0.000000 0.000000 0.000000 0.035443 0.000000 0.000000
# 5 0.000000 0.000000 0.000000 0.000000 0.032926 0.000000
# 6 0.000000 0.000000 0.000000 0.000000 0.000000 0.034059
#
#
# Mechanical properties :
#
#
# Convention : Reuss Voigt Hill
#
# Bulk Modulus (GPa) = 23.84317 27.23798 25.54058
# Shear Modulus (GPa) = 28.76390 30.62687 29.69539
#
# Velocity S-wave (km/s) = 3.55460 3.66790 3.61170
# Velocity P-wave (km/s) = 5.22690 5.46835 5.34899
#
# Compressibility (1/GPa) = 0.04194073
#
# Stress axis : x y z
#
# Youngs Moduli (GPa) = 69.57273 57.47639 55.83720
#
# Poissons Ratio (x) = 0.37354 -0.05304
# Poissons Ratio (y) = 0.45215 -0.09374
# Poissons Ratio (z) = -0.06608 -0.09650
#
# Static dielectric constant tensor:
#      x y z
#    x 4.226670 0.000000 0.000000 
#    y 0.000000 3.876710 0.000000 
#    z 0.000000 0.000000 4.330150 
# 
# 
# High freq. dielectric constant tensor:
#      x y z
#    x 1.908910 0.000000 0.000000 
#    y 0.000000 1.865360 0.000000 
#    z 0.000000 0.000000 1.914620 
# 
# From -- ./inp_files/2091.got.cif
#   From: 2010.03.12/outbox.cif.g09.slc.cpg/sg29_2_cif.got.tgz:2091.got - 2010.04.14 03:43:10.
