data_PCOD8168248
_publ_section_title
;
Structure prediction by ZEFSAII (Michael W. Deem and Ramdas Pophale) SiO2 
 PCOD8168248
Probable space group: P M A 2
;
_chemical_formula_sum "Si O2"
_cell_formula_units_Z 24
_cell_length_a 24.923642
_cell_length_b 8.458040
_cell_length_c 5.074108
_cell_angle_alpha 90.000000
_cell_angle_beta 90.000000
_cell_angle_gamma 90.000000
_cell_volume 1069.648154
_symmetry_space_group_name_H-M "P M A 2"
_symmetry_group_IT_number 28
_symmetry_cell_setting 'orthorhombic'
loop_
_space_group_symop_operation_xyz
x,y,z
-x,-y,z
1/2-x,y,z
1/2+x,-y,z
loop_
_atom_site_type_symbol
_atom_site_label
_atom_site_fract_x
_atom_site_fract_y
_atom_site_fract_z
Si Si1 0.976425 0.324756 0.734250
Si Si2 0.188357 0.171773 0.922562
Si Si3 0.975343 0.673297 0.240003
Si Si4 0.853318 0.326645 0.637705
Si Si5 0.688315 0.165488 0.132486
Si Si6 0.353358 0.333195 0.417461
O O1 0.912737 0.326175 0.761600
O O2 0.000000 0.500000 0.677115
O O3 0.993152 0.232801 0.468606
O O4 0.008370 0.237087 0.970261
O O5 0.250000 0.164022 0.831204
O O6 0.183596 0.293474 0.166482
O O7 0.167391 0.003076 0.026992
O O8 0.153470 0.214005 0.663722
O O9 0.912919 0.666494 0.300585
O O10 0.000000 0.500000 0.179222
O O11 0.846273 0.206782 0.392604
O O12 0.836393 0.496620 0.526928
O O13 0.816533 0.287932 0.889626
O O14 0.750000 0.157382 0.222879
#
# Coordination Sequence:
#
# PCOD8168248 Si02
#       6
#     4   4   4   4   4   4
#     4  10  19  34  59  96 127 166 199 263 331 400
#     4  11  26  46  65  91 140 189 216 263 345 408
#     4  10  19  34  59  96 127 166 199 263 331 400
#     4  12  23  39  71 106 125 168 233 283 318 387
#     4  11  26  46  65  91 140 189 216 263 345 408
#     4  12  23  39  71 106 125 168 233 283 318 387
#
# _framework density 22.437283999999998
#
# number of rings (size 3 to 8) (size 9 to 14) (size 15 to 20)
#    0.000    1.000    3.333    5.000    4.667    6.667 
#    0.000    0.000    0.000   15.000    0.000    0.000 
#    0.000    0.000    0.000    0.000    0.000    0.000 
#
# Total GULP energy -297467.103544 kJ/mol
# GULP energy per Si atom -12394.462648 kJ/mol
# Density = 2.238622 g / cm^3
# Si number density = 22.437284 Si / 1000 Ang^3
#
#
#
# Elastic Constant Matrix: (Units=GPa)
#
#
# Indices 1 2 3 4 5 6 
#
# 1 90.0060 36.2161 30.5783 0.0000 0.0000 0.0000
# 2 36.2161 56.6017 17.4578 0.0000 0.0000 0.0000
# 3 30.5783 17.4578 163.0036 0.0000 0.0000 0.0000
# 4 0.0000 0.0000 0.0000 28.3118 0.0000 0.0000
# 5 0.0000 0.0000 0.0000 0.0000 84.5468 0.0000
# 6 0.0000 0.0000 0.0000 0.0000 0.0000 3.3683
#
#
#
# Elastic Compliance Matrix: (Units=1/GPa)
#
#
# Indices 1 2 3 4 5 6 
#
# 1 0.015517 -0.009339 -0.001911 0.000000 0.000000 0.000000
# 2 -0.009339 0.023892 -0.000807 0.000000 0.000000 0.000000
# 3 -0.001911 -0.000807 0.006580 0.000000 0.000000 0.000000
# 4 0.000000 0.000000 0.000000 0.035321 0.000000 0.000000
# 5 0.000000 0.000000 0.000000 0.000000 0.011828 0.000000
# 6 0.000000 0.000000 0.000000 0.000000 0.000000 0.296885
#
#
# Mechanical properties :
#
#
# Convention : Reuss Voigt Hill
#
# Bulk Modulus (GPa) = 45.71394 53.12397 49.41896
# Shear Modulus (GPa) = 11.86441 38.26932 25.06686
#
# Velocity S-wave (km/s) = 2.30202 4.13439 3.34608
# Velocity P-wave (km/s) = 5.24252 6.82048 6.08288
#
# Compressibility (1/GPa) = 0.02187516
#
# Stress axis : x y z
#
# Youngs Moduli (GPa) = 64.44375 41.85528 151.98299
#
# Poissons Ratio (x) = 0.39090 0.29039
# Poissons Ratio (y) = 0.60186 0.12263
# Poissons Ratio (z) = 0.12313 0.03377
#
# Static dielectric constant tensor:
#      x y z
#    x 3.861680 0.000000 0.000000 
#    y 0.000000 3.926980 0.000000 
#    z 0.000000 0.000000 5.017460 
# 
# 
# High freq. dielectric constant tensor:
#      x y z
#    x 1.880600 0.000000 0.000000 
#    y 0.000000 1.841670 0.000000 
#    z 0.000000 0.000000 1.926150 
# 
# From -- ./inp_files/1548.got.cif
#   From: 2010.03.12/outbox.cif.g09.slc.cpg/sg28_1_cif.got.tgz:1548.got - 2010.04.14 03:39:34.
