data_PCOD8168003
_publ_section_title
;
Structure prediction by ZEFSAII (Michael W. Deem and Ramdas Pophale) SiO2 
 PCOD8168003
Probable space group: P M A 2
;
_chemical_formula_sum "Si O2"
_cell_formula_units_Z 24
_cell_length_a 9.102355
_cell_length_b 12.862326
_cell_length_c 11.604035
_cell_angle_alpha 90.000000
_cell_angle_beta 90.000000
_cell_angle_gamma 90.000000
_cell_volume 1358.570913
_symmetry_space_group_name_H-M "P M A 2"
_symmetry_group_IT_number 28
_symmetry_cell_setting 'orthorhombic'
loop_
_space_group_symop_operation_xyz
x,y,z
-x,-y,z
1/2-x,y,z
1/2+x,-y,z
loop_
_atom_site_type_symbol
_atom_site_label
_atom_site_fract_x
_atom_site_fract_y
_atom_site_fract_z
Si Si1 0.922261 0.787688 0.367700
Si Si2 0.910343 0.089372 0.190787
Si Si3 0.088343 0.732175 0.010618
Si Si4 0.921137 0.106905 0.826550
Si Si5 0.577645 0.606686 0.189326
Si Si6 0.422195 0.891619 0.560526
O O1 0.750000 0.799901 0.387224
O O2 0.958826 0.683369 0.295913
O O3 0.987251 0.885854 0.299822
O O4 0.005083 0.794540 0.491063
O O5 0.750000 0.050512 0.232130
O O6 0.888825 0.186315 0.110854
O O7 0.000000 0.000000 0.122461
O O8 0.250000 0.683960 0.981045
O O9 0.980376 0.645255 0.063633
O O10 0.020591 0.793428 0.900308
O O11 0.750000 0.090775 0.855055
O O12 0.950127 0.134201 0.694131
O O13 0.000000 0.000000 0.862655
O O14 0.500000 0.500000 0.222866
O O15 0.750000 0.589638 0.175935
O O16 0.250000 0.899976 0.532480
O O17 0.500000 0.000000 0.527802
#
# Coordination Sequence:
#
# PCOD8168003 Si02
#       6
#     4   4   4   4   4   4
#     4  10  20  33  48  68  94 124 160 199 240 288
#     4  10  18  27  42  65  94 126 156 191 235 283
#     4   9  18  32  49  70  97 127 160 197 238 286
#     4   9  18  31  48  72 102 136 169 200 234 276
#     4  10  21  36  55  76  96 121 155 200 252 300
#     4  10  19  31  48  71 101 136 170 201 235 277
#
# _framework density 17.665623
#
# number of rings (size 3 to 8) (size 9 to 14) (size 15 to 20)
#    0.000    2.333    0.000    3.000    0.000    4.000 
#    0.000    0.000    0.000    1.000    0.000    2.333 
#    0.000    0.000    0.000    0.000    0.000    0.000 
#
# Total GULP energy -297419.109996 kJ/mol
# GULP energy per Si atom -12392.462916 kJ/mol
# Density = 1.762541 g / cm^3
# Si number density = 17.665623 Si / 1000 Ang^3
#
#
#
# Elastic Constant Matrix: (Units=GPa)
#
#
# Indices 1 2 3 4 5 6 
#
# 1 114.6634 59.7869 47.6279 0.0000 0.0000 0.0000
# 2 59.7869 78.6718 38.8869 0.0000 0.0000 0.0000
# 3 47.6279 38.8869 95.3270 0.0000 0.0000 0.0000
# 4 0.0000 0.0000 0.0000 22.6610 0.0000 0.0000
# 5 0.0000 0.0000 0.0000 0.0000 24.2695 0.0000
# 6 0.0000 0.0000 0.0000 0.0000 0.0000 29.4514
#
#
#
# Elastic Compliance Matrix: (Units=1/GPa)
#
#
# Indices 1 2 3 4 5 6 
#
# 1 0.015400 -0.009895 -0.003658 0.000000 0.000000 0.000000
# 2 -0.009895 0.022280 -0.004145 0.000000 0.000000 0.000000
# 3 -0.003658 -0.004145 0.014008 0.000000 0.000000 0.000000
# 4 0.000000 0.000000 0.000000 0.044129 0.000000 0.000000
# 5 0.000000 0.000000 0.000000 0.000000 0.041204 0.000000
# 6 0.000000 0.000000 0.000000 0.000000 0.000000 0.033954
#
#
# Mechanical properties :
#
#
# Convention : Reuss Voigt Hill
#
# Bulk Modulus (GPa) = 61.37641 64.58504 62.98072
# Shear Modulus (GPa) = 23.60705 24.76708 24.18707
#
# Velocity S-wave (km/s) = 3.65955 3.74838 3.70423
# Velocity P-wave (km/s) = 7.25777 7.44130 7.35011
#
# Compressibility (1/GPa) = 0.01629291
#
# Stress axis : x y z
#
# Youngs Moduli (GPa) = 64.93500 44.88390 71.38585
#
# Poissons Ratio (x) = 0.44414 0.26110
# Poissons Ratio (y) = 0.64256 0.29587
# Poissons Ratio (z) = 0.23751 0.18603
#
# Static dielectric constant tensor:
#      x y z
#    x 3.501360 0.000000 0.000000 
#    y 0.000000 3.185020 0.000000 
#    z 0.000000 0.000000 3.393280 
# 
# 
# High freq. dielectric constant tensor:
#      x y z
#    x 1.696690 0.000000 0.000000 
#    y 0.000000 1.651770 0.000000 
#    z 0.000000 0.000000 1.678070 
# 
# From -- ./inp_files/4688.got.cif
#   From: 2010.03.12/outbox.cif.g09.slc.cpg/sg28_3_cif.got.tgz:4688.got - 2010.04.14 03:39:34.
