data_PCOD8168400
_publ_section_title
;
Structure prediction by ZEFSAII (Michael W. Deem and Ramdas Pophale) SiO2 
 PCOD8168400
Probable space group: P M A 2
;
_chemical_formula_sum "Si O2"
_cell_formula_units_Z 20
_cell_length_a 25.751173
_cell_length_b 5.199802
_cell_length_c 7.668416
_cell_angle_alpha 90.000000
_cell_angle_beta 90.000000
_cell_angle_gamma 90.000000
_cell_volume 1026.808577
_symmetry_space_group_name_H-M "P M A 2"
_symmetry_group_IT_number 28
_symmetry_cell_setting 'orthorhombic'
loop_
_space_group_symop_operation_xyz
x,y,z
-x,-y,z
1/2-x,y,z
1/2+x,-y,z
loop_
_atom_site_type_symbol
_atom_site_label
_atom_site_fract_x
_atom_site_fract_y
_atom_site_fract_z
Si Si1 0.128126 0.202640 0.347450
Si Si2 0.059401 0.060654 0.035933
Si Si3 0.308941 0.705909 0.259050
Si Si4 0.647867 0.233896 0.901096
Si Si5 0.118265 0.258801 0.737405
O O1 0.082348 0.206708 0.204841
O O2 0.159330 0.936159 0.347391
O O3 0.101544 0.237823 0.536525
O O4 0.167645 0.432548 0.311994
O O5 0.092163 0.797633 0.003077
O O6 0.067249 0.239101 0.862703
O O7 0.000000 0.000000 0.070566
O O8 0.250000 0.717326 0.325768
O O9 0.308547 0.731170 0.048407
O O10 0.657940 0.973161 0.789835
O O11 0.647561 0.473306 0.770054
#
# Coordination Sequence:
#
# PCOD8168400 Si02
#       5
#     4   4   4   4   4
#     4  11  22  39  63  87 124 153 196 250 293 351
#     4   9  21  38  63  86 122 157 201 234 301 349
#     4  11  21  40  63  87 118 160 197 242 300 355
#     4   9  19  39  59  83 117 158 185 251 280 346
#     4  10  20  38  59  83 121 152 194 241 295 333
#
# _framework density 19.477826
#
# number of rings (size 3 to 8) (size 9 to 14) (size 15 to 20)
#    1.200    0.800    2.000    1.800    0.000    1.600 
#    0.000    6.000    8.800    0.000    0.000    0.000 
#    0.000    0.000    0.000    0.000    0.000    0.000 
#
# Total GULP energy -247832.586921 kJ/mol
# GULP energy per Si atom -12391.629346 kJ/mol
# Density = 1.943349 g / cm^3
# Si number density = 19.477826 Si / 1000 Ang^3
#
#
#
# Elastic Constant Matrix: (Units=GPa)
#
#
# Indices 1 2 3 4 5 6 
#
# 1 77.3689 8.4954 24.2756 0.0000 0.0000 0.0000
# 2 8.4954 117.7559 22.9528 0.0000 0.0000 0.0000
# 3 24.2756 22.9528 151.9753 0.0000 0.0000 0.0000
# 4 0.0000 0.0000 0.0000 29.7417 0.0000 0.0000
# 5 0.0000 0.0000 0.0000 0.0000 6.2316 0.0000
# 6 0.0000 0.0000 0.0000 0.0000 0.0000 17.7404
#
#
#
# Elastic Compliance Matrix: (Units=1/GPa)
#
#
# Indices 1 2 3 4 5 6 
#
# 1 0.013645 -0.000577 -0.002092 0.000000 0.000000 0.000000
# 2 -0.000577 0.008774 -0.001233 0.000000 0.000000 0.000000
# 3 -0.002092 -0.001233 0.007100 0.000000 0.000000 0.000000
# 4 0.000000 0.000000 0.000000 0.033623 0.000000 0.000000
# 5 0.000000 0.000000 0.000000 0.000000 0.160472 0.000000
# 6 0.000000 0.000000 0.000000 0.000000 0.000000 0.056368
#
#
# Mechanical properties :
#
#
# Convention : Reuss Voigt Hill
#
# Bulk Modulus (GPa) = 46.05037 50.94975 48.50006
# Shear Modulus (GPa) = 16.94768 30.16784 23.55776
#
# Velocity S-wave (km/s) = 2.95295 3.93979 3.48151
# Velocity P-wave (km/s) = 5.94309 6.84912 6.41213
#
# Compressibility (1/GPa) = 0.02171535
#
# Stress axis : x y z
#
# Youngs Moduli (GPa) = 73.28723 113.97204 140.83542
#
# Poissons Ratio (x) = 0.06571 0.29470
# Poissons Ratio (y) = 0.04225 0.17366
# Poissons Ratio (z) = 0.15335 0.14053
#
# Static dielectric constant tensor:
#      x y z
#    x 3.020940 0.000000 0.000000 
#    y 0.000000 3.604370 0.000000 
#    z 0.000000 0.000000 3.612530 
# 
# 
# High freq. dielectric constant tensor:
#      x y z
#    x 1.710640 0.000000 0.000000 
#    y 0.000000 1.770970 0.000000 
#    z 0.000000 0.000000 1.763990 
# 
# From -- ./inp_files/4133.got.cif
#   From: 2010.03.12/outbox.cif.g09.slc.cpg/sg28_3_cif.got.tgz:4133.got - 2010.04.14 03:39:34.
