data_PCOD8168411
_publ_section_title
;
Structure prediction by ZEFSAII (Michael W. Deem and Ramdas Pophale) SiO2 
 PCOD8168411
Probable space group: P M A 2
;
_chemical_formula_sum "Si O2"
_cell_formula_units_Z 20
_cell_length_a 10.083583
_cell_length_b 10.426997
_cell_length_c 9.413833
_cell_angle_alpha 90.000000
_cell_angle_beta 90.000000
_cell_angle_gamma 90.000000
_cell_volume 989.784425
_symmetry_space_group_name_H-M "P M A 2"
_symmetry_group_IT_number 28
_symmetry_cell_setting 'orthorhombic'
loop_
_space_group_symop_operation_xyz
x,y,z
-x,-y,z
1/2-x,y,z
1/2+x,-y,z
loop_
_atom_site_type_symbol
_atom_site_label
_atom_site_fract_x
_atom_site_fract_y
_atom_site_fract_z
Si Si1 0.250000 0.699675 0.621521
Si Si2 0.527166 0.741626 0.059503
Si Si3 0.250000 0.666080 0.142842
Si Si4 0.500000 0.000000 0.226724
Si Si5 0.517878 0.646095 0.766594
Si Si6 0.750000 0.594199 0.558472
Si Si7 0.750000 0.109863 0.364242
Si Si8 0.250000 0.387159 0.238900
O O1 0.380634 0.710402 0.717835
O O2 0.250000 0.560588 0.545228
O O3 0.250000 0.822863 0.517678
O O4 0.381428 0.677715 0.047952
O O5 0.617640 0.661563 0.165263
O O6 0.528218 0.885291 0.117470
O O7 0.578670 0.729972 0.897049
O O8 0.250000 0.779768 0.251451
O O9 0.250000 0.538978 0.234491
O O10 0.621276 0.022811 0.334902
O O11 0.500000 0.500000 0.819736
O O12 0.619856 0.647206 0.636115
O O13 0.750000 0.656060 0.402551
#
# Coordination Sequence:
#
# PCOD8168411 Si02
#       8
#     2   4   2   2   4   2   2   2
#     4  10  21  39  64  88 131 165 200 250 323 388
#     4  11  23  40  64  89 128 166 214 261 304 369
#     4  10  21  34  63  94 119 155 213 254 323 369
#     4  10  24  42  64  86 126 168 222 258 302 352
#     4  10  21  38  61  93 131 165 200 254 325 385
#     4  10  23  35  59  97 137 159 194 249 328 386
#     4  10  21  41  61  90 121 168 206 267 305 366
#     4  12  22  35  63  97 126 161 205 264 319 375
#
# _framework density 20.206420000000001
#
# number of rings (size 3 to 8) (size 9 to 14) (size 15 to 20)
#    0.000    1.600    1.000    3.600    5.600    3.200 
#    0.000    1.000    0.000    0.000    0.000    0.000 
#    0.000    0.000    0.000    0.000    0.000    0.000 
#
# Total GULP energy -247983.831311 kJ/mol
# GULP energy per Si atom -12399.191566 kJ/mol
# Density = 2.016043 g / cm^3
# Si number density = 20.206420 Si / 1000 Ang^3
#
#
#
# Elastic Constant Matrix: (Units=GPa)
#
#
# Indices 1 2 3 4 5 6 
#
# 1 143.1687 61.8004 64.6692 0.0000 0.0000 0.0000
# 2 61.8004 55.0139 52.2037 0.0000 0.0000 0.0000
# 3 64.6692 52.2037 161.1897 0.0000 0.0000 0.0000
# 4 0.0000 0.0000 0.0000 14.1395 0.0000 0.0000
# 5 0.0000 0.0000 0.0000 0.0000 23.4766 0.0000
# 6 0.0000 0.0000 0.0000 0.0000 0.0000 13.2142
#
#
#
# Elastic Compliance Matrix: (Units=1/GPa)
#
#
# Indices 1 2 3 4 5 6 
#
# 1 0.013620 -0.014603 -0.000735 0.000000 0.000000 0.000000
# 2 -0.014603 0.041899 -0.007711 0.000000 0.000000 0.000000
# 3 -0.000735 -0.007711 0.008996 0.000000 0.000000 0.000000
# 4 0.000000 0.000000 0.000000 0.070724 0.000000 0.000000
# 5 0.000000 0.000000 0.000000 0.000000 0.042596 0.000000
# 6 0.000000 0.000000 0.000000 0.000000 0.000000 0.075676
#
#
# Mechanical properties :
#
#
# Convention : Reuss Voigt Hill
#
# Bulk Modulus (GPa) = 54.29698 79.63542 66.96620
# Shear Modulus (GPa) = 16.35338 22.21267 19.28303
#
# Velocity S-wave (km/s) = 2.84793 3.31915 3.09253
# Velocity P-wave (km/s) = 6.14360 7.36108 6.77972
#
# Compressibility (1/GPa) = 0.01841723
#
# Stress axis : x y z
#
# Youngs Moduli (GPa) = 73.41940 23.86717 111.16035
#
# Poissons Ratio (x) = 0.34853 0.08171
# Poissons Ratio (y) = 1.07215 0.85713
# Poissons Ratio (z) = 0.05397 0.18403
#
# Static dielectric constant tensor:
#      x y z
#    x 4.159520 0.000000 0.000000 
#    y 0.000000 3.808930 0.000000 
#    z 0.000000 0.000000 3.608020 
# 
# 
# High freq. dielectric constant tensor:
#      x y z
#    x 1.805830 0.000000 0.000000 
#    y 0.000000 1.771360 0.000000 
#    z 0.000000 0.000000 1.789650 
# 
# From -- ./inp_files/2958.got.cif
#   From: 2010.03.12/outbox.cif.g09.slc.cpg/sg28_2_cif.got.tgz:2958.got - 2010.04.14 03:39:34.
