data_PCOD8168942
_publ_section_title
;
Structure prediction by ZEFSAII (Michael W. Deem and Ramdas Pophale) SiO2 
 PCOD8168942
Probable space group: P C A 21
;
_chemical_formula_sum "Si O2"
_cell_formula_units_Z 28
_cell_length_a 10.933850
_cell_length_b 10.015531
_cell_length_c 10.619437
_cell_angle_alpha 90.000000
_cell_angle_beta 90.000000
_cell_angle_gamma 90.000000
_cell_volume 1162.916638
_symmetry_space_group_name_H-M "P C A 21"
_symmetry_group_IT_number 29
_symmetry_cell_setting 'orthorhombic'
loop_
_space_group_symop_operation_xyz
x,y,z
-x,-y,1/2+z
1/2-x,y,1/2+z
1/2+x,-y,z
loop_
_atom_site_type_symbol
_atom_site_label
_atom_site_fract_x
_atom_site_fract_y
_atom_site_fract_z
Si Si1 0.170811 0.086994 0.190570
Si Si2 0.799483 0.593098 0.418922
Si Si3 0.185207 0.683695 0.471205
Si Si4 0.911339 0.166895 0.558172
Si Si5 0.662500 0.848208 0.458237
Si Si6 0.473268 0.352883 0.644994
Si Si7 0.012088 0.629293 0.256914
O O1 0.219547 0.076269 0.335199
O O2 0.077802 0.212489 0.194399
O O3 0.099189 0.952331 0.157993
O O4 0.278176 0.100313 0.088075
O O5 0.755431 0.443363 0.418651
O O6 0.687212 0.690631 0.445686
O O7 0.905236 0.603276 0.520403
O O8 0.866254 0.633928 0.287118
O O9 0.282962 0.803489 0.487918
O O10 0.087376 0.713641 0.361613
O O11 0.116752 0.661714 0.605498
O O12 0.961644 0.300593 0.624778
O O13 0.016612 0.126095 0.458867
O O14 0.453378 0.470683 0.748027
#
# Coordination Sequence:
#
# PCOD8168942 Si02
#       7
#     4   4   4   4   4   4   4
#     4  11  28  47  78 103 152 200 248 307 373 450
#     4  10  22  43  71 103 141 193 242 309 368 446
#     4  11  25  41  71 108 145 183 251 306 374 439
#     4  12  28  44  72 112 146 198 243 314 372 448
#     4  11  26  50  74 106 151 199 252 303 384 445
#     4  10  23  45  67 104 141 192 243 306 364 441
#     4  11  24  42  73 106 144 189 251 307 375 439
#
# _framework density 24.077390999999999
#
# number of rings (size 3 to 8) (size 9 to 14) (size 15 to 20)
#    0.000    1.143    1.429    2.571   10.000    5.714 
#    0.000    0.000    0.000    0.000    0.000    0.000 
#    0.000    0.000    0.000    0.000    0.000    0.000 
#
# Total GULP energy -347140.372796 kJ/mol
# GULP energy per Si atom -12397.870457 kJ/mol
# Density = 2.402259 g / cm^3
# Si number density = 24.077391 Si / 1000 Ang^3
#
#
#
# Elastic Constant Matrix: (Units=GPa)
#
#
# Indices 1 2 3 4 5 6 
#
# 1 105.7353 26.3879 40.6333 0.0000 0.0000 0.0000
# 2 26.3879 91.3479 22.4298 0.0000 0.0000 0.0000
# 3 40.6333 22.4298 120.1631 0.0000 0.0000 0.0000
# 4 0.0000 0.0000 0.0000 36.1855 0.0000 0.0000
# 5 0.0000 0.0000 0.0000 0.0000 30.2791 0.0000
# 6 0.0000 0.0000 0.0000 0.0000 0.0000 20.9859
#
#
#
# Elastic Compliance Matrix: (Units=1/GPa)
#
#
# Indices 1 2 3 4 5 6 
#
# 1 0.011372 -0.002453 -0.003387 0.000000 0.000000 0.000000
# 2 -0.002453 0.012002 -0.001411 0.000000 0.000000 0.000000
# 3 -0.003387 -0.001411 0.009731 0.000000 0.000000 0.000000
# 4 0.000000 0.000000 0.000000 0.027635 0.000000 0.000000
# 5 0.000000 0.000000 0.000000 0.000000 0.033026 0.000000
# 6 0.000000 0.000000 0.000000 0.000000 0.000000 0.047651
#
#
# Mechanical properties :
#
#
# Convention : Reuss Voigt Hill
#
# Bulk Modulus (GPa) = 53.75812 55.12760 54.44286
# Shear Modulus (GPa) = 30.84123 32.67643 31.75883
#
# Velocity S-wave (km/s) = 3.58288 3.68794 3.63579
# Velocity P-wave (km/s) = 6.28424 6.40938 6.34712
#
# Compressibility (1/GPa) = 0.01860184
#
# Stress axis : x y z
#
# Youngs Moduli (GPa) = 87.93865 83.31780 102.76628
#
# Poissons Ratio (x) = 0.20439 0.34811
# Poissons Ratio (y) = 0.21573 0.14498
# Poissons Ratio (z) = 0.29788 0.11755
#
# Static dielectric constant tensor:
#      x y z
#    x 4.485210 0.000000 0.000000 
#    y 0.000000 4.178670 0.000000 
#    z 0.000000 0.000000 4.379360 
# 
# 
# High freq. dielectric constant tensor:
#      x y z
#    x 1.954730 0.000000 0.000000 
#    y 0.000000 1.947840 0.000000 
#    z 0.000000 0.000000 1.956410 
# 
# From -- ./inp_files/3138.got.cif
#   From: 2010.03.12/outbox.cif.g09.slc.cpg/sg29_2_cif.got.tgz:3138.got - 2010.04.14 03:43:10.
