data_PCOD8168096
_publ_section_title
;
Structure prediction by ZEFSAII (Michael W. Deem and Ramdas Pophale) SiO2 
 PCOD8168096
Probable space group: P M A 2
;
_chemical_formula_sum "Si O2"
_cell_formula_units_Z 32
_cell_length_a 8.946098
_cell_length_b 14.288484
_cell_length_c 15.631428
_cell_angle_alpha 90.000000
_cell_angle_beta 90.000000
_cell_angle_gamma 90.000000
_cell_volume 1998.105700
_symmetry_space_group_name_H-M "P M A 2"
_symmetry_group_IT_number 28
_symmetry_cell_setting 'orthorhombic'
loop_
_space_group_symop_operation_xyz
x,y,z
-x,-y,z
1/2-x,y,z
1/2+x,-y,z
loop_
_atom_site_type_symbol
_atom_site_label
_atom_site_fract_x
_atom_site_fract_y
_atom_site_fract_z
Si Si1 0.573391 0.904766 0.679770
Si Si2 0.074353 0.598814 0.786247
Si Si3 0.573999 0.278669 0.621812
Si Si4 0.575720 0.906410 0.876937
Si Si5 0.074693 0.399586 0.105346
Si Si6 0.077980 0.402559 0.289865
Si Si7 0.926492 0.601887 0.475449
Si Si8 0.426692 0.292500 0.939397
O O1 0.750000 0.907674 0.665953
O O2 0.502669 0.822062 0.624826
O O3 0.529196 0.889986 0.778745
O O4 0.500000 0.000000 0.645384
O O5 0.250000 0.584670 0.797269
O O6 0.034030 0.665735 0.707659
O O7 0.000000 0.500000 0.766478
O O8 0.009200 0.641850 0.872323
O O9 0.750000 0.267354 0.609465
O O10 0.505284 0.330447 0.541224
O O11 0.750000 0.922424 0.886168
O O12 0.521941 0.815408 0.929631
O O13 0.500000 0.000000 0.914470
O O14 0.250000 0.416705 0.096935
O O15 0.031549 0.354297 0.199068
O O16 0.000000 0.500000 0.090366
O O17 0.023023 0.325853 0.033553
O O18 0.250000 0.426481 0.284954
O O19 0.044037 0.351467 0.380489
O O20 0.000000 0.500000 0.294442
O O21 0.750000 0.593401 0.494986
O O22 0.000000 0.500000 0.483124
O O23 0.250000 0.301424 0.923175
#
# Coordination Sequence:
#
# PCOD8168096 Si02
#       8
#     4   4   4   4   4   4   4   4
#     4  10  19  33  52  71  94 122 156 198 240 282
#     4  11  23  34  45  62  91 128 161 191 224 269
#     4  11  22  34  48  69  94 125 162 196 236 281
#     4   9  18  31  48  68  90 119 153 193 234 274
#     4   9  17  29  46  67  94 123 155 191 229 276
#     4   8  15  28  45  66  90 119 153 192 235 278
#     4  10  19  31  48  69  95 125 159 197 239 284
#     4  10  19  32  48  68  93 123 157 192 232 276
#
# _framework density 16.015167999999999
#
# number of rings (size 3 to 8) (size 9 to 14) (size 15 to 20)
#    0.000    2.250    1.250    2.250    0.000    5.500 
#    0.000    0.000    0.000    0.000    0.000    0.875 
#    0.000    2.000    0.000    0.000    0.000    0.000 
#
# Total GULP energy -396598.975546 kJ/mol
# GULP energy per Si atom -12393.717986 kJ/mol
# Density = 1.597872 g / cm^3
# Si number density = 16.015168 Si / 1000 Ang^3
#
#
#
# Elastic Constant Matrix: (Units=GPa)
#
#
# Indices 1 2 3 4 5 6 
#
# 1 55.8244 42.7937 43.5586 0.0000 0.0000 0.0000
# 2 42.7937 113.5716 58.0961 0.0000 0.0000 0.0000
# 3 43.5586 58.0961 120.1929 0.0000 0.0000 0.0000
# 4 0.0000 0.0000 0.0000 5.2053 0.0000 0.0000
# 5 0.0000 0.0000 0.0000 0.0000 15.5785 0.0000
# 6 0.0000 0.0000 0.0000 0.0000 0.0000 28.2291
#
#
#
# Elastic Compliance Matrix: (Units=1/GPa)
#
#
# Indices 1 2 3 4 5 6 
#
# 1 0.028977 -0.007368 -0.006940 0.000000 0.000000 0.000000
# 2 -0.007368 0.013571 -0.003889 0.000000 0.000000 0.000000
# 3 -0.006940 -0.003889 0.012715 0.000000 0.000000 0.000000
# 4 0.000000 0.000000 0.000000 0.192112 0.000000 0.000000
# 5 0.000000 0.000000 0.000000 0.000000 0.064191 0.000000
# 6 0.000000 0.000000 0.000000 0.000000 0.000000 0.035424
#
#
# Mechanical properties :
#
#
# Convention : Reuss Voigt Hill
#
# Bulk Modulus (GPa) = 53.00079 64.27619 58.63849
# Shear Modulus (GPa) = 12.83122 19.47860 16.15491
#
# Velocity S-wave (km/s) = 2.83360 3.49127 3.17949
# Velocity P-wave (km/s) = 6.62357 7.51490 7.08327
#
# Compressibility (1/GPa) = 0.01886764
#
# Stress axis : x y z
#
# Youngs Moduli (GPa) = 34.51042 73.68679 78.64813
#
# Poissons Ratio (x) = 0.54296 0.54580
# Poissons Ratio (y) = 0.25429 0.30588
# Poissons Ratio (z) = 0.23949 0.28659
#
# Static dielectric constant tensor:
#      x y z
#    x 3.101440 0.000000 0.000000 
#    y 0.000000 2.973330 0.000000 
#    z 0.000000 0.000000 3.462570 
# 
# 
# High freq. dielectric constant tensor:
#      x y z
#    x 1.625730 0.000000 0.000000 
#    y 0.000000 1.594360 0.000000 
#    z 0.000000 0.000000 1.611760 
# 
# From -- ./inp_files/6304.got.cif
#   From: 2010.03.12/outbox.cif.g09.slc.cpg/sg28_4_cif.got.tgz:6304.got - 2010.04.14 03:39:34.
