data_PCOD8168676
_publ_section_title
;
Structure prediction by ZEFSAII (Michael W. Deem and Ramdas Pophale) SiO2 
 PCOD8168676
Probable space group: P C A 21
;
_chemical_formula_sum "Si O2"
_cell_formula_units_Z 24
_cell_length_a 9.204277
_cell_length_b 15.190210
_cell_length_c 8.608381
_cell_angle_alpha 90.000000
_cell_angle_beta 90.000000
_cell_angle_gamma 90.000000
_cell_volume 1203.579933
_symmetry_space_group_name_H-M "P C A 21"
_symmetry_group_IT_number 29
_symmetry_cell_setting 'orthorhombic'
loop_
_space_group_symop_operation_xyz
x,y,z
-x,-y,1/2+z
1/2-x,y,1/2+z
1/2+x,-y,z
loop_
_atom_site_type_symbol
_atom_site_label
_atom_site_fract_x
_atom_site_fract_y
_atom_site_fract_z
Si Si1 0.557114 0.922044 0.173340
Si Si2 0.061648 0.767333 0.268336
Si Si3 0.632520 0.925944 0.813253
Si Si4 0.852003 0.433273 0.111483
Si Si5 0.639683 0.234513 0.618066
Si Si6 0.055817 0.569049 0.260769
O O1 0.695393 0.927537 0.285749
O O2 0.477455 0.828494 0.200968
O O3 0.442516 0.996226 0.218915
O O4 0.605399 0.935608 0.996016
O O5 0.193677 0.790246 0.153591
O O6 0.131997 0.778462 0.435740
O O7 0.998429 0.669148 0.245165
O O8 0.929397 0.834439 0.244609
O O9 0.896713 0.334960 0.166856
O O10 0.680815 0.446621 0.133966
O O11 0.927633 0.502558 0.224279
O O12 0.886283 0.450658 0.932670
#
# Coordination Sequence:
#
# PCOD8168676 Si02
#       6
#     4   4   4   4   4   4
#     4  11  23  39  58  83 112 145 182 224 271 324
#     4   9  20  37  57  80 109 143 182 224 272 324
#     4  11  23  39  58  83 112 145 182 224 271 324
#     4  10  20  36  56  81 111 146 184 226 273 324
#     4   9  20  37  57  80 109 143 182 224 272 324
#     4  10  20  36  56  81 111 146 184 226 273 324
#
# _framework density 19.940514
#
# number of rings (size 3 to 8) (size 9 to 14) (size 15 to 20)
#    0.000    2.000    0.000    3.000    0.000    8.000 
#    0.000    3.333    0.000    0.000    0.000    0.000 
#    0.000    0.000    0.000    0.000    0.000    0.000 
#
# Total GULP energy -297657.974019 kJ/mol
# GULP energy per Si atom -12402.415584 kJ/mol
# Density = 1.989513 g / cm^3
# Si number density = 19.940514 Si / 1000 Ang^3
#
#
#
# Elastic Constant Matrix: (Units=GPa)
#
#
# Indices 1 2 3 4 5 6 
#
# 1 55.7194 34.2867 -0.7666 0.0000 0.0000 0.0000
# 2 34.2867 103.9572 19.3503 0.0000 0.0000 0.0000
# 3 -0.7666 19.3503 37.6322 0.0000 0.0000 0.0000
# 4 0.0000 0.0000 0.0000 29.0125 0.0000 0.0000
# 5 0.0000 0.0000 0.0000 0.0000 34.7664 0.0000
# 6 0.0000 0.0000 0.0000 0.0000 0.0000 39.9359
#
#
#
# Elastic Compliance Matrix: (Units=1/GPa)
#
#
# Indices 1 2 3 4 5 6 
#
# 1 0.023305 -0.008598 0.004896 0.000000 0.000000 0.000000
# 2 -0.008598 0.013809 -0.007276 0.000000 0.000000 0.000000
# 3 0.004896 -0.007276 0.030414 0.000000 0.000000 0.000000
# 4 0.000000 0.000000 0.000000 0.034468 0.000000 0.000000
# 5 0.000000 0.000000 0.000000 0.000000 0.028763 0.000000
# 6 0.000000 0.000000 0.000000 0.000000 0.000000 0.025040
#
#
# Mechanical properties :
#
#
# Convention : Reuss Voigt Hill
#
# Bulk Modulus (GPa) = 21.94304 33.67217 27.80761
# Shear Modulus (GPa) = 25.91400 30.37219 28.14310
#
# Velocity S-wave (km/s) = 3.60886 3.90698 3.76087
# Velocity P-wave (km/s) = 5.32854 6.10537 5.73013
#
# Compressibility (1/GPa) = 0.04557253
#
# Stress axis : x y z
#
# Youngs Moduli (GPa) = 42.90946 72.41520 32.87965
#
# Poissons Ratio (x) = 0.62259 -0.16097
# Poissons Ratio (y) = 0.36892 0.23923
# Poissons Ratio (z) = -0.21007 0.52688
#
# Static dielectric constant tensor:
#      x y z
#    x 3.719050 0.000000 0.000000 
#    y 0.000000 3.969660 0.000000 
#    z 0.000000 0.000000 3.580230 
# 
# 
# High freq. dielectric constant tensor:
#      x y z
#    x 1.770790 0.000000 0.000000 
#    y 0.000000 1.790120 0.000000 
#    z 0.000000 0.000000 1.781750 
# 
# From -- ./inp_files/1144.got.cif
#   From: 2010.03.12/outbox.cif.g09.slc.cpg/sg29_1_cif.got.tgz:1144.got - 2010.04.14 03:43:10.
