data_PCOD8168822
_publ_section_title
;
Structure prediction by ZEFSAII (Michael W. Deem and Ramdas Pophale) SiO2 
 PCOD8168822
Probable space group: P C A 21
;
_chemical_formula_sum "Si O2"
_cell_formula_units_Z 16
_cell_length_a 9.686497
_cell_length_b 7.011911
_cell_length_c 8.686937
_cell_angle_alpha 90.000000
_cell_angle_beta 90.000000
_cell_angle_gamma 90.000000
_cell_volume 590.024187
_symmetry_space_group_name_H-M "P C A 21"
_symmetry_group_IT_number 29
_symmetry_cell_setting 'orthorhombic'
loop_
_space_group_symop_operation_xyz
x,y,z
-x,-y,1/2+z
1/2-x,y,1/2+z
1/2+x,-y,z
loop_
_atom_site_type_symbol
_atom_site_label
_atom_site_fract_x
_atom_site_fract_y
_atom_site_fract_z
Si Si1 0.436078 0.037154 0.994010
Si Si2 0.067276 0.494861 0.490072
Si Si3 0.185630 0.066895 0.180661
Si Si4 0.185227 0.453299 0.799659
O O1 0.451504 0.266017 0.991288
O O2 0.387100 0.963479 0.825521
O O3 0.322987 0.963020 0.118030
O O4 0.578616 0.933770 0.037246
O O5 0.104082 0.565550 0.663741
O O6 0.191529 0.570312 0.380649
O O7 0.926638 0.595271 0.433209
O O8 0.236096 0.275517 0.226377
#
# Coordination Sequence:
#
# PCOD8168822 Si02
#       4
#     4   4   4   4
#     4  10  21  40  65  99 136 182 231 285 344 409
#     4  10  21  40  65  99 136 182 231 285 344 409
#     4  10  21  40  66  99 139 182 231 285 342 411
#     4  10  21  40  66  99 139 182 231 285 342 411
#
# _framework density 27.117532000000001
#
# number of rings (size 3 to 8) (size 9 to 14) (size 15 to 20)
#    0.000    2.000    0.000    3.000    0.000    4.000 
#    0.000   30.000    0.000    0.000    0.000    0.000 
#    0.000    0.000    0.000    0.000    0.000    0.000 
#
# Total GULP energy -198239.298241 kJ/mol
# GULP energy per Si atom -12389.956140 kJ/mol
# Density = 2.705581 g / cm^3
# Si number density = 27.117532 Si / 1000 Ang^3
#
#
#
# Elastic Constant Matrix: (Units=GPa)
#
#
# Indices 1 2 3 4 5 6 
#
# 1 145.7683 16.3090 21.8735 0.0000 0.0000 0.0000
# 2 16.3090 61.4083 29.0938 0.0000 0.0000 0.0000
# 3 21.8735 29.0938 109.5988 0.0000 0.0000 0.0000
# 4 0.0000 0.0000 0.0000 25.1128 0.0000 0.0000
# 5 0.0000 0.0000 0.0000 0.0000 254.4650 0.0000
# 6 0.0000 0.0000 0.0000 0.0000 0.0000 24.9207
#
#
#
# Elastic Compliance Matrix: (Units=1/GPa)
#
#
# Indices 1 2 3 4 5 6 
#
# 1 0.007176 -0.001404 -0.001060 0.000000 0.000000 0.000000
# 2 -0.001404 0.018902 -0.004737 0.000000 0.000000 0.000000
# 3 -0.001060 -0.004737 0.010593 0.000000 0.000000 0.000000
# 4 0.000000 0.000000 0.000000 0.039820 0.000000 0.000000
# 5 0.000000 0.000000 0.000000 0.000000 0.003930 0.000000
# 6 0.000000 0.000000 0.000000 0.000000 0.000000 0.040127
#
#
# Mechanical properties :
#
#
# Convention : Reuss Voigt Hill
#
# Bulk Modulus (GPa) = 44.90442 50.14755 47.52599
# Shear Modulus (GPa) = 35.11888 77.53298 56.32593
#
# Velocity S-wave (km/s) = 3.60260 5.35290 4.56247
# Velocity P-wave (km/s) = 5.82238 7.53243 6.73192
#
# Compressibility (1/GPa) = 0.02226952
#
# Stress axis : x y z
#
# Youngs Moduli (GPa) = 139.34826 52.90510 94.39989
#
# Poissons Ratio (x) = 0.07427 0.10002
# Poissons Ratio (y) = 0.19563 0.44721
# Poissons Ratio (z) = 0.14765 0.25063
#
# Static dielectric constant tensor:
#      x y z
#    x 5.244910 0.000000 0.000000 
#    y 0.000000 4.047480 0.000000 
#    z 0.000000 0.000000 5.976010 
# 
# 
# High freq. dielectric constant tensor:
#      x y z
#    x 2.110140 0.000000 0.000000 
#    y 0.000000 2.042150 0.000000 
#    z 0.000000 0.000000 2.113230 
# 
# From -- ./inp_files/1032.got.cif
#   From: 2010.03.12/outbox.cif.g09.slc.cpg/sg29_1_cif.got.tgz:1032.got - 2010.04.14 03:43:10.
