data_PCOD8168417
_publ_section_title
;
Structure prediction by ZEFSAII (Michael W. Deem and Ramdas Pophale) SiO2 
 PCOD8168417
Probable space group: P M A 2
;
_chemical_formula_sum "Si O2"
_cell_formula_units_Z 24
_cell_length_a 8.571954
_cell_length_b 26.409337
_cell_length_c 5.138751
_cell_angle_alpha 90.000000
_cell_angle_beta 90.000000
_cell_angle_gamma 90.000000
_cell_volume 1163.308509
_symmetry_space_group_name_H-M "P M A 2"
_symmetry_group_IT_number 28
_symmetry_cell_setting 'orthorhombic'
loop_
_space_group_symop_operation_xyz
x,y,z
-x,-y,z
1/2-x,y,z
1/2+x,-y,z
loop_
_atom_site_type_symbol
_atom_site_label
_atom_site_fract_x
_atom_site_fract_y
_atom_site_fract_z
Si Si1 0.934419 0.054299 0.979790
Si Si2 0.069157 0.723308 0.953534
Si Si3 0.433502 0.386011 0.926065
Si Si4 0.435748 0.443969 0.426237
Si Si5 0.067628 0.105394 0.484763
Si Si6 0.068286 0.787089 0.452356
O O1 0.750000 0.052719 0.014205
O O2 0.978194 0.093431 0.752487
O O3 0.000000 0.000000 0.895255
O O4 0.009858 0.069664 0.253144
O O5 0.250000 0.709034 0.942053
O O6 0.025294 0.762776 0.728277
O O7 0.972985 0.672718 0.912179
O O8 0.022355 0.747559 0.228260
O O9 0.250000 0.391661 0.924626
O O10 0.503505 0.415731 0.679457
O O11 0.502697 0.412207 0.183189
O O12 0.500000 0.500000 0.413357
O O13 0.250000 0.445657 0.426019
O O14 0.250000 0.096441 0.527579
O O15 0.034224 0.163200 0.409760
O O16 0.250000 0.801995 0.433136
#
# Coordination Sequence:
#
# PCOD8168417 Si02
#       6
#     4   4   4   4   4   4
#     4  12  25  44  67  93 127 167 207 254 309 365
#     4  10  21  36  57  83 112 148 193 236 283 344
#     4  10  21  36  54  78 109 141 179 226 281 335
#     4  10  21  36  54  78 106 140 179 224 275 334
#     4  12  25  42  65  96 127 162 209 256 305 366
#     4  10  21  38  58  84 117 154 194 240 292 348
#
# _framework density 20.630811999999999
#
# number of rings (size 3 to 8) (size 9 to 14) (size 15 to 20)
#    0.000    1.333    0.000    6.000    0.000    4.000 
#    0.000    0.000    0.000    0.000    0.000    0.000 
#    0.000    0.000    0.000    0.000    0.000    0.000 
#
# Total GULP energy -297762.608053 kJ/mol
# GULP energy per Si atom -12406.775336 kJ/mol
# Density = 2.058386 g / cm^3
# Si number density = 20.630812 Si / 1000 Ang^3
#
#
#
# Elastic Constant Matrix: (Units=GPa)
#
#
# Indices 1 2 3 4 5 6 
#
# 1 46.4919 23.6547 24.6962 0.0000 0.0000 0.0000
# 2 23.6547 101.4159 22.6632 0.0000 0.0000 0.0000
# 3 24.6962 22.6632 124.7312 0.0000 0.0000 0.0000
# 4 0.0000 0.0000 0.0000 31.3697 0.0000 0.0000
# 5 0.0000 0.0000 0.0000 0.0000 30.1116 0.0000
# 6 0.0000 0.0000 0.0000 0.0000 0.0000 42.0086
#
#
#
# Elastic Compliance Matrix: (Units=1/GPa)
#
#
# Indices 1 2 3 4 5 6 
#
# 1 0.026437 -0.005208 -0.004288 0.000000 0.000000 0.000000
# 2 -0.005208 0.011304 -0.001023 0.000000 0.000000 0.000000
# 3 -0.004288 -0.001023 0.009052 0.000000 0.000000 0.000000
# 4 0.000000 0.000000 0.000000 0.031878 0.000000 0.000000
# 5 0.000000 0.000000 0.000000 0.000000 0.033210 0.000000
# 6 0.000000 0.000000 0.000000 0.000000 0.000000 0.023805
#
#
# Mechanical properties :
#
#
# Convention : Reuss Voigt Hill
#
# Bulk Modulus (GPa) = 38.82742 46.07412 42.45077
# Shear Modulus (GPa) = 30.24674 34.13966 32.19320
#
# Velocity S-wave (km/s) = 3.83312 4.07232 3.95453
# Velocity P-wave (km/s) = 6.20091 6.67030 6.43989
#
# Compressibility (1/GPa) = 0.02575499
#
# Stress axis : x y z
#
# Youngs Moduli (GPa) = 37.82623 88.46702 110.47194
#
# Poissons Ratio (x) = 0.46073 0.47371
# Poissons Ratio (y) = 0.19700 0.11298
# Poissons Ratio (z) = 0.16220 0.09047
#
# Static dielectric constant tensor:
#      x y z
#    x 3.548170 0.000000 0.000000 
#    y 0.000000 3.726960 0.000000 
#    z 0.000000 0.000000 4.308560 
# 
# 
# High freq. dielectric constant tensor:
#      x y z
#    x 1.795940 0.000000 0.000000 
#    y 0.000000 1.819070 0.000000 
#    z 0.000000 0.000000 1.828680 
# 
# From -- ./inp_files/212.got.cif
#   From: 2010.03.12/outbox.cif.g09.slc.cpg/sg28_1_cif.got.tgz:212.got - 2010.04.14 03:39:34.
