data_PCOD8168575
_publ_section_title
;
Structure prediction by ZEFSAII (Michael W. Deem and Ramdas Pophale) SiO2 
 PCOD8168575
Probable space group: P C A 21
;
_chemical_formula_sum "Si O2"
_cell_formula_units_Z 32
_cell_length_a 8.517804
_cell_length_b 14.466575
_cell_length_c 12.203387
_cell_angle_alpha 90.000000
_cell_angle_beta 90.000000
_cell_angle_gamma 90.000000
_cell_volume 1503.743453
_symmetry_space_group_name_H-M "P C A 21"
_symmetry_group_IT_number 29
_symmetry_cell_setting 'orthorhombic'
loop_
_space_group_symop_operation_xyz
x,y,z
-x,-y,1/2+z
1/2-x,y,1/2+z
1/2+x,-y,z
loop_
_atom_site_type_symbol
_atom_site_label
_atom_site_fract_x
_atom_site_fract_y
_atom_site_fract_z
Si Si1 0.496677 0.386598 0.575040
Si Si2 0.018817 0.225981 0.227469
Si Si3 0.809597 0.073727 0.137485
Si Si4 0.564438 0.006519 0.981055
Si Si5 0.896516 0.436293 0.853366
Si Si6 0.644698 0.421686 0.119514
Si Si7 0.200560 0.068163 0.322965
Si Si8 0.448726 0.621232 0.396378
O O1 0.428737 0.293231 0.628479
O O2 0.509123 0.376637 0.443439
O O3 0.377599 0.469095 0.599766
O O4 0.668917 0.404538 0.626333
O O5 0.861084 0.171399 0.189280
O O6 0.973950 0.282378 0.336238
O O7 0.170522 0.162644 0.255987
O O8 0.966948 0.035073 0.081103
O O9 0.680111 0.081592 0.040005
O O10 0.745329 0.010506 0.235806
O O11 0.668266 0.927197 0.919052
O O12 0.465000 0.051484 0.883848
O O13 0.938466 0.395606 0.734195
O O14 0.712779 0.428189 0.869336
O O15 0.920520 0.546742 0.862635
O O16 0.554614 0.361106 0.027706
#
# Coordination Sequence:
#
# PCOD8168575 Si02
#       8
#     4   4   4   4   4   4   4   4
#     4  10  22  35  65  91 124 177 215 283 326 414
#     4  12  22  40  66  98 138 167 244 278 338 413
#     4  11  22  43  70  93 134 181 216 293 347 417
#     4  10  22  42  71  95 123 183 229 258 371 420
#     4  10  18  39  61  87 130 171 223 264 365 392
#     4  10  18  39  61  86 131 170 220 265 361 390
#     4  11  22  43  71  97 133 181 215 291 351 413
#     4  10  22  35  65  93 125 180 218 288 329 423
#
# _framework density 21.280227
#
# number of rings (size 3 to 8) (size 9 to 14) (size 15 to 20)
#    0.000    1.500    5.000    0.000    0.000    2.000 
#    0.000    5.000    8.250    0.000    0.000    0.000 
#    0.000    0.000    0.000    0.000    0.000    0.000 
#
# Total GULP energy -396551.951768 kJ/mol
# GULP energy per Si atom -12392.248493 kJ/mol
# Density = 2.123179 g / cm^3
# Si number density = 21.280227 Si / 1000 Ang^3
#
#
#
# Elastic Constant Matrix: (Units=GPa)
#
#
# Indices 1 2 3 4 5 6 
#
# 1 54.4874 17.7436 27.3091 0.0000 0.0000 0.0000
# 2 17.7436 100.9822 48.7051 0.0000 0.0000 0.0000
# 3 27.3091 48.7051 175.9232 0.0000 0.0000 0.0000
# 4 0.0000 0.0000 0.0000 45.4195 0.0000 0.0000
# 5 0.0000 0.0000 0.0000 0.0000 34.0443 0.0000
# 6 0.0000 0.0000 0.0000 0.0000 0.0000 28.6489
#
#
#
# Elastic Compliance Matrix: (Units=1/GPa)
#
#
# Indices 1 2 3 4 5 6 
#
# 1 0.020382 -0.002372 -0.002507 0.000000 0.000000 0.000000
# 2 -0.002372 0.011705 -0.002872 0.000000 0.000000 0.000000
# 3 -0.002507 -0.002872 0.006869 0.000000 0.000000 0.000000
# 4 0.000000 0.000000 0.000000 0.022017 0.000000 0.000000
# 5 0.000000 0.000000 0.000000 0.000000 0.029373 0.000000
# 6 0.000000 0.000000 0.000000 0.000000 0.000000 0.034905
#
#
# Mechanical properties :
#
#
# Convention : Reuss Voigt Hill
#
# Bulk Modulus (GPa) = 42.63967 57.65650 50.14808
# Shear Modulus (GPa) = 33.65371 37.46488 35.55930
#
# Velocity S-wave (km/s) = 3.98106 4.20044 4.09222
# Velocity P-wave (km/s) = 6.41970 7.11883 6.77828
#
# Compressibility (1/GPa) = 0.02345234
#
# Stress axis : x y z
#
# Youngs Moduli (GPa) = 49.06301 85.43435 145.58747
#
# Poissons Ratio (x) = 0.20265 0.36502
# Poissons Ratio (y) = 0.11638 0.41818
# Poissons Ratio (z) = 0.12301 0.24540
#
# Static dielectric constant tensor:
#      x y z
#    x 3.849020 0.000000 0.000000 
#    y 0.000000 3.501160 0.000000 
#    z 0.000000 0.000000 4.932070 
# 
# 
# High freq. dielectric constant tensor:
#      x y z
#    x 1.826510 0.000000 0.000000 
#    y 0.000000 1.792050 0.000000 
#    z 0.000000 0.000000 1.871540 
# 
# From -- ./inp_files/2961.got.cif
#   From: 2010.03.12/outbox.cif.g09.slc.cpg/sg29_2_cif.got.tgz:2961.got - 2010.04.14 03:43:10.
