data_PCOD8168038
_publ_section_title
;
Structure prediction by ZEFSAII (Michael W. Deem and Ramdas Pophale) SiO2 
 PCOD8168038
Probable space group: P M A 2
;
_chemical_formula_sum "Si O2"
_cell_formula_units_Z 20
_cell_length_a 8.650699
_cell_length_b 14.201066
_cell_length_c 10.078991
_cell_angle_alpha 90.000000
_cell_angle_beta 90.000000
_cell_angle_gamma 90.000000
_cell_volume 1238.195451
_symmetry_space_group_name_H-M "P M A 2"
_symmetry_group_IT_number 28
_symmetry_cell_setting 'orthorhombic'
loop_
_space_group_symop_operation_xyz
x,y,z
-x,-y,z
1/2-x,y,z
1/2+x,-y,z
loop_
_atom_site_type_symbol
_atom_site_label
_atom_site_fract_x
_atom_site_fract_y
_atom_site_fract_z
Si Si1 0.568520 0.099945 0.555550
Si Si2 0.066358 0.101164 0.274342
Si Si3 0.068771 0.602807 0.902840
Si Si4 0.924604 0.764347 0.762701
Si Si5 0.925108 0.756268 0.053791
O O1 0.750000 0.088693 0.535257
O O2 0.493082 0.133490 0.417893
O O3 0.533796 0.176720 0.666734
O O4 0.500000 0.000000 0.601209
O O5 0.250000 0.095434 0.274142
O O6 0.004890 0.176396 0.166730
O O7 0.000000 0.000000 0.234771
O O8 0.250000 0.596990 0.882288
O O9 0.000000 0.500000 0.913507
O O10 0.992067 0.657813 0.777068
O O11 0.026811 0.660697 0.038296
O O12 0.750000 0.761065 0.706006
O O13 0.927187 0.810462 0.910824
O O14 0.750000 0.726840 0.090311
#
# Coordination Sequence:
#
# PCOD8168038 Si02
#       5
#     4   4   4   4   4
#     4  11  21  33  49  72 100 136 171 202 243 293
#     4  10  19  33  50  71 100 135 168 202 243 289
#     4  10  18  31  52  76 100 128 161 201 249 297
#     4   9  18  34  51  74 100 128 164 207 246 289
#     4   8  18  33  50  73  99 129 165 205 246 289
#
# _framework density 16.152538
#
# number of rings (size 3 to 8) (size 9 to 14) (size 15 to 20)
#    1.200    1.200    0.000    5.400    0.000    2.400 
#    0.000    2.000    0.000    1.200    0.000    2.800 
#    0.000    0.000    0.000    0.000    0.000    0.000 
#
# Total GULP energy -247831.667566 kJ/mol
# GULP energy per Si atom -12391.583378 kJ/mol
# Density = 1.611577 g / cm^3
# Si number density = 16.152538 Si / 1000 Ang^3
#
#
#
# Elastic Constant Matrix: (Units=GPa)
#
#
# Indices 1 2 3 4 5 6 
#
# 1 92.4755 36.2239 25.4749 0.0000 0.0000 0.0000
# 2 36.2239 112.4149 61.1718 0.0000 0.0000 0.0000
# 3 25.4749 61.1718 72.1793 0.0000 0.0000 0.0000
# 4 0.0000 0.0000 0.0000 6.6320 0.0000 0.0000
# 5 0.0000 0.0000 0.0000 0.0000 19.3921 0.0000
# 6 0.0000 0.0000 0.0000 0.0000 0.0000 29.3179
#
#
#
# Elastic Compliance Matrix: (Units=1/GPa)
#
#
# Indices 1 2 3 4 5 6 
#
# 1 0.012508 -0.003022 -0.001854 0.000000 0.000000 0.000000
# 2 -0.003022 0.017239 -0.013544 0.000000 0.000000 0.000000
# 3 -0.001854 -0.013544 0.025987 0.000000 0.000000 0.000000
# 4 0.000000 0.000000 0.000000 0.150783 0.000000 0.000000
# 5 0.000000 0.000000 0.000000 0.000000 0.051567 0.000000
# 6 0.000000 0.000000 0.000000 0.000000 0.000000 0.034109
#
#
# Mechanical properties :
#
#
# Convention : Reuss Voigt Hill
#
# Bulk Modulus (GPa) = 52.92160 58.09010 55.50585
# Shear Modulus (GPa) = 14.91064 21.34835 18.12949
#
# Velocity S-wave (km/s) = 3.04158 3.63942 3.35385
# Velocity P-wave (km/s) = 6.72084 7.32817 7.03107
#
# Compressibility (1/GPa) = 0.01889588
#
# Stress axis : x y z
#
# Youngs Moduli (GPa) = 79.94892 58.00675 38.48095
#
# Poissons Ratio (x) = 0.17529 0.07132
# Poissons Ratio (y) = 0.24160 0.52118
# Poissons Ratio (z) = 0.14819 0.78563
#
# Static dielectric constant tensor:
#      x y z
#    x 3.134730 0.000000 0.000000 
#    y 0.000000 2.971200 0.000000 
#    z 0.000000 0.000000 2.950110 
# 
# 
# High freq. dielectric constant tensor:
#      x y z
#    x 1.637570 0.000000 0.000000 
#    y 0.000000 1.604250 0.000000 
#    z 0.000000 0.000000 1.601950 
# 
# From -- ./inp_files/4775.got.cif
#   From: 2010.03.12/outbox.cif.g09.slc.cpg/sg28_3_cif.got.tgz:4775.got - 2010.04.14 03:39:34.
