data_PCOD8168878
_publ_section_title
;
Structure prediction by ZEFSAII (Michael W. Deem and Ramdas Pophale) SiO2 
 PCOD8168878
Probable space group: P C A 21
;
_chemical_formula_sum "Si O2"
_cell_formula_units_Z 24
_cell_length_a 14.210088
_cell_length_b 8.855331
_cell_length_c 9.509901
_cell_angle_alpha 90.000000
_cell_angle_beta 90.000000
_cell_angle_gamma 90.000000
_cell_volume 1196.678704
_symmetry_space_group_name_H-M "P C A 21"
_symmetry_group_IT_number 29
_symmetry_cell_setting 'orthorhombic'
loop_
_space_group_symop_operation_xyz
x,y,z
-x,-y,1/2+z
1/2-x,y,1/2+z
1/2+x,-y,z
loop_
_atom_site_type_symbol
_atom_site_label
_atom_site_fract_x
_atom_site_fract_y
_atom_site_fract_z
Si Si1 0.276293 0.417116 0.872310
Si Si2 0.583740 0.537776 0.985531
Si Si3 0.442799 0.610066 0.763769
Si Si4 0.093165 0.117564 0.064666
Si Si5 0.473246 0.073607 0.266684
Si Si6 0.706302 0.791330 0.621658
O O1 0.344313 0.550448 0.823409
O O2 0.235235 0.328053 0.740055
O O3 0.191528 0.500431 0.952386
O O4 0.323618 0.297778 0.979803
O O5 0.545309 0.420555 0.098949
O O6 0.573481 0.705312 0.048811
O O7 0.524849 0.520081 0.843592
O O8 0.453440 0.788557 0.784342
O O9 0.205178 0.096483 0.092188
O O10 0.063855 0.028092 0.922217
O O11 0.031267 0.062054 0.196493
O O12 0.383544 0.113640 0.170501
#
# Coordination Sequence:
#
# PCOD8168878 Si02
#       6
#     4   4   4   4   4   4
#     4  11  20  38  66  89 122 167 209 252 316 393
#     4  10  22  39  60  94 118 166 210 251 326 381
#     4  11  21  38  63  93 126 154 211 267 313 373
#     4  10  23  40  62  90 124 170 214 255 316 383
#     4  11  24  41  63  96 125 163 220 262 314 375
#     4  11  20  42  66  88 123 174 208 249 321 397
#
# _framework density 20.055509000000001
#
# number of rings (size 3 to 8) (size 9 to 14) (size 15 to 20)
#    0.000    1.333    8.333    1.000    2.333    1.333 
#    0.000    6.667    0.000    0.000    0.000    0.000 
#    0.000    0.000    0.000    0.000    0.000    0.000 
#
# Total GULP energy -297572.597000 kJ/mol
# GULP energy per Si atom -12398.858208 kJ/mol
# Density = 2.000986 g / cm^3
# Si number density = 20.055509 Si / 1000 Ang^3
#
#
#
# Elastic Constant Matrix: (Units=GPa)
#
#
# Indices 1 2 3 4 5 6 
#
# 1 105.2161 38.9584 26.7957 0.0000 0.0000 0.0000
# 2 38.9584 33.9086 16.0302 0.0000 0.0000 0.0000
# 3 26.7957 16.0302 90.5390 0.0000 0.0000 0.0000
# 4 0.0000 0.0000 0.0000 32.9937 0.0000 0.0000
# 5 0.0000 0.0000 0.0000 0.0000 44.7107 0.0000
# 6 0.0000 0.0000 0.0000 0.0000 0.0000 37.7546
#
#
#
# Elastic Compliance Matrix: (Units=1/GPa)
#
#
# Indices 1 2 3 4 5 6 
#
# 1 0.016776 -0.018473 -0.001694 0.000000 0.000000 0.000000
# 2 -0.018473 0.052527 -0.003833 0.000000 0.000000 0.000000
# 3 -0.001694 -0.003833 0.012225 0.000000 0.000000 0.000000
# 4 0.000000 0.000000 0.000000 0.030309 0.000000 0.000000
# 5 0.000000 0.000000 0.000000 0.000000 0.022366 0.000000
# 6 0.000000 0.000000 0.000000 0.000000 0.000000 0.026487
#
#
# Mechanical properties :
#
#
# Convention : Reuss Voigt Hill
#
# Bulk Modulus (GPa) = 29.82615 43.69247 36.75931
# Shear Modulus (GPa) = 22.74114 32.95044 27.84579
#
# Velocity S-wave (km/s) = 3.37101 4.05774 3.73021
# Velocity P-wave (km/s) = 5.48231 6.61716 6.07629
#
# Compressibility (1/GPa) = 0.03352763
#
# Stress axis : x y z
#
# Youngs Moduli (GPa) = 59.60970 19.03776 81.79972
#
# Poissons Ratio (x) = 0.35169 0.13858
# Poissons Ratio (y) = 1.10118 0.31352
# Poissons Ratio (z) = 0.10099 0.07297
#
# Static dielectric constant tensor:
#      x y z
#    x 4.107640 0.000000 0.000000 
#    y 0.000000 3.282750 0.000000 
#    z 0.000000 0.000000 4.092060 
# 
# 
# High freq. dielectric constant tensor:
#      x y z
#    x 1.791020 0.000000 0.000000 
#    y 0.000000 1.737980 0.000000 
#    z 0.000000 0.000000 1.807600 
# 
# From -- ./inp_files/1668.got.cif
#   From: 2010.03.12/outbox.cif.g09.slc.cpg/sg29_1_cif.got.tgz:1668.got - 2010.04.14 03:43:10.
