data_PCOD8168683
_publ_section_title
;
Structure prediction by ZEFSAII (Michael W. Deem and Ramdas Pophale) SiO2 
 PCOD8168683
Probable space group: P C A 21
;
_chemical_formula_sum "Si O2"
_cell_formula_units_Z 28
_cell_length_a 13.586707
_cell_length_b 8.838001
_cell_length_c 12.319421
_cell_angle_alpha 90.000000
_cell_angle_beta 90.000000
_cell_angle_gamma 90.000000
_cell_volume 1479.307820
_symmetry_space_group_name_H-M "P C A 21"
_symmetry_group_IT_number 29
_symmetry_cell_setting 'orthorhombic'
loop_
_space_group_symop_operation_xyz
x,y,z
-x,-y,1/2+z
1/2-x,y,1/2+z
1/2+x,-y,z
loop_
_atom_site_type_symbol
_atom_site_label
_atom_site_fract_x
_atom_site_fract_y
_atom_site_fract_z
Si Si1 0.702134 0.775511 0.416190
Si Si2 0.889331 0.924808 0.347741
Si Si3 0.889332 0.075192 0.847742
Si Si4 0.612538 0.281648 0.148563
Si Si5 0.297865 0.775513 0.416190
Si Si6 0.250000 0.500001 0.276368
Si Si7 0.387463 0.281649 0.148563
O O1 0.816408 0.827493 0.424187
O O2 0.692594 0.618367 0.352555
O O3 0.661532 0.761499 0.536044
O O4 0.639775 0.899135 0.348900
O O5 0.880031 0.866276 0.224374
O O6 1.000000 0.902359 0.392212
O O7 0.860224 0.100864 0.348899
O O8 0.880031 0.133723 0.724375
O O9 0.816409 0.172507 0.924188
O O10 0.668439 0.422680 0.201322
O O11 0.500000 0.330652 0.129993
O O12 0.661532 0.238497 0.036044
O O13 0.307405 0.618367 0.352557
O O14 0.331562 0.422681 0.201323
#
# Coordination Sequence:
#
# PCOD8168683 Si02
#       7
#     4   4   4   4   4   4   4
#     4  10  20  36  59  82 113 147 184 231 279 329
#     4   9  20  37  58  83 109 142 187 235 280 329
#     4   9  20  37  58  83 109 142 187 235 280 329
#     4  10  21  38  58  82 113 147 186 231 278 330
#     4  10  20  36  59  82 113 147 184 231 279 329
#     4  10  22  38  54  82 114 148 186 228 274 330
#     4  10  21  38  58  82 113 147 186 231 278 330
#
# _framework density 18.927769999999999
#
# number of rings (size 3 to 8) (size 9 to 14) (size 15 to 20)
#    0.000    2.286    0.000    1.714    0.000   11.429 
#    0.000    7.143    0.000    1.714    0.000    0.000 
#    0.000    0.000    0.000    0.000    0.000    0.000 
#
# Total GULP energy -347235.442899 kJ/mol
# GULP energy per Si atom -12401.265818 kJ/mol
# Density = 1.888469 g / cm^3
# Si number density = 18.927770 Si / 1000 Ang^3
#
#
#
# Elastic Constant Matrix: (Units=GPa)
#
#
# Indices 1 2 3 4 5 6 
#
# 1 173.0089 63.7720 84.9642 0.0000 0.0000 0.0000
# 2 63.7720 141.8101 71.9612 0.0000 0.0000 0.0000
# 3 84.9642 71.9612 128.8412 0.0000 0.0000 0.0000
# 4 0.0000 0.0000 0.0000 20.4190 0.0000 0.0000
# 5 0.0000 0.0000 0.0000 0.0000 34.7190 0.0000
# 6 0.0000 0.0000 0.0000 0.0000 0.0000 21.9892
#
#
#
# Elastic Compliance Matrix: (Units=1/GPa)
#
#
# Indices 1 2 3 4 5 6 
#
# 1 0.008744 -0.001404 -0.004982 0.000000 0.000000 0.000000
# 2 -0.001404 0.010066 -0.004696 0.000000 0.000000 0.000000
# 3 -0.004982 -0.004696 0.013670 0.000000 0.000000 0.000000
# 4 0.000000 0.000000 0.000000 0.048974 0.000000 0.000000
# 5 0.000000 0.000000 0.000000 0.000000 0.028803 0.000000
# 6 0.000000 0.000000 0.000000 0.000000 0.000000 0.045477
#
#
# Mechanical properties :
#
#
# Convention : Reuss Voigt Hill
#
# Bulk Modulus (GPa) = 96.94319 98.33945 97.64132
# Shear Modulus (GPa) = 27.57281 30.28963 28.93122
#
# Velocity S-wave (km/s) = 3.82087 4.00468 3.91385
# Velocity P-wave (km/s) = 8.41392 8.57037 8.49250
#
# Compressibility (1/GPa) = 0.01031532
#
# Stress axis : x y z
#
# Youngs Moduli (GPa) = 114.35918 99.34179 73.15264
#
# Poissons Ratio (x) = 0.13949 0.36446
# Poissons Ratio (y) = 0.16057 0.34355
# Poissons Ratio (z) = 0.56976 0.46654
#
# Static dielectric constant tensor:
#      x y z
#    x 3.788060 0.000000 0.000000 
#    y 0.000000 3.819120 0.000000 
#    z 0.000000 0.000000 3.346250 
# 
# 
# High freq. dielectric constant tensor:
#      x y z
#    x 1.747660 0.000000 0.000000 
#    y 0.000000 1.740200 0.000000 
#    z 0.000000 0.000000 1.727550 
# 
# From -- ./inp_files/3440.got.cif
#   From: 2010.03.12/outbox.cif.g09.slc.cpg/sg29_2_cif.got.tgz:3440.got - 2010.04.14 03:43:10.
