data_PCOD8168410
_publ_section_title
;
Structure prediction by ZEFSAII (Michael W. Deem and Ramdas Pophale) SiO2 
 PCOD8168410
Probable space group: P M A 2
;
_chemical_formula_sum "Si O2"
_cell_formula_units_Z 32
_cell_length_a 9.570347
_cell_length_b 9.614740
_cell_length_c 20.471266
_cell_angle_alpha 90.000000
_cell_angle_beta 90.000000
_cell_angle_gamma 90.000000
_cell_volume 1883.692162
_symmetry_space_group_name_H-M "P M A 2"
_symmetry_group_IT_number 28
_symmetry_cell_setting 'orthorhombic'
loop_
_space_group_symop_operation_xyz
x,y,z
-x,-y,z
1/2-x,y,z
1/2+x,-y,z
loop_
_atom_site_type_symbol
_atom_site_label
_atom_site_fract_x
_atom_site_fract_y
_atom_site_fract_z
Si Si1 0.087980 0.139845 0.678270
Si Si2 0.088218 0.364493 0.575223
Si Si3 0.914057 0.642575 0.071979
Si Si4 0.592670 0.867265 0.819410
Si Si5 0.910694 0.633413 0.427130
Si Si6 0.087041 0.142253 0.961686
Si Si7 0.088529 0.134243 0.178692
Si Si8 0.088372 0.131452 0.328050
O O1 0.250000 0.102685 0.666361
O O2 0.033482 0.245058 0.623404
O O3 0.067703 0.213574 0.750502
O O4 0.000000 0.000000 0.671867
O O5 0.250000 0.399417 0.588069
O O6 0.063101 0.313736 0.500979
O O7 0.000000 0.500000 0.591266
O O8 0.750000 0.606294 0.068562
O O9 0.951337 0.730205 0.136836
O O10 0.000000 0.500000 0.072044
O O11 0.961770 0.737703 0.010972
O O12 0.750000 0.922241 0.821407
O O13 0.561308 0.791289 0.888671
O O14 0.500000 0.000000 0.815787
O O15 0.750000 0.594006 0.416270
O O16 0.961052 0.747876 0.376061
O O17 0.000000 0.500000 0.410681
O O18 0.250000 0.106023 0.973636
O O19 0.000000 0.000000 0.972323
O O20 0.250000 0.094254 0.168007
O O21 0.055951 0.174197 0.253501
O O22 0.000000 0.000000 0.156176
O O23 0.250000 0.095004 0.337905
O O24 0.000000 0.000000 0.349597
#
# Coordination Sequence:
#
# PCOD8168410 Si02
#       8
#     4   4   4   4   4   4   4   4
#     4   9  17  29  46  68  92 117 147 185 227 268
#     4   9  18  32  47  64  89 121 154 186 222 265
#     4  10  21  34  47  67  95 123 151 185 224 265
#     4   8  14  26  44  65  89 115 144 181 223 265
#     4   9  18  32  48  66  90 120 153 187 222 264
#     4   9  17  30  49  70  90 116 151 187 223 266
#     4   9  18  33  51  70  92 119 151 185 222 266
#     4   9  18  32  49  70  95 119 146 184 226 267
#
# _framework density 16.987912999999999
#
# number of rings (size 3 to 8) (size 9 to 14) (size 15 to 20)
#    0.000    3.000    0.000    0.375    0.000    3.000 
#    0.000    0.625    0.000    0.000    0.000    0.000 
#    0.000    0.000    0.000    0.000    0.000    0.000 
#
# Total GULP energy -396544.451093 kJ/mol
# GULP energy per Si atom -12392.014097 kJ/mol
# Density = 1.694925 g / cm^3
# Si number density = 16.987913 Si / 1000 Ang^3
#
#
#
# Elastic Constant Matrix: (Units=GPa)
#
#
# Indices 1 2 3 4 5 6 
#
# 1 51.6119 55.2550 48.8791 0.0000 0.0000 0.0000
# 2 55.2550 123.1966 92.8004 0.0000 0.0000 0.0000
# 3 48.8791 92.8004 137.4987 0.0000 0.0000 0.0000
# 4 0.0000 0.0000 0.0000 14.7227 0.0000 0.0000
# 5 0.0000 0.0000 0.0000 0.0000 23.2705 0.0000
# 6 0.0000 0.0000 0.0000 0.0000 0.0000 32.2850
#
#
#
# Elastic Compliance Matrix: (Units=1/GPa)
#
#
# Indices 1 2 3 4 5 6 
#
# 1 0.038387 -0.014113 -0.004121 0.000000 0.000000 0.000000
# 2 -0.014113 0.021700 -0.009629 0.000000 0.000000 0.000000
# 3 -0.004121 -0.009629 0.015236 0.000000 0.000000 0.000000
# 4 0.000000 0.000000 0.000000 0.067922 0.000000 0.000000
# 5 0.000000 0.000000 0.000000 0.000000 0.042973 0.000000
# 6 0.000000 0.000000 0.000000 0.000000 0.000000 0.030974
#
#
# Mechanical properties :
#
#
# Convention : Reuss Voigt Hill
#
# Bulk Modulus (GPa) = 51.02514 78.46404 64.74459
# Shear Modulus (GPa) = 17.89222 21.74717 19.81969
#
# Velocity S-wave (km/s) = 3.24888 3.58181 3.41940
# Velocity P-wave (km/s) = 6.64642 7.96205 7.33380
#
# Compressibility (1/GPa) = 0.01959818
#
# Stress axis : x y z
#
# Youngs Moduli (GPa) = 26.05030 46.08329 65.63190
#
# Poissons Ratio (x) = 0.65036 0.27049
# Poissons Ratio (y) = 0.36764 0.63195
# Poissons Ratio (z) = 0.10736 0.44372
#
# Static dielectric constant tensor:
#      x y z
#    x 3.174700 0.000000 0.000000 
#    y 0.000000 2.602830 0.000000 
#    z 0.000000 0.000000 3.772300 
# 
# 
# High freq. dielectric constant tensor:
#      x y z
#    x 1.655960 0.000000 0.000000 
#    y 0.000000 1.622930 0.000000 
#    z 0.000000 0.000000 1.678100 
# 
# From -- ./inp_files/7209.got.cif
#   From: 2010.03.12/outbox.cif.g09.slc.cpg/sg28_4_cif.got.tgz:7209.got - 2010.04.14 03:39:34.
