data_PCOD8168173
_publ_section_title
;
Structure prediction by ZEFSAII (Michael W. Deem and Ramdas Pophale) SiO2 
 PCOD8168173
Probable space group: P M A 2
;
_chemical_formula_sum "Si O2"
_cell_formula_units_Z 32
_cell_length_a 14.263857
_cell_length_b 14.564727
_cell_length_c 8.971209
_cell_angle_alpha 90.000000
_cell_angle_beta 90.000000
_cell_angle_gamma 90.000000
_cell_volume 1863.761342
_symmetry_space_group_name_H-M "P M A 2"
_symmetry_group_IT_number 28
_symmetry_cell_setting 'orthorhombic'
loop_
_space_group_symop_operation_xyz
x,y,z
-x,-y,z
1/2-x,y,z
1/2+x,-y,z
loop_
_atom_site_type_symbol
_atom_site_label
_atom_site_fract_x
_atom_site_fract_y
_atom_site_fract_z
Si Si1 0.858573 0.950787 0.638860
Si Si2 0.981779 0.766216 0.144620
Si Si3 0.853817 0.855961 0.926487
Si Si4 0.537498 0.787750 0.492598
Si Si5 0.011073 0.396678 0.946463
Si Si6 0.144601 0.837298 0.642147
Si Si7 0.643067 0.258900 0.947801
Si Si8 0.855417 0.677274 0.722418
O O1 0.750000 0.922609 0.616369
O O2 0.886909 0.935303 0.812377
O O3 0.920469 0.888282 0.528794
O O4 0.876775 0.056759 0.605621
O O5 0.964996 0.771324 0.318002
O O6 0.922179 0.847596 0.067133
O O7 0.947912 0.666145 0.082145
O O8 0.090862 0.781122 0.095722
O O9 0.750000 0.875844 0.989014
O O10 0.856397 0.764263 0.829354
O O11 0.431179 0.778249 0.552159
O O12 0.600009 0.706962 0.564465
O O13 0.910822 0.352297 0.896626
O O14 0.000000 0.500000 0.005291
O O15 0.081339 0.399485 0.804274
O O16 0.250000 0.811251 0.589421
O O17 0.134930 0.816807 0.817790
O O18 0.750000 0.282194 0.987859
O O19 0.750000 0.639959 0.696097
#
# Coordination Sequence:
#
# PCOD8168173 Si02
#       8
#     4   4   4   4   4   4   4   4
#     4   9  18  31  51  75  99 135 180 226 256 294
#     4   9  20  31  49  75 105 140 167 203 269 317
#     4   8  14  29  49  71  98 128 170 210 252 299
#     4  11  18  32  49  75 109 141 168 208 261 318
#     4   9  18  36  57  81 101 131 174 224 267 315
#     4  10  19  33  53  73  97 137 186 221 255 303
#     4   9  18  35  55  75 101 138 180 218 258 307
#     4   9  17  31  53  78 102 130 168 215 262 310
#
# _framework density 17.169581999999998
#
# number of rings (size 3 to 8) (size 9 to 14) (size 15 to 20)
#    0.750    2.000    1.250    2.250    0.000    2.000 
#    0.000    3.125    0.000    3.000    0.000    0.000 
#    0.000    0.000    0.000    0.000    0.000    0.000 
#
# Total GULP energy -396510.572279 kJ/mol
# GULP energy per Si atom -12390.955384 kJ/mol
# Density = 1.713050 g / cm^3
# Si number density = 17.169582 Si / 1000 Ang^3
#
#
#
# Elastic Constant Matrix: (Units=GPa)
#
#
# Indices 1 2 3 4 5 6 
#
# 1 128.4901 28.1396 62.6274 0.0000 0.0000 0.0000
# 2 28.1396 42.4940 21.7279 0.0000 0.0000 0.0000
# 3 62.6274 21.7279 122.6226 0.0000 0.0000 0.0000
# 4 0.0000 0.0000 0.0000 13.3300 0.0000 0.0000
# 5 0.0000 0.0000 0.0000 0.0000 14.4064 0.0000
# 6 0.0000 0.0000 0.0000 0.0000 0.0000 13.4766
#
#
#
# Elastic Compliance Matrix: (Units=1/GPa)
#
#
# Indices 1 2 3 4 5 6 
#
# 1 0.011237 -0.004956 -0.004861 0.000000 0.000000 0.000000
# 2 -0.004956 0.028063 -0.002441 0.000000 0.000000 0.000000
# 3 -0.004861 -0.002441 0.011070 0.000000 0.000000 0.000000
# 4 0.000000 0.000000 0.000000 0.075019 0.000000 0.000000
# 5 0.000000 0.000000 0.000000 0.000000 0.069413 0.000000
# 6 0.000000 0.000000 0.000000 0.000000 0.000000 0.074202
#
#
# Mechanical properties :
#
#
# Convention : Reuss Voigt Hill
#
# Bulk Modulus (GPa) = 38.67897 57.62186 48.15041
# Shear Modulus (GPa) = 16.54861 20.31674 18.43267
#
# Velocity S-wave (km/s) = 3.10793 3.44364 3.28009
# Velocity P-wave (km/s) = 5.95445 7.03170 6.51538
#
# Compressibility (1/GPa) = 0.02585385
#
# Stress axis : x y z
#
# Youngs Moduli (GPa) = 88.98828 35.63424 90.33034
#
# Poissons Ratio (x) = 0.17660 0.43911
# Poissons Ratio (y) = 0.44101 0.22054
# Poissons Ratio (z) = 0.43259 0.08700
#
# Static dielectric constant tensor:
#      x y z
#    x 3.570030 0.000000 0.000000 
#    y 0.000000 2.919390 0.000000 
#    z 0.000000 0.000000 2.898750 
# 
# 
# High freq. dielectric constant tensor:
#      x y z
#    x 1.678150 0.000000 0.000000 
#    y 0.000000 1.627740 0.000000 
#    z 0.000000 0.000000 1.633150 
# 
# From -- ./inp_files/3601.got.cif
#   From: 2010.03.12/outbox.cif.g09.slc.cpg/sg28_2_cif.got.tgz:3601.got - 2010.04.14 03:39:34.
