data_PCOD8168505
_publ_section_title
;
Structure prediction by ZEFSAII (Michael W. Deem and Ramdas Pophale) SiO2 
 PCOD8168505
Probable space group: P M A 2
;
_chemical_formula_sum "Si O2"
_cell_formula_units_Z 32
_cell_length_a 9.083494
_cell_length_b 14.624682
_cell_length_c 12.301223
_cell_angle_alpha 90.000000
_cell_angle_beta 90.000000
_cell_angle_gamma 90.000000
_cell_volume 1634.133965
_symmetry_space_group_name_H-M "P M A 2"
_symmetry_group_IT_number 28
_symmetry_cell_setting 'orthorhombic'
loop_
_space_group_symop_operation_xyz
x,y,z
-x,-y,z
1/2-x,y,z
1/2+x,-y,z
loop_
_atom_site_type_symbol
_atom_site_label
_atom_site_fract_x
_atom_site_fract_y
_atom_site_fract_z
Si Si1 0.584396 0.632851 0.394810
Si Si2 0.087000 0.162164 0.328791
Si Si3 0.925097 0.409809 0.613468
Si Si4 0.926392 0.099751 0.899445
Si Si5 0.076659 0.410629 0.153192
Si Si6 0.577574 0.220453 0.700007
Si Si7 0.920178 0.086275 0.515145
Si Si8 0.922623 0.788768 0.086268
O O1 0.750000 0.597325 0.420332
O O2 0.585349 0.741312 0.388634
O O3 0.474279 0.599743 0.488149
O O4 0.526520 0.595754 0.278940
O O5 0.250000 0.119205 0.338625
O O6 0.041721 0.169689 0.203859
O O7 0.972229 0.097795 0.390832
O O8 0.750000 0.417974 0.615813
O O9 0.980763 0.324653 0.688231
O O10 0.000000 0.500000 0.664449
O O11 0.750000 0.087919 0.898072
O O12 0.988126 0.162194 0.800012
O O13 0.000000 0.000000 0.893976
O O14 0.975438 0.153998 0.006173
O O15 0.250000 0.422673 0.146873
O O16 0.032114 0.318790 0.086950
O O17 0.000000 0.500000 0.100204
O O18 0.750000 0.222977 0.718294
O O19 0.536316 0.173634 0.586286
O O20 0.750000 0.065683 0.516970
O O21 0.000000 0.000000 0.569535
O O22 0.750000 0.799747 0.057432
#
# Coordination Sequence:
#
# PCOD8168505 Si02
#       8
#     4   4   4   4   4   4   4   4
#     4   9  17  31  51  79 113 152 192 230 273 325
#     4   9  18  34  55  80 115 152 186 229 279 333
#     4  11  21  35  54  81 115 152 190 231 277 331
#     4  11  23  42  66  88 109 142 189 241 293 345
#     4   9  18  32  52  80 117 155 191 232 277 330
#     4   9  21  40  59  81 114 147 184 236 285 332
#     4  11  21  35  55  82 113 148 185 227 283 343
#     4   9  20  39  59  83 116 150 189 238 285 333
#
# _framework density 19.582236000000002
#
# number of rings (size 3 to 8) (size 9 to 14) (size 15 to 20)
#    0.000    2.250    1.250    3.375    0.000    3.000 
#    0.000    7.500    0.000    3.000    0.000    0.000 
#    0.000    0.000    0.000    0.000    0.000    0.000 
#
# Total GULP energy -396650.460164 kJ/mol
# GULP energy per Si atom -12395.326880 kJ/mol
# Density = 1.953767 g / cm^3
# Si number density = 19.582236 Si / 1000 Ang^3
#
#
#
# Elastic Constant Matrix: (Units=GPa)
#
#
# Indices 1 2 3 4 5 6 
#
# 1 76.4878 57.9496 43.9709 0.0000 0.0000 0.0000
# 2 57.9496 153.4471 59.5909 0.0000 0.0000 0.0000
# 3 43.9709 59.5909 87.3017 0.0000 0.0000 0.0000
# 4 0.0000 0.0000 0.0000 35.6596 0.0000 0.0000
# 5 0.0000 0.0000 0.0000 0.0000 20.7225 0.0000
# 6 0.0000 0.0000 0.0000 0.0000 0.0000 36.2487
#
#
#
# Elastic Compliance Matrix: (Units=1/GPa)
#
#
# Indices 1 2 3 4 5 6 
#
# 1 0.021088 -0.005224 -0.007055 0.000000 0.000000 0.000000
# 2 -0.005224 0.010162 -0.004305 0.000000 0.000000 0.000000
# 3 -0.007055 -0.004305 0.017947 0.000000 0.000000 0.000000
# 4 0.000000 0.000000 0.000000 0.028043 0.000000 0.000000
# 5 0.000000 0.000000 0.000000 0.000000 0.048257 0.000000
# 6 0.000000 0.000000 0.000000 0.000000 0.000000 0.027587
#
#
# Mechanical properties :
#
#
# Convention : Reuss Voigt Hill
#
# Bulk Modulus (GPa) = 62.39368 71.13994 66.76681
# Shear Modulus (GPa) = 26.09684 28.90783 27.50233
#
# Velocity S-wave (km/s) = 3.65455 3.84634 3.75167
# Velocity P-wave (km/s) = 7.05260 7.49223 7.27573
#
# Compressibility (1/GPa) = 0.01602726
#
# Stress axis : x y z
#
# Youngs Moduli (GPa) = 47.42092 98.41000 55.72057
#
# Poissons Ratio (x) = 0.51408 0.39313
# Poissons Ratio (y) = 0.24772 0.23988
# Poissons Ratio (z) = 0.33458 0.42366
#
# Static dielectric constant tensor:
#      x y z
#    x 3.389730 0.000000 0.000000 
#    y 0.000000 3.809640 0.000000 
#    z 0.000000 0.000000 3.438640 
# 
# 
# High freq. dielectric constant tensor:
#      x y z
#    x 1.749670 0.000000 0.000000 
#    y 0.000000 1.778550 0.000000 
#    z 0.000000 0.000000 1.740890 
# 
# From -- ./inp_files/5006.got.cif
#   From: 2010.03.12/outbox.cif.g09.slc.cpg/sg28_3_cif.got.tgz:5006.got - 2010.04.14 03:39:34.
