data_PCOD8168065
_publ_section_title
;
Structure prediction by ZEFSAII (Michael W. Deem and Ramdas Pophale) SiO2 
 PCOD8168065
Probable space group: P M A 2
;
_chemical_formula_sum "Si O2"
_cell_formula_units_Z 16
_cell_length_a 10.002183
_cell_length_b 8.851485
_cell_length_c 10.237380
_cell_angle_alpha 90.000000
_cell_angle_beta 90.000000
_cell_angle_gamma 90.000000
_cell_volume 906.357970
_symmetry_space_group_name_H-M "P M A 2"
_symmetry_group_IT_number 28
_symmetry_cell_setting 'orthorhombic'
loop_
_space_group_symop_operation_xyz
x,y,z
-x,-y,z
1/2-x,y,z
1/2+x,-y,z
loop_
_atom_site_type_symbol
_atom_site_label
_atom_site_fract_x
_atom_site_fract_y
_atom_site_fract_z
Si Si1 0.596210 0.374136 0.822130
Si Si2 0.750000 0.547388 0.242920
Si Si3 0.250000 0.671133 0.461431
Si Si4 0.000000 0.500000 0.070589
Si Si5 0.984763 0.177288 0.600722
Si Si6 0.750000 0.660102 0.516749
O O1 0.500000 0.500000 0.754292
O O2 0.750000 0.423708 0.811932
O O3 0.571064 0.217574 0.745512
O O4 0.555632 0.364726 0.976362
O O5 0.750000 0.379615 0.309310
O O6 0.617504 0.569462 0.157713
O O7 0.750000 0.673397 0.357902
O O8 0.118620 0.768275 0.490267
O O9 0.250000 0.519500 0.553145
O O10 0.123900 0.258214 0.577458
O O11 0.000000 0.000000 0.590380
#
# Coordination Sequence:
#
# PCOD8168065 Si02
#       6
#     4   2   2   2   4   2
#     4  10  21  36  60  87 117 147 194 240 288 340
#     4  10  20  34  60  88 110 144 204 244 270 332
#     4  10  21  38  59  84 119 151 196 240 290 344
#     4  10  18  34  58  94 106 146 196 252 274 324
#     4  12  23  37  57  89 125 150 186 240 303 351
#     4  10  23  36  61  86 117 151 192 242 286 348
#
# _framework density 17.653068000000001
#
# number of rings (size 3 to 8) (size 9 to 14) (size 15 to 20)
#    1.500    0.000    2.500    4.500    1.750    0.000 
#    0.000    0.000    0.000    9.000    0.000    0.000 
#    0.000    0.000    0.000    0.000    0.000    0.000 
#
# Total GULP energy -198268.430538 kJ/mol
# GULP energy per Si atom -12391.776909 kJ/mol
# Density = 1.761289 g / cm^3
# Si number density = 17.653068 Si / 1000 Ang^3
#
#
#
# Elastic Constant Matrix: (Units=GPa)
#
#
# Indices 1 2 3 4 5 6 
#
# 1 160.9744 42.2475 36.8245 0.0000 0.0000 0.0000
# 2 42.2475 103.5696 18.6588 0.0000 0.0000 0.0000
# 3 36.8245 18.6588 93.2860 0.0000 0.0000 0.0000
# 4 0.0000 0.0000 0.0000 10.5059 0.0000 0.0000
# 5 0.0000 0.0000 0.0000 0.0000 44.5800 0.0000
# 6 0.0000 0.0000 0.0000 0.0000 0.0000 27.0921
#
#
#
# Elastic Compliance Matrix: (Units=1/GPa)
#
#
# Indices 1 2 3 4 5 6 
#
# 1 0.007449 -0.002603 -0.002420 0.000000 0.000000 0.000000
# 2 -0.002603 0.010926 -0.001158 0.000000 0.000000 0.000000
# 3 -0.002420 -0.001158 0.011907 0.000000 0.000000 0.000000
# 4 0.000000 0.000000 0.000000 0.095185 0.000000 0.000000
# 5 0.000000 0.000000 0.000000 0.000000 0.022432 0.000000
# 6 0.000000 0.000000 0.000000 0.000000 0.000000 0.036911
#
#
# Mechanical properties :
#
#
# Convention : Reuss Voigt Hill
#
# Bulk Modulus (GPa) = 55.80276 61.47684 58.63980
# Shear Modulus (GPa) = 24.61326 33.77554 29.19440
#
# Velocity S-wave (km/s) = 3.73805 4.37887 4.07109
# Velocity P-wave (km/s) = 7.09296 7.77603 7.44234
#
# Compressibility (1/GPa) = 0.01792026
#
# Stress axis : x y z
#
# Youngs Moduli (GPa) = 134.25064 91.52848 83.98731
#
# Poissons Ratio (x) = 0.23820 0.20324
# Poissons Ratio (y) = 0.34939 0.09725
# Poissons Ratio (z) = 0.32486 0.10599
#
# Static dielectric constant tensor:
#      x y z
#    x 3.368950 0.000000 0.000000 
#    y 0.000000 2.919100 0.000000 
#    z 0.000000 0.000000 3.289670 
# 
# 
# High freq. dielectric constant tensor:
#      x y z
#    x 1.710500 0.000000 0.000000 
#    y 0.000000 1.634050 0.000000 
#    z 0.000000 0.000000 1.683330 
# 
# From -- ./inp_files/4534.got.cif
#   From: 2010.03.12/outbox.cif.g09.slc.cpg/sg28_3_cif.got.tgz:4534.got - 2010.04.14 03:39:34.
