data_PCOD8168441
_publ_section_title
;
Structure prediction by ZEFSAII (Michael W. Deem and Ramdas Pophale) SiO2 
 PCOD8168441
Probable space group: P M A 2
;
_chemical_formula_sum "Si O2"
_cell_formula_units_Z 32
_cell_length_a 13.938276
_cell_length_b 16.044411
_cell_length_c 6.889211
_cell_angle_alpha 90.000000
_cell_angle_beta 90.000000
_cell_angle_gamma 90.000000
_cell_volume 1540.644099
_symmetry_space_group_name_H-M "P M A 2"
_symmetry_group_IT_number 28
_symmetry_cell_setting 'orthorhombic'
loop_
_space_group_symop_operation_xyz
x,y,z
-x,-y,z
1/2-x,y,z
1/2+x,-y,z
loop_
_atom_site_type_symbol
_atom_site_label
_atom_site_fract_x
_atom_site_fract_y
_atom_site_fract_z
Si Si1 0.009208 0.595724 0.842780
Si Si2 0.139071 0.330682 0.575968
Si Si3 0.506993 0.665184 0.245823
Si Si4 0.530431 0.836695 0.096310
Si Si5 0.643700 0.952679 0.815624
Si Si6 0.136989 0.706981 0.581674
Si Si7 0.861138 0.140276 0.854859
Si Si8 0.644713 0.853951 0.446317
O O1 0.099660 0.637121 0.732872
O O2 0.000000 0.500000 0.782905
O O3 0.910747 0.640653 0.775376
O O4 0.024273 0.601514 0.076535
O O5 0.250000 0.356156 0.580063
O O6 0.085739 0.375167 0.392079
O O7 0.120046 0.231913 0.557543
O O8 0.560257 0.740745 0.130982
O O9 0.416581 0.697679 0.374610
O O10 0.563340 0.882428 0.293137
O O11 0.580124 0.882755 0.917872
O O12 0.416832 0.833418 0.051340
O O13 0.750000 0.951512 0.909961
O O14 0.648898 0.930029 0.591859
O O15 0.602142 0.046266 0.814627
O O16 0.250000 0.693609 0.548978
O O17 0.115165 0.798572 0.673861
O O18 0.750000 0.144594 0.906445
O O19 0.750000 0.843897 0.345974
#
# Coordination Sequence:
#
# PCOD8168441 Si02
#       8
#     4   4   4   4   4   4   4   4
#     4  11  23  41  65  93 125 157 194 249 309 371
#     4   9  20  39  63  92 123 160 197 242 301 367
#     4  10  22  38  64  93 124 157 205 251 302 365
#     4  11  20  36  61  89 121 158 203 253 304 353
#     4  10  21  38  58  86 125 162 202 256 306 353
#     4  10  23  45  67  88 121 168 212 251 301 363
#     4  10  22  41  60  83 120 166 211 254 296 351
#     4   9  19  36  61  90 120 156 199 244 303 365
#
# _framework density 20.770533
#
# number of rings (size 3 to 8) (size 9 to 14) (size 15 to 20)
#    0.000    2.000    1.250    1.500    3.500    4.500 
#    4.500    0.000    0.000    0.000    0.000    0.000 
#    0.000    0.000    0.000    0.000    0.000    0.000 
#
# Total GULP energy -396542.737768 kJ/mol
# GULP energy per Si atom -12391.960555 kJ/mol
# Density = 2.072326 g / cm^3
# Si number density = 20.770533 Si / 1000 Ang^3
#
#
#
# Elastic Constant Matrix: (Units=GPa)
#
#
# Indices 1 2 3 4 5 6 
#
# 1 122.3637 29.8346 62.3207 0.0000 0.0000 0.0000
# 2 29.8346 73.2376 38.9801 0.0000 0.0000 0.0000
# 3 62.3207 38.9801 115.7715 0.0000 0.0000 0.0000
# 4 0.0000 0.0000 0.0000 19.1320 0.0000 0.0000
# 5 0.0000 0.0000 0.0000 0.0000 30.6663 0.0000
# 6 0.0000 0.0000 0.0000 0.0000 0.0000 15.5409
#
#
#
# Elastic Compliance Matrix: (Units=1/GPa)
#
#
# Indices 1 2 3 4 5 6 
#
# 1 0.011427 -0.001683 -0.005585 0.000000 0.000000 0.000000
# 2 -0.001683 0.016883 -0.004779 0.000000 0.000000 0.000000
# 3 -0.005585 -0.004779 0.013253 0.000000 0.000000 0.000000
# 4 0.000000 0.000000 0.000000 0.052269 0.000000 0.000000
# 5 0.000000 0.000000 0.000000 0.000000 0.032609 0.000000
# 6 0.000000 0.000000 0.000000 0.000000 0.000000 0.064346
#
#
# Mechanical properties :
#
#
# Convention : Reuss Voigt Hill
#
# Bulk Modulus (GPa) = 57.23785 63.73817 60.48801
# Shear Modulus (GPa) = 22.65494 25.08368 23.86931
#
# Velocity S-wave (km/s) = 3.30620 3.47891 3.39365
# Velocity P-wave (km/s) = 6.49551 6.84766 6.67391
#
# Compressibility (1/GPa) = 0.01747096
#
# Stress axis : x y z
#
# Youngs Moduli (GPa) = 87.51266 59.23101 75.45469
#
# Poissons Ratio (x) = 0.09966 0.42139
# Poissons Ratio (y) = 0.14724 0.36058
# Poissons Ratio (z) = 0.48873 0.28305
#
# Static dielectric constant tensor:
#      x y z
#    x 3.910700 0.000000 0.000000 
#    y 0.000000 3.625990 0.000000 
#    z 0.000000 0.000000 3.779680 
# 
# 
# High freq. dielectric constant tensor:
#      x y z
#    x 1.817050 0.000000 0.000000 
#    y 0.000000 1.796410 0.000000 
#    z 0.000000 0.000000 1.808490 
# 
# From -- ./inp_files/849.got.cif
#   From: 2010.03.12/outbox.cif.g09.slc.cpg/sg28_1_cif.got.tgz:849.got - 2010.04.14 03:39:34.
