data_PCOD8168940
_publ_section_title
;
Structure prediction by ZEFSAII (Michael W. Deem and Ramdas Pophale) SiO2 
 PCOD8168940
Probable space group: P C A 21
;
_chemical_formula_sum "Si O2"
_cell_formula_units_Z 28
_cell_length_a 5.537481
_cell_length_b 22.837339
_cell_length_c 9.102138
_cell_angle_alpha 90.000000
_cell_angle_beta 90.000000
_cell_angle_gamma 90.000000
_cell_volume 1151.068485
_symmetry_space_group_name_H-M "P C A 21"
_symmetry_group_IT_number 29
_symmetry_cell_setting 'orthorhombic'
loop_
_space_group_symop_operation_xyz
x,y,z
-x,-y,1/2+z
1/2-x,y,1/2+z
1/2+x,-y,z
loop_
_atom_site_type_symbol
_atom_site_label
_atom_site_fract_x
_atom_site_fract_y
_atom_site_fract_z
Si Si1 0.099196 0.308591 0.459380
Si Si2 0.162820 0.800686 0.833854
Si Si3 0.080266 0.464071 0.962117
Si Si4 0.779318 0.613625 0.204001
Si Si5 0.826567 0.888532 0.973554
Si Si6 0.906844 0.964332 0.246887
Si Si7 0.953835 0.783170 0.535756
O O1 0.031572 0.351922 0.595418
O O2 0.126226 0.343152 0.307445
O O3 0.354996 0.281924 0.513663
O O4 0.924944 0.253901 0.435297
O O5 0.032749 0.862639 0.865538
O O6 0.150806 0.783688 0.664385
O O7 0.440324 0.805274 0.879472
O O8 0.334239 0.499321 0.970353
O O9 0.067241 0.429955 0.806878
O O10 0.086466 0.420295 0.100972
O O11 0.609858 0.916689 0.877249
O O12 0.932882 0.935830 0.086172
O O13 0.741327 0.833254 0.072118
O O14 0.651286 0.998764 0.265108
#
# Coordination Sequence:
#
# PCOD8168940 Si02
#       7
#     4   4   4   4   4   4   4
#     4  10  22  46  60 102 142 172 236 282 362 416
#     4  11  25  42  70  99 140 184 233 292 348 446
#     4  11  24  47  70 102 138 187 246 291 350 416
#     4  10  22  43  68  96 140 183 228 304 350 418
#     4  11  26  45  70  98 140 187 234 287 362 424
#     4  12  28  47  72 104 142 183 238 300 352 420
#     4  11  25  42  70  99 140 184 233 292 348 446
#
# _framework density 24.325227000000002
#
# number of rings (size 3 to 8) (size 9 to 14) (size 15 to 20)
#    0.000    1.143    2.857    1.714    8.000    0.000 
#   15.429    0.000    0.000    0.000    0.000    0.000 
#    0.000    0.000    0.000    0.000    0.000    0.000 
#
# Total GULP energy -346961.612833 kJ/mol
# GULP energy per Si atom -12391.486173 kJ/mol
# Density = 2.426986 g / cm^3
# Si number density = 24.325227 Si / 1000 Ang^3
#
#
#
# Elastic Constant Matrix: (Units=GPa)
#
#
# Indices 1 2 3 4 5 6 
#
# 1 79.0069 33.2448 8.7762 0.0000 0.0000 0.0000
# 2 33.2448 123.3186 41.3720 0.0000 0.0000 0.0000
# 3 8.7762 41.3720 133.6790 0.0000 0.0000 0.0000
# 4 0.0000 0.0000 0.0000 48.4897 0.0000 0.0000
# 5 0.0000 0.0000 0.0000 0.0000 27.1455 0.0000
# 6 0.0000 0.0000 0.0000 0.0000 0.0000 16.6336
#
#
#
# Elastic Compliance Matrix: (Units=1/GPa)
#
#
# Indices 1 2 3 4 5 6 
#
# 1 0.014286 -0.003946 0.000283 0.000000 0.000000 0.000000
# 2 -0.003946 0.010139 -0.002879 0.000000 0.000000 0.000000
# 3 0.000283 -0.002879 0.008353 0.000000 0.000000 0.000000
# 4 0.000000 0.000000 0.000000 0.020623 0.000000 0.000000
# 5 0.000000 0.000000 0.000000 0.000000 0.036839 0.000000
# 6 0.000000 0.000000 0.000000 0.000000 0.000000 0.060119
#
#
# Mechanical properties :
#
#
# Convention : Reuss Voigt Hill
#
# Bulk Modulus (GPa) = 50.77559 55.86561 53.32060
# Shear Modulus (GPa) = 29.41056 35.29452 32.35254
#
# Velocity S-wave (km/s) = 3.48092 3.81326 3.65087
# Velocity P-wave (km/s) = 6.08890 6.51183 6.30391
#
# Compressibility (1/GPa) = 0.01969450
#
# Stress axis : x y z
#
# Youngs Moduli (GPa) = 69.99737 98.63136 119.71851
#
# Poissons Ratio (x) = 0.38924 -0.03394
# Poissons Ratio (y) = 0.27624 0.34464
# Poissons Ratio (z) = -0.01984 0.28393
#
# Static dielectric constant tensor:
#      x y z
#    x 3.957010 0.000000 0.000000 
#    y 0.000000 4.633040 0.000000 
#    z 0.000000 0.000000 4.470140 
# 
# 
# High freq. dielectric constant tensor:
#      x y z
#    x 1.933620 0.000000 0.000000 
#    y 0.000000 1.986600 0.000000 
#    z 0.000000 0.000000 1.985230 
# 
# From -- ./inp_files/998.got.cif
#   From: 2010.03.12/outbox.cif.g09.slc.cpg/sg29_1_cif.got.tgz:998.got - 2010.04.14 03:43:10.
