data_PCOD8168889
_publ_section_title
;
Structure prediction by ZEFSAII (Michael W. Deem and Ramdas Pophale) SiO2 
 PCOD8168889
Probable space group: P C A 21
;
_chemical_formula_sum "Si O2"
_cell_formula_units_Z 32
_cell_length_a 32.025682
_cell_length_b 5.359302
_cell_length_c 8.567725
_cell_angle_alpha 90.000000
_cell_angle_beta 90.000000
_cell_angle_gamma 90.000000
_cell_volume 1470.524064
_symmetry_space_group_name_H-M "P C A 21"
_symmetry_group_IT_number 29
_symmetry_cell_setting 'orthorhombic'
loop_
_space_group_symop_operation_xyz
x,y,z
-x,-y,1/2+z
1/2-x,y,1/2+z
1/2+x,-y,z
loop_
_atom_site_type_symbol
_atom_site_label
_atom_site_fract_x
_atom_site_fract_y
_atom_site_fract_z
Si Si1 0.851962 0.463753 0.599410
Si Si2 0.281834 0.028087 0.285402
Si Si3 0.694057 0.968179 0.143163
Si Si4 0.913685 0.572561 0.087250
Si Si5 0.064700 0.642747 0.256281
Si Si6 0.510966 0.328845 0.715165
Si Si7 0.827947 0.477143 0.242109
Si Si8 0.966977 0.962232 0.964580
O O1 0.829636 0.226010 0.677777
O O2 0.900680 0.412428 0.626325
O O3 0.845813 0.474414 0.415247
O O4 0.834957 0.724020 0.673426
O O5 0.288833 0.029133 0.468725
O O6 0.232464 0.028063 0.261734
O O7 0.304081 0.784302 0.207065
O O8 0.298076 0.286813 0.212008
O O9 0.940843 0.416041 0.211705
O O10 0.865510 0.528081 0.122627
O O11 0.922129 0.509826 0.908276
O O12 0.932281 0.853945 0.087360
O O13 0.020429 0.558193 0.184440
O O14 0.058640 0.925299 0.315990
O O15 0.500860 0.221271 0.886335
O O16 0.504859 0.149936 0.565218
#
# Coordination Sequence:
#
# PCOD8168889 Si02
#       8
#     4   4   4   4   4   4   4   4
#     4  10  23  40  63  92 126 162 206 256 311 373
#     4  10  22  41  63  92 123 160 203 253 313 377
#     4  10  22  41  63  92 123 160 203 253 313 377
#     4  10  23  39  59  90 123 161 213 254 311 372
#     4  10  23  39  59  90 123 161 213 254 311 372
#     4  10  22  40  60  90 122 164 212 260 312 376
#     4  10  23  40  63  92 126 162 206 256 311 373
#     4  10  22  40  62  86 126 160 218 260 318 376
#
# _framework density 21.760947999999999
#
# number of rings (size 3 to 8) (size 9 to 14) (size 15 to 20)
#    0.000    2.000    0.000    1.500    7.000    7.000 
#    2.250    0.000    0.000    0.000    0.000    0.000 
#    0.000    0.000    0.000    0.000    0.000    0.000 
#
# Total GULP energy -396553.552443 kJ/mol
# GULP energy per Si atom -12392.298514 kJ/mol
# Density = 2.171142 g / cm^3
# Si number density = 21.760948 Si / 1000 Ang^3
#
#
#
# Elastic Constant Matrix: (Units=GPa)
#
#
# Indices 1 2 3 4 5 6 
#
# 1 45.8961 5.4772 5.1427 0.0000 0.0000 0.0000
# 2 5.4772 127.5191 12.2775 0.0000 0.0000 0.0000
# 3 5.1427 12.2775 23.7326 0.0000 0.0000 0.0000
# 4 0.0000 0.0000 0.0000 21.9690 0.0000 0.0000
# 5 0.0000 0.0000 0.0000 0.0000 36.7116 0.0000
# 6 0.0000 0.0000 0.0000 0.0000 0.0000 26.4160
#
#
#
# Elastic Compliance Matrix: (Units=1/GPa)
#
#
# Indices 1 2 3 4 5 6 
#
# 1 0.022363 -0.000520 -0.004577 0.000000 0.000000 0.000000
# 2 -0.000520 0.008265 -0.004163 0.000000 0.000000 0.000000
# 3 -0.004577 -0.004163 0.045282 0.000000 0.000000 0.000000
# 4 0.000000 0.000000 0.000000 0.045519 0.000000 0.000000
# 5 0.000000 0.000000 0.000000 0.000000 0.027239 0.000000
# 6 0.000000 0.000000 0.000000 0.000000 0.000000 0.037856
#
#
# Mechanical properties :
#
#
# Convention : Reuss Voigt Hill
#
# Bulk Modulus (GPa) = 17.42464 26.99362 22.20913
# Shear Modulus (GPa) = 22.30413 28.63602 25.47008
#
# Velocity S-wave (km/s) = 3.20497 3.63152 3.42489
# Velocity P-wave (km/s) = 4.66053 5.47864 5.08606
#
# Compressibility (1/GPa) = 0.05739000
#
# Stress axis : x y z
#
# Youngs Moduli (GPa) = 44.71620 120.99045 22.08403
#
# Poissons Ratio (x) = 0.06290 0.10108
# Poissons Ratio (y) = 0.02325 0.09194
# Poissons Ratio (z) = 0.20467 0.50370
#
# Static dielectric constant tensor:
#      x y z
#    x 3.889740 0.000000 0.000000 
#    y 0.000000 4.483860 0.000000 
#    z 0.000000 0.000000 3.629000 
# 
# 
# High freq. dielectric constant tensor:
#      x y z
#    x 1.849330 0.000000 0.000000 
#    y 0.000000 1.871560 0.000000 
#    z 0.000000 0.000000 1.841860 
# 
# From -- ./inp_files/2593.got.cif
#   From: 2010.03.12/outbox.cif.g09.slc.cpg/sg29_2_cif.got.tgz:2593.got - 2010.04.14 03:43:10.
