data_PCOD8168468
_publ_section_title
;
Structure prediction by ZEFSAII (Michael W. Deem and Ramdas Pophale) SiO2 
 PCOD8168468
Probable space group: P M A 2
;
_chemical_formula_sum "Si O2"
_cell_formula_units_Z 16
_cell_length_a 20.876034
_cell_length_b 5.215850
_cell_length_c 7.808364
_cell_angle_alpha 90.000000
_cell_angle_beta 90.000000
_cell_angle_gamma 90.000000
_cell_volume 850.223568
_symmetry_space_group_name_H-M "P M A 2"
_symmetry_group_IT_number 28
_symmetry_cell_setting 'orthorhombic'
loop_
_space_group_symop_operation_xyz
x,y,z
-x,-y,z
1/2-x,y,z
1/2+x,-y,z
loop_
_atom_site_type_symbol
_atom_site_label
_atom_site_fract_x
_atom_site_fract_y
_atom_site_fract_z
Si Si1 0.178658 0.841709 0.556840
Si Si2 0.072149 0.096449 0.370487
Si Si3 0.458299 0.251810 0.011390
Si Si4 0.626743 0.668063 0.683329
O O1 0.250000 0.821922 0.476895
O O2 0.165531 0.595450 0.674456
O O3 0.125150 0.872365 0.406502
O O4 0.175181 0.090122 0.681442
O O5 0.080648 0.315832 0.515230
O O6 0.084879 0.200466 0.179510
O O7 0.000000 0.000000 0.383627
O O8 0.500000 0.500000 0.055033
O O9 0.413937 0.325591 0.854443
O O10 0.500000 0.000000 0.964547
#
# Coordination Sequence:
#
# PCOD8168468 Si02
#       4
#     4   4   4   4
#     4  10  22  40  62  84 122 165 205 245 304 366
#     4   9  23  37  64  90 122 154 201 250 308 360
#     4  11  23  36  61  95 127 152 203 257 312 366
#     4  10  22  37  63  81 125 155 203 244 310 348
#
# _framework density 18.818580000000001
#
# number of rings (size 3 to 8) (size 9 to 14) (size 15 to 20)
#    1.500    0.500    0.000    3.000   10.500    0.000 
#    0.000    2.500    0.000    0.000    0.000    0.000 
#    0.000    0.000    0.000    0.000    0.000    0.000 
#
# Total GULP energy -198236.159841 kJ/mol
# GULP energy per Si atom -12389.759990 kJ/mol
# Density = 1.877575 g / cm^3
# Si number density = 18.818580 Si / 1000 Ang^3
#
#
#
# Elastic Constant Matrix: (Units=GPa)
#
#
# Indices 1 2 3 4 5 6 
#
# 1 127.0251 45.4678 57.5843 0.0000 0.0000 0.0000
# 2 45.4678 147.5732 36.0497 0.0000 0.0000 0.0000
# 3 57.5843 36.0497 128.7861 0.0000 0.0000 0.0000
# 4 0.0000 0.0000 0.0000 9.6539 0.0000 0.0000
# 5 0.0000 0.0000 0.0000 0.0000 2.9233 0.0000
# 6 0.0000 0.0000 0.0000 0.0000 0.0000 12.8145
#
#
#
# Elastic Compliance Matrix: (Units=1/GPa)
#
#
# Indices 1 2 3 4 5 6 
#
# 1 0.010525 -0.002247 -0.004077 0.000000 0.000000 0.000000
# 2 -0.002247 0.007753 -0.001166 0.000000 0.000000 0.000000
# 3 -0.004077 -0.001166 0.009914 0.000000 0.000000 0.000000
# 4 0.000000 0.000000 0.000000 0.103585 0.000000 0.000000
# 5 0.000000 0.000000 0.000000 0.000000 0.342079 0.000000
# 6 0.000000 0.000000 0.000000 0.000000 0.000000 0.078036
#
#
# Mechanical properties :
#
#
# Convention : Reuss Voigt Hill
#
# Bulk Modulus (GPa) = 75.68204 75.73202 75.70703
# Shear Modulus (GPa) = 8.75234 22.69719 15.72476
#
# Velocity S-wave (km/s) = 2.15893 3.47667 2.89381
# Velocity P-wave (km/s) = 6.82046 7.51312 7.17515
#
# Compressibility (1/GPa) = 0.01321318
#
# Stress axis : x y z
#
# Youngs Moduli (GPa) = 95.01215 128.97725 100.86625
#
# Poissons Ratio (x) = 0.28979 0.41124
# Poissons Ratio (y) = 0.21347 0.11758
# Poissons Ratio (z) = 0.38738 0.15035
#
# Static dielectric constant tensor:
#      x y z
#    x 3.444480 0.000000 0.000000 
#    y 0.000000 3.577640 0.000000 
#    z 0.000000 0.000000 3.406620 
# 
# 
# High freq. dielectric constant tensor:
#      x y z
#    x 1.714850 0.000000 0.000000 
#    y 0.000000 1.743770 0.000000 
#    z 0.000000 0.000000 1.716410 
# 
# From -- ./inp_files/3611.got.cif
#   From: 2010.03.12/outbox.cif.g09.slc.cpg/sg28_2_cif.got.tgz:3611.got - 2010.04.14 03:39:34.
