data_PCOD8168551
_publ_section_title
;
Structure prediction by ZEFSAII (Michael W. Deem and Ramdas Pophale) SiO2 
 PCOD8168551
Probable space group: P C A 21
;
_chemical_formula_sum "Si O2"
_cell_formula_units_Z 28
_cell_length_a 21.519126
_cell_length_b 15.127025
_cell_length_c 4.939458
_cell_angle_alpha 90.000000
_cell_angle_beta 90.000000
_cell_angle_gamma 90.000000
_cell_volume 1607.894131
_symmetry_space_group_name_H-M "P C A 21"
_symmetry_group_IT_number 29
_symmetry_cell_setting 'orthorhombic'
loop_
_space_group_symop_operation_xyz
x,y,z
-x,-y,1/2+z
1/2-x,y,1/2+z
1/2+x,-y,z
loop_
_atom_site_type_symbol
_atom_site_label
_atom_site_fract_x
_atom_site_fract_y
_atom_site_fract_z
Si Si1 0.211066 0.758264 0.574820
Si Si2 0.211468 0.551775 0.611851
Si Si3 0.972668 0.608908 0.725342
Si Si4 0.919083 0.520600 0.217746
Si Si5 0.962942 0.979726 0.961142
Si Si6 0.007772 0.802177 0.849099
Si Si7 0.087783 0.846474 0.351701
O O1 0.268613 0.784651 0.377702
O O2 0.195365 0.655146 0.591226
O O3 0.151944 0.808667 0.458789
O O4 0.231109 0.526248 0.308123
O O5 0.153393 0.500434 0.739305
O O6 0.943396 0.595729 0.426698
O O7 0.042192 0.569971 0.752737
O O8 0.974371 0.708200 0.835195
O O9 0.926866 0.554913 0.915612
O O10 0.953457 0.874012 0.922151
O O11 0.907925 0.045090 0.855280
O O12 0.023888 0.002075 0.777027
O O13 0.032497 0.818938 0.549607
O O14 0.066250 0.808384 0.059638
#
# Coordination Sequence:
#
# PCOD8168551 Si02
#       7
#     4   4   4   4   4   4   4
#     4  10  20  31  45  69  94 122 161 192 226 280
#     4  10  20  33  49  67  91 124 160 197 231 274
#     4  10  20  31  48  70  98 126 151 194 240 288
#     4  10  20  33  46  69  96 123 159 192 238 286
#     4   8  16  28  44  68  93 117 149 180 218 276
#     4  10  18  30  48  71  95 123 155 186 235 287
#     4  10  18  30  48  68  97 127 149 189 234 275
#
# _framework density 17.414082000000001
#
# number of rings (size 3 to 8) (size 9 to 14) (size 15 to 20)
#    0.000    2.286    0.000    3.429    0.000    4.571 
#    0.000    0.000    0.000    0.000    0.000    6.000 
#    0.000    0.000    0.000    0.000    0.000    0.000 
#
# Total GULP energy -346888.692163 kJ/mol
# GULP energy per Si atom -12388.881863 kJ/mol
# Density = 1.737445 g / cm^3
# Si number density = 17.414082 Si / 1000 Ang^3
#
#
#
# Elastic Constant Matrix: (Units=GPa)
#
#
# Indices 1 2 3 4 5 6 
#
# 1 72.8858 36.0938 12.3359 0.0000 0.0000 0.0000
# 2 36.0938 97.2951 15.4237 0.0000 0.0000 0.0000
# 3 12.3359 15.4237 72.3280 0.0000 0.0000 0.0000
# 4 0.0000 0.0000 0.0000 17.2127 0.0000 0.0000
# 5 0.0000 0.0000 0.0000 0.0000 14.0824 0.0000
# 6 0.0000 0.0000 0.0000 0.0000 0.0000 14.2615
#
#
#
# Elastic Compliance Matrix: (Units=1/GPa)
#
#
# Indices 1 2 3 4 5 6 
#
# 1 0.016987 -0.006047 -0.001608 0.000000 0.000000 0.000000
# 2 -0.006047 0.012790 -0.001696 0.000000 0.000000 0.000000
# 3 -0.001608 -0.001696 0.014462 0.000000 0.000000 0.000000
# 4 0.000000 0.000000 0.000000 0.058097 0.000000 0.000000
# 5 0.000000 0.000000 0.000000 0.000000 0.071010 0.000000
# 6 0.000000 0.000000 0.000000 0.000000 0.000000 0.070119
#
#
# Mechanical properties :
#
#
# Convention : Reuss Voigt Hill
#
# Bulk Modulus (GPa) = 39.15835 41.13509 40.14672
# Shear Modulus (GPa) = 18.47216 21.02170 19.74693
#
# Velocity S-wave (km/s) = 3.26046 3.47820 3.37109
# Velocity P-wave (km/s) = 6.05884 6.30900 6.18519
#
# Compressibility (1/GPa) = 0.02553734
#
# Stress axis : x y z
#
# Youngs Moduli (GPa) = 58.86998 78.18572 69.14765
#
# Poissons Ratio (x) = 0.47277 0.11117
# Poissons Ratio (y) = 0.35597 0.11728
# Poissons Ratio (z) = 0.09465 0.13261
#
# Static dielectric constant tensor:
#      x y z
#    x 2.864490 0.000000 0.000000 
#    y 0.000000 3.335760 0.000000 
#    z 0.000000 0.000000 3.525760 
# 
# 
# High freq. dielectric constant tensor:
#      x y z
#    x 1.627700 0.000000 0.000000 
#    y 0.000000 1.659690 0.000000 
#    z 0.000000 0.000000 1.701920 
# 
# From -- ./inp_files/522.got.cif
#   From: 2010.03.12/outbox.cif.g09.slc.cpg/sg29_1_cif.got.tgz:522.got - 2010.04.14 03:43:10.
