data_PCOD8168140
_publ_section_title
;
Structure prediction by ZEFSAII (Michael W. Deem and Ramdas Pophale) SiO2 
 PCOD8168140
Probable space group: P M A 2
;
_chemical_formula_sum "Si O2"
_cell_formula_units_Z 28
_cell_length_a 8.913114
_cell_length_b 9.385236
_cell_length_c 17.982734
_cell_angle_alpha 90.000000
_cell_angle_beta 90.000000
_cell_angle_gamma 90.000000
_cell_volume 1504.285881
_symmetry_space_group_name_H-M "P M A 2"
_symmetry_group_IT_number 28
_symmetry_cell_setting 'orthorhombic'
loop_
_space_group_symop_operation_xyz
x,y,z
-x,-y,z
1/2-x,y,z
1/2+x,-y,z
loop_
_atom_site_type_symbol
_atom_site_label
_atom_site_fract_x
_atom_site_fract_y
_atom_site_fract_z
Si Si1 0.574437 0.147068 0.865380
Si Si2 0.426968 0.653225 0.734556
Si Si3 0.573327 0.154114 0.597709
Si Si4 0.575527 0.651943 0.151501
Si Si5 0.072234 0.655513 0.458692
Si Si6 0.426533 0.852633 0.034095
Si Si7 0.424282 0.347708 0.314184
O O1 0.750000 0.121965 0.857750
O O2 0.521231 0.275299 0.812249
O O3 0.500000 0.000000 0.839617
O O4 0.528825 0.187424 0.949578
O O5 0.500000 0.500000 0.726144
O O6 0.250000 0.631849 0.731147
O O7 0.482762 0.755824 0.668578
O O8 0.750000 0.132136 0.600313
O O9 0.522960 0.240838 0.524942
O O10 0.500000 0.000000 0.598005
O O11 0.500000 0.500000 0.154379
O O12 0.750000 0.637436 0.130977
O O13 0.490964 0.735177 0.087905
O O14 0.556398 0.727281 0.233139
O O15 0.250000 0.638416 0.454142
O O16 0.000000 0.500000 0.471241
O O17 0.008879 0.730100 0.382714
O O18 0.250000 0.864794 0.044380
O O19 0.500000 0.000000 0.057970
O O20 0.500000 0.500000 0.308089
O O21 0.250000 0.364283 0.334421
#
# Coordination Sequence:
#
# PCOD8168140 Si02
#       7
#     4   4   4   4   4   4   4
#     4   9  19  35  55  78 104 136 174 213 256 308
#     4  10  21  37  55  79 108 136 171 212 254 302
#     4  10  22  37  54  77 105 137 173 211 253 304
#     4  10  20  34  53  78 106 138 177 219 264 313
#     4  10  19  32  52  78 104 133 171 213 257 305
#     4  10  20  35  54  77 106 140 177 217 262 313
#     4   9  17  30  50  75 102 134 171 211 258 309
#
# _framework density 18.613484
#
# number of rings (size 3 to 8) (size 9 to 14) (size 15 to 20)
#    0.000    2.286    0.000    3.429    0.000    5.143 
#    0.000    2.143    0.000    1.714    0.000    0.000 
#    0.000    0.000    0.000    0.000    0.000    0.000 
#
# Total GULP energy -347099.151727 kJ/mol
# GULP energy per Si atom -12396.398276 kJ/mol
# Density = 1.857112 g / cm^3
# Si number density = 18.613484 Si / 1000 Ang^3
#
#
#
# Elastic Constant Matrix: (Units=GPa)
#
#
# Indices 1 2 3 4 5 6 
#
# 1 73.5708 42.0067 47.2835 0.0000 0.0000 0.0000
# 2 42.0067 113.5665 75.8433 0.0000 0.0000 0.0000
# 3 47.2835 75.8433 140.7898 0.0000 0.0000 0.0000
# 4 0.0000 0.0000 0.0000 11.3359 0.0000 0.0000
# 5 0.0000 0.0000 0.0000 0.0000 31.4281 0.0000
# 6 0.0000 0.0000 0.0000 0.0000 0.0000 33.6425
#
#
#
# Elastic Compliance Matrix: (Units=1/GPa)
#
#
# Indices 1 2 3 4 5 6 
#
# 1 0.018542 -0.004217 -0.003956 0.000000 0.000000 0.000000
# 2 -0.004217 0.014712 -0.006509 0.000000 0.000000 0.000000
# 3 -0.003956 -0.006509 0.011938 0.000000 0.000000 0.000000
# 4 0.000000 0.000000 0.000000 0.088215 0.000000 0.000000
# 5 0.000000 0.000000 0.000000 0.000000 0.031819 0.000000
# 6 0.000000 0.000000 0.000000 0.000000 0.000000 0.029724
#
#
# Mechanical properties :
#
#
# Convention : Reuss Voigt Hill
#
# Bulk Modulus (GPa) = 63.17608 73.13268 68.15438
# Shear Modulus (GPa) = 21.77788 26.13420 23.95604
#
# Velocity S-wave (km/s) = 3.42425 3.75113 3.59141
# Velocity P-wave (km/s) = 7.04618 7.62474 7.34116
#
# Compressibility (1/GPa) = 0.01582878
#
# Stress axis : x y z
#
# Youngs Moduli (GPa) = 53.93058 67.97056 83.76708
#
# Poissons Ratio (x) = 0.28662 0.33136
# Poissons Ratio (y) = 0.22741 0.54526
# Poissons Ratio (z) = 0.21334 0.44244
#
# Static dielectric constant tensor:
#      x y z
#    x 3.359770 0.000000 0.000000 
#    y 0.000000 3.212670 0.000000 
#    z 0.000000 0.000000 4.080280 
# 
# 
# High freq. dielectric constant tensor:
#      x y z
#    x 1.728950 0.000000 0.000000 
#    y 0.000000 1.696940 0.000000 
#    z 0.000000 0.000000 1.745400 
# 
# From -- ./inp_files/6779.got.cif
#   From: 2010.03.12/outbox.cif.g09.slc.cpg/sg28_4_cif.got.tgz:6779.got - 2010.04.14 03:39:34.
