data_PCOD8168250
_publ_section_title
;
Structure prediction by ZEFSAII (Michael W. Deem and Ramdas Pophale) SiO2 
 PCOD8168250
Probable space group: P M A 2
;
_chemical_formula_sum "Si O2"
_cell_formula_units_Z 32
_cell_length_a 8.757217
_cell_length_b 14.302616
_cell_length_c 15.407339
_cell_angle_alpha 90.000000
_cell_angle_beta 90.000000
_cell_angle_gamma 90.000000
_cell_volume 1929.786342
_symmetry_space_group_name_H-M "P M A 2"
_symmetry_group_IT_number 28
_symmetry_cell_setting 'orthorhombic'
loop_
_space_group_symop_operation_xyz
x,y,z
-x,-y,z
1/2-x,y,z
1/2+x,-y,z
loop_
_atom_site_type_symbol
_atom_site_label
_atom_site_fract_x
_atom_site_fract_y
_atom_site_fract_z
Si Si1 0.070941 0.594473 0.336760
Si Si2 0.930833 0.783652 0.596065
Si Si3 0.426352 0.899495 0.940553
Si Si4 0.571472 0.102608 0.748242
Si Si5 0.428853 0.102271 0.110372
Si Si6 0.931364 0.403148 0.534425
Si Si7 0.926454 0.210678 0.264307
Si Si8 0.571952 0.100543 0.440634
O O1 0.250000 0.582101 0.338270
O O2 0.013599 0.611361 0.435096
O O3 0.023209 0.681683 0.277058
O O4 0.000000 0.500000 0.297083
O O5 0.750000 0.777707 0.592299
O O6 0.983532 0.826505 0.686829
O O7 0.001015 0.680509 0.591075
O O8 0.989560 0.848555 0.519117
O O9 0.250000 0.908318 0.964581
O O10 0.449583 0.854110 0.845526
O O11 0.500000 0.000000 0.934916
O O12 0.509395 0.848122 0.021495
O O13 0.750000 0.095826 0.723847
O O14 0.500000 0.000000 0.738959
O O15 0.250000 0.090192 0.104326
O O16 0.468419 0.168605 0.190210
O O17 0.500000 0.000000 0.124985
O O18 0.750000 0.403471 0.543168
O O19 0.000000 0.500000 0.570732
O O20 0.750000 0.202217 0.236791
O O21 0.956523 0.158009 0.353788
O O22 0.750000 0.092109 0.463057
O O23 0.500000 0.000000 0.426612
#
# Coordination Sequence:
#
# PCOD8168250 Si02
#       8
#     4   4   4   4   4   4   4   4
#     4   9  18  33  52  73  96 126 161 206 252 292
#     4  12  23  34  50  73 100 135 171 206 249 298
#     4   9  17  31  51  72  96 128 164 205 251 294
#     4  10  20  34  52  74 101 133 169 209 250 298
#     4  11  21  32  49  73 101 133 167 206 248 295
#     4  10  19  35  54  75  99 128 166 210 256 297
#     4  10  20  35  51  70  98 132 168 205 247 293
#     4  11  22  36  49  66  97 135 173 209 245 291
#
# _framework density 16.582146999999999
#
# number of rings (size 3 to 8) (size 9 to 14) (size 15 to 20)
#    0.000    1.750    1.250    5.250    0.000    4.500 
#    0.000    0.000    0.000    0.000    0.000    0.875 
#    0.000    4.000    0.000    0.000    0.000    0.000 
#
# Total GULP energy -396767.872456 kJ/mol
# GULP energy per Si atom -12398.996014 kJ/mol
# Density = 1.654441 g / cm^3
# Si number density = 16.582147 Si / 1000 Ang^3
#
#
#
# Elastic Constant Matrix: (Units=GPa)
#
#
# Indices 1 2 3 4 5 6 
#
# 1 112.2346 40.9301 44.6190 0.0000 0.0000 0.0000
# 2 40.9301 94.3087 32.3043 0.0000 0.0000 0.0000
# 3 44.6190 32.3043 82.9054 0.0000 0.0000 0.0000
# 4 0.0000 0.0000 0.0000 -7.3584 0.0000 0.0000
# 5 0.0000 0.0000 0.0000 0.0000 4.2703 0.0000
# 6 0.0000 0.0000 0.0000 0.0000 0.0000 28.4340
#
#
#
# Elastic Compliance Matrix: (Units=1/GPa)
#
#
# Indices 1 2 3 4 5 6 
#
# 1 0.012279 -0.003538 -0.005230 0.000000 0.000000 0.000000
# 2 -0.003538 0.013256 -0.003261 0.000000 0.000000 0.000000
# 3 -0.005230 -0.003261 0.016148 0.000000 0.000000 0.000000
# 4 0.000000 0.000000 0.000000 -0.135899 0.000000 0.000000
# 5 0.000000 0.000000 0.000000 0.000000 0.234178 0.000000
# 6 0.000000 0.000000 0.000000 0.000000 0.000000 0.035169
#
#
# Mechanical properties :
#
#
# Convention : Reuss Voigt Hill
#
# Bulk Modulus (GPa) = 56.73898 58.35059 57.54479
# Shear Modulus (GPa) = 24.38269 16.50886 20.44578
#
# Velocity S-wave (km/s) = 3.83876 3.15871 3.51522
# Velocity P-wave (km/s) = 7.34434 6.96910 7.15918
#
# Compressibility (1/GPa) = 0.01762457
#
# Stress axis : x y z
#
# Youngs Moduli (GPa) = 81.43793 75.43780 61.92907
#
# Poissons Ratio (x) = 0.26688 0.32390
# Poissons Ratio (y) = 0.28810 0.20197
# Poissons Ratio (z) = 0.42593 0.24602
#
# Static dielectric constant tensor:
#      x y z
#    x 3.475030 0.000000 0.000000 
#    y 0.000000 3.062980 0.000000 
#    z 0.000000 0.000000 3.526860 
# 
# 
# High freq. dielectric constant tensor:
#      x y z
#    x 1.655310 0.000000 0.000000 
#    y 0.000000 1.618610 0.000000 
#    z 0.000000 0.000000 1.631340 
# 
# From -- ./inp_files/6411.got.cif
#   From: 2010.03.12/outbox.cif.g09.slc.cpg/sg28_4_cif.got.tgz:6411.got - 2010.04.14 03:39:34.
