data_PCOD8168887
_publ_section_title
;
Structure prediction by ZEFSAII (Michael W. Deem and Ramdas Pophale) SiO2 
 PCOD8168887
Probable space group: P C A 21
;
_chemical_formula_sum "Si O2"
_cell_formula_units_Z 28
_cell_length_a 18.265857
_cell_length_b 8.432955
_cell_length_c 8.765252
_cell_angle_alpha 90.000000
_cell_angle_beta 90.000000
_cell_angle_gamma 90.000000
_cell_volume 1350.156908
_symmetry_space_group_name_H-M "P C A 21"
_symmetry_group_IT_number 29
_symmetry_cell_setting 'orthorhombic'
loop_
_space_group_symop_operation_xyz
x,y,z
-x,-y,1/2+z
1/2-x,y,1/2+z
1/2+x,-y,z
loop_
_atom_site_type_symbol
_atom_site_label
_atom_site_fract_x
_atom_site_fract_y
_atom_site_fract_z
Si Si1 0.870371 0.761598 0.130430
Si Si2 0.606304 0.826372 0.298873
Si Si3 0.590135 0.462585 0.811581
Si Si4 0.019994 0.333603 0.062277
Si Si5 0.973547 0.950131 0.349889
Si Si6 0.158947 0.845002 0.915223
Si Si7 0.244466 0.008280 0.178293
O O1 0.863292 0.601815 0.230761
O O2 0.931760 0.871616 0.207405
O O3 0.790696 0.842420 0.115855
O O4 0.896553 0.729115 0.957506
O O5 0.594284 0.704265 0.158540
O O6 0.540897 0.952124 0.285577
O O7 0.681988 0.920417 0.286241
O O8 0.544088 0.375219 0.680190
O O9 0.645192 0.342704 0.896934
O O10 0.536308 0.525864 0.943844
O O11 0.995112 0.180491 0.966273
O O12 0.917650 0.064551 0.439390
O O13 0.198998 0.897367 0.763262
O O14 0.210986 0.890650 0.054023
#
# Coordination Sequence:
#
# PCOD8168887 Si02
#       7
#     4   4   4   4   4   4   4
#     4  10  24  43  63  96 139 176 219 277 347 409
#     4  12  21  40  73  96 125 178 235 272 336 399
#     4  11  25  43  67 100 147 171 221 286 352 408
#     4  11  23  41  67 103 135 173 217 283 348 399
#     4  10  22  39  71  96 129 171 228 285 319 396
#     4  11  23  45  65  98 134 172 233 282 332 404
#     4  11  24  43  68  95 129 183 233 279 332 409
#
# _framework density 20.738332
#
# number of rings (size 3 to 8) (size 9 to 14) (size 15 to 20)
#    0.000    1.143    4.286    1.714    2.000    1.143 
#    5.143    0.000    0.000    0.000    0.000    0.000 
#    0.000    0.000    0.000    0.000    0.000    0.000 
#
# Total GULP energy -347191.802531 kJ/mol
# GULP energy per Si atom -12399.707233 kJ/mol
# Density = 2.069113 g / cm^3
# Si number density = 20.738332 Si / 1000 Ang^3
#
#
#
# Elastic Constant Matrix: (Units=GPa)
#
#
# Indices 1 2 3 4 5 6 
#
# 1 99.8809 42.9631 29.3824 0.0000 0.0000 0.0000
# 2 42.9631 106.0454 42.9712 0.0000 0.0000 0.0000
# 3 29.3824 42.9712 113.8008 0.0000 0.0000 0.0000
# 4 0.0000 0.0000 0.0000 28.2880 0.0000 0.0000
# 5 0.0000 0.0000 0.0000 0.0000 29.6903 0.0000
# 6 0.0000 0.0000 0.0000 0.0000 0.0000 31.7757
#
#
#
# Elastic Compliance Matrix: (Units=1/GPa)
#
#
# Indices 1 2 3 4 5 6 
#
# 1 0.012348 -0.004381 -0.001534 0.000000 0.000000 0.000000
# 2 -0.004381 0.012688 -0.003660 0.000000 0.000000 0.000000
# 3 -0.001534 -0.003660 0.010565 0.000000 0.000000 0.000000
# 4 0.000000 0.000000 0.000000 0.035351 0.000000 0.000000
# 5 0.000000 0.000000 0.000000 0.000000 0.033681 0.000000
# 6 0.000000 0.000000 0.000000 0.000000 0.000000 0.031471
#
#
# Mechanical properties :
#
#
# Convention : Reuss Voigt Hill
#
# Bulk Modulus (GPa) = 60.78461 61.15117 60.96789
# Shear Modulus (GPa) = 31.10694 31.57816 31.34255
#
# Velocity S-wave (km/s) = 3.87715 3.90641 3.89181
# Velocity P-wave (km/s) = 7.02972 7.06383 7.04680
#
# Compressibility (1/GPa) = 0.01645153
#
# Stress axis : x y z
#
# Youngs Moduli (GPa) = 80.98765 78.81570 94.65005
#
# Poissons Ratio (x) = 0.34529 0.14517
# Poissons Ratio (y) = 0.35480 0.34640
# Poissons Ratio (z) = 0.12422 0.28845
#
# Static dielectric constant tensor:
#      x y z
#    x 3.691770 0.000000 0.000000 
#    y 0.000000 3.794740 0.000000 
#    z 0.000000 0.000000 3.862660 
# 
# 
# High freq. dielectric constant tensor:
#      x y z
#    x 1.802880 0.000000 0.000000 
#    y 0.000000 1.804660 0.000000 
#    z 0.000000 0.000000 1.829850 
# 
# From -- ./inp_files/2053.got.cif
#   From: 2010.03.12/outbox.cif.g09.slc.cpg/sg29_2_cif.got.tgz:2053.got - 2010.04.14 03:43:10.
