data_PCOD8168304
_publ_section_title
;
Structure prediction by ZEFSAII (Michael W. Deem and Ramdas Pophale) SiO2 
 PCOD8168304
Probable space group: P M A 2
;
_chemical_formula_sum "Si O2"
_cell_formula_units_Z 32
_cell_length_a 8.922407
_cell_length_b 14.104138
_cell_length_c 12.911847
_cell_angle_alpha 90.000000
_cell_angle_beta 90.000000
_cell_angle_gamma 90.000000
_cell_volume 1624.863749
_symmetry_space_group_name_H-M "P M A 2"
_symmetry_group_IT_number 28
_symmetry_cell_setting 'orthorhombic'
loop_
_space_group_symop_operation_xyz
x,y,z
-x,-y,z
1/2-x,y,z
1/2+x,-y,z
loop_
_atom_site_type_symbol
_atom_site_label
_atom_site_fract_x
_atom_site_fract_y
_atom_site_fract_z
Si Si1 0.076706 0.098101 0.317980
Si Si2 0.072326 0.602143 0.412528
Si Si3 0.072559 0.102122 0.544091
Si Si4 0.575644 0.710661 0.997424
Si Si5 0.573571 0.397928 0.813891
Si Si6 0.925681 0.281601 0.614740
Si Si7 0.073372 0.398442 0.205919
Si Si8 0.923601 0.899977 0.094902
O O1 0.250000 0.078928 0.333421
O O2 0.021618 0.139881 0.428417
O O3 0.042156 0.150485 0.208440
O O4 0.000000 0.000000 0.297031
O O5 0.250000 0.591777 0.399967
O O6 0.027973 0.666876 0.509099
O O7 0.000000 0.500000 0.431507
O O8 0.000856 0.648694 0.308696
O O9 0.250000 0.093550 0.558251
O O10 0.009219 0.180458 0.623059
O O11 0.000000 0.000000 0.567577
O O12 0.750000 0.695687 0.969480
O O13 0.472692 0.667365 0.909425
O O14 0.535961 0.662803 0.106102
O O15 0.534284 0.822204 0.008208
O O16 0.500000 0.500000 0.823636
O O17 0.750000 0.412537 0.815244
O O18 0.519249 0.347271 0.708964
O O19 0.750000 0.262239 0.621619
O O20 0.250000 0.408365 0.225101
O O21 0.000000 0.500000 0.187558
O O22 0.750000 0.923658 0.090922
O O23 0.000000 0.000000 0.070944
#
# Coordination Sequence:
#
# PCOD8168304 Si02
#       8
#     4   4   4   4   4   4   4   4
#     4   8  15  28  48  75 109 148 187 225 272 325
#     4  10  20  35  55  81 114 148 185 232 289 351
#     4  10  20  34  57  85 118 157 196 239 286 341
#     4  10  22  38  59  85 116 152 193 240 288 344
#     4  11  24  43  66  88 114 147 191 245 295 349
#     4  10  23  40  58  84 116 150 193 242 291 344
#     4  10  20  34  54  80 114 149 184 230 287 349
#     4   9  18  34  54  80 116 153 191 235 281 335
#
# _framework density 19.693957999999999
#
# number of rings (size 3 to 8) (size 9 to 14) (size 15 to 20)
#    0.000    2.250    0.000    3.000    1.750    5.000 
#    0.000    0.625    0.000    1.500    0.000    0.000 
#    0.000    0.000    0.000    0.000    0.000    0.000 
#
# Total GULP energy -396560.605689 kJ/mol
# GULP energy per Si atom -12392.518928 kJ/mol
# Density = 1.964913 g / cm^3
# Si number density = 19.693958 Si / 1000 Ang^3
#
#
#
# Elastic Constant Matrix: (Units=GPa)
#
#
# Indices 1 2 3 4 5 6 
#
# 1 62.9279 39.3712 42.9790 0.0000 0.0000 0.0000
# 2 39.3712 101.4016 64.2028 0.0000 0.0000 0.0000
# 3 42.9790 64.2028 102.2490 0.0000 0.0000 0.0000
# 4 0.0000 0.0000 0.0000 28.1293 0.0000 0.0000
# 5 0.0000 0.0000 0.0000 0.0000 27.2063 0.0000
# 6 0.0000 0.0000 0.0000 0.0000 0.0000 27.1418
#
#
#
# Elastic Compliance Matrix: (Units=1/GPa)
#
#
# Indices 1 2 3 4 5 6 
#
# 1 0.023612 -0.004787 -0.006919 0.000000 0.000000 0.000000
# 2 -0.004787 0.017340 -0.008876 0.000000 0.000000 0.000000
# 3 -0.006919 -0.008876 0.018262 0.000000 0.000000 0.000000
# 4 0.000000 0.000000 0.000000 0.035550 0.000000 0.000000
# 5 0.000000 0.000000 0.000000 0.000000 0.036756 0.000000
# 6 0.000000 0.000000 0.000000 0.000000 0.000000 0.036844
#
#
# Mechanical properties :
#
#
# Convention : Reuss Voigt Hill
#
# Bulk Modulus (GPa) = 55.40245 62.18714 58.79479
# Shear Modulus (GPa) = 23.19710 24.49718 23.84714
#
# Velocity S-wave (km/s) = 3.43575 3.53071 3.48355
# Velocity P-wave (km/s) = 6.62812 6.94741 6.78964
#
# Compressibility (1/GPa) = 0.01804974
#
# Stress axis : x y z
#
# Youngs Moduli (GPa) = 42.35163 57.66950 54.75935
#
# Poissons Ratio (x) = 0.27605 0.37889
# Poissons Ratio (y) = 0.20273 0.48604
# Poissons Ratio (z) = 0.29304 0.51187
#
# Static dielectric constant tensor:
#      x y z
#    x 3.510670 0.000000 0.000000 
#    y 0.000000 3.495630 0.000000 
#    z 0.000000 0.000000 3.785050 
# 
# 
# High freq. dielectric constant tensor:
#      x y z
#    x 1.767420 0.000000 0.000000 
#    y 0.000000 1.767820 0.000000 
#    z 0.000000 0.000000 1.763790 
# 
# From -- ./inp_files/5047.got.cif
#   From: 2010.03.12/outbox.cif.g09.slc.cpg/sg28_3_cif.got.tgz:5047.got - 2010.04.14 03:39:34.
