data_PCOD8168194
_publ_section_title
;
Structure prediction by ZEFSAII (Michael W. Deem and Ramdas Pophale) SiO2 
 PCOD8168194
Probable space group: P M A 2
;
_chemical_formula_sum "Si O2"
_cell_formula_units_Z 28
_cell_length_a 8.599058
_cell_length_b 9.350978
_cell_length_c 18.003135
_cell_angle_alpha 90.000000
_cell_angle_beta 90.000000
_cell_angle_gamma 90.000000
_cell_volume 1447.624923
_symmetry_space_group_name_H-M "P M A 2"
_symmetry_group_IT_number 28
_symmetry_cell_setting 'orthorhombic'
loop_
_space_group_symop_operation_xyz
x,y,z
-x,-y,z
1/2-x,y,z
1/2+x,-y,z
loop_
_atom_site_type_symbol
_atom_site_label
_atom_site_fract_x
_atom_site_fract_y
_atom_site_fract_z
Si Si1 0.433914 0.155105 0.857710
Si Si2 0.434239 0.657162 0.729464
Si Si3 0.566194 0.157904 0.589327
Si Si4 0.568531 0.657027 0.140363
Si Si5 0.066806 0.659065 0.451330
Si Si6 0.432502 0.849706 0.016012
Si Si7 0.429662 0.344544 0.303228
O O1 0.250000 0.148458 0.852266
O O2 0.498316 0.277439 0.804647
O O3 0.500000 0.000000 0.835155
O O4 0.484727 0.199411 0.940384
O O5 0.500000 0.500000 0.716698
O O6 0.250000 0.649581 0.735133
O O7 0.490521 0.755524 0.661413
O O8 0.750000 0.147723 0.587119
O O9 0.501819 0.240527 0.516901
O O10 0.500000 0.000000 0.592364
O O11 0.500000 0.500000 0.141780
O O12 0.750000 0.655209 0.117995
O O13 0.466805 0.739927 0.081005
O O14 0.547345 0.729953 0.222448
O O15 0.250000 0.648666 0.455616
O O16 0.000000 0.500000 0.460052
O O17 0.015544 0.732009 0.372624
O O18 0.250000 0.862261 0.001078
O O19 0.500000 0.000000 0.042953
O O20 0.500000 0.500000 0.295886
O O21 0.250000 0.356664 0.324090
#
# Coordination Sequence:
#
# PCOD8168194 Si02
#       7
#     4   4   4   4   4   4   4
#     4  11  22  39  61  85 113 147 185 226 274 329
#     4  11  23  40  60  86 115 145 184 228 276 327
#     4  10  23  39  57  81 111 146 184 225 272 327
#     4  10  20  35  55  82 113 146 187 232 279 330
#     4  10  19  33  54  81 109 141 182 227 274 325
#     4  11  22  38  59  83 112 148 187 228 276 330
#     4   9  17  30  51  78 108 143 181 224 274 326
#
# _framework density 19.342027000000002
#
# number of rings (size 3 to 8) (size 9 to 14) (size 15 to 20)
#    0.000    1.714    0.000    6.857    0.000    5.714 
#    0.000    3.571    0.000    1.714    0.000    0.000 
#    0.000    0.000    0.000    0.000    0.000    0.000 
#
# Total GULP energy -347164.057680 kJ/mol
# GULP energy per Si atom -12398.716346 kJ/mol
# Density = 1.929800 g / cm^3
# Si number density = 19.342027 Si / 1000 Ang^3
#
#
#
# Elastic Constant Matrix: (Units=GPa)
#
#
# Indices 1 2 3 4 5 6 
#
# 1 97.7642 35.4278 35.7839 0.0000 0.0000 0.0000
# 2 35.4278 107.0266 72.8669 0.0000 0.0000 0.0000
# 3 35.7839 72.8669 133.4430 0.0000 0.0000 0.0000
# 4 0.0000 0.0000 0.0000 12.2469 0.0000 0.0000
# 5 0.0000 0.0000 0.0000 0.0000 32.6293 0.0000
# 6 0.0000 0.0000 0.0000 0.0000 0.0000 31.0041
#
#
#
# Elastic Compliance Matrix: (Units=1/GPa)
#
#
# Indices 1 2 3 4 5 6 
#
# 1 0.011846 -0.002799 -0.001648 0.000000 0.000000 0.000000
# 2 -0.002799 0.015534 -0.007732 0.000000 0.000000 0.000000
# 3 -0.001648 -0.007732 0.012158 0.000000 0.000000 0.000000
# 4 0.000000 0.000000 0.000000 0.081654 0.000000 0.000000
# 5 0.000000 0.000000 0.000000 0.000000 0.030647 0.000000
# 6 0.000000 0.000000 0.000000 0.000000 0.000000 0.032254
#
#
# Mechanical properties :
#
#
# Convention : Reuss Voigt Hill
#
# Bulk Modulus (GPa) = 65.87693 69.59899 67.73796
# Shear Modulus (GPa) = 23.41796 28.11972 25.76884
#
# Velocity S-wave (km/s) = 3.48333 3.81703 3.65399
# Velocity P-wave (km/s) = 7.09302 7.44901 7.27319
#
# Compressibility (1/GPa) = 0.01517982
#
# Stress axis : x y z
#
# Youngs Moduli (GPa) = 84.41418 64.37439 82.25180
#
# Poissons Ratio (x) = 0.18020 0.13556
# Poissons Ratio (y) = 0.23630 0.63596
# Poissons Ratio (z) = 0.13913 0.49773
#
# Static dielectric constant tensor:
#      x y z
#    x 3.654850 0.000000 0.000000 
#    y 0.000000 3.378680 0.000000 
#    z 0.000000 0.000000 4.107150 
# 
# 
# High freq. dielectric constant tensor:
#      x y z
#    x 1.767470 0.000000 0.000000 
#    y 0.000000 1.728560 0.000000 
#    z 0.000000 0.000000 1.775360 
# 
# From -- ./inp_files/6780.got.cif
#   From: 2010.03.12/outbox.cif.g09.slc.cpg/sg28_4_cif.got.tgz:6780.got - 2010.04.14 03:39:34.
