data_PCOD8168595
_publ_section_title
;
Structure prediction by ZEFSAII (Michael W. Deem and Ramdas Pophale) SiO2 
 PCOD8168595
Probable space group: P C A 21
;
_chemical_formula_sum "Si O2"
_cell_formula_units_Z 28
_cell_length_a 18.416526
_cell_length_b 5.074838
_cell_length_c 16.274958
_cell_angle_alpha 90.000000
_cell_angle_beta 90.000000
_cell_angle_gamma 90.000000
_cell_volume 1521.071994
_symmetry_space_group_name_H-M "P C A 21"
_symmetry_group_IT_number 29
_symmetry_cell_setting 'orthorhombic'
loop_
_space_group_symop_operation_xyz
x,y,z
-x,-y,1/2+z
1/2-x,y,1/2+z
1/2+x,-y,z
loop_
_atom_site_type_symbol
_atom_site_label
_atom_site_fract_x
_atom_site_fract_y
_atom_site_fract_z
Si Si1 0.714083 0.956193 0.744850
Si Si2 0.753102 0.597030 0.967393
Si Si3 0.347181 0.538830 0.330095
Si Si4 0.851353 0.800525 0.830632
Si Si5 0.566151 0.105464 0.448814
Si Si6 0.803680 0.094796 0.057651
Si Si7 0.992936 0.616074 0.877881
O O1 0.695274 0.194805 0.806197
O O2 0.699304 0.054934 0.654329
O O3 0.666607 0.698508 0.766042
O O4 0.799311 0.874092 0.754772
O O5 0.676005 0.546186 0.922571
O O6 0.811990 0.601190 0.894225
O O7 0.770351 0.376629 0.034719
O O8 0.753987 0.875407 0.013919
O O9 0.432713 0.595316 0.328629
O O10 0.928011 0.653831 0.809103
O O11 0.871474 0.072259 0.878245
O O12 0.610491 0.090127 0.534481
O O13 0.520943 0.369542 0.437241
O O14 0.508565 0.865008 0.440390
#
# Coordination Sequence:
#
# PCOD8168595 Si02
#       7
#     4   4   4   4   4   4   4
#     4  11  23  34  59  84 119 143 187 242 289 326
#     4  10  19  35  59  79 106 142 196 231 269 333
#     4  11  22  37  56  89 110 147 191 243 274 333
#     4   8  19  33  58  79 103 149 193 224 264 337
#     4   9  17  32  57  78  99 147 191 221 258 346
#     4  11  19  36  57  84 110 146 188 235 286 328
#     4  10  19  33  60  77 107 140 192 226 272 325
#
# _framework density 18.408068
#
# number of rings (size 3 to 8) (size 9 to 14) (size 15 to 20)
#    0.857    1.143    1.429    4.286    2.000    0.000 
#    0.000    0.000    9.429    0.000    0.000    0.000 
#    0.000    0.000    0.000    0.000    0.000    0.000 
#
# Total GULP energy -346899.041430 kJ/mol
# GULP energy per Si atom -12389.251480 kJ/mol
# Density = 1.836617 g / cm^3
# Si number density = 18.408068 Si / 1000 Ang^3
#
#
#
# Elastic Constant Matrix: (Units=GPa)
#
#
# Indices 1 2 3 4 5 6 
#
# 1 95.3359 23.7092 25.5227 0.0000 0.0000 0.0000
# 2 23.7092 114.1215 16.9498 0.0000 0.0000 0.0000
# 3 25.5227 16.9498 65.2232 0.0000 0.0000 0.0000
# 4 0.0000 0.0000 0.0000 25.8440 0.0000 0.0000
# 5 0.0000 0.0000 0.0000 0.0000 17.2961 0.0000
# 6 0.0000 0.0000 0.0000 0.0000 0.0000 19.4520
#
#
#
# Elastic Compliance Matrix: (Units=1/GPa)
#
#
# Indices 1 2 3 4 5 6 
#
# 1 0.012093 -0.001882 -0.004243 0.000000 0.000000 0.000000
# 2 -0.001882 0.009407 -0.001708 0.000000 0.000000 0.000000
# 3 -0.004243 -0.001708 0.017436 0.000000 0.000000 0.000000
# 4 0.000000 0.000000 0.000000 0.038694 0.000000 0.000000
# 5 0.000000 0.000000 0.000000 0.000000 0.057817 0.000000
# 6 0.000000 0.000000 0.000000 0.000000 0.000000 0.051409
#
#
# Mechanical properties :
#
#
# Convention : Reuss Voigt Hill
#
# Bulk Modulus (GPa) = 42.97408 45.22709 44.10059
# Shear Modulus (GPa) = 23.77788 26.41834 25.09811
#
# Velocity S-wave (km/s) = 3.59794 3.79245 3.69647
# Velocity P-wave (km/s) = 6.37621 6.61811 6.49829
#
# Compressibility (1/GPa) = 0.02326984
#
# Stress axis : x y z
#
# Youngs Moduli (GPa) = 82.69072 106.30005 57.35171
#
# Poissons Ratio (x) = 0.20008 0.24335
# Poissons Ratio (y) = 0.15564 0.09797
# Poissons Ratio (z) = 0.35087 0.18158
#
# Static dielectric constant tensor:
#      x y z
#    x 3.372570 0.000000 0.000000 
#    y 0.000000 3.536650 0.000000 
#    z 0.000000 0.000000 2.974880 
# 
# 
# High freq. dielectric constant tensor:
#      x y z
#    x 1.700730 0.000000 0.000000 
#    y 0.000000 1.738150 0.000000 
#    z 0.000000 0.000000 1.667070 
# 
# From -- ./inp_files/5324.got.cif
#   From: 2010.03.12/outbox.cif.g09.slc.cpg/sg29_3_cif.got.tgz:5324.got - 2010.04.14 03:43:10.
