data_PCOD8168384
_publ_section_title
;
Structure prediction by ZEFSAII (Michael W. Deem and Ramdas Pophale) SiO2 
 PCOD8168384
Probable space group: P M A 2
;
_chemical_formula_sum "Si O2"
_cell_formula_units_Z 32
_cell_length_a 8.919128
_cell_length_b 9.328220
_cell_length_c 20.117645
_cell_angle_alpha 90.000000
_cell_angle_beta 90.000000
_cell_angle_gamma 90.000000
_cell_volume 1673.779779
_symmetry_space_group_name_H-M "P M A 2"
_symmetry_group_IT_number 28
_symmetry_cell_setting 'orthorhombic'
loop_
_space_group_symop_operation_xyz
x,y,z
-x,-y,z
1/2-x,y,z
1/2+x,-y,z
loop_
_atom_site_type_symbol
_atom_site_label
_atom_site_fract_x
_atom_site_fract_y
_atom_site_fract_z
Si Si1 0.926936 0.344942 0.366490
Si Si2 0.074996 0.347906 0.127310
Si Si3 0.927702 0.148534 0.636082
Si Si4 0.572560 0.652487 0.742058
Si Si5 0.924886 0.854127 0.861129
Si Si6 0.573035 0.851011 0.010527
Si Si7 0.072664 0.155294 0.253271
Si Si8 0.076503 0.855705 0.484771
O O1 0.750000 0.357712 0.353448
O O2 0.963535 0.280473 0.439205
O O3 0.000000 0.500000 0.360567
O O4 0.999448 0.238434 0.314080
O O5 0.250000 0.376672 0.123838
O O6 0.016600 0.275460 0.058960
O O7 0.033230 0.242059 0.186929
O O8 0.000000 0.500000 0.139082
O O9 0.750000 0.142558 0.646661
O O10 0.973779 0.179676 0.559854
O O11 0.999351 0.274646 0.678296
O O12 0.000000 0.000000 0.660426
O O13 0.500000 0.500000 0.749771
O O14 0.750000 0.643225 0.731847
O O15 0.527376 0.732282 0.809859
O O16 0.750000 0.882492 0.859934
O O17 0.977137 0.810416 0.935498
O O18 0.000000 0.000000 0.837095
O O19 0.750000 0.870712 0.016957
O O20 0.500000 0.000000 0.033124
O O21 0.250000 0.140698 0.264583
O O22 0.000000 0.000000 0.247049
O O23 0.250000 0.890816 0.482061
O O24 0.000000 0.000000 0.457476
#
# Coordination Sequence:
#
# PCOD8168384 Si02
#       8
#     4   4   4   4   4   4   4   4
#     4  11  23  39  58  83 114 148 183 224 272 324
#     4  10  22  37  55  80 112 145 180 221 269 321
#     4  10  20  37  59  83 110 143 182 225 270 322
#     4  11  23  37  53  78 110 145 182 226 276 328
#     4   9  19  35  56  79 106 139 179 223 269 320
#     4   9  18  35  56  80 107 139 179 223 267 318
#     4  11  23  39  59  84 111 144 184 228 273 323
#     4   9  20  37  58  83 110 141 181 224 269 320
#
# _framework density 19.118404999999999
#
# number of rings (size 3 to 8) (size 9 to 14) (size 15 to 20)
#    0.000    2.000    0.000    3.000    0.000    8.000 
#    0.000    1.250    0.000    0.000    0.000    0.000 
#    0.000    0.000    0.000    0.000    0.000    0.000 
#
# Total GULP energy -396880.060633 kJ/mol
# GULP energy per Si atom -12402.501895 kJ/mol
# Density = 1.907489 g / cm^3
# Si number density = 19.118405 Si / 1000 Ang^3
#
#
#
# Elastic Constant Matrix: (Units=GPa)
#
#
# Indices 1 2 3 4 5 6 
#
# 1 73.8632 68.1481 56.4821 0.0000 0.0000 0.0000
# 2 68.1481 175.4636 85.8074 0.0000 0.0000 0.0000
# 3 56.4821 85.8074 117.0055 0.0000 0.0000 0.0000
# 4 0.0000 0.0000 0.0000 4.2262 0.0000 0.0000
# 5 0.0000 0.0000 0.0000 0.0000 23.0952 0.0000
# 6 0.0000 0.0000 0.0000 0.0000 0.0000 39.1920
#
#
#
# Elastic Compliance Matrix: (Units=1/GPa)
#
#
# Indices 1 2 3 4 5 6 
#
# 1 0.024845 -0.005900 -0.007666 0.000000 0.000000 0.000000
# 2 -0.005900 0.010287 -0.004696 0.000000 0.000000 0.000000
# 3 -0.007666 -0.004696 0.015691 0.000000 0.000000 0.000000
# 4 0.000000 0.000000 0.000000 0.236622 0.000000 0.000000
# 5 0.000000 0.000000 0.000000 0.000000 0.043299 0.000000
# 6 0.000000 0.000000 0.000000 0.000000 0.000000 0.025515
#
#
# Mechanical properties :
#
#
# Convention : Reuss Voigt Hill
#
# Bulk Modulus (GPa) = 69.93988 87.46751 78.70369
# Shear Modulus (GPa) = 12.57702 23.69564 18.13633
#
# Velocity S-wave (km/s) = 2.56764 3.52435 3.08333
# Velocity P-wave (km/s) = 6.74183 7.90007 7.34382
#
# Compressibility (1/GPa) = 0.01429800
#
# Stress axis : x y z
#
# Youngs Moduli (GPa) = 40.25027 97.20673 63.72995
#
# Poissons Ratio (x) = 0.57355 0.48856
# Poissons Ratio (y) = 0.23749 0.29928
# Poissons Ratio (z) = 0.30856 0.45649
#
# Static dielectric constant tensor:
#      x y z
#    x 3.545360 0.000000 0.000000 
#    y 0.000000 3.549990 0.000000 
#    z 0.000000 0.000000 3.917750 
# 
# 
# High freq. dielectric constant tensor:
#      x y z
#    x 1.747290 0.000000 0.000000 
#    y 0.000000 1.745250 0.000000 
#    z 0.000000 0.000000 1.759040 
# 
# From -- ./inp_files/7196.got.cif
#   From: 2010.03.12/outbox.cif.g09.slc.cpg/sg28_4_cif.got.tgz:7196.got - 2010.04.14 03:39:34.
