data_PCOD8168100
_publ_section_title
;
Structure prediction by ZEFSAII (Michael W. Deem and Ramdas Pophale) SiO2 
 PCOD8168100
Probable space group: P M A 2
;
_chemical_formula_sum "Si O2"
_cell_formula_units_Z 20
_cell_length_a 8.860777
_cell_length_b 14.088580
_cell_length_c 10.182475
_cell_angle_alpha 90.000000
_cell_angle_beta 90.000000
_cell_angle_gamma 90.000000
_cell_volume 1271.137063
_symmetry_space_group_name_H-M "P M A 2"
_symmetry_group_IT_number 28
_symmetry_cell_setting 'orthorhombic'
loop_
_space_group_symop_operation_xyz
x,y,z
-x,-y,z
1/2-x,y,z
1/2+x,-y,z
loop_
_atom_site_type_symbol
_atom_site_label
_atom_site_fract_x
_atom_site_fract_y
_atom_site_fract_z
Si Si1 0.078744 0.780733 0.274160
Si Si2 0.928946 0.099532 0.810036
Si Si3 0.427255 0.902768 0.512641
Si Si4 0.571942 0.765142 0.017421
Si Si5 0.421403 0.598456 0.139019
O O1 0.250000 0.816123 0.249871
O O2 0.018748 0.819253 0.413779
O O3 0.073313 0.664964 0.270539
O O4 0.976472 0.819360 0.152767
O O5 0.750000 0.094377 0.827228
O O6 0.978904 0.121735 0.660243
O O7 0.995828 0.184547 0.894362
O O8 0.000000 0.000000 0.856423
O O9 0.250000 0.916396 0.508865
O O10 0.500000 0.000000 0.462490
O O11 0.750000 0.765352 0.000501
O O12 0.509082 0.656363 0.023578
O O13 0.500000 0.500000 0.172203
O O14 0.250000 0.579902 0.093701
#
# Coordination Sequence:
#
# PCOD8168100 Si02
#       5
#     4   4   4   4   4
#     4   8  17  32  48  69  96 125 157 196 240 282
#     4  10  19  32  49  69  96 130 164 197 238 282
#     4   9  18  32  49  69  95 129 161 194 236 282
#     4  10  19  31  48  72  97 126 162 197 236 281
#     4   9  17  31  51  72  97 122 155 197 243 288
#
# _framework density 15.733946
#
# number of rings (size 3 to 8) (size 9 to 14) (size 15 to 20)
#    1.200    1.600    0.000    2.400    0.000    2.400 
#    0.000    2.000    0.000    1.200    0.000    2.800 
#    0.000    0.000    0.000    0.000    0.000    0.000 
#
# Total GULP energy -247781.223908 kJ/mol
# GULP energy per Si atom -12389.061195 kJ/mol
# Density = 1.569814 g / cm^3
# Si number density = 15.733946 Si / 1000 Ang^3
#
#
#
# Elastic Constant Matrix: (Units=GPa)
#
#
# Indices 1 2 3 4 5 6 
#
# 1 85.5830 40.1887 34.7452 0.0000 0.0000 0.0000
# 2 40.1887 102.5420 56.9043 0.0000 0.0000 0.0000
# 3 34.7452 56.9043 81.7124 0.0000 0.0000 0.0000
# 4 0.0000 0.0000 0.0000 12.2801 0.0000 0.0000
# 5 0.0000 0.0000 0.0000 0.0000 15.9608 0.0000
# 6 0.0000 0.0000 0.0000 0.0000 0.0000 29.7223
#
#
#
# Elastic Compliance Matrix: (Units=1/GPa)
#
#
# Indices 1 2 3 4 5 6 
#
# 1 0.014983 -0.003808 -0.003719 0.000000 0.000000 0.000000
# 2 -0.003808 0.016863 -0.010124 0.000000 0.000000 0.000000
# 3 -0.003719 -0.010124 0.020869 0.000000 0.000000 0.000000
# 4 0.000000 0.000000 0.000000 0.081433 0.000000 0.000000
# 5 0.000000 0.000000 0.000000 0.000000 0.062653 0.000000
# 6 0.000000 0.000000 0.000000 0.000000 0.000000 0.033645
#
#
# Mechanical properties :
#
#
# Convention : Reuss Voigt Hill
#
# Bulk Modulus (GPa) = 57.42795 59.27931 58.35363
# Shear Modulus (GPa) = 18.41268 20.79259 19.60263
#
# Velocity S-wave (km/s) = 3.42461 3.63920 3.53353
# Velocity P-wave (km/s) = 7.22605 7.44421 7.33594
#
# Compressibility (1/GPa) = 0.01741313
#
# Stress axis : x y z
#
# Youngs Moduli (GPa) = 66.74376 59.30222 47.91700
#
# Poissons Ratio (x) = 0.22585 0.17819
# Poissons Ratio (y) = 0.25419 0.48510
# Poissons Ratio (z) = 0.24820 0.60036
#
# Static dielectric constant tensor:
#      x y z
#    x 3.050600 0.000000 0.000000 
#    y 0.000000 2.879210 0.000000 
#    z 0.000000 0.000000 2.983210 
# 
# 
# High freq. dielectric constant tensor:
#      x y z
#    x 1.615410 0.000000 0.000000 
#    y 0.000000 1.586400 0.000000 
#    z 0.000000 0.000000 1.585060 
# 
# From -- ./inp_files/2368.got.cif
#   From: 2010.03.12/outbox.cif.g09.slc.cpg/sg28_2_cif.got.tgz:2368.got - 2010.04.14 03:39:34.
