data_PCOD8168550
_publ_section_title
;
Structure prediction by ZEFSAII (Michael W. Deem and Ramdas Pophale) SiO2 
 PCOD8168550
Probable space group: P C A 21
;
_chemical_formula_sum "Si O2"
_cell_formula_units_Z 28
_cell_length_a 17.673963
_cell_length_b 14.539434
_cell_length_c 5.306304
_cell_angle_alpha 90.000000
_cell_angle_beta 90.000000
_cell_angle_gamma 90.000000
_cell_volume 1363.557854
_symmetry_space_group_name_H-M "P C A 21"
_symmetry_group_IT_number 29
_symmetry_cell_setting 'orthorhombic'
loop_
_space_group_symop_operation_xyz
x,y,z
-x,-y,1/2+z
1/2-x,y,1/2+z
1/2+x,-y,z
loop_
_atom_site_type_symbol
_atom_site_label
_atom_site_fract_x
_atom_site_fract_y
_atom_site_fract_z
Si Si1 0.933991 0.475754 0.478550
Si Si2 0.206515 0.073000 0.478273
Si Si3 0.292476 0.291509 0.978311
Si Si4 0.038798 0.297007 0.478250
Si Si5 0.453739 0.977483 0.993690
Si Si6 0.026098 0.771614 0.478386
Si Si7 0.582912 0.418804 0.478517
O O1 0.882315 0.468663 0.730465
O O2 0.984327 0.383802 0.478992
O O3 0.990025 0.563267 0.478469
O O4 0.882317 0.468544 0.226705
O O5 0.247932 0.038236 0.732092
O O6 0.200121 0.182145 0.477799
O O7 0.122738 0.033710 0.466438
O O8 0.250616 0.326942 0.727154
O O9 0.375929 0.334619 0.981357
O O10 0.024572 0.234607 0.725835
O O11 0.026145 0.236250 0.226929
O O12 0.432588 0.869413 0.983083
O O13 0.508632 0.001064 0.762256
O O14 0.091301 0.691520 0.478542
#
# Coordination Sequence:
#
# PCOD8168550 Si02
#       7
#     4   4   4   4   4   4   4
#     4   8  14  24  41  62  88 116 140 173 219 281
#     4  10  21  36  51  68  95 132 168 201 243 298
#     4  10  19  30  44  61  84 118 157 189 222 276
#     4  10  18  30  46  68  95 121 148 187 240 284
#     4  12  23  35  53  77 102 129 167 215 257 289
#     4  10  19  30  47  69  95 120 149 194 242 283
#     4   8  14  25  40  63  89 114 143 173 221 281
#
# _framework density 20.534514000000001
#
# number of rings (size 3 to 8) (size 9 to 14) (size 15 to 20)
#    0.000    2.286    0.000    4.286    0.000    2.286 
#    0.000    0.000    0.000    0.000    0.000    2.000 
#    0.000    0.000    0.000    0.000    0.000    0.000 
#
# Total GULP energy -346981.395855 kJ/mol
# GULP energy per Si atom -12392.192709 kJ/mol
# Density = 2.048778 g / cm^3
# Si number density = 20.534514 Si / 1000 Ang^3
#
#
#
# Elastic Constant Matrix: (Units=GPa)
#
#
# Indices 1 2 3 4 5 6 
#
# 1 48.1466 -18.3280 9.3587 0.0000 0.0000 0.0000
# 2 -18.3280 49.7386 1.7301 0.0000 0.0000 0.0000
# 3 9.3587 1.7301 187.1279 0.0000 0.0000 0.0000
# 4 0.0000 0.0000 0.0000 13.1828 0.0000 0.0000
# 5 0.0000 0.0000 0.0000 0.0000 23.5461 0.0000
# 6 0.0000 0.0000 0.0000 0.0000 0.0000 12.9339
#
#
#
# Elastic Compliance Matrix: (Units=1/GPa)
#
#
# Indices 1 2 3 4 5 6 
#
# 1 0.024475 0.009064 -0.001308 0.000000 0.000000 0.000000
# 2 0.009064 0.023468 -0.000670 0.000000 0.000000 0.000000
# 3 -0.001308 -0.000670 0.005416 0.000000 0.000000 0.000000
# 4 0.000000 0.000000 0.000000 0.075856 0.000000 0.000000
# 5 0.000000 0.000000 0.000000 0.000000 0.042470 0.000000
# 6 0.000000 0.000000 0.000000 0.000000 0.000000 0.077316
#
#
# Mechanical properties :
#
#
# Convention : Reuss Voigt Hill
#
# Bulk Modulus (GPa) = 14.80817 30.05941 22.43379
# Shear Modulus (GPa) = 19.42965 29.41607 24.42286
#
# Velocity S-wave (km/s) = 3.07936 3.78897 3.45245
# Velocity P-wave (km/s) = 4.45761 5.81481 5.18084
#
# Compressibility (1/GPa) = 0.06753029
#
# Stress axis : x y z
#
# Youngs Moduli (GPa) = 40.85881 42.61048 184.65363
#
# Poissons Ratio (x) = -0.38622 0.24150
# Poissons Ratio (y) = -0.37035 0.12377
# Poissons Ratio (z) = 0.05344 0.02856
#
# Static dielectric constant tensor:
#      x y z
#    x 3.092210 0.000000 0.000000 
#    y 0.000000 3.682560 0.000000 
#    z 0.000000 0.000000 5.102670 
# 
# 
# High freq. dielectric constant tensor:
#      x y z
#    x 1.724690 0.000000 0.000000 
#    y 0.000000 1.800400 0.000000 
#    z 0.000000 0.000000 1.849610 
# 
# From -- ./inp_files/229.got.cif
#   From: 2010.03.12/outbox.cif.g09.slc.cpg/sg29_1_cif.got.tgz:229.got - 2010.04.14 03:43:10.
