data_PCOD8168653
_publ_section_title
;
Structure prediction by ZEFSAII (Michael W. Deem and Ramdas Pophale) SiO2 
 PCOD8168653
Probable space group: P C A 21
;
_chemical_formula_sum "Si O2"
_cell_formula_units_Z 28
_cell_length_a 17.413304
_cell_length_b 6.349937
_cell_length_c 11.561901
_cell_angle_alpha 90.000000
_cell_angle_beta 90.000000
_cell_angle_gamma 90.000000
_cell_volume 1278.438512
_symmetry_space_group_name_H-M "P C A 21"
_symmetry_group_IT_number 29
_symmetry_cell_setting 'orthorhombic'
loop_
_space_group_symop_operation_xyz
x,y,z
-x,-y,1/2+z
1/2-x,y,1/2+z
1/2+x,-y,z
loop_
_atom_site_type_symbol
_atom_site_label
_atom_site_fract_x
_atom_site_fract_y
_atom_site_fract_z
Si Si1 0.883364 0.735605 0.415070
Si Si2 0.286779 0.193407 0.985367
Si Si3 0.377977 0.452378 0.170062
Si Si4 0.402497 0.431160 0.845470
Si Si5 0.551992 0.443606 0.101127
Si Si6 0.982848 0.105270 0.448569
Si Si7 0.116337 0.815198 0.515952
O O1 0.803869 0.786003 0.477604
O O2 0.869389 0.582768 0.306547
O O3 0.938266 0.632438 0.510715
O O4 0.928722 0.946992 0.374920
O O5 0.325144 0.303841 0.873432
O O6 0.317939 0.303698 0.102334
O O7 0.307081 0.945344 0.983592
O O8 0.463318 0.401975 0.128481
O O9 0.365156 0.699220 0.138189
O O10 0.398204 0.508127 0.713785
O O11 0.476820 0.279837 0.865237
O O12 0.406043 0.640360 0.921803
O O13 0.574897 0.224254 0.038364
O O14 0.047194 0.982132 0.522910
#
# Coordination Sequence:
#
# PCOD8168653 Si02
#       7
#     4   4   4   4   4   4   4
#     4  12  28  43  69 111 143 183 249 292 365 434
#     4  10  25  46  67  98 143 192 231 301 367 427
#     4  11  23  45  72 100 142 185 233 302 354 421
#     4  10  23  43  71  95 142 181 236 299 355 416
#     4  12  23  43  72 108 134 183 238 306 341 425
#     4  11  21  43  69 107 133 178 242 292 354 426
#     4  10  19  47  70  95 133 188 235 284 366 417
#
# _framework density 21.901717999999999
#
# number of rings (size 3 to 8) (size 9 to 14) (size 15 to 20)
#    0.000    1.143    5.714    1.714    2.000    8.000 
#    2.571    0.000    0.000    0.000    0.000    0.000 
#    0.000    0.000    0.000    0.000    0.000    0.000 
#
# Total GULP energy -347061.920699 kJ/mol
# GULP energy per Si atom -12395.068596 kJ/mol
# Density = 2.185187 g / cm^3
# Si number density = 21.901718 Si / 1000 Ang^3
#
#
#
# Elastic Constant Matrix: (Units=GPa)
#
#
# Indices 1 2 3 4 5 6 
#
# 1 82.2790 19.8561 12.5302 0.0000 0.0000 0.0000
# 2 19.8561 122.0793 36.0243 0.0000 0.0000 0.0000
# 3 12.5302 36.0243 107.9270 0.0000 0.0000 0.0000
# 4 0.0000 0.0000 0.0000 30.5520 0.0000 0.0000
# 5 0.0000 0.0000 0.0000 0.0000 24.2212 0.0000
# 6 0.0000 0.0000 0.0000 0.0000 0.0000 23.8722
#
#
#
# Elastic Compliance Matrix: (Units=1/GPa)
#
#
# Indices 1 2 3 4 5 6 
#
# 1 0.012724 -0.001812 -0.000872 0.000000 0.000000 0.000000
# 2 -0.001812 0.009344 -0.002909 0.000000 0.000000 0.000000
# 3 -0.000872 -0.002909 0.010338 0.000000 0.000000 0.000000
# 4 0.000000 0.000000 0.000000 0.032731 0.000000 0.000000
# 5 0.000000 0.000000 0.000000 0.000000 0.041286 0.000000
# 6 0.000000 0.000000 0.000000 0.000000 0.000000 0.041890
#
#
# Mechanical properties :
#
#
# Convention : Reuss Voigt Hill
#
# Bulk Modulus (GPa) = 47.12588 49.90076 48.51332
# Shear Modulus (GPa) = 30.01696 31.98740 31.00218
#
# Velocity S-wave (km/s) = 3.70608 3.82579 3.76641
# Velocity P-wave (km/s) = 6.31483 6.50761 6.41194
#
# Compressibility (1/GPa) = 0.02121976
#
# Stress axis : x y z
#
# Youngs Moduli (GPa) = 78.59204 107.01544 96.73369
#
# Poissons Ratio (x) = 0.19392 0.08439
# Poissons Ratio (y) = 0.14242 0.28136
# Poissons Ratio (z) = 0.06856 0.31127
#
# Static dielectric constant tensor:
#      x y z
#    x 3.724790 0.000000 0.000000 
#    y 0.000000 4.367600 0.000000 
#    z 0.000000 0.000000 3.949470 
# 
# 
# High freq. dielectric constant tensor:
#      x y z
#    x 1.844160 0.000000 0.000000 
#    y 0.000000 1.879240 0.000000 
#    z 0.000000 0.000000 1.844450 
# 
# From -- ./inp_files/3795.got.cif
#   From: 2010.03.12/outbox.cif.g09.slc.cpg/sg29_2_cif.got.tgz:3795.got - 2010.04.14 03:43:10.
