data_PCOD8168714
_publ_section_title
;
Structure prediction by ZEFSAII (Michael W. Deem and Ramdas Pophale) SiO2 
 PCOD8168714
Probable space group: P C A 21
;
_chemical_formula_sum "Si O2"
_cell_formula_units_Z 20
_cell_length_a 11.712847
_cell_length_b 5.475785
_cell_length_c 11.751989
_cell_angle_alpha 90.000000
_cell_angle_beta 90.000000
_cell_angle_gamma 90.000000
_cell_volume 753.737693
_symmetry_space_group_name_H-M "P C A 21"
_symmetry_group_IT_number 29
_symmetry_cell_setting 'orthorhombic'
loop_
_space_group_symop_operation_xyz
x,y,z
-x,-y,1/2+z
1/2-x,y,1/2+z
1/2+x,-y,z
loop_
_atom_site_type_symbol
_atom_site_label
_atom_site_fract_x
_atom_site_fract_y
_atom_site_fract_z
Si Si1 0.496460 0.117901 0.959720
Si Si2 0.141523 0.712104 0.159772
Si Si3 0.467614 0.614660 0.882891
Si Si4 0.776211 0.599411 0.461807
Si Si5 0.770314 0.100918 0.355962
O O1 0.421069 0.370356 0.952097
O O2 0.592991 0.128784 0.859309
O O3 0.421739 0.875291 0.936649
O O4 0.569200 0.112493 0.075911
O O5 0.053370 0.591533 0.247964
O O6 0.206303 0.490078 0.092882
O O7 0.228411 0.901459 0.224438
O O8 0.601876 0.615920 0.901347
O O9 0.713223 0.367298 0.398198
O O10 0.725966 0.871755 0.434729
#
# Coordination Sequence:
#
# PCOD8168714 Si02
#       5
#     4   4   4   4   4
#     4   9  21  38  52  83 116 143 193 240 283 360
#     4  10  20  38  63  81 118 162 188 251 307 334
#     4   9  19  36  57  80 112 149 191 236 290 349
#     4   9  21  38  53  84 118 146 198 246 287 365
#     4   9  19  36  57  80 112 152 194 237 297 358
#
# _framework density 26.534431000000001
#
# number of rings (size 3 to 8) (size 9 to 14) (size 15 to 20)
#    0.000    3.200    0.000    0.000    0.000   14.400 
#    0.000   28.000    0.000    0.000    0.000    0.000 
#    0.000    0.000    0.000    0.000    0.000    0.000 
#
# Total GULP energy -247783.246469 kJ/mol
# GULP energy per Si atom -12389.162323 kJ/mol
# Density = 2.647404 g / cm^3
# Si number density = 26.534431 Si / 1000 Ang^3
#
#
#
# Elastic Constant Matrix: (Units=GPa)
#
#
# Indices 1 2 3 4 5 6 
#
# 1 87.3448 73.9597 29.2684 0.0000 0.0000 0.0000
# 2 73.9597 257.4116 61.4599 0.0000 0.0000 0.0000
# 3 29.2684 61.4599 156.2073 0.0000 0.0000 0.0000
# 4 0.0000 0.0000 0.0000 46.3786 0.0000 0.0000
# 5 0.0000 0.0000 0.0000 0.0000 62.4902 0.0000
# 6 0.0000 0.0000 0.0000 0.0000 0.0000 63.9893
#
#
#
# Elastic Compliance Matrix: (Units=1/GPa)
#
#
# Indices 1 2 3 4 5 6 
#
# 1 0.015351 -0.004110 -0.001259 0.000000 0.000000 0.000000
# 2 -0.004110 0.005388 -0.001350 0.000000 0.000000 0.000000
# 3 -0.001259 -0.001350 0.007169 0.000000 0.000000 0.000000
# 4 0.000000 0.000000 0.000000 0.021562 0.000000 0.000000
# 5 0.000000 0.000000 0.000000 0.000000 0.016002 0.000000
# 6 0.000000 0.000000 0.000000 0.000000 0.000000 0.015628
#
#
# Mechanical properties :
#
#
# Convention : Reuss Voigt Hill
#
# Bulk Modulus (GPa) = 69.11004 92.25998 80.68501
# Shear Modulus (GPa) = 50.32159 56.99000 53.65580
#
# Velocity S-wave (km/s) = 4.35957 4.63944 4.50168
# Velocity P-wave (km/s) = 7.17238 7.97148 7.58247
#
# Compressibility (1/GPa) = 0.01446968
#
# Stress axis : x y z
#
# Youngs Moduli (GPa) = 65.14230 185.59734 139.49381
#
# Poissons Ratio (x) = 0.76281 0.17565
# Poissons Ratio (y) = 0.26774 0.18829
# Poissons Ratio (z) = 0.08203 0.25052
#
# Static dielectric constant tensor:
#      x y z
#    x 5.391050 0.000000 0.000000 
#    y 0.000000 7.128930 0.000000 
#    z 0.000000 0.000000 4.358610 
# 
# 
# High freq. dielectric constant tensor:
#      x y z
#    x 2.140790 0.000000 0.000000 
#    y 0.000000 2.106800 0.000000 
#    z 0.000000 0.000000 2.017430 
# 
# From -- ./inp_files/3321.got.cif
#   From: 2010.03.12/outbox.cif.g09.slc.cpg/sg29_2_cif.got.tgz:3321.got - 2010.04.14 03:43:10.
