data_PCOD8168409
_publ_section_title
;
Structure prediction by ZEFSAII (Michael W. Deem and Ramdas Pophale) SiO2 
 PCOD8168409
Probable space group: P M A 2
;
_chemical_formula_sum "Si O2"
_cell_formula_units_Z 32
_cell_length_a 17.591789
_cell_length_b 17.603900
_cell_length_c 5.200172
_cell_angle_alpha 90.000000
_cell_angle_beta 90.000000
_cell_angle_gamma 90.000000
_cell_volume 1610.410556
_symmetry_space_group_name_H-M "P M A 2"
_symmetry_group_IT_number 28
_symmetry_cell_setting 'orthorhombic'
loop_
_space_group_symop_operation_xyz
x,y,z
-x,-y,z
1/2-x,y,z
1/2+x,-y,z
loop_
_atom_site_type_symbol
_atom_site_label
_atom_site_fract_x
_atom_site_fract_y
_atom_site_fract_z
Si Si1 0.028863 0.653132 0.766940
Si Si2 0.421979 0.049977 0.799266
Si Si3 0.094594 0.228679 0.815185
Si Si4 0.660765 0.694474 0.312865
Si Si5 0.164655 0.739173 0.893343
Si Si6 0.025507 0.415794 0.266198
Si Si7 0.836508 0.168407 0.394252
Si Si8 0.089369 0.985322 0.299621
O O1 0.116455 0.663840 0.840169
O O2 0.987389 0.732517 0.821080
O O3 0.023505 0.633515 0.466746
O O4 0.994764 0.591772 0.965263
O O5 0.428261 0.140408 0.818492
O O6 0.375353 0.030957 0.540409
O O7 0.500000 0.000000 0.776642
O O8 0.373123 0.019124 0.040553
O O9 0.141365 0.255832 0.565020
O O10 0.142022 0.253192 0.066794
O O11 0.750000 0.673088 0.313948
O O12 0.612923 0.614119 0.306792
O O13 0.250000 0.711809 0.855967
O O14 0.144938 0.802938 0.680213
O O15 0.149390 0.766999 0.182202
O O16 0.000000 0.500000 0.347138
O O17 0.750000 0.138092 0.374969
O O18 0.895824 0.103222 0.327818
O O19 0.000000 0.000000 0.270372
#
# Coordination Sequence:
#
# PCOD8168409 Si02
#       8
#     4   4   4   4   4   4   4   4
#     4  10  21  35  61  88 114 154 189 237 279 339
#     4  10  21  35  50  80 108 142 192 250 299 332
#     4  10  21  36  59  86 112 150 204 244 287 345
#     4  10  21  40  62  88 120 158 196 234 294 355
#     4  10  21  36  57  82 112 144 187 233 287 342
#     4  10  21  40  62  92 124 153 191 232 280 342
#     4  10  21  36  52  73 106 149 184 235 296 350
#     4  10  21  32  51  75 103 140 192 241 284 347
#
# _framework density 19.870709999999999
#
# number of rings (size 3 to 8) (size 9 to 14) (size 15 to 20)
#    0.000    2.000    0.000    3.000    7.000    0.000 
#    0.000    5.000    0.000    0.000    0.000    0.000 
#    0.000    0.000    0.000    0.000    0.000    0.000 
#
# Total GULP energy -396469.774593 kJ/mol
# GULP energy per Si atom -12389.680456 kJ/mol
# Density = 1.982548 g / cm^3
# Si number density = 19.870710 Si / 1000 Ang^3
#
#
#
# Elastic Constant Matrix: (Units=GPa)
#
#
# Indices 1 2 3 4 5 6 
#
# 1 84.5262 41.6295 8.4115 0.0000 0.0000 0.0000
# 2 41.6295 88.9274 9.4078 0.0000 0.0000 0.0000
# 3 8.4115 9.4078 124.8737 0.0000 0.0000 0.0000
# 4 0.0000 0.0000 0.0000 17.2533 0.0000 0.0000
# 5 0.0000 0.0000 0.0000 0.0000 18.6468 0.0000
# 6 0.0000 0.0000 0.0000 0.0000 0.0000 21.8890
#
#
#
# Elastic Compliance Matrix: (Units=1/GPa)
#
#
# Indices 1 2 3 4 5 6 
#
# 1 0.015406 -0.007159 -0.000498 0.000000 0.000000 0.000000
# 2 -0.007159 0.014662 -0.000622 0.000000 0.000000 0.000000
# 3 -0.000498 -0.000622 0.008089 0.000000 0.000000 0.000000
# 4 0.000000 0.000000 0.000000 0.057960 0.000000 0.000000
# 5 0.000000 0.000000 0.000000 0.000000 0.053628 0.000000
# 6 0.000000 0.000000 0.000000 0.000000 0.000000 0.045685
#
#
# Mechanical properties :
#
#
# Convention : Reuss Voigt Hill
#
# Bulk Modulus (GPa) = 46.30283 46.35834 46.33058
# Shear Modulus (GPa) = 22.81124 27.48305 25.14715
#
# Velocity S-wave (km/s) = 3.39187 3.72303 3.56130
# Velocity P-wave (km/s) = 6.22031 6.47008 6.34643
#
# Compressibility (1/GPa) = 0.02159695
#
# Stress axis : x y z
#
# Youngs Moduli (GPa) = 64.90854 68.20121 123.63147
#
# Poissons Ratio (x) = 0.48828 0.06162
# Poissons Ratio (y) = 0.46471 0.07695
# Poissons Ratio (z) = 0.03235 0.04245
#
# Static dielectric constant tensor:
#      x y z
#    x 3.476900 0.000000 0.000000 
#    y 0.000000 3.261900 0.000000 
#    z 0.000000 0.000000 4.941930 
# 
# 
# High freq. dielectric constant tensor:
#      x y z
#    x 1.751210 0.000000 0.000000 
#    y 0.000000 1.750990 0.000000 
#    z 0.000000 0.000000 1.812500 
# 
# From -- ./inp_files/1199.got.cif
#   From: 2010.03.12/outbox.cif.g09.slc.cpg/sg28_1_cif.got.tgz:1199.got - 2010.04.14 03:39:34.
