data_PCOD8168920
_publ_section_title
;
Structure prediction by ZEFSAII (Michael W. Deem and Ramdas Pophale) SiO2 
 PCOD8168920
Probable space group: P C A 21
;
_chemical_formula_sum "Si O2"
_cell_formula_units_Z 32
_cell_length_a 11.349676
_cell_length_b 5.298566
_cell_length_c 20.987623
_cell_angle_alpha 90.000000
_cell_angle_beta 90.000000
_cell_angle_gamma 90.000000
_cell_volume 1262.132839
_symmetry_space_group_name_H-M "P C A 21"
_symmetry_group_IT_number 29
_symmetry_cell_setting 'orthorhombic'
loop_
_space_group_symop_operation_xyz
x,y,z
-x,-y,1/2+z
1/2-x,y,1/2+z
1/2+x,-y,z
loop_
_atom_site_type_symbol
_atom_site_label
_atom_site_fract_x
_atom_site_fract_y
_atom_site_fract_z
Si Si1 0.794218 0.358577 0.400720
Si Si2 0.554512 0.079450 0.393284
Si Si3 0.609286 0.581486 0.185984
Si Si4 0.062150 0.721850 0.579398
Si Si5 0.337793 0.300983 0.984877
Si Si6 0.111530 0.052928 0.989396
Si Si7 0.440605 0.780162 0.286458
Si Si8 0.236832 0.914819 0.679849
O O1 0.743533 0.619349 0.424779
O O2 0.870725 0.394493 0.336754
O O3 0.677870 0.203477 0.380805
O O4 0.862581 0.220563 0.458379
O O5 0.563368 0.861568 0.449453
O O6 0.511520 0.991638 0.324732
O O7 0.448198 0.229390 0.430942
O O8 0.517751 0.562217 0.127738
O O9 0.534876 0.605315 0.250798
O O10 0.675222 0.317235 0.190420
O O11 0.697397 0.817559 0.177222
O O12 0.112275 0.528848 0.526684
O O13 0.167871 0.868128 0.613868
O O14 0.983577 0.944060 0.547469
O O15 0.235147 0.145098 0.021639
O O16 0.355825 0.924656 0.237524
#
# Coordination Sequence:
#
# PCOD8168920 Si02
#       8
#     4   4   4   4   4   4   4   4
#     4  10  22  42  65 103 141 181 229 287 354 442
#     4  10  22  43  68 104 144 185 228 295 362 434
#     4  11  27  51  73 104 141 195 244 313 363 426
#     4  11  25  44  73 104 139 193 238 304 363 442
#     4  11  24  41  65 106 139 185 232 287 357 445
#     4  10  23  40  64  99 143 178 228 283 358 423
#     4  10  24  44  72 101 137 192 241 302 365 433
#     4  11  27  51  74 105 142 189 254 309 356 433
#
# _framework density 25.353905000000001
#
# number of rings (size 3 to 8) (size 9 to 14) (size 15 to 20)
#    0.000    1.500    1.250    1.500    7.000    6.000 
#    9.000    0.000    0.000    0.000    0.000    0.000 
#    0.000    0.000    0.000    0.000    0.000    0.000 
#
# Total GULP energy -396456.853789 kJ/mol
# GULP energy per Si atom -12389.276681 kJ/mol
# Density = 2.529620 g / cm^3
# Si number density = 25.353905 Si / 1000 Ang^3
#
#
#
# Elastic Constant Matrix: (Units=GPa)
#
#
# Indices 1 2 3 4 5 6 
#
# 1 128.0677 10.1126 37.4596 0.0000 0.0000 0.0000
# 2 10.1126 38.1257 2.9087 0.0000 0.0000 0.0000
# 3 37.4596 2.9087 111.8374 0.0000 0.0000 0.0000
# 4 0.0000 0.0000 0.0000 15.3273 0.0000 0.0000
# 5 0.0000 0.0000 0.0000 0.0000 60.3897 0.0000
# 6 0.0000 0.0000 0.0000 0.0000 0.0000 11.9077
#
#
#
# Elastic Compliance Matrix: (Units=1/GPa)
#
#
# Indices 1 2 3 4 5 6 
#
# 1 0.008824 -0.002119 -0.002900 0.000000 0.000000 0.000000
# 2 -0.002119 0.026790 0.000013 0.000000 0.000000 0.000000
# 3 -0.002900 0.000013 0.009913 0.000000 0.000000 0.000000
# 4 0.000000 0.000000 0.000000 0.065243 0.000000 0.000000
# 5 0.000000 0.000000 0.000000 0.000000 0.016559 0.000000
# 6 0.000000 0.000000 0.000000 0.000000 0.000000 0.083979
#
#
# Mechanical properties :
#
#
# Convention : Reuss Voigt Hill
#
# Bulk Modulus (GPa) = 28.15818 42.11028 35.13423
# Shear Modulus (GPa) = 21.44457 32.69494 27.06975
#
# Velocity S-wave (km/s) = 2.91144 3.59492 3.27108
# Velocity P-wave (km/s) = 4.73625 5.82033 5.30605
#
# Compressibility (1/GPa) = 0.03551366
#
# Stress axis : x y z
#
# Youngs Moduli (GPa) = 113.32596 37.32714 100.88044
#
# Poissons Ratio (x) = 0.07911 0.29260
# Poissons Ratio (y) = 0.24017 -0.00132
# Poissons Ratio (z) = 0.32870 -0.00049
#
# Static dielectric constant tensor:
#      x y z
#    x 5.353900 0.000000 0.000000 
#    y 0.000000 4.392060 0.000000 
#    z 0.000000 0.000000 4.717590 
# 
# 
# High freq. dielectric constant tensor:
#      x y z
#    x 2.059060 0.000000 0.000000 
#    y 0.000000 1.983560 0.000000 
#    z 0.000000 0.000000 2.020300 
# 
# From -- ./inp_files/5536.got.cif
#   From: 2010.03.12/outbox.cif.g09.slc.cpg/sg29_3_cif.got.tgz:5536.got - 2010.04.14 03:43:10.
