data_PCOD8168504
_publ_section_title
;
Structure prediction by ZEFSAII (Michael W. Deem and Ramdas Pophale) SiO2 
 PCOD8168504
Probable space group: P M A 2
;
_chemical_formula_sum "Si O2"
_cell_formula_units_Z 20
_cell_length_a 28.037732
_cell_length_b 5.274628
_cell_length_c 5.155139
_cell_angle_alpha 90.000000
_cell_angle_beta 90.000000
_cell_angle_gamma 90.000000
_cell_volume 762.386322
_symmetry_space_group_name_H-M "P M A 2"
_symmetry_group_IT_number 28
_symmetry_cell_setting 'orthorhombic'
loop_
_space_group_symop_operation_xyz
x,y,z
-x,-y,z
1/2-x,y,z
1/2+x,-y,z
loop_
_atom_site_type_symbol
_atom_site_label
_atom_site_fract_x
_atom_site_fract_y
_atom_site_fract_z
Si Si1 0.000000 0.000000 0.225060
Si Si2 0.250000 0.499803 0.210655
Si Si3 0.827108 0.744037 0.887976
Si Si4 0.396657 0.914692 0.141718
Si Si5 0.750000 0.991390 0.568290
Si Si6 0.500000 0.500000 0.557167
Si Si7 0.897265 0.403792 0.664504
O O1 0.997597 0.749432 0.390526
O O2 0.049098 0.996774 0.062445
O O3 0.250000 0.754717 0.389053
O O4 0.250000 0.254872 0.390459
O O5 0.204468 0.479877 0.019096
O O6 0.860317 0.638544 0.650233
O O7 0.795878 0.971105 0.758521
O O8 0.860891 0.847646 0.121786
O O9 0.393799 0.783150 0.421024
O O10 0.378598 0.727113 0.922936
O O11 0.548633 0.497531 0.722238
#
# Coordination Sequence:
#
# PCOD8168504 Si02
#       7
#     2   2   4   4   2   2   4
#     4  10  26  50  76 118 168 218 268 334 400 486
#     4  11  30  55  85 116 164 214 280 354 434 502
#     4  11  30  50  84 120 164 212 284 347 422 500
#     4  11  29  48  82 119 168 217 278 334 412 494
#     4  11  30  55  85 116 164 214 280 354 434 502
#     4  10  26  50  76 118 168 218 268 334 400 486
#     4  11  29  48  82 119 168 217 278 334 412 494
#
# _framework density 26.233419000000001
#
# number of rings (size 3 to 8) (size 9 to 14) (size 15 to 20)
#    0.000    1.200    0.000    0.000   25.200    3.200 
#    0.000    3.000    0.000    0.000    0.000    0.000 
#    0.000    0.000    0.000    0.000    0.000    0.000 
#
# Total GULP energy -247850.719417 kJ/mol
# GULP energy per Si atom -12392.535971 kJ/mol
# Density = 2.617371 g / cm^3
# Si number density = 26.233419 Si / 1000 Ang^3
#
#
#
# Elastic Constant Matrix: (Units=GPa)
#
#
# Indices 1 2 3 4 5 6 
#
# 1 229.4033 63.6243 65.8767 0.0000 0.0000 0.0000
# 2 63.6243 153.2211 54.4183 0.0000 0.0000 0.0000
# 3 65.8767 54.4183 86.7471 0.0000 0.0000 0.0000
# 4 0.0000 0.0000 0.0000 50.7533 0.0000 0.0000
# 5 0.0000 0.0000 0.0000 0.0000 80.7796 0.0000
# 6 0.0000 0.0000 0.0000 0.0000 0.0000 25.1818
#
#
#
# Elastic Compliance Matrix: (Units=1/GPa)
#
#
# Indices 1 2 3 4 5 6 
#
# 1 0.005708 -0.001069 -0.003664 0.000000 0.000000 0.000000
# 2 -0.001069 0.008598 -0.004582 0.000000 0.000000 0.000000
# 3 -0.003664 -0.004582 0.017185 0.000000 0.000000 0.000000
# 4 0.000000 0.000000 0.000000 0.019703 0.000000 0.000000
# 5 0.000000 0.000000 0.000000 0.000000 0.012379 0.000000
# 6 0.000000 0.000000 0.000000 0.000000 0.000000 0.039711
#
#
# Mechanical properties :
#
#
# Convention : Reuss Voigt Hill
#
# Bulk Modulus (GPa) = 77.75684 93.02334 85.39009
# Shear Modulus (GPa) = 39.61968 50.37307 44.99638
#
# Velocity S-wave (km/s) = 3.89044 4.38675 4.14603
# Velocity P-wave (km/s) = 7.06296 7.82272 7.45253
#
# Compressibility (1/GPa) = 0.01286060
#
# Stress axis : x y z
#
# Youngs Moduli (GPa) = 175.20035 116.31135 58.19169
#
# Poissons Ratio (x) = 0.12431 0.21322
# Poissons Ratio (y) = 0.18725 0.26662
# Poissons Ratio (z) = 0.64195 0.53292
#
# Static dielectric constant tensor:
#      x y z
#    x 5.642030 0.000000 0.000000 
#    y 0.000000 4.417090 0.000000 
#    z 0.000000 0.000000 4.671740 
# 
# 
# High freq. dielectric constant tensor:
#      x y z
#    x 2.084210 0.000000 0.000000 
#    y 0.000000 2.054140 0.000000 
#    z 0.000000 0.000000 2.037710 
# 
# From -- ./inp_files/1713.got.cif
#   From: 2010.03.12/outbox.cif.g09.slc.cpg/sg28_1_cif.got.tgz:1713.got - 2010.04.14 03:39:34.
