data_PCOD8168586
_publ_section_title
;
Structure prediction by ZEFSAII (Michael W. Deem and Ramdas Pophale) SiO2 
 PCOD8168586
Probable space group: P C A 21
;
_chemical_formula_sum "Si O2"
_cell_formula_units_Z 28
_cell_length_a 9.494246
_cell_length_b 8.392409
_cell_length_c 18.223924
_cell_angle_alpha 90.000000
_cell_angle_beta 90.000000
_cell_angle_gamma 90.000000
_cell_volume 1452.074894
_symmetry_space_group_name_H-M "P C A 21"
_symmetry_group_IT_number 29
_symmetry_cell_setting 'orthorhombic'
loop_
_space_group_symop_operation_xyz
x,y,z
-x,-y,1/2+z
1/2-x,y,1/2+z
1/2+x,-y,z
loop_
_atom_site_type_symbol
_atom_site_label
_atom_site_fract_x
_atom_site_fract_y
_atom_site_fract_z
Si Si1 0.301123 0.190207 0.001120
Si Si2 0.603218 0.082491 0.028765
Si Si3 0.751580 0.608144 0.866500
Si Si4 0.454730 0.631194 0.810048
Si Si5 0.201682 0.689059 0.445920
Si Si6 0.883360 0.493112 0.080711
Si Si7 0.364913 0.664560 0.650085
O O1 0.438580 0.076549 0.008069
O O2 0.315606 0.342958 0.052517
O O3 0.164338 0.095788 0.030707
O O4 0.285135 0.236231 0.915143
O O5 0.625610 0.168965 0.106732
O O6 0.688825 0.174255 0.965282
O O7 0.623822 0.635920 0.810008
O O8 0.890265 0.548361 0.821175
O O9 0.705019 0.465022 0.921761
O O10 0.398566 0.741398 0.877781
O O11 0.402507 0.704088 0.733643
O O12 0.103641 0.634279 0.514312
O O13 0.789557 0.412799 0.144554
O O14 0.034594 0.530626 0.114419
#
# Coordination Sequence:
#
# PCOD8168586 Si02
#       7
#     4   4   4   4   4   4   4
#     4  10  21  34  57  80 111 139 195 222 270 319
#     4  10  21  36  56  80 107 146 184 230 265 336
#     4   9  19  32  56  82 108 138 183 231 271 321
#     4  10  19  32  59  80 112 141 178 229 283 325
#     4   8  19  32  57  79 106 133 191 225 273 311
#     4   9  19  33  55  81 105 143 181 234 262 330
#     4  10  20  35  54  82 113 140 182 225 284 328
#
# _framework density 19.282751000000001
#
# number of rings (size 3 to 8) (size 9 to 14) (size 15 to 20)
#    0.857    1.714    0.000    1.714    8.000    1.143 
#    0.000    0.000    9.429    0.000    0.000    0.000 
#    0.000    0.000    0.000    0.000    0.000    0.000 
#
# Total GULP energy -347010.164695 kJ/mol
# GULP energy per Si atom -12393.220168 kJ/mol
# Density = 1.923886 g / cm^3
# Si number density = 19.282751 Si / 1000 Ang^3
#
#
#
# Elastic Constant Matrix: (Units=GPa)
#
#
# Indices 1 2 3 4 5 6 
#
# 1 68.1579 17.8085 21.6442 0.0000 0.0000 0.0000
# 2 17.8085 40.7852 14.9994 0.0000 0.0000 0.0000
# 3 21.6442 14.9994 94.3334 0.0000 0.0000 0.0000
# 4 0.0000 0.0000 0.0000 18.3715 0.0000 0.0000
# 5 0.0000 0.0000 0.0000 0.0000 28.5311 0.0000
# 6 0.0000 0.0000 0.0000 0.0000 0.0000 27.9076
#
#
#
# Elastic Compliance Matrix: (Units=1/GPa)
#
#
# Indices 1 2 3 4 5 6 
#
# 1 0.017296 -0.006471 -0.002940 0.000000 0.000000 0.000000
# 2 -0.006471 0.028463 -0.003041 0.000000 0.000000 0.000000
# 3 -0.002940 -0.003041 0.011759 0.000000 0.000000 0.000000
# 4 0.000000 0.000000 0.000000 0.054432 0.000000 0.000000
# 5 0.000000 0.000000 0.000000 0.000000 0.035049 0.000000
# 6 0.000000 0.000000 0.000000 0.000000 0.000000 0.035833
#
#
# Mechanical properties :
#
#
# Convention : Reuss Voigt Hill
#
# Bulk Modulus (GPa) = 30.66149 34.68674 32.67412
# Shear Modulus (GPa) = 22.87220 24.88366 23.87793
#
# Velocity S-wave (km/s) = 3.44779 3.59620 3.52277
# Velocity P-wave (km/s) = 5.63783 5.93894 5.79035
#
# Compressibility (1/GPa) = 0.03261420
#
# Stress axis : x y z
#
# Youngs Moduli (GPa) = 57.81654 35.13384 85.04358
#
# Poissons Ratio (x) = 0.22736 0.24999
# Poissons Ratio (y) = 0.37414 0.25861
# Poissons Ratio (z) = 0.16995 0.10684
#
# Static dielectric constant tensor:
#      x y z
#    x 3.489050 0.000000 0.000000 
#    y 0.000000 3.162780 0.000000 
#    z 0.000000 0.000000 3.356850 
# 
# 
# High freq. dielectric constant tensor:
#      x y z
#    x 1.752840 0.000000 0.000000 
#    y 0.000000 1.716610 0.000000 
#    z 0.000000 0.000000 1.735910 
# 
# From -- ./inp_files/4998.got.cif
#   From: 2010.03.12/outbox.cif.g09.slc.cpg/sg29_3_cif.got.tgz:4998.got - 2010.04.14 03:43:10.
