data_PCOD8168869
_publ_section_title
;
Structure prediction by ZEFSAII (Michael W. Deem and Ramdas Pophale) SiO2 
 PCOD8168869
Probable space group: P C A 21
;
_chemical_formula_sum "Si O2"
_cell_formula_units_Z 28
_cell_length_a 23.696279
_cell_length_b 6.227030
_cell_length_c 8.827061
_cell_angle_alpha 90.000000
_cell_angle_beta 90.000000
_cell_angle_gamma 90.000000
_cell_volume 1302.498526
_symmetry_space_group_name_H-M "P C A 21"
_symmetry_group_IT_number 29
_symmetry_cell_setting 'orthorhombic'
loop_
_space_group_symop_operation_xyz
x,y,z
-x,-y,1/2+z
1/2-x,y,1/2+z
1/2+x,-y,z
loop_
_atom_site_type_symbol
_atom_site_label
_atom_site_fract_x
_atom_site_fract_y
_atom_site_fract_z
Si Si1 0.498914 0.131797 0.810590
Si Si2 0.746543 0.918874 0.125486
Si Si3 0.902106 0.458056 0.322622
Si Si4 0.519455 0.737865 0.989626
Si Si5 0.579831 0.588268 0.497938
Si Si6 0.699553 0.620218 0.377776
Si Si7 0.286105 0.768161 0.374058
O O1 0.556483 0.261336 0.796730
O O2 0.468944 0.141818 0.647303
O O3 0.455764 0.205872 0.942527
O O4 0.516746 0.892207 0.845705
O O5 0.707937 0.758936 0.224844
O O6 0.784737 0.070819 0.231580
O O7 0.785485 0.770385 0.020615
O O8 0.709846 0.082712 0.023337
O O9 0.925842 0.589935 0.465279
O O10 0.840330 0.381294 0.365081
O O11 0.900432 0.607686 0.172442
O O12 0.460428 0.615335 0.980770
O O13 0.634089 0.556756 0.390640
O O14 0.733284 0.395291 0.377048
#
# Coordination Sequence:
#
# PCOD8168869 Si02
#       7
#     4   4   4   4   4   4   4
#     4  10  22  38  60  88 120 156 203 254 302 373
#     4  10  24  40  62  94 122 164 211 249 317 377
#     4  10  22  40  61  85 119 160 201 250 309 364
#     4  10  22  40  62  89 119 159 203 251 312 365
#     4  10  22  40  61  86 118 160 203 250 308 365
#     4  11  23  42  64  90 126 163 205 258 308 370
#     4  11  23  42  64  92 128 164 208 262 312 374
#
# _framework density 21.497145
#
# number of rings (size 3 to 8) (size 9 to 14) (size 15 to 20)
#    0.000    1.714    0.000    3.429    0.000   12.571 
#    0.000    0.000    0.000    0.000    0.000    0.000 
#    0.000    0.000    0.000    0.000    0.000    0.000 
#
# Total GULP energy -347154.808872 kJ/mol
# GULP energy per Si atom -12398.386031 kJ/mol
# Density = 2.144822 g / cm^3
# Si number density = 21.497145 Si / 1000 Ang^3
#
#
#
# Elastic Constant Matrix: (Units=GPa)
#
#
# Indices 1 2 3 4 5 6 
#
# 1 69.6120 -5.8807 23.4251 0.0000 0.0000 0.0000
# 2 -5.8807 74.6188 40.7456 0.0000 0.0000 0.0000
# 3 23.4251 40.7456 118.9829 0.0000 0.0000 0.0000
# 4 0.0000 0.0000 0.0000 41.4393 0.0000 0.0000
# 5 0.0000 0.0000 0.0000 0.0000 23.8630 0.0000
# 6 0.0000 0.0000 0.0000 0.0000 0.0000 7.3359
#
#
#
# Elastic Compliance Matrix: (Units=1/GPa)
#
#
# Indices 1 2 3 4 5 6 
#
# 1 0.016178 0.003707 -0.004455 0.000000 0.000000 0.000000
# 2 0.003707 0.017333 -0.006666 0.000000 0.000000 0.000000
# 3 -0.004455 -0.006666 0.011564 0.000000 0.000000 0.000000
# 4 0.000000 0.000000 0.000000 0.024132 0.000000 0.000000
# 5 0.000000 0.000000 0.000000 0.000000 0.041906 0.000000
# 6 0.000000 0.000000 0.000000 0.000000 0.000000 0.136315
#
#
# Mechanical properties :
#
#
# Convention : Reuss Voigt Hill
#
# Bulk Modulus (GPa) = 33.05852 42.19929 37.62890
# Shear Modulus (GPa) = 18.35960 28.18923 23.27442
#
# Velocity S-wave (km/s) = 2.92558 3.62512 3.29397
# Velocity P-wave (km/s) = 5.17914 6.09875 5.65766
#
# Compressibility (1/GPa) = 0.03024939
#
# Stress axis : x y z
#
# Youngs Moduli (GPa) = 61.81403 57.69195 86.47335
#
# Poissons Ratio (x) = -0.21389 0.38520
# Poissons Ratio (y) = -0.22917 0.57641
# Poissons Ratio (z) = 0.27536 0.38456
#
# Static dielectric constant tensor:
#      x y z
#    x 3.641180 0.000000 0.000000 
#    y 0.000000 3.923960 0.000000 
#    z 0.000000 0.000000 4.218160 
# 
# 
# High freq. dielectric constant tensor:
#      x y z
#    x 1.833130 0.000000 0.000000 
#    y 0.000000 1.850030 0.000000 
#    z 0.000000 0.000000 1.857680 
# 
# From -- ./inp_files/2411.got.cif
#   From: 2010.03.12/outbox.cif.g09.slc.cpg/sg29_2_cif.got.tgz:2411.got - 2010.04.14 03:43:10.
