data_PCOD8168935
_publ_section_title
;
Structure prediction by ZEFSAII (Michael W. Deem and Ramdas Pophale) SiO2 
 PCOD8168935
Probable space group: P C A 21
;
_chemical_formula_sum "Si O2"
_cell_formula_units_Z 28
_cell_length_a 11.394177
_cell_length_b 12.183714
_cell_length_c 8.971091
_cell_angle_alpha 90.000000
_cell_angle_beta 90.000000
_cell_angle_gamma 90.000000
_cell_volume 1245.397299
_symmetry_space_group_name_H-M "P C A 21"
_symmetry_group_IT_number 29
_symmetry_cell_setting 'orthorhombic'
loop_
_space_group_symop_operation_xyz
x,y,z
-x,-y,1/2+z
1/2-x,y,1/2+z
1/2+x,-y,z
loop_
_atom_site_type_symbol
_atom_site_label
_atom_site_fract_x
_atom_site_fract_y
_atom_site_fract_z
Si Si1 0.837106 0.000093 0.810530
Si Si2 0.591949 0.536298 0.263056
Si Si3 0.413445 0.350942 0.250638
Si Si4 0.917400 0.181341 0.622592
Si Si5 0.968369 0.788905 0.804419
Si Si6 0.256785 0.415007 0.502883
Si Si7 0.168556 0.885294 0.623578
O O1 0.930908 0.060536 0.698327
O O2 0.704997 0.026726 0.753205
O O3 0.856132 0.046744 0.974926
O O4 0.856423 0.869856 0.799958
O O5 0.469714 0.472711 0.266078
O O6 0.573500 0.665892 0.283320
O O7 0.679704 0.502944 0.398643
O O8 0.657198 0.512361 0.106338
O O9 0.520609 0.266536 0.236134
O O10 0.335105 0.333254 0.399071
O O11 0.330156 0.342438 0.105553
O O12 0.970215 0.189825 0.460608
O O13 0.776729 0.202327 0.607077
O O14 0.055069 0.816764 0.669022
#
# Coordination Sequence:
#
# PCOD8168935 Si02
#       7
#     4   4   4   4   4   4   4
#     4  10  23  42  65  98 132 171 225 280 334 402
#     4  11  25  43  67  99 133 176 222 280 336 402
#     4  11  23  47  67  97 138 172 226 281 331 411
#     4  10  22  45  66  96 134 172 225 278 327 408
#     4  12  23  44  67  97 137 174 226 278 341 411
#     4  10  24  44  64 100 130 176 223 267 351 385
#     4  10  22  43  64 103 126 183 227 270 342 393
#
# _framework density 22.482785
#
# number of rings (size 3 to 8) (size 9 to 14) (size 15 to 20)
#    0.857    0.571    2.857    1.714    2.000    3.429 
#    7.714    0.000    0.000    0.000    0.000    0.000 
#    0.000    0.000    0.000    0.000    0.000    0.000 
#
# Total GULP energy -347011.957103 kJ/mol
# GULP energy per Si atom -12393.284182 kJ/mol
# Density = 2.243161 g / cm^3
# Si number density = 22.482785 Si / 1000 Ang^3
#
#
#
# Elastic Constant Matrix: (Units=GPa)
#
#
# Indices 1 2 3 4 5 6 
#
# 1 90.2839 33.6117 28.6912 0.0000 0.0000 0.0000
# 2 33.6117 100.3471 25.3044 0.0000 0.0000 0.0000
# 3 28.6912 25.3044 132.1398 0.0000 0.0000 0.0000
# 4 0.0000 0.0000 0.0000 10.3394 0.0000 0.0000
# 5 0.0000 0.0000 0.0000 0.0000 37.1925 0.0000
# 6 0.0000 0.0000 0.0000 0.0000 0.0000 26.4031
#
#
#
# Elastic Compliance Matrix: (Units=1/GPa)
#
#
# Indices 1 2 3 4 5 6 
#
# 1 0.013197 -0.003885 -0.002121 0.000000 0.000000 0.000000
# 2 -0.003885 0.011615 -0.001381 0.000000 0.000000 0.000000
# 3 -0.002121 -0.001381 0.008293 0.000000 0.000000 0.000000
# 4 0.000000 0.000000 0.000000 0.096718 0.000000 0.000000
# 5 0.000000 0.000000 0.000000 0.000000 0.026887 0.000000
# 6 0.000000 0.000000 0.000000 0.000000 0.000000 0.037874
#
#
# Mechanical properties :
#
#
# Convention : Reuss Voigt Hill
#
# Bulk Modulus (GPa) = 54.55591 55.33171 54.94381
# Shear Modulus (GPa) = 23.20528 30.46455 26.83491
#
# Velocity S-wave (km/s) = 3.21617 3.68505 3.45856
# Velocity P-wave (km/s) = 6.17333 6.53990 6.35925
#
# Compressibility (1/GPa) = 0.01832982
#
# Stress axis : x y z
#
# Youngs Moduli (GPa) = 75.77594 86.09571 120.58749
#
# Poissons Ratio (x) = 0.33451 0.25581
# Poissons Ratio (y) = 0.29442 0.16648
# Poissons Ratio (z) = 0.16075 0.11886
#
# Static dielectric constant tensor:
#      x y z
#    x 4.154020 0.000000 0.000000 
#    y 0.000000 3.618440 0.000000 
#    z 0.000000 0.000000 4.267210 
# 
# 
# High freq. dielectric constant tensor:
#      x y z
#    x 1.893280 0.000000 0.000000 
#    y 0.000000 1.845600 0.000000 
#    z 0.000000 0.000000 1.906290 
# 
# From -- ./inp_files/1474.got.cif
#   From: 2010.03.12/outbox.cif.g09.slc.cpg/sg29_1_cif.got.tgz:1474.got - 2010.04.14 03:43:10.
