data_PCOD8168039
_publ_section_title
;
Structure prediction by ZEFSAII (Michael W. Deem and Ramdas Pophale) SiO2 
 PCOD8168039
Probable space group: P M A 2
;
_chemical_formula_sum "Si O2"
_cell_formula_units_Z 24
_cell_length_a 8.528039
_cell_length_b 16.485022
_cell_length_c 9.170855
_cell_angle_alpha 90.000000
_cell_angle_beta 90.000000
_cell_angle_gamma 90.000000
_cell_volume 1289.283830
_symmetry_space_group_name_H-M "P M A 2"
_symmetry_group_IT_number 28
_symmetry_cell_setting 'orthorhombic'
loop_
_space_group_symop_operation_xyz
x,y,z
-x,-y,z
1/2-x,y,z
1/2+x,-y,z
loop_
_atom_site_type_symbol
_atom_site_label
_atom_site_fract_x
_atom_site_fract_y
_atom_site_fract_z
Si Si1 0.434807 0.830739 0.357910
Si Si2 0.933295 0.238043 0.927693
Si Si3 0.564939 0.914593 0.101690
Si Si4 0.433172 0.319493 0.183883
Si Si5 0.431546 0.414561 0.453646
Si Si6 0.065788 0.254589 0.611451
O O1 0.250000 0.840560 0.341629
O O2 0.517163 0.905433 0.272845
O O3 0.498396 0.750307 0.283863
O O4 0.484508 0.821722 0.527394
O O5 0.750000 0.237565 0.894030
O O6 0.029142 0.246562 0.780288
O O7 0.982973 0.155838 0.008391
O O8 0.976801 0.316273 0.029064
O O9 0.750000 0.909924 0.080755
O O10 0.500000 0.000000 0.043257
O O11 0.250000 0.304281 0.155105
O O12 0.462655 0.400865 0.279199
O O13 0.500000 0.500000 0.504186
O O14 0.250000 0.418277 0.486777
O O15 0.501528 0.340798 0.551019
O O16 0.250000 0.248661 0.582943
#
# Coordination Sequence:
#
# PCOD8168039 Si02
#       6
#     4   4   4   4   4   4
#     4  10  18  31  52  78 102 131 171 213 251 301
#     4  11  21  34  54  81 106 137 177 218 261 313
#     4  11  21  36  56  79 107 140 174 216 262 309
#     4   9  17  32  51  73 100 135 171 208 253 307
#     4   9  19  33  53  77 103 134 174 218 265 312
#     4  10  20  36  54  76 106 143 177 213 262 318
#
# _framework density 18.614985000000001
#
# number of rings (size 3 to 8) (size 9 to 14) (size 15 to 20)
#    0.000    2.000    0.000    8.500    0.000    4.000 
#    0.000    1.667    0.000    0.000    0.000    0.000 
#    0.000    0.000    0.000    0.000    0.000    0.000 
#
# Total GULP energy -297437.270115 kJ/mol
# GULP energy per Si atom -12393.219588 kJ/mol
# Density = 1.857262 g / cm^3
# Si number density = 18.614985 Si / 1000 Ang^3
#
#
#
# Elastic Constant Matrix: (Units=GPa)
#
#
# Indices 1 2 3 4 5 6 
#
# 1 75.6950 13.3102 -2.6325 0.0000 0.0000 0.0000
# 2 13.3102 73.5426 21.8722 0.0000 0.0000 0.0000
# 3 -2.6325 21.8722 93.8364 0.0000 0.0000 0.0000
# 4 0.0000 0.0000 0.0000 18.6799 0.0000 0.0000
# 5 0.0000 0.0000 0.0000 0.0000 12.9973 0.0000
# 6 0.0000 0.0000 0.0000 0.0000 0.0000 26.7280
#
#
#
# Elastic Compliance Matrix: (Units=1/GPa)
#
#
# Indices 1 2 3 4 5 6 
#
# 1 0.013738 -0.002795 0.001037 0.000000 0.000000 0.000000
# 2 -0.002795 0.015179 -0.003616 0.000000 0.000000 0.000000
# 3 0.001037 -0.003616 0.011529 0.000000 0.000000 0.000000
# 4 0.000000 0.000000 0.000000 0.053534 0.000000 0.000000
# 5 0.000000 0.000000 0.000000 0.000000 0.076939 0.000000
# 6 0.000000 0.000000 0.000000 0.000000 0.000000 0.037414
#
#
# Mechanical properties :
#
#
# Convention : Reuss Voigt Hill
#
# Bulk Modulus (GPa) = 33.67297 34.24153 33.95725
# Shear Modulus (GPa) = 21.83589 25.71597 23.77593
#
# Velocity S-wave (km/s) = 3.42866 3.72084 3.57774
# Velocity P-wave (km/s) = 5.81401 6.07405 5.94545
#
# Compressibility (1/GPa) = 0.02969741
#
# Stress axis : x y z
#
# Youngs Moduli (GPa) = 72.78865 65.88067 86.73863
#
# Poissons Ratio (x) = 0.18413 -0.08994
# Poissons Ratio (y) = 0.20343 0.31369
# Poissons Ratio (z) = -0.07547 0.23825
#
# Static dielectric constant tensor:
#      x y z
#    x 3.462590 0.000000 0.000000 
#    y 0.000000 3.583790 0.000000 
#    z 0.000000 0.000000 3.707450 
# 
# 
# High freq. dielectric constant tensor:
#      x y z
#    x 1.734950 0.000000 0.000000 
#    y 0.000000 1.696550 0.000000 
#    z 0.000000 0.000000 1.718360 
# 
# From -- ./inp_files/2481.got.cif
#   From: 2010.03.12/outbox.cif.g09.slc.cpg/sg28_2_cif.got.tgz:2481.got - 2010.04.14 03:39:34.
