data_PCOD8168207
_publ_section_title
;
Structure prediction by ZEFSAII (Michael W. Deem and Ramdas Pophale) SiO2 
 PCOD8168207
Probable space group: P M A 2
;
_chemical_formula_sum "Si O2"
_cell_formula_units_Z 28
_cell_length_a 8.904958
_cell_length_b 9.382470
_cell_length_c 18.017993
_cell_angle_alpha 90.000000
_cell_angle_beta 90.000000
_cell_angle_gamma 90.000000
_cell_volume 1505.412347
_symmetry_space_group_name_H-M "P M A 2"
_symmetry_group_IT_number 28
_symmetry_cell_setting 'orthorhombic'
loop_
_space_group_symop_operation_xyz
x,y,z
-x,-y,z
1/2-x,y,z
1/2+x,-y,z
loop_
_atom_site_type_symbol
_atom_site_label
_atom_site_fract_x
_atom_site_fract_y
_atom_site_fract_z
Si Si1 0.076944 0.850781 0.477180
Si Si2 0.926333 0.152439 0.636255
Si Si3 0.425503 0.347423 0.191860
Si Si4 0.425529 0.151602 0.050429
Si Si5 0.427761 0.843869 0.315485
Si Si6 0.426857 0.651075 0.932422
Si Si7 0.074534 0.646493 0.763319
O O1 0.250000 0.886547 0.475554
O O2 0.037716 0.770975 0.555452
O O3 0.035009 0.778597 0.398125
O O4 0.000000 0.000000 0.480476
O O5 0.750000 0.133311 0.646943
O O6 0.993383 0.241760 0.704614
O O7 0.000000 0.000000 0.639967
O O8 0.500000 0.500000 0.178558
O O9 0.250000 0.367674 0.207618
O O10 0.455773 0.252993 0.119807
O O11 0.500950 0.270124 0.261029
O O12 0.250000 0.130096 0.034881
O O13 0.500000 0.000000 0.067369
O O14 0.502079 0.221520 0.978996
O O15 0.250000 0.856897 0.300801
O O16 0.500000 0.000000 0.303937
O O17 0.500000 0.500000 0.954508
O O18 0.250000 0.639816 0.947764
O O19 0.463846 0.691435 0.847392
O O20 0.250000 0.627886 0.752310
O O21 0.000000 0.500000 0.741961
#
# Coordination Sequence:
#
# PCOD8168207 Si02
#       7
#     4   4   4   4   4   4   4
#     4   8  15  28  48  73 102 136 172 213 259 307
#     4   9  17  31  50  74 104 136 174 217 260 306
#     4  11  24  40  58  80 107 140 176 214 260 313
#     4  11  24  40  59  83 109 138 173 214 260 310
#     4  10  19  33  55  81 108 139 177 220 265 312
#     4  10  20  36  57  80 107 140 178 218 263 314
#     4   9  19  34  52  75 104 139 176 214 257 308
#
# _framework density 18.599554000000001
#
# number of rings (size 3 to 8) (size 9 to 14) (size 15 to 20)
#    0.000    2.286    0.000    2.571    0.000    6.857 
#    0.000    2.143    0.000    1.714    0.000    0.000 
#    0.000    0.000    0.000    0.000    0.000    0.000 
#
# Total GULP energy -346984.042629 kJ/mol
# GULP energy per Si atom -12392.287237 kJ/mol
# Density = 1.855722 g / cm^3
# Si number density = 18.599554 Si / 1000 Ang^3
#
#
#
# Elastic Constant Matrix: (Units=GPa)
#
#
# Indices 1 2 3 4 5 6 
#
# 1 79.1930 58.8094 61.4509 0.0000 0.0000 0.0000
# 2 58.8094 113.0295 75.6587 0.0000 0.0000 0.0000
# 3 61.4509 75.6587 142.2450 0.0000 0.0000 0.0000
# 4 0.0000 0.0000 0.0000 15.9426 0.0000 0.0000
# 5 0.0000 0.0000 0.0000 0.0000 11.9047 0.0000
# 6 0.0000 0.0000 0.0000 0.0000 0.0000 32.1284
#
#
#
# Elastic Compliance Matrix: (Units=1/GPa)
#
#
# Indices 1 2 3 4 5 6 
#
# 1 0.023111 -0.008295 -0.005572 0.000000 0.000000 0.000000
# 2 -0.008295 0.016716 -0.005308 0.000000 0.000000 0.000000
# 3 -0.005572 -0.005308 0.012260 0.000000 0.000000 0.000000
# 4 0.000000 0.000000 0.000000 0.062725 0.000000 0.000000
# 5 0.000000 0.000000 0.000000 0.000000 0.084001 0.000000
# 6 0.000000 0.000000 0.000000 0.000000 0.000000 0.031125
#
#
# Mechanical properties :
#
#
# Convention : Reuss Voigt Hill
#
# Bulk Modulus (GPa) = 72.79049 80.70061 76.74555
# Shear Modulus (GPa) = 18.32399 21.23171 19.77785
#
# Velocity S-wave (km/s) = 3.14217 3.38230 3.26444
# Velocity P-wave (km/s) = 7.23774 7.66394 7.45389
#
# Compressibility (1/GPa) = 0.01373806
#
# Stress axis : x y z
#
# Youngs Moduli (GPa) = 43.26943 59.82382 81.56365
#
# Poissons Ratio (x) = 0.49623 0.45449
# Poissons Ratio (y) = 0.35891 0.43290
# Poissons Ratio (z) = 0.24111 0.31752
#
# Static dielectric constant tensor:
#      x y z
#    x 3.544690 0.000000 0.000000 
#    y 0.000000 3.162320 0.000000 
#    z 0.000000 0.000000 4.120240 
# 
# 
# High freq. dielectric constant tensor:
#      x y z
#    x 1.730620 0.000000 0.000000 
#    y 0.000000 1.696740 0.000000 
#    z 0.000000 0.000000 1.747500 
# 
# From -- ./inp_files/6720.got.cif
#   From: 2010.03.12/outbox.cif.g09.slc.cpg/sg28_4_cif.got.tgz:6720.got - 2010.04.14 03:39:34.
