data_PCOD8168894
_publ_section_title
;
Structure prediction by ZEFSAII (Michael W. Deem and Ramdas Pophale) SiO2 
 PCOD8168894
Probable space group: P C A 21
;
_chemical_formula_sum "Si O2"
_cell_formula_units_Z 32
_cell_length_a 13.489445
_cell_length_b 8.287794
_cell_length_c 13.568581
_cell_angle_alpha 90.000000
_cell_angle_beta 90.000000
_cell_angle_gamma 90.000000
_cell_volume 1516.936709
_symmetry_space_group_name_H-M "P C A 21"
_symmetry_group_IT_number 29
_symmetry_cell_setting 'orthorhombic'
loop_
_space_group_symop_operation_xyz
x,y,z
-x,-y,1/2+z
1/2-x,y,1/2+z
1/2+x,-y,z
loop_
_atom_site_type_symbol
_atom_site_label
_atom_site_fract_x
_atom_site_fract_y
_atom_site_fract_z
Si Si1 0.166403 0.498913 0.337720
Si Si2 0.613233 0.952872 0.774823
Si Si3 0.893983 0.009386 0.743457
Si Si4 0.089851 0.332574 0.158607
Si Si5 0.232459 0.156270 0.403727
Si Si6 0.603310 0.427145 0.549532
Si Si7 0.199686 0.261703 0.606600
Si Si8 0.774148 0.246748 0.207107
O O1 0.081748 0.437928 0.259893
O O2 0.226679 0.344760 0.376182
O O3 0.115701 0.589077 0.431071
O O4 0.246158 0.615679 0.285956
O O5 0.655990 0.907859 0.882517
O O6 0.680200 0.841647 0.703445
O O7 0.498592 0.906433 0.768401
O O8 0.635051 0.140873 0.751638
O O9 0.916995 0.859037 0.673878
O O10 0.845648 0.953920 0.845592
O O11 0.823716 0.137702 0.687757
O O12 0.199613 0.366808 0.116194
O O13 0.007672 0.378837 0.079200
O O14 0.209125 0.132486 0.518395
O O15 0.612327 0.613093 0.583363
O O16 0.686333 0.319373 0.604479
#
# Coordination Sequence:
#
# PCOD8168894 Si02
#       8
#     4   4   4   4   4   4   4   4
#     4  10  22  43  64  94 127 159 223 270 311 396
#     4  11  21  40  64  90 131 173 199 266 325 371
#     4  10  22  40  63  91 131 168 207 263 320 383
#     4  11  21  45  64  91 132 169 213 272 317 386
#     4   9  21  43  61  90 125 168 217 263 315 381
#     4  11  24  41  68  95 124 173 217 271 323 382
#     4  11  22  42  67  89 128 175 211 260 324 389
#     4  11  21  40  63  92 130 163 207 271 321 380
#
# _framework density 21.095147000000001
#
# number of rings (size 3 to 8) (size 9 to 14) (size 15 to 20)
#    0.000    1.500    6.250    0.000    1.750    3.000 
#    6.750    0.000    2.750    0.000    0.000    0.000 
#    0.000    0.000    0.000    0.000    0.000    0.000 
#
# Total GULP energy -396744.334883 kJ/mol
# GULP energy per Si atom -12398.260465 kJ/mol
# Density = 2.104713 g / cm^3
# Si number density = 21.095147 Si / 1000 Ang^3
#
#
#
# Elastic Constant Matrix: (Units=GPa)
#
#
# Indices 1 2 3 4 5 6 
#
# 1 118.9751 21.6256 30.3090 0.0000 0.0000 0.0000
# 2 21.6256 68.2761 25.3625 0.0000 0.0000 0.0000
# 3 30.3090 25.3625 98.6025 0.0000 0.0000 0.0000
# 4 0.0000 0.0000 0.0000 29.3735 0.0000 0.0000
# 5 0.0000 0.0000 0.0000 0.0000 25.1208 0.0000
# 6 0.0000 0.0000 0.0000 0.0000 0.0000 27.3328
#
#
#
# Elastic Compliance Matrix: (Units=1/GPa)
#
#
# Indices 1 2 3 4 5 6 
#
# 1 0.009384 -0.002102 -0.002344 0.000000 0.000000 0.000000
# 2 -0.002102 0.016664 -0.003640 0.000000 0.000000 0.000000
# 3 -0.002344 -0.003640 0.011799 0.000000 0.000000 0.000000
# 4 0.000000 0.000000 0.000000 0.034044 0.000000 0.000000
# 5 0.000000 0.000000 0.000000 0.000000 0.039808 0.000000
# 6 0.000000 0.000000 0.000000 0.000000 0.000000 0.036586
#
#
# Mechanical properties :
#
#
# Convention : Reuss Voigt Hill
#
# Bulk Modulus (GPa) = 46.13568 48.93868 47.53718
# Shear Modulus (GPa) = 29.12355 30.26920 29.69638
#
# Velocity S-wave (km/s) = 3.71965 3.79210 3.75605
# Velocity P-wave (km/s) = 6.35338 6.51328 6.43383
#
# Compressibility (1/GPa) = 0.02167520
#
# Stress axis : x y z
#
# Youngs Moduli (GPa) = 106.56136 60.00828 84.75564
#
# Poissons Ratio (x) = 0.12611 0.19867
# Poissons Ratio (y) = 0.22395 0.30854
# Poissons Ratio (z) = 0.24978 0.21845
#
# Static dielectric constant tensor:
#      x y z
#    x 3.709090 0.000000 0.000000 
#    y 0.000000 3.908910 0.000000 
#    z 0.000000 0.000000 3.850940 
# 
# 
# High freq. dielectric constant tensor:
#      x y z
#    x 1.818120 0.000000 0.000000 
#    y 0.000000 1.832370 0.000000 
#    z 0.000000 0.000000 1.817510 
# 
# From -- ./inp_files/4738.got.cif
#   From: 2010.03.12/outbox.cif.g09.slc.cpg/sg29_3_cif.got.tgz:4738.got - 2010.04.14 03:43:10.
