data_PCOD8168583
_publ_section_title
;
Structure prediction by ZEFSAII (Michael W. Deem and Ramdas Pophale) SiO2 
 PCOD8168583
Probable space group: P C A 21
;
_chemical_formula_sum "Si O2"
_cell_formula_units_Z 32
_cell_length_a 8.659661
_cell_length_b 9.109292
_cell_length_c 20.982493
_cell_angle_alpha 90.000000
_cell_angle_beta 90.000000
_cell_angle_gamma 90.000000
_cell_volume 1655.169983
_symmetry_space_group_name_H-M "P C A 21"
_symmetry_group_IT_number 29
_symmetry_cell_setting 'orthorhombic'
loop_
_space_group_symop_operation_xyz
x,y,z
-x,-y,1/2+z
1/2-x,y,1/2+z
1/2+x,-y,z
loop_
_atom_site_type_symbol
_atom_site_label
_atom_site_fract_x
_atom_site_fract_y
_atom_site_fract_z
Si Si1 0.190320 0.306457 0.771010
Si Si2 0.336067 0.616547 0.537338
Si Si3 0.144827 0.116446 0.652200
Si Si4 0.336182 0.619374 0.396891
Si Si5 0.288631 0.807884 0.653064
Si Si6 0.167663 0.622772 0.273357
Si Si7 0.311743 0.307775 0.036846
Si Si8 0.690789 0.690398 0.397076
O O1 0.220447 0.197440 0.712670
O O2 0.296200 0.450992 0.763873
O O3 0.245443 0.218780 0.835753
O O4 0.014592 0.357273 0.774327
O O5 0.287279 0.678633 0.467193
O O6 0.248614 0.712388 0.590403
O O7 0.518508 0.627529 0.546544
O O8 0.302158 0.444449 0.545853
O O9 0.223975 0.183370 0.588779
O O10 0.962521 0.135266 0.650876
O O11 0.173912 0.944266 0.655219
O O12 0.237518 0.690108 0.339239
O O13 0.516113 0.642421 0.383771
O O14 0.306052 0.446997 0.397650
O O15 0.256261 0.710320 0.715080
O O16 0.294139 0.232660 0.966344
#
# Coordination Sequence:
#
# PCOD8168583 Si02
#       8
#     4   4   4   4   4   4   4   4
#     4  10  19  32  52  77 102 128 163 204 245 293
#     4   9  18  33  53  77 101 127 163 204 245 292
#     4  10  22  37  51  71 100 133 169 206 244 290
#     4   9  16  28  49  75 102 128 158 200 246 291
#     4  10  22  37  51  71 100 133 169 206 244 290
#     4  10  19  32  52  77 102 128 163 204 245 293
#     4   9  18  33  53  77 101 127 163 204 245 292
#     4   9  16  28  49  75 102 128 158 200 246 291
#
# _framework density 19.333362000000001
#
# number of rings (size 3 to 8) (size 9 to 14) (size 15 to 20)
#    0.000    2.500    0.000    3.750    0.000    4.000 
#    0.000    1.250    0.000    6.000    0.000    0.000 
#    0.000    0.000    0.000    0.000    0.000    0.000 
#
# Total GULP energy -396598.167223 kJ/mol
# GULP energy per Si atom -12393.692726 kJ/mol
# Density = 1.928936 g / cm^3
# Si number density = 19.333362 Si / 1000 Ang^3
#
#
#
# Elastic Constant Matrix: (Units=GPa)
#
#
# Indices 1 2 3 4 5 6 
#
# 1 26.8810 -1.6619 18.6501 0.0000 0.0000 0.0000
# 2 -1.6619 43.8573 32.0993 0.0000 0.0000 0.0000
# 3 18.6501 32.0993 167.7688 0.0000 0.0000 0.0000
# 4 0.0000 0.0000 0.0000 6.6560 0.0000 0.0000
# 5 0.0000 0.0000 0.0000 0.0000 30.3520 0.0000
# 6 0.0000 0.0000 0.0000 0.0000 0.0000 22.6120
#
#
#
# Elastic Compliance Matrix: (Units=1/GPa)
#
#
# Indices 1 2 3 4 5 6 
#
# 1 0.041524 0.005758 -0.005718 0.000000 0.000000 0.000000
# 2 0.005758 0.027313 -0.005866 0.000000 0.000000 0.000000
# 3 -0.005718 -0.005866 0.007719 0.000000 0.000000 0.000000
# 4 0.000000 0.000000 0.000000 0.150241 0.000000 0.000000
# 5 0.000000 0.000000 0.000000 0.000000 0.032947 0.000000
# 6 0.000000 0.000000 0.000000 0.000000 0.000000 0.044224
#
#
# Mechanical properties :
#
#
# Convention : Reuss Voigt Hill
#
# Bulk Modulus (GPa) = 15.40724 37.40913 26.40818
# Shear Modulus (GPa) = 14.82570 24.55198 19.68884
#
# Velocity S-wave (km/s) = 2.77220 3.56747 3.19468
# Velocity P-wave (km/s) = 4.27005 6.02998 5.22465
#
# Compressibility (1/GPa) = 0.06490456
#
# Stress axis : x y z
#
# Youngs Moduli (GPa) = 24.08245 36.61308 129.55846
#
# Poissons Ratio (x) = -0.21083 0.74079
# Poissons Ratio (y) = -0.13867 0.75997
# Poissons Ratio (z) = 0.13770 0.21477
#
# Static dielectric constant tensor:
#      x y z
#    x 3.401670 0.000000 0.000000 
#    y 0.000000 3.113200 0.000000 
#    z 0.000000 0.000000 4.434340 
# 
# 
# High freq. dielectric constant tensor:
#      x y z
#    x 1.751250 0.000000 0.000000 
#    y 0.000000 1.699560 0.000000 
#    z 0.000000 0.000000 1.785050 
# 
# From -- ./inp_files/5423.got.cif
#   From: 2010.03.12/outbox.cif.g09.slc.cpg/sg29_3_cif.got.tgz:5423.got - 2010.04.14 03:43:10.
