data_PCOD8168651
_publ_section_title
;
Structure prediction by ZEFSAII (Michael W. Deem and Ramdas Pophale) SiO2 
 PCOD8168651
Probable space group: P C A 21
;
_chemical_formula_sum "Si O2"
_cell_formula_units_Z 32
_cell_length_a 9.174900
_cell_length_b 12.166298
_cell_length_c 13.904052
_cell_angle_alpha 90.000000
_cell_angle_beta 90.000000
_cell_angle_gamma 90.000000
_cell_volume 1552.033791
_symmetry_space_group_name_H-M "P C A 21"
_symmetry_group_IT_number 29
_symmetry_cell_setting 'orthorhombic'
loop_
_space_group_symop_operation_xyz
x,y,z
-x,-y,1/2+z
1/2-x,y,1/2+z
1/2+x,-y,z
loop_
_atom_site_type_symbol
_atom_site_label
_atom_site_fract_x
_atom_site_fract_y
_atom_site_fract_z
Si Si1 0.433958 0.773040 0.185990
Si Si2 0.869670 0.929684 0.798478
Si Si3 0.948026 0.844764 0.991799
Si Si4 0.797274 0.707103 0.581597
Si Si5 0.960427 0.362211 0.371382
Si Si6 0.376182 0.856771 0.677979
Si Si7 0.139284 0.257742 0.768723
Si Si8 0.726660 0.564163 0.910256
O O1 0.499563 0.881053 0.235731
O O2 0.533582 0.740717 0.094524
O O3 0.431559 0.675021 0.262958
O O4 0.272255 0.796526 0.147720
O O5 0.922185 0.938257 0.910232
O O6 0.726849 0.852556 0.797491
O O7 0.833307 0.046091 0.751293
O O8 0.030159 0.740447 0.944355
O O9 0.790721 0.807288 0.031753
O O10 0.044002 0.894900 0.079177
O O11 0.726760 0.680966 0.684553
O O12 0.784099 0.594886 0.522373
O O13 0.828305 0.440528 0.400731
O O14 0.108599 0.432043 0.372938
O O15 0.476951 0.771859 0.735951
O O16 0.129537 0.343745 0.855676
#
# Coordination Sequence:
#
# PCOD8168651 Si02
#       8
#     4   4   4   4   4   4   4   4
#     4  10  21  42  59  92 135 156 212 274 318 375
#     4  10  19  44  65  85 129 173 208 263 330 375
#     4   9  20  43  64  91 129 166 212 270 313 389
#     4   9  18  41  65  82 122 175 200 256 327 379
#     4  10  22  41  63  89 131 168 210 273 323 379
#     4  11  23  37  65 100 123 168 215 266 316 390
#     4  10  20  41  64  88 130 165 215 265 319 386
#     4  11  21  41  65  93 123 177 212 259 330 381
#
# _framework density 20.618106000000001
#
# number of rings (size 3 to 8) (size 9 to 14) (size 15 to 20)
#    0.000    2.000    5.000    0.750    1.750    1.000 
#   15.750    6.250    0.000    0.000    0.000    0.000 
#    0.000    0.000    0.000    0.000    0.000    0.000 
#
# Total GULP energy -396768.466794 kJ/mol
# GULP energy per Si atom -12399.014587 kJ/mol
# Density = 2.057118 g / cm^3
# Si number density = 20.618106 Si / 1000 Ang^3
#
#
#
# Elastic Constant Matrix: (Units=GPa)
#
#
# Indices 1 2 3 4 5 6 
#
# 1 107.8296 26.8632 27.4031 0.0000 0.0000 0.0000
# 2 26.8632 74.4047 34.1310 0.0000 0.0000 0.0000
# 3 27.4031 34.1310 94.8707 0.0000 0.0000 0.0000
# 4 0.0000 0.0000 0.0000 22.5297 0.0000 0.0000
# 5 0.0000 0.0000 0.0000 0.0000 20.6895 0.0000
# 6 0.0000 0.0000 0.0000 0.0000 0.0000 24.3319
#
#
#
# Elastic Compliance Matrix: (Units=1/GPa)
#
#
# Indices 1 2 3 4 5 6 
#
# 1 0.010498 -0.002873 -0.001998 0.000000 0.000000 0.000000
# 2 -0.002873 0.016883 -0.005244 0.000000 0.000000 0.000000
# 3 -0.001998 -0.005244 0.013004 0.000000 0.000000 0.000000
# 4 0.000000 0.000000 0.000000 0.044386 0.000000 0.000000
# 5 0.000000 0.000000 0.000000 0.000000 0.048334 0.000000
# 6 0.000000 0.000000 0.000000 0.000000 0.000000 0.041098
#
#
# Mechanical properties :
#
#
# Convention : Reuss Voigt Hill
#
# Bulk Modulus (GPa) = 49.61904 50.43331 50.02617
# Shear Modulus (GPa) = 24.85682 26.09074 25.47378
#
# Velocity S-wave (km/s) = 3.47592 3.56115 3.51879
# Velocity P-wave (km/s) = 6.34250 6.43605 6.38945
#
# Compressibility (1/GPa) = 0.02015355
#
# Stress axis : x y z
#
# Youngs Moduli (GPa) = 95.25995 59.23153 76.89652
#
# Poissons Ratio (x) = 0.17019 0.15368
# Poissons Ratio (y) = 0.27371 0.40324
# Poissons Ratio (z) = 0.19038 0.31060
#
# Static dielectric constant tensor:
#      x y z
#    x 3.708690 0.000000 0.000000 
#    y 0.000000 3.366950 0.000000 
#    z 0.000000 0.000000 3.927560 
# 
# 
# High freq. dielectric constant tensor:
#      x y z
#    x 1.806840 0.000000 0.000000 
#    y 0.000000 1.774960 0.000000 
#    z 0.000000 0.000000 1.813200 
# 
# From -- ./inp_files/4288.got.cif
#   From: 2010.03.12/outbox.cif.g09.slc.cpg/sg29_3_cif.got.tgz:4288.got - 2010.04.14 03:43:10.
