data_PCOD8168801
_publ_section_title
;
Structure prediction by ZEFSAII (Michael W. Deem and Ramdas Pophale) SiO2 
 PCOD8168801
Probable space group: P C A 21
;
_chemical_formula_sum "Si O2"
_cell_formula_units_Z 28
_cell_length_a 9.978033
_cell_length_b 5.349738
_cell_length_c 19.181576
_cell_angle_alpha 90.000000
_cell_angle_beta 90.000000
_cell_angle_gamma 90.000000
_cell_volume 1023.909886
_symmetry_space_group_name_H-M "P C A 21"
_symmetry_group_IT_number 29
_symmetry_cell_setting 'orthorhombic'
loop_
_space_group_symop_operation_xyz
x,y,z
-x,-y,1/2+z
1/2-x,y,1/2+z
1/2+x,-y,z
loop_
_atom_site_type_symbol
_atom_site_label
_atom_site_fract_x
_atom_site_fract_y
_atom_site_fract_z
Si Si1 0.405001 0.522339 0.819690
Si Si2 0.603987 0.286979 0.086446
Si Si3 0.765940 0.193923 0.959080
Si Si4 0.149834 0.293229 0.755199
Si Si5 0.856079 0.698923 0.991632
Si Si6 0.811960 0.782204 0.623464
Si Si7 0.471739 0.981464 0.366474
O O1 0.257355 0.485570 0.788759
O O2 0.509191 0.557210 0.754848
O O3 0.422306 0.775814 0.869139
O O4 0.445665 0.272363 0.859930
O O5 0.741399 0.254872 0.041612
O O6 0.486122 0.369140 0.034792
O O7 0.613940 0.519674 0.140112
O O8 0.589466 0.025027 0.129788
O O9 0.813876 0.477778 0.935497
O O10 0.879661 0.970769 0.953100
O O11 0.628129 0.079682 0.930412
O O12 0.189553 0.197400 0.678300
O O13 0.129739 0.043993 0.802537
O O14 0.733930 0.761396 0.043317
#
# Coordination Sequence:
#
# PCOD8168801 Si02
#       7
#     4   4   4   4   4   4   4
#     4  10  25  42  67  96 134 170 232 271 344 400
#     4  10  22  39  61  94 126 169 218 272 338 398
#     4  10  21  42  61  94 125 167 218 272 333 401
#     4  10  26  43  68 100 135 185 226 290 338 422
#     4  10  21  39  64  94 125 169 214 274 332 402
#     4  10  23  37  63  90 133 163 223 265 343 391
#     4  10  24  42  66  96 136 173 231 276 346 404
#
# _framework density 27.346157000000002
#
# number of rings (size 3 to 8) (size 9 to 14) (size 15 to 20)
#    0.857    1.143    0.000    1.714    6.000    2.286 
#    0.000    0.000    0.000    0.000    0.000    0.000 
#    0.000    0.000    0.000    0.000    0.000    0.000 
#
# Total GULP energy -346932.147244 kJ/mol
# GULP energy per Si atom -12390.433830 kJ/mol
# Density = 2.728392 g / cm^3
# Si number density = 27.346157 Si / 1000 Ang^3
#
#
#
# Elastic Constant Matrix: (Units=GPa)
#
#
# Indices 1 2 3 4 5 6 
#
# 1 85.2524 53.2934 5.0157 0.0000 0.0000 0.0000
# 2 53.2934 237.0836 48.2103 0.0000 0.0000 0.0000
# 3 5.0157 48.2103 74.5566 0.0000 0.0000 0.0000
# 4 0.0000 0.0000 0.0000 30.9617 0.0000 0.0000
# 5 0.0000 0.0000 0.0000 0.0000 42.2839 0.0000
# 6 0.0000 0.0000 0.0000 0.0000 0.0000 46.1616
#
#
#
# Elastic Compliance Matrix: (Units=1/GPa)
#
#
# Indices 1 2 3 4 5 6 
#
# 1 0.013746 -0.003341 0.001236 0.000000 0.000000 0.000000
# 2 -0.003341 0.005669 -0.003441 0.000000 0.000000 0.000000
# 3 0.001236 -0.003441 0.015554 0.000000 0.000000 0.000000
# 4 0.000000 0.000000 0.000000 0.032298 0.000000 0.000000
# 5 0.000000 0.000000 0.000000 0.000000 0.023650 0.000000
# 6 0.000000 0.000000 0.000000 0.000000 0.000000 0.021663
#
#
# Mechanical properties :
#
#
# Convention : Reuss Voigt Hill
#
# Bulk Modulus (GPa) = 41.88208 67.77016 54.82612
# Shear Modulus (GPa) = 37.98509 43.23965 40.61237
#
# Velocity S-wave (km/s) = 3.73103 3.98074 3.85791
# Velocity P-wave (km/s) = 5.82320 6.77971 6.31958
#
# Compressibility (1/GPa) = 0.02387656
#
# Stress axis : x y z
#
# Youngs Moduli (GPa) = 72.74934 176.40924 64.29066
#
# Poissons Ratio (x) = 0.58942 -0.07945
# Poissons Ratio (y) = 0.24307 0.22121
# Poissons Ratio (z) = -0.08990 0.60697
#
# Static dielectric constant tensor:
#      x y z
#    x 4.847350 0.000000 0.000000 
#    y 0.000000 5.669740 0.000000 
#    z 0.000000 0.000000 4.853820 
# 
# 
# High freq. dielectric constant tensor:
#      x y z
#    x 2.098100 0.000000 0.000000 
#    y 0.000000 2.136130 0.000000 
#    z 0.000000 0.000000 2.110710 
# 
# From -- ./inp_files/5464.got.cif
#   From: 2010.03.12/outbox.cif.g09.slc.cpg/sg29_3_cif.got.tgz:5464.got - 2010.04.14 03:43:10.
