data_PCOD8168042
_publ_section_title
;
Structure prediction by ZEFSAII (Michael W. Deem and Ramdas Pophale) SiO2 
 PCOD8168042
Probable space group: P M A 2
;
_chemical_formula_sum "Si O2"
_cell_formula_units_Z 32
_cell_length_a 8.706404
_cell_length_b 14.212578
_cell_length_c 12.761746
_cell_angle_alpha 90.000000
_cell_angle_beta 90.000000
_cell_angle_gamma 90.000000
_cell_volume 1579.144141
_symmetry_space_group_name_H-M "P M A 2"
_symmetry_group_IT_number 28
_symmetry_cell_setting 'orthorhombic'
loop_
_space_group_symop_operation_xyz
x,y,z
-x,-y,z
1/2-x,y,z
1/2+x,-y,z
loop_
_atom_site_type_symbol
_atom_site_label
_atom_site_fract_x
_atom_site_fract_y
_atom_site_fract_z
Si Si1 0.567877 0.103291 0.750000
Si Si2 0.431400 0.278075 0.663692
Si Si3 0.425191 0.711829 0.268711
Si Si4 0.932891 0.896520 0.965156
Si Si5 0.429792 0.401847 0.090176
Si Si6 0.432352 0.603863 0.475712
Si Si7 0.573437 0.099072 0.174445
Si Si8 0.069797 0.401888 0.856493
O O1 0.750000 0.095671 0.751982
O O2 0.511047 0.174973 0.659404
O O3 0.504899 0.146954 0.859769
O O4 0.500000 0.000000 0.727998
O O5 0.250000 0.267075 0.649192
O O6 0.496791 0.346327 0.575918
O O7 0.479135 0.322035 0.775225
O O8 0.250000 0.681604 0.248746
O O9 0.525658 0.676776 0.172467
O O10 0.483530 0.667573 0.377081
O O11 0.441188 0.825938 0.269760
O O12 0.750000 0.891746 0.955569
O O13 0.000000 0.000000 0.974667
O O14 0.989520 0.850862 0.074159
O O15 0.500000 0.500000 0.127647
O O16 0.250000 0.414004 0.088496
O O17 0.488743 0.373909 0.973229
O O18 0.500000 0.500000 0.461905
O O19 0.250000 0.597556 0.487516
O O20 0.750000 0.079730 0.144701
O O21 0.500000 0.000000 0.209902
O O22 0.250000 0.415342 0.856111
O O23 0.000000 0.500000 0.818713
#
# Coordination Sequence:
#
# PCOD8168042 Si02
#       8
#     4   4   4   4   4   4   4   4
#     4  11  22  38  59  87 122 163 205 250 301 356
#     4  11  23  40  62  90 121 156 203 252 304 363
#     4  10  23  40  60  86 118 155 202 253 302 360
#     4  10  18  31  52  80 116 158 200 244 291 348
#     4  10  20  35  56  84 117 153 190 236 298 363
#     4  11  24  44  66  90 119 155 201 256 309 362
#     4  10  20  36  56  84 119 158 201 248 300 357
#     4   9  20  36  55  83 118 152 188 237 295 359
#
# _framework density 20.264142
#
# number of rings (size 3 to 8) (size 9 to 14) (size 15 to 20)
#    0.000    1.750    0.000    6.000    1.750    5.500 
#    0.000    0.625    0.000    1.500    0.000    0.000 
#    0.000    0.000    0.000    0.000    0.000    0.000 
#
# Total GULP energy -396719.276110 kJ/mol
# GULP energy per Si atom -12397.477378 kJ/mol
# Density = 2.021802 g / cm^3
# Si number density = 20.264142 Si / 1000 Ang^3
#
#
#
# Elastic Constant Matrix: (Units=GPa)
#
#
# Indices 1 2 3 4 5 6 
#
# 1 118.7142 51.5072 45.0464 0.0000 0.0000 0.0000
# 2 51.5072 118.1302 59.3598 0.0000 0.0000 0.0000
# 3 45.0464 59.3598 77.9357 0.0000 0.0000 0.0000
# 4 0.0000 0.0000 0.0000 23.4010 0.0000 0.0000
# 5 0.0000 0.0000 0.0000 0.0000 15.2803 0.0000
# 6 0.0000 0.0000 0.0000 0.0000 0.0000 32.6820
#
#
#
# Elastic Compliance Matrix: (Units=1/GPa)
#
#
# Indices 1 2 3 4 5 6 
#
# 1 0.011284 -0.002661 -0.004495 0.000000 0.000000 0.000000
# 2 -0.002661 0.014342 -0.009385 0.000000 0.000000 0.000000
# 3 -0.004495 -0.009385 0.022577 0.000000 0.000000 0.000000
# 4 0.000000 0.000000 0.000000 0.042733 0.000000 0.000000
# 5 0.000000 0.000000 0.000000 0.000000 0.065444 0.000000
# 6 0.000000 0.000000 0.000000 0.000000 0.000000 0.030598
#
#
# Mechanical properties :
#
#
# Convention : Reuss Voigt Hill
#
# Bulk Modulus (GPa) = 66.13751 69.62299 67.88025
# Shear Modulus (GPa) = 22.21230 24.86377 23.53804
#
# Velocity S-wave (km/s) = 3.31439 3.50663 3.41187
# Velocity P-wave (km/s) = 6.88153 7.12935 7.00654
#
# Compressibility (1/GPa) = 0.01512001
#
# Stress axis : x y z
#
# Youngs Moduli (GPa) = 88.62172 69.72761 44.29224
#
# Poissons Ratio (x) = 0.18556 0.19910
# Poissons Ratio (y) = 0.23585 0.41568
# Poissons Ratio (z) = 0.39836 0.65440
#
# Static dielectric constant tensor:
#      x y z
#    x 3.752520 0.000000 0.000000 
#    y 0.000000 3.925650 0.000000 
#    z 0.000000 0.000000 3.940680 
# 
# 
# High freq. dielectric constant tensor:
#      x y z
#    x 1.799630 0.000000 0.000000 
#    y 0.000000 1.798410 0.000000 
#    z 0.000000 0.000000 1.775760 
# 
# From -- ./inp_files/5056.got.cif
#   From: 2010.03.12/outbox.cif.g09.slc.cpg/sg28_3_cif.got.tgz:5056.got - 2010.04.14 03:39:34.
