data_PCOD8168608
_publ_section_title
;
Structure prediction by ZEFSAII (Michael W. Deem and Ramdas Pophale) SiO2 
 PCOD8168608
Probable space group: P C A 21
;
_chemical_formula_sum "Si O2"
_cell_formula_units_Z 32
_cell_length_a 5.349384
_cell_length_b 17.482499
_cell_length_c 14.568117
_cell_angle_alpha 90.000000
_cell_angle_beta 90.000000
_cell_angle_gamma 90.000000
_cell_volume 1362.419049
_symmetry_space_group_name_H-M "P C A 21"
_symmetry_group_IT_number 29
_symmetry_cell_setting 'orthorhombic'
loop_
_space_group_symop_operation_xyz
x,y,z
-x,-y,1/2+z
1/2-x,y,1/2+z
1/2+x,-y,z
loop_
_atom_site_type_symbol
_atom_site_label
_atom_site_fract_x
_atom_site_fract_y
_atom_site_fract_z
Si Si1 0.186486 0.046084 0.812310
Si Si2 0.794747 0.819203 0.680067
Si Si3 0.472252 0.524487 0.557291
Si Si4 0.928573 0.314608 0.624169
Si Si5 0.127737 0.464175 0.258019
Si Si6 0.216854 0.765190 0.955294
Si Si7 0.928661 0.308148 0.276173
Si Si8 0.199583 0.145061 0.977448
O O1 0.167333 0.122371 0.750547
O O2 0.193490 0.065329 0.921362
O O3 0.442681 0.002867 0.786780
O O4 0.625431 0.748733 0.651417
O O5 0.864559 0.865153 0.586054
O O6 0.018819 0.776792 0.734105
O O7 0.203856 0.516552 0.503332
O O8 0.552178 0.612264 0.575448
O O9 0.380716 0.480003 0.649375
O O10 0.736027 0.276258 0.552206
O O11 0.787191 0.345636 0.713660
O O12 0.874956 0.498423 0.303757
O O13 0.148312 0.371884 0.275240
O O14 0.167923 0.701469 0.878871
O O15 0.474006 0.807551 0.930625
O O16 0.972443 0.819288 0.960900
#
# Coordination Sequence:
#
# PCOD8168608 Si02
#       8
#     4   4   4   4   4   4   4   4
#     4  12  28  47  72 103 142 176 214 273 342 406
#     4  11  25  43  75 102 132 182 231 274 333 417
#     4  10  19  35  58  87 131 179 222 272 340 393
#     4  11  23  40  69  99 134 180 233 283 338 395
#     4  10  20  34  57  88 126 176 221 271 339 392
#     4  11  25  40  67 103 129 172 230 285 334 394
#     4  12  22  40  70  94 134 179 229 286 333 397
#     4  11  24  47  68  98 140 170 222 276 337 398
#
# _framework density 23.487634
#
# number of rings (size 3 to 8) (size 9 to 14) (size 15 to 20)
#    0.000    1.000    5.000    3.000    1.750    1.000 
#    0.000    1.250    0.000    0.000    0.000    0.000 
#    0.000    0.000    0.000    0.000    0.000    0.000 
#
# Total GULP energy -396566.441796 kJ/mol
# GULP energy per Si atom -12392.701306 kJ/mol
# Density = 2.343418 g / cm^3
# Si number density = 23.487634 Si / 1000 Ang^3
#
#
#
# Elastic Constant Matrix: (Units=GPa)
#
#
# Indices 1 2 3 4 5 6 
#
# 1 137.3548 33.0016 6.3463 0.0000 0.0000 0.0000
# 2 33.0016 88.3081 8.8500 0.0000 0.0000 0.0000
# 3 6.3463 8.8500 60.8465 0.0000 0.0000 0.0000
# 4 0.0000 0.0000 0.0000 12.9240 0.0000 0.0000
# 5 0.0000 0.0000 0.0000 0.0000 14.5576 0.0000
# 6 0.0000 0.0000 0.0000 0.0000 0.0000 38.6321
#
#
#
# Elastic Compliance Matrix: (Units=1/GPa)
#
#
# Indices 1 2 3 4 5 6 
#
# 1 0.008008 -0.002952 -0.000406 0.000000 0.000000 0.000000
# 2 -0.002952 0.012580 -0.001522 0.000000 0.000000 0.000000
# 3 -0.000406 -0.001522 0.016698 0.000000 0.000000 0.000000
# 4 0.000000 0.000000 0.000000 0.077375 0.000000 0.000000
# 5 0.000000 0.000000 0.000000 0.000000 0.068692 0.000000
# 6 0.000000 0.000000 0.000000 0.000000 0.000000 0.025885
#
#
# Mechanical properties :
#
#
# Convention : Reuss Voigt Hill
#
# Bulk Modulus (GPa) = 36.32797 42.54501 39.43649
# Shear Modulus (GPa) = 21.91301 29.11018 25.51160
#
# Velocity S-wave (km/s) = 3.05775 3.52431 3.29929
# Velocity P-wave (km/s) = 5.28837 5.89187 5.59826
#
# Compressibility (1/GPa) = 0.02752700
#
# Stress axis : x y z
#
# Youngs Moduli (GPa) = 124.86768 79.49275 59.88573
#
# Poissons Ratio (x) = 0.23468 0.02431
# Poissons Ratio (y) = 0.36863 0.09113
# Poissons Ratio (z) = 0.05068 0.12097
#
# Static dielectric constant tensor:
#      x y z
#    x 4.475170 0.000000 0.000000 
#    y 0.000000 4.151890 0.000000 
#    z 0.000000 0.000000 4.244300 
# 
# 
# High freq. dielectric constant tensor:
#      x y z
#    x 1.937020 0.000000 0.000000 
#    y 0.000000 1.921900 0.000000 
#    z 0.000000 0.000000 1.916830 
# 
# From -- ./inp_files/4138.got.cif
#   From: 2010.03.12/outbox.cif.g09.slc.cpg/sg29_3_cif.got.tgz:4138.got - 2010.04.14 03:43:10.
