data_PCOD8168978
_publ_section_title
;
Structure prediction by ZEFSAII (Michael W. Deem and Ramdas Pophale) SiO2 
 PCOD8168978
Probable space group: P C A 21
;
_chemical_formula_sum "Si O2"
_cell_formula_units_Z 24
_cell_length_a 8.640159
_cell_length_b 15.524373
_cell_length_c 8.332409
_cell_angle_alpha 90.000000
_cell_angle_beta 90.000000
_cell_angle_gamma 90.000000
_cell_volume 1117.651442
_symmetry_space_group_name_H-M "P C A 21"
_symmetry_group_IT_number 29
_symmetry_cell_setting 'orthorhombic'
loop_
_space_group_symop_operation_xyz
x,y,z
-x,-y,1/2+z
1/2-x,y,1/2+z
1/2+x,-y,z
loop_
_atom_site_type_symbol
_atom_site_label
_atom_site_fract_x
_atom_site_fract_y
_atom_site_fract_z
Si Si1 0.362928 0.581798 0.048680
Si Si2 0.636863 0.078845 0.540867
Si Si3 0.534970 0.082003 0.174887
Si Si4 0.638148 0.748823 0.732726
Si Si5 0.035574 0.248376 0.095654
Si Si6 0.965236 0.420790 0.682821
O O1 0.427545 0.669371 0.126774
O O2 0.177913 0.581716 0.060756
O O3 0.429611 0.502898 0.149377
O O4 0.404474 0.574070 0.863311
O O5 0.595032 0.073112 0.355243
O O6 0.821881 0.082409 0.552674
O O7 0.565855 0.163381 0.624228
O O8 0.577694 0.996458 0.636853
O O9 0.438403 0.168998 0.147139
O O10 0.823043 0.750825 0.719329
O O11 0.569042 0.663327 0.651557
O O12 0.605757 0.749766 0.919684
#
# Coordination Sequence:
#
# PCOD8168978 Si02
#       6
#     4   4   4   4   4   4
#     4  11  23  40  61  88 119 155 196 242 292 347
#     4  11  23  40  61  88 119 155 196 242 292 347
#     4  11  23  40  61  88 119 155 196 242 292 347
#     4  10  23  40  60  86 118 154 195 240 291 346
#     4  10  23  40  60  86 118 154 195 240 291 346
#     4  11  23  40  61  88 119 155 196 242 292 347
#
# _framework density 21.473600000000001
#
# number of rings (size 3 to 8) (size 9 to 14) (size 15 to 20)
#    0.000    1.333    0.000    5.000    0.000   10.667 
#    0.000    0.000    0.000    0.000    0.000    0.000 
#    0.000    0.000    0.000    0.000    0.000    0.000 
#
# Total GULP energy -297799.024531 kJ/mol
# GULP energy per Si atom -12408.292689 kJ/mol
# Density = 2.142473 g / cm^3
# Si number density = 21.473600 Si / 1000 Ang^3
#
#
#
# Elastic Constant Matrix: (Units=GPa)
#
#
# Indices 1 2 3 4 5 6 
#
# 1 69.2714 -0.8265 -6.5550 0.0000 0.0000 0.0000
# 2 -0.8265 81.8153 21.9488 0.0000 0.0000 0.0000
# 3 -6.5550 21.9488 31.9812 0.0000 0.0000 0.0000
# 4 0.0000 0.0000 0.0000 29.5999 0.0000 0.0000
# 5 0.0000 0.0000 0.0000 0.0000 37.1007 0.0000
# 6 0.0000 0.0000 0.0000 0.0000 0.0000 37.6862
#
#
#
# Elastic Compliance Matrix: (Units=1/GPa)
#
#
# Indices 1 2 3 4 5 6 
#
# 1 0.014765 -0.000812 0.003584 0.000000 0.000000 0.000000
# 2 -0.000812 0.015026 -0.010479 0.000000 0.000000 0.000000
# 3 0.003584 -0.010479 0.039194 0.000000 0.000000 0.000000
# 4 0.000000 0.000000 0.000000 0.033784 0.000000 0.000000
# 5 0.000000 0.000000 0.000000 0.000000 0.026954 0.000000
# 6 0.000000 0.000000 0.000000 0.000000 0.000000 0.026535
#
#
# Mechanical properties :
#
#
# Convention : Reuss Voigt Hill
#
# Bulk Modulus (GPa) = 18.66670 23.57806 21.12238
# Shear Modulus (GPa) = 26.38119 32.11074 29.24597
#
# Velocity S-wave (km/s) = 3.50886 3.87118 3.69446
# Velocity P-wave (km/s) = 5.01277 5.56644 5.29684
#
# Compressibility (1/GPa) = 0.05357133
#
# Stress axis : x y z
#
# Youngs Moduli (GPa) = 67.72586 66.55327 25.51385
#
# Poissons Ratio (x) = 0.05406 -0.09144
# Poissons Ratio (y) = 0.05501 0.26735
# Poissons Ratio (z) = -0.24272 0.69738
#
# Static dielectric constant tensor:
#      x y z
#    x 4.004570 0.000000 0.000000 
#    y 0.000000 4.247420 0.000000 
#    z 0.000000 0.000000 3.676590 
# 
# 
# High freq. dielectric constant tensor:
#      x y z
#    x 1.854910 0.000000 0.000000 
#    y 0.000000 1.862650 0.000000 
#    z 0.000000 0.000000 1.839610 
# 
# From -- ./inp_files/1131.got.cif
#   From: 2010.03.12/outbox.cif.g09.slc.cpg/sg29_1_cif.got.tgz:1131.got - 2010.04.14 03:43:10.
