data_PCOD8168219
_publ_section_title
;
Structure prediction by ZEFSAII (Michael W. Deem and Ramdas Pophale) SiO2 
 PCOD8168219
Probable space group: P M A 2
;
_chemical_formula_sum "Si O2"
_cell_formula_units_Z 32
_cell_length_a 8.729325
_cell_length_b 14.296643
_cell_length_c 15.458649
_cell_angle_alpha 90.000000
_cell_angle_beta 90.000000
_cell_angle_gamma 90.000000
_cell_volume 1929.240062
_symmetry_space_group_name_H-M "P M A 2"
_symmetry_group_IT_number 28
_symmetry_cell_setting 'orthorhombic'
loop_
_space_group_symop_operation_xyz
x,y,z
-x,-y,z
1/2-x,y,z
1/2+x,-y,z
loop_
_atom_site_type_symbol
_atom_site_label
_atom_site_fract_x
_atom_site_fract_y
_atom_site_fract_z
Si Si1 0.927862 0.397793 0.263540
Si Si2 0.431186 0.399129 0.578949
Si Si3 0.930094 0.095405 0.671270
Si Si4 0.931180 0.603843 0.901129
Si Si5 0.573024 0.399736 0.072587
Si Si6 0.430688 0.904445 0.474798
Si Si7 0.429695 0.278900 0.412888
Si Si8 0.568271 0.293322 0.740637
O O1 0.750000 0.405690 0.289112
O O2 0.945903 0.352438 0.167011
O O3 0.000000 0.500000 0.270742
O O4 0.015468 0.329520 0.326977
O O5 0.500000 0.500000 0.560699
O O6 0.250000 0.405408 0.592075
O O7 0.478487 0.336987 0.497149
O O8 0.506989 0.357191 0.663897
O O9 0.750000 0.083991 0.672348
O O10 0.989501 0.110409 0.573248
O O11 0.981749 0.185379 0.726681
O O12 0.000000 0.000000 0.711096
O O13 0.750000 0.597362 0.894701
O O14 0.000000 0.500000 0.889438
O O15 0.993746 0.673364 0.829096
O O16 0.982828 0.649571 0.993354
O O17 0.500000 0.500000 0.083804
O O18 0.750000 0.408304 0.045805
O O19 0.250000 0.908986 0.470172
O O20 0.489774 0.821179 0.415144
O O21 0.500000 0.000000 0.437058
O O22 0.250000 0.264194 0.408847
O O23 0.750000 0.303937 0.744650
#
# Coordination Sequence:
#
# PCOD8168219 Si02
#       8
#     4   4   4   4   4   4   4   4
#     4  10  20  33  51  74 102 134 169 208 250 297
#     4  11  23  35  47  66  96 134 171 205 240 286
#     4   9  19  33  52  73  95 126 161 205 251 292
#     4  11  21  33  50  73 100 133 167 206 248 293
#     4   9  17  31  50  72  97 128 164 206 250 293
#     4  10  19  34  53  74  98 128 166 210 256 298
#     4  11  22  34  50  73 100 134 171 207 249 297
#     4  11  21  35  51  71  98 131 167 203 246 294
#
# _framework density 16.586842000000001
#
# number of rings (size 3 to 8) (size 9 to 14) (size 15 to 20)
#    0.000    1.750    1.250    4.875    0.000    5.500 
#    0.000    0.000    0.000    0.000    0.000    0.875 
#    0.000    4.000    0.000    0.000    0.000    0.000 
#
# Total GULP energy -396777.886084 kJ/mol
# GULP energy per Si atom -12399.308940 kJ/mol
# Density = 1.654909 g / cm^3
# Si number density = 16.586842 Si / 1000 Ang^3
#
#
#
# Elastic Constant Matrix: (Units=GPa)
#
#
# Indices 1 2 3 4 5 6 
#
# 1 77.5477 39.9123 31.2027 0.0000 0.0000 0.0000
# 2 39.9123 109.5589 46.6209 0.0000 0.0000 0.0000
# 3 31.2027 46.6209 97.9508 0.0000 0.0000 0.0000
# 4 0.0000 0.0000 0.0000 4.2353 0.0000 0.0000
# 5 0.0000 0.0000 0.0000 0.0000 27.1405 0.0000
# 6 0.0000 0.0000 0.0000 0.0000 0.0000 28.8311
#
#
#
# Elastic Compliance Matrix: (Units=1/GPa)
#
#
# Indices 1 2 3 4 5 6 
#
# 1 0.016551 -0.004747 -0.003013 0.000000 0.000000 0.000000
# 2 -0.004747 0.012807 -0.004584 0.000000 0.000000 0.000000
# 3 -0.003013 -0.004584 0.013351 0.000000 0.000000 0.000000
# 4 0.000000 0.000000 0.000000 0.236113 0.000000 0.000000
# 5 0.000000 0.000000 0.000000 0.000000 0.036845 0.000000
# 6 0.000000 0.000000 0.000000 0.000000 0.000000 0.034685
#
#
# Mechanical properties :
#
#
# Convention : Reuss Voigt Hill
#
# Bulk Modulus (GPa) = 55.48962 57.83657 56.66309
# Shear Modulus (GPa) = 13.12176 23.19613 18.15894
#
# Velocity S-wave (km/s) = 2.81569 3.74366 3.31234
# Velocity P-wave (km/s) = 6.64059 7.32334 6.99031
#
# Compressibility (1/GPa) = 0.01802139
#
# Stress axis : x y z
#
# Youngs Moduli (GPa) = 60.41943 78.07940 74.90339
#
# Poissons Ratio (x) = 0.37068 0.22567
# Poissons Ratio (y) = 0.28684 0.34332
# Poissons Ratio (z) = 0.18203 0.35788
#
# Static dielectric constant tensor:
#      x y z
#    x 3.315060 0.000000 0.000000 
#    y 0.000000 3.061230 0.000000 
#    z 0.000000 0.000000 3.437840 
# 
# 
# High freq. dielectric constant tensor:
#      x y z
#    x 1.658430 0.000000 0.000000 
#    y 0.000000 1.617950 0.000000 
#    z 0.000000 0.000000 1.631550 
# 
# From -- ./inp_files/6300.got.cif
#   From: 2010.03.12/outbox.cif.g09.slc.cpg/sg28_4_cif.got.tgz:6300.got - 2010.04.14 03:39:34.
