data_PCOD8168009
_publ_section_title
;
Structure prediction by ZEFSAII (Michael W. Deem and Ramdas Pophale) SiO2 
 PCOD8168009
Probable space group: P M A 2
;
_chemical_formula_sum "Si O2"
_cell_formula_units_Z 28
_cell_length_a 9.033761
_cell_length_b 19.198618
_cell_length_c 10.048777
_cell_angle_alpha 90.000000
_cell_angle_beta 90.000000
_cell_angle_gamma 90.000000
_cell_volume 1742.816940
_symmetry_space_group_name_H-M "P M A 2"
_symmetry_group_IT_number 28
_symmetry_cell_setting 'orthorhombic'
loop_
_space_group_symop_operation_xyz
x,y,z
-x,-y,z
1/2-x,y,z
1/2+x,-y,z
loop_
_atom_site_type_symbol
_atom_site_label
_atom_site_fract_x
_atom_site_fract_y
_atom_site_fract_z
Si Si1 0.917584 0.929246 0.766350
Si Si2 0.578418 0.295473 0.108071
Si Si3 0.075811 0.809527 0.881243
Si Si4 0.081893 0.205507 0.625829
Si Si5 0.082374 0.431979 0.417168
Si Si6 0.075332 0.708333 0.412724
Si Si7 0.084204 0.432811 0.100357
O O1 0.750000 0.945087 0.812216
O O2 0.919020 0.879331 0.635142
O O3 0.000000 0.000000 0.730284
O O4 0.002912 0.887152 0.884867
O O5 0.750000 0.314869 0.099753
O O6 0.538551 0.228616 0.019295
O O7 0.532875 0.278192 0.259197
O O8 0.492409 0.362117 0.050788
O O9 0.250000 0.815805 0.856784
O O10 0.002301 0.765990 0.758577
O O11 0.250000 0.234067 0.622438
O O12 0.994673 0.228183 0.494499
O O13 0.250000 0.429667 0.471970
O O14 0.081645 0.435293 0.258867
O O15 0.000000 0.500000 0.475533
O O16 0.994458 0.363763 0.465547
O O17 0.250000 0.705533 0.434807
O O18 0.250000 0.434239 0.044429
O O19 0.000000 0.500000 0.041731
#
# Coordination Sequence:
#
# PCOD8168009 Si02
#       7
#     4   4   4   4   4   4   4
#     4   9  18  31  51  75  97 120 155 193 226 270
#     4   9  18  30  46  70  97 124 157 195 235 281
#     4   9  17  31  50  71  96 125 155 191 232 276
#     4   9  19  32  47  71  97 123 157 193 230 277
#     4   9  16  26  40  61  89 121 158 198 236 275
#     4  10  18  29  47  70  96 126 158 194 238 280
#     4   9  16  25  40  61  88 122 158 197 236 274
#
# _framework density 16.065944999999999
#
# number of rings (size 3 to 8) (size 9 to 14) (size 15 to 20)
#    0.857    2.000    0.000    2.143    0.000    5.143 
#    0.000    0.000    0.000    1.714    0.000    4.000 
#    0.000    0.000    0.000    0.000    0.000    0.000 
#
# Total GULP energy -346999.259120 kJ/mol
# GULP energy per Si atom -12392.830683 kJ/mol
# Density = 1.602938 g / cm^3
# Si number density = 16.065945 Si / 1000 Ang^3
#
#
#
# Elastic Constant Matrix: (Units=GPa)
#
#
# Indices 1 2 3 4 5 6 
#
# 1 125.7600 60.9553 39.1681 0.0000 0.0000 0.0000
# 2 60.9553 105.3607 39.6209 0.0000 0.0000 0.0000
# 3 39.1681 39.6209 54.5816 0.0000 0.0000 0.0000
# 4 0.0000 0.0000 0.0000 18.9948 0.0000 0.0000
# 5 0.0000 0.0000 0.0000 0.0000 17.8845 0.0000
# 6 0.0000 0.0000 0.0000 0.0000 0.0000 33.4447
#
#
#
# Elastic Compliance Matrix: (Units=1/GPa)
#
#
# Indices 1 2 3 4 5 6 
#
# 1 0.011927 -0.005064 -0.004883 0.000000 0.000000 0.000000
# 2 -0.005064 0.015205 -0.007403 0.000000 0.000000 0.000000
# 3 -0.004883 -0.007403 0.027199 0.000000 0.000000 0.000000
# 4 0.000000 0.000000 0.000000 0.052646 0.000000 0.000000
# 5 0.000000 0.000000 0.000000 0.000000 0.055914 0.000000
# 6 0.000000 0.000000 0.000000 0.000000 0.000000 0.029900
#
#
# Mechanical properties :
#
#
# Convention : Reuss Voigt Hill
#
# Bulk Modulus (GPa) = 50.94058 62.79900 56.86979
# Shear Modulus (GPa) = 21.36428 23.79534 22.57981
#
# Velocity S-wave (km/s) = 3.65058 3.85269 3.75299
# Velocity P-wave (km/s) = 7.03882 7.67881 7.36577
#
# Compressibility (1/GPa) = 0.01963072
#
# Stress axis : x y z
#
# Youngs Moduli (GPa) = 83.84401 65.76803 36.76568
#
# Poissons Ratio (x) = 0.33305 0.17952
# Poissons Ratio (y) = 0.42458 0.27219
# Poissons Ratio (z) = 0.40940 0.48691
#
# Static dielectric constant tensor:
#      x y z
#    x 3.218750 0.000000 0.000000 
#    y 0.000000 2.956510 0.000000 
#    z 0.000000 0.000000 2.646740 
# 
# 
# High freq. dielectric constant tensor:
#      x y z
#    x 1.639270 0.000000 0.000000 
#    y 0.000000 1.608430 0.000000 
#    z 0.000000 0.000000 1.567720 
# 
# From -- ./inp_files/2664.got.cif
#   From: 2010.03.12/outbox.cif.g09.slc.cpg/sg28_2_cif.got.tgz:2664.got - 2010.04.14 03:39:34.
