data_PCOD8168283
_publ_section_title
;
Structure prediction by ZEFSAII (Michael W. Deem and Ramdas Pophale) SiO2 
 PCOD8168283
Probable space group: P M A 2
;
_chemical_formula_sum "Si O2"
_cell_formula_units_Z 24
_cell_length_a 8.969852
_cell_length_b 10.034220
_cell_length_c 15.286294
_cell_angle_alpha 90.000000
_cell_angle_beta 90.000000
_cell_angle_gamma 90.000000
_cell_volume 1375.850051
_symmetry_space_group_name_H-M "P M A 2"
_symmetry_group_IT_number 28
_symmetry_cell_setting 'orthorhombic'
loop_
_space_group_symop_operation_xyz
x,y,z
-x,-y,z
1/2-x,y,z
1/2+x,-y,z
loop_
_atom_site_type_symbol
_atom_site_label
_atom_site_fract_x
_atom_site_fract_y
_atom_site_fract_z
Si Si1 0.076087 0.358527 0.573600
Si Si2 0.424002 0.135377 0.703668
Si Si3 0.925273 0.862150 0.905488
Si Si4 0.077789 0.641964 0.217978
Si Si5 0.075827 0.643593 0.024285
Si Si6 0.923722 0.643121 0.380594
O O1 0.250000 0.383256 0.587860
O O2 0.011881 0.255675 0.644891
O O3 0.046413 0.294997 0.476752
O O4 0.000000 0.500000 0.587603
O O5 0.250000 0.117795 0.687669
O O6 0.461253 0.166279 0.804227
O O7 0.500000 0.000000 0.672026
O O8 0.750000 0.870691 0.923998
O O9 0.000000 0.000000 0.935880
O O10 0.996366 0.741648 0.957875
O O11 0.250000 0.624795 0.240944
O O12 0.056185 0.706778 0.122005
O O13 0.000000 0.500000 0.212516
O O14 0.999622 0.723913 0.298725
O O15 0.250000 0.628918 0.001033
O O16 0.000000 0.500000 0.015710
O O17 0.750000 0.630224 0.361213
O O18 0.000000 0.500000 0.381919
#
# Coordination Sequence:
#
# PCOD8168283 Si02
#       6
#     4   4   4   4   4   4
#     4   9  18  31  47  71 100 126 157 196 237 280
#     4   9  19  35  52  71  95 125 161 197 236 286
#     4  10  20  35  54  73  96 128 164 202 244 293
#     4   9  16  26  42  65  94 125 157 193 233 280
#     4  10  20  33  50  74 102 130 162 202 246 289
#     4   9  15  24  41  64  92 124 155 190 232 278
#
# _framework density 17.443762
#
# number of rings (size 3 to 8) (size 9 to 14) (size 15 to 20)
#    0.000    2.667    0.000    3.000    0.000    4.667 
#    0.000    1.667    0.000    1.000    0.000    4.667 
#    0.000    0.000    0.000    0.000    0.000    0.000 
#
# Total GULP energy -297389.623908 kJ/mol
# GULP energy per Si atom -12391.234329 kJ/mol
# Density = 1.740406 g / cm^3
# Si number density = 17.443762 Si / 1000 Ang^3
#
#
#
# Elastic Constant Matrix: (Units=GPa)
#
#
# Indices 1 2 3 4 5 6 
#
# 1 100.5828 46.0863 60.2755 0.0000 0.0000 0.0000
# 2 46.0863 89.4550 71.3878 0.0000 0.0000 0.0000
# 3 60.2755 71.3878 123.0275 0.0000 0.0000 0.0000
# 4 0.0000 0.0000 0.0000 0.8170 0.0000 0.0000
# 5 0.0000 0.0000 0.0000 0.0000 33.8525 0.0000
# 6 0.0000 0.0000 0.0000 0.0000 0.0000 24.5596
#
#
#
# Elastic Compliance Matrix: (Units=1/GPa)
#
#
# Indices 1 2 3 4 5 6 
#
# 1 0.014602 -0.003378 -0.005194 0.000000 0.000000 0.000000
# 2 -0.003378 0.021601 -0.010879 0.000000 0.000000 0.000000
# 3 -0.005194 -0.010879 0.016986 0.000000 0.000000 0.000000
# 4 0.000000 0.000000 0.000000 1.224021 0.000000 0.000000
# 5 0.000000 0.000000 0.000000 0.000000 0.029540 0.000000
# 6 0.000000 0.000000 0.000000 0.000000 0.000000 0.040717
#
#
# Mechanical properties :
#
#
# Convention : Reuss Voigt Hill
#
# Bulk Modulus (GPa) = 69.99532 74.28494 72.14013
# Shear Modulus (GPa) = 3.59419 20.86688 12.23054
#
# Velocity S-wave (km/s) = 1.43698 3.46242 2.65078
# Velocity P-wave (km/s) = 6.55489 7.65913 7.12843
#
# Compressibility (1/GPa) = 0.01428667
#
# Stress axis : x y z
#
# Youngs Moduli (GPa) = 68.48153 46.29413 58.87251
#
# Poissons Ratio (x) = 0.15638 0.30580
# Poissons Ratio (y) = 0.23132 0.64049
# Poissons Ratio (z) = 0.35571 0.50364
#
# Static dielectric constant tensor:
#      x y z
#    x 3.346850 0.000000 0.000000 
#    y 0.000000 2.890970 0.000000 
#    z 0.000000 0.000000 4.295690 
# 
# 
# High freq. dielectric constant tensor:
#      x y z
#    x 1.687540 0.000000 0.000000 
#    y 0.000000 1.622980 0.000000 
#    z 0.000000 0.000000 1.695690 
# 
# From -- ./inp_files/6665.got.cif
#   From: 2010.03.12/outbox.cif.g09.slc.cpg/sg28_4_cif.got.tgz:6665.got - 2010.04.14 03:39:34.
