data_PCOD8168475
_publ_section_title
;
Structure prediction by ZEFSAII (Michael W. Deem and Ramdas Pophale) SiO2 
 PCOD8168475
Probable space group: P M A 2
;
_chemical_formula_sum "Si O2"
_cell_formula_units_Z 28
_cell_length_a 19.145873
_cell_length_b 11.783859
_cell_length_c 5.186499
_cell_angle_alpha 90.000000
_cell_angle_beta 90.000000
_cell_angle_gamma 90.000000
_cell_volume 1170.137802
_symmetry_space_group_name_H-M "P M A 2"
_symmetry_group_IT_number 28
_symmetry_cell_setting 'orthorhombic'
loop_
_space_group_symop_operation_xyz
x,y,z
-x,-y,z
1/2-x,y,z
1/2+x,-y,z
loop_
_atom_site_type_symbol
_atom_site_label
_atom_site_fract_x
_atom_site_fract_y
_atom_site_fract_z
Si Si1 0.828710 0.421710 0.972950
Si Si2 0.328611 0.356564 0.649904
Si Si3 0.441003 0.247358 0.915345
Si Si4 0.168197 0.962613 0.377344
Si Si5 0.566613 0.558975 0.263171
Si Si6 0.331765 0.828403 0.881270
Si Si7 0.045449 0.112535 0.421581
O O1 0.750000 0.409241 0.083160
O O2 0.828986 0.513544 0.744737
O O3 0.877803 0.461244 0.203434
O O4 0.859349 0.300760 0.881624
O O5 0.250000 0.323289 0.559238
O O6 0.356498 0.266183 0.865108
O O7 0.389767 0.348661 0.431862
O O8 0.475946 0.199685 0.651907
O O9 0.463841 0.374653 0.008973
O O10 0.464937 0.163252 0.138846
O O11 0.250000 0.991268 0.366033
O O12 0.138069 0.905192 0.115124
O O13 0.127598 0.079207 0.437534
O O14 0.148221 0.876867 0.605153
O O15 0.500000 0.500000 0.403081
O O16 0.250000 0.827285 0.926226
O O17 0.000000 0.000000 0.451101
#
# Coordination Sequence:
#
# PCOD8168475 Si02
#       7
#     4   4   4   4   4   4   4
#     4   9  20  37  63  95 133 180 225 279 346 412
#     4  10  22  43  71 104 144 186 242 293 347 426
#     4  11  25  49  67 100 135 180 232 284 356 414
#     4  10  22  40  62  93 128 168 222 281 341 401
#     4  11  24  42  67 101 144 181 231 285 348 431
#     4   9  19  37  61  94 130 163 213 271 334 405
#     4  12  26  46  71  97 134 177 234 290 348 424
#
# _framework density 23.928806000000002
#
# number of rings (size 3 to 8) (size 9 to 14) (size 15 to 20)
#    0.000    1.714    1.429    1.714    2.000    6.286 
#    0.000    0.000    0.000    0.000    0.000    0.000 
#    0.000    0.000    0.000    0.000    0.000    0.000 
#
# Total GULP energy -346896.430934 kJ/mol
# GULP energy per Si atom -12389.158248 kJ/mol
# Density = 2.387434 g / cm^3
# Si number density = 23.928806 Si / 1000 Ang^3
#
#
#
# Elastic Constant Matrix: (Units=GPa)
#
#
# Indices 1 2 3 4 5 6 
#
# 1 84.9305 3.4534 29.8270 0.0000 0.0000 0.0000
# 2 3.4534 38.0618 3.4716 0.0000 0.0000 0.0000
# 3 29.8270 3.4716 98.4097 0.0000 0.0000 0.0000
# 4 0.0000 0.0000 0.0000 40.3001 0.0000 0.0000
# 5 0.0000 0.0000 0.0000 0.0000 22.7987 0.0000
# 6 0.0000 0.0000 0.0000 0.0000 0.0000 39.7852
#
#
#
# Elastic Compliance Matrix: (Units=1/GPa)
#
#
# Indices 1 2 3 4 5 6 
#
# 1 0.013203 -0.000836 -0.003972 0.000000 0.000000 0.000000
# 2 -0.000836 0.026411 -0.000678 0.000000 0.000000 0.000000
# 3 -0.003972 -0.000678 0.011390 0.000000 0.000000 0.000000
# 4 0.000000 0.000000 0.000000 0.024814 0.000000 0.000000
# 5 0.000000 0.000000 0.000000 0.000000 0.043862 0.000000
# 6 0.000000 0.000000 0.000000 0.000000 0.000000 0.025135
#
#
# Mechanical properties :
#
#
# Convention : Reuss Voigt Hill
#
# Bulk Modulus (GPa) = 24.98076 32.76734 28.87405
# Shear Modulus (GPa) = 29.56291 32.88682 31.22486
#
# Velocity S-wave (km/s) = 3.51871 3.71126 3.61627
# Velocity P-wave (km/s) = 5.19334 5.66463 5.43409
#
# Compressibility (1/GPa) = 0.04003082
#
# Stress axis : x y z
#
# Youngs Moduli (GPa) = 75.73821 37.86341 87.80006
#
# Poissons Ratio (x) = 0.03164 0.34877
# Poissons Ratio (y) = 0.06329 0.05956
# Poissons Ratio (z) = 0.30086 0.02569
#
# Static dielectric constant tensor:
#      x y z
#    x 4.228240 0.000000 0.000000 
#    y 0.000000 4.417040 0.000000 
#    z 0.000000 0.000000 4.318420 
# 
# 
# High freq. dielectric constant tensor:
#      x y z
#    x 1.937630 0.000000 0.000000 
#    y 0.000000 1.952980 0.000000 
#    z 0.000000 0.000000 1.941590 
# 
# From -- ./inp_files/1394.got.cif
#   From: 2010.03.12/outbox.cif.g09.slc.cpg/sg28_1_cif.got.tgz:1394.got - 2010.04.14 03:39:34.
