data_PCOD8168200
_publ_section_title
;
Structure prediction by ZEFSAII (Michael W. Deem and Ramdas Pophale) SiO2 
 PCOD8168200
Probable space group: P M A 2
;
_chemical_formula_sum "Si O2"
_cell_formula_units_Z 32
_cell_length_a 8.874026
_cell_length_b 14.555548
_cell_length_c 12.321465
_cell_angle_alpha 90.000000
_cell_angle_beta 90.000000
_cell_angle_gamma 90.000000
_cell_volume 1591.518185
_symmetry_space_group_name_H-M "P M A 2"
_symmetry_group_IT_number 28
_symmetry_cell_setting 'orthorhombic'
loop_
_space_group_symop_operation_xyz
x,y,z
-x,-y,z
1/2-x,y,z
1/2+x,-y,z
loop_
_atom_site_type_symbol
_atom_site_label
_atom_site_fract_x
_atom_site_fract_y
_atom_site_fract_z
Si Si1 0.075838 0.413039 0.670330
Si Si2 0.069271 0.907385 0.033848
Si Si3 0.418021 0.864865 0.798779
Si Si4 0.072522 0.280106 0.084216
Si Si5 0.072923 0.399996 0.291806
Si Si6 0.419946 0.661016 0.868948
Si Si7 0.424816 0.272092 0.486781
Si Si8 0.070251 0.906664 0.563032
O O1 0.250000 0.433153 0.685908
O O2 0.048103 0.321631 0.601413
O O3 0.000000 0.500000 0.609112
O O4 0.999020 0.409660 0.788426
O O5 0.250000 0.906574 0.038969
O O6 0.009121 0.818529 0.098300
O O7 0.006112 0.903284 0.909238
O O8 0.000000 0.000000 0.086748
O O9 0.250000 0.904453 0.795038
O O10 0.417951 0.755848 0.804212
O O11 0.497114 0.895331 0.686224
O O12 0.250000 0.262621 0.076612
O O13 0.028106 0.344795 0.184015
O O14 0.015808 0.333145 0.978269
O O15 0.250000 0.415029 0.301533
O O16 0.013869 0.338765 0.392311
O O17 0.000000 0.500000 0.291958
O O18 0.250000 0.629617 0.897431
O O19 0.250000 0.248904 0.467385
O O20 0.516782 0.177177 0.487382
O O21 0.250000 0.909784 0.561150
O O22 0.000000 0.000000 0.514470
#
# Coordination Sequence:
#
# PCOD8168200 Si02
#       8
#     4   4   4   4   4   4   4   4
#     4  11  22  35  56  85 117 153 192 235 292 357
#     4  10  19  33  54  84 120 160 200 243 290 346
#     4   8  16  30  50  78 113 153 193 231 279 334
#     4  10  21  38  59  86 118 154 196 244 295 349
#     4  10  23  43  67  90 115 147 194 248 299 353
#     4  10  19  35  56  82 119 156 192 238 289 347
#     4  10  22  41  61  86 117 151 193 244 295 347
#     4  11  21  35  56  85 119 158 198 239 289 345
#
# _framework density 20.106587999999999
#
# number of rings (size 3 to 8) (size 9 to 14) (size 15 to 20)
#    0.000    2.000    1.250    3.375    0.000    2.500 
#    0.000    3.125    0.000    0.000    0.000    0.000 
#    0.000    0.000    0.000    0.000    0.000    0.000 
#
# Total GULP energy -396726.929948 kJ/mol
# GULP energy per Si atom -12397.716561 kJ/mol
# Density = 2.006082 g / cm^3
# Si number density = 20.106588 Si / 1000 Ang^3
#
#
#
# Elastic Constant Matrix: (Units=GPa)
#
#
# Indices 1 2 3 4 5 6 
#
# 1 94.5694 64.7745 42.8452 0.0000 0.0000 0.0000
# 2 64.7745 152.2963 56.1226 0.0000 0.0000 0.0000
# 3 42.8452 56.1226 90.7028 0.0000 0.0000 0.0000
# 4 0.0000 0.0000 0.0000 22.5979 0.0000 0.0000
# 5 0.0000 0.0000 0.0000 0.0000 20.8536 0.0000
# 6 0.0000 0.0000 0.0000 0.0000 0.0000 38.9571
#
#
#
# Elastic Compliance Matrix: (Units=1/GPa)
#
#
# Indices 1 2 3 4 5 6 
#
# 1 0.016161 -0.005260 -0.004380 0.000000 0.000000 0.000000
# 2 -0.005260 0.010217 -0.003837 0.000000 0.000000 0.000000
# 3 -0.004380 -0.003837 0.015468 0.000000 0.000000 0.000000
# 4 0.000000 0.000000 0.000000 0.044252 0.000000 0.000000
# 5 0.000000 0.000000 0.000000 0.000000 0.047953 0.000000
# 6 0.000000 0.000000 0.000000 0.000000 0.000000 0.025669
#
#
# Mechanical properties :
#
#
# Convention : Reuss Voigt Hill
#
# Bulk Modulus (GPa) = 67.14486 73.89479 70.51982
# Shear Modulus (GPa) = 26.09075 28.07014 27.08045
#
# Velocity S-wave (km/s) = 3.60616 3.74045 3.67392
# Velocity P-wave (km/s) = 7.12784 7.44889 7.29013
#
# Compressibility (1/GPa) = 0.01489317
#
# Stress axis : x y z
#
# Youngs Moduli (GPa) = 61.87747 97.87290 64.64865
#
# Poissons Ratio (x) = 0.51478 0.28313
# Poissons Ratio (y) = 0.32546 0.24809
# Poissons Ratio (z) = 0.27099 0.37559
#
# Static dielectric constant tensor:
#      x y z
#    x 3.527240 0.000000 0.000000 
#    y 0.000000 3.667590 0.000000 
#    z 0.000000 0.000000 3.560430 
# 
# 
# High freq. dielectric constant tensor:
#      x y z
#    x 1.778330 0.000000 0.000000 
#    y 0.000000 1.794930 0.000000 
#    z 0.000000 0.000000 1.764730 
# 
# From -- ./inp_files/5053.got.cif
#   From: 2010.03.12/outbox.cif.g09.slc.cpg/sg28_3_cif.got.tgz:5053.got - 2010.04.14 03:39:34.
