data_PCOD8168137
_publ_section_title
;
Structure prediction by ZEFSAII (Michael W. Deem and Ramdas Pophale) SiO2 
 PCOD8168137
Probable space group: P M A 2
;
_chemical_formula_sum "Si O2"
_cell_formula_units_Z 32
_cell_length_a 8.901456
_cell_length_b 9.760774
_cell_length_c 20.349992
_cell_angle_alpha 90.000000
_cell_angle_beta 90.000000
_cell_angle_gamma 90.000000
_cell_volume 1768.111096
_symmetry_space_group_name_H-M "P M A 2"
_symmetry_group_IT_number 28
_symmetry_cell_setting 'orthorhombic'
loop_
_space_group_symop_operation_xyz
x,y,z
-x,-y,z
1/2-x,y,z
1/2+x,-y,z
loop_
_atom_site_type_symbol
_atom_site_label
_atom_site_fract_x
_atom_site_fract_y
_atom_site_fract_z
Si Si1 0.929364 0.150429 0.460260
Si Si2 0.923129 0.357159 0.717694
Si Si3 0.573338 0.856228 0.958886
Si Si4 0.574720 0.638955 0.209575
Si Si5 0.574219 0.859213 0.108213
Si Si6 0.573052 0.350975 0.859596
Si Si7 0.426700 0.648299 0.575098
Si Si8 0.072368 0.355146 0.360620
O O1 0.750000 0.138273 0.454669
O O2 0.981860 0.237971 0.523647
O O3 0.995083 0.229055 0.397517
O O4 0.000000 0.000000 0.465140
O O5 0.750000 0.390095 0.712424
O O6 0.956646 0.279922 0.786992
O O7 0.972622 0.290359 0.647766
O O8 0.000000 0.500000 0.724579
O O9 0.750000 0.867069 0.946998
O O10 0.504317 0.740372 0.913856
O O11 0.500000 0.000000 0.939559
O O12 0.533689 0.816035 0.033831
O O13 0.500000 0.500000 0.186876
O O14 0.750000 0.622020 0.199501
O O15 0.508325 0.751554 0.160191
O O16 0.535623 0.674795 0.284646
O O17 0.750000 0.877032 0.116822
O O18 0.500000 0.000000 0.128022
O O19 0.500000 0.500000 0.863559
O O20 0.750000 0.362833 0.873734
O O21 0.500000 0.500000 0.561441
O O22 0.250000 0.626065 0.567940
O O23 0.250000 0.360512 0.374954
O O24 0.000000 0.500000 0.382920
#
# Coordination Sequence:
#
# PCOD8168137 Si02
#       8
#     4   4   4   4   4   4   4   4
#     4  11  23  37  53  75 105 138 172 212 256 301
#     4   8  15  29  49  73 100 129 164 206 250 298
#     4  10  20  35  53  73 101 136 174 213 254 304
#     4   9  19  35  54  78 105 132 165 206 250 296
#     4   9  19  35  53  74 100 132 170 209 250 299
#     4  10  19  32  52  77 105 135 169 211 256 302
#     4   9  18  33  54  77 100 130 168 208 251 301
#     4  10  20  36  57  79 105 136 171 209 250 301
#
# _framework density 18.098410000000001
#
# number of rings (size 3 to 8) (size 9 to 14) (size 15 to 20)
#    0.000    2.500    0.000    1.875    0.000    5.000 
#    0.000    3.125    0.000    1.500    0.000    0.000 
#    0.000    0.000    0.000    0.000    0.000    0.000 
#
# Total GULP energy -396559.884039 kJ/mol
# GULP energy per Si atom -12392.496376 kJ/mol
# Density = 1.805722 g / cm^3
# Si number density = 18.098410 Si / 1000 Ang^3
#
#
#
# Elastic Constant Matrix: (Units=GPa)
#
#
# Indices 1 2 3 4 5 6 
#
# 1 58.1794 51.9458 47.0508 0.0000 0.0000 0.0000
# 2 51.9458 136.1408 96.3374 0.0000 0.0000 0.0000
# 3 47.0508 96.3374 131.9796 0.0000 0.0000 0.0000
# 4 0.0000 0.0000 0.0000 11.6117 0.0000 0.0000
# 5 0.0000 0.0000 0.0000 0.0000 89.7249 0.0000
# 6 0.0000 0.0000 0.0000 0.0000 0.0000 33.5292
#
#
#
# Elastic Compliance Matrix: (Units=1/GPa)
#
#
# Indices 1 2 3 4 5 6 
#
# 1 0.027249 -0.007287 -0.004395 0.000000 0.000000 0.000000
# 2 -0.007287 0.017142 -0.009915 0.000000 0.000000 0.000000
# 3 -0.004395 -0.009915 0.016381 0.000000 0.000000 0.000000
# 4 0.000000 0.000000 0.000000 0.086120 0.000000 0.000000
# 5 0.000000 0.000000 0.000000 0.000000 0.011145 0.000000
# 6 0.000000 0.000000 0.000000 0.000000 0.000000 0.029825
#
#
# Mechanical properties :
#
#
# Convention : Reuss Voigt Hill
#
# Bulk Modulus (GPa) = 56.88944 79.66308 68.27626
# Shear Modulus (GPa) = 21.10469 35.70421 28.40445
#
# Velocity S-wave (km/s) = 3.41854 4.44642 3.96592
# Velocity P-wave (km/s) = 6.86174 8.39482 7.66670
#
# Compressibility (1/GPa) = 0.01757795
#
# Stress axis : x y z
#
# Youngs Moduli (GPa) = 36.69884 58.33775 61.04669
#
# Poissons Ratio (x) = 0.42510 0.26832
# Poissons Ratio (y) = 0.26742 0.60525
# Poissons Ratio (z) = 0.16130 0.57839
#
# Static dielectric constant tensor:
#      x y z
#    x 3.304070 0.000000 0.000000 
#    y 0.000000 3.206440 0.000000 
#    z 0.000000 0.000000 3.901110 
# 
# 
# High freq. dielectric constant tensor:
#      x y z
#    x 1.707700 0.000000 0.000000 
#    y 0.000000 1.679240 0.000000 
#    z 0.000000 0.000000 1.720840 
# 
# From -- ./inp_files/7058.got.cif
#   From: 2010.03.12/outbox.cif.g09.slc.cpg/sg28_4_cif.got.tgz:7058.got - 2010.04.14 03:39:34.
