data_PCOD8168158
_publ_section_title
;
Structure prediction by ZEFSAII (Michael W. Deem and Ramdas Pophale) SiO2 
 PCOD8168158
Probable space group: P M A 2
;
_chemical_formula_sum "Si O2"
_cell_formula_units_Z 32
_cell_length_a 8.771922
_cell_length_b 14.582734
_cell_length_c 12.249966
_cell_angle_alpha 90.000000
_cell_angle_beta 90.000000
_cell_angle_gamma 90.000000
_cell_volume 1566.998564
_symmetry_space_group_name_H-M "P M A 2"
_symmetry_group_IT_number 28
_symmetry_cell_setting 'orthorhombic'
loop_
_space_group_symop_operation_xyz
x,y,z
-x,-y,z
1/2-x,y,z
1/2+x,-y,z
loop_
_atom_site_type_symbol
_atom_site_label
_atom_site_fract_x
_atom_site_fract_y
_atom_site_fract_z
Si Si1 0.580166 0.686974 0.107260
Si Si2 0.577869 0.591613 0.898696
Si Si3 0.429864 0.725271 0.742314
Si Si4 0.428698 0.906759 0.285593
Si Si5 0.926624 0.716070 0.348587
Si Si6 0.569915 0.398959 0.539726
Si Si7 0.075915 0.861990 0.041362
Si Si8 0.929575 0.906512 0.816542
O O1 0.750000 0.731682 0.096582
O O2 0.549832 0.663517 0.233322
O O3 0.453537 0.755144 0.061331
O O4 0.572227 0.596610 0.031022
O O5 0.500000 0.500000 0.855525
O O6 0.750000 0.593128 0.854341
O O7 0.487071 0.678161 0.852829
O O8 0.250000 0.736774 0.744738
O O9 0.484818 0.663643 0.640826
O O10 0.503967 0.825719 0.740723
O O11 0.250000 0.901461 0.311565
O O12 0.508121 0.819237 0.341894
O O13 0.460853 0.911294 0.155844
O O14 0.500000 0.000000 0.335895
O O15 0.750000 0.721455 0.382539
O O16 0.017822 0.653468 0.431987
O O17 0.500000 0.500000 0.548834
O O18 0.750000 0.410209 0.538045
O O19 0.250000 0.876207 0.004547
O O20 0.969846 0.899320 0.945014
O O21 0.750000 0.907445 0.803709
O O22 0.000000 0.000000 0.769245
#
# Coordination Sequence:
#
# PCOD8168158 Si02
#       8
#     4   4   4   4   4   4   4   4
#     4   9  19  35  55  84 122 163 201 246 302 359
#     4  11  22  36  57  87 122 161 200 245 303 366
#     4  11  24  43  65  90 121 156 201 256 310 364
#     4  10  20  34  55  87 125 167 210 253 301 358
#     4  10  21  39  63  90 123 160 203 255 308 363
#     4  11  25  45  69  94 120 154 203 258 309 367
#     4  10  19  32  54  84 121 165 208 249 296 353
#     4  12  24  38  59  88 124 164 205 250 301 362
#
# _framework density 20.421205
#
# number of rings (size 3 to 8) (size 9 to 14) (size 15 to 20)
#    0.000    1.500    1.250    4.125    0.000    7.000 
#    0.000    1.875    0.000    3.000    0.000    0.000 
#    0.000    0.000    0.000    0.000    0.000    0.000 
#
# Total GULP energy -396778.863238 kJ/mol
# GULP energy per Si atom -12399.339476 kJ/mol
# Density = 2.037473 g / cm^3
# Si number density = 20.421205 Si / 1000 Ang^3
#
#
#
# Elastic Constant Matrix: (Units=GPa)
#
#
# Indices 1 2 3 4 5 6 
#
# 1 108.8603 60.8173 41.6868 0.0000 0.0000 0.0000
# 2 60.8173 143.5071 56.8705 0.0000 0.0000 0.0000
# 3 41.6868 56.8705 92.9873 0.0000 0.0000 0.0000
# 4 0.0000 0.0000 0.0000 20.8070 0.0000 0.0000
# 5 0.0000 0.0000 0.0000 0.0000 24.1353 0.0000
# 6 0.0000 0.0000 0.0000 0.0000 0.0000 37.5037
#
#
#
# Elastic Compliance Matrix: (Units=1/GPa)
#
#
# Indices 1 2 3 4 5 6 
#
# 1 0.012707 -0.004128 -0.003172 0.000000 0.000000 0.000000
# 2 -0.004128 0.010539 -0.004595 0.000000 0.000000 0.000000
# 3 -0.003172 -0.004595 0.014986 0.000000 0.000000 0.000000
# 4 0.000000 0.000000 0.000000 0.048061 0.000000 0.000000
# 5 0.000000 0.000000 0.000000 0.000000 0.041433 0.000000
# 6 0.000000 0.000000 0.000000 0.000000 0.000000 0.026664
#
#
# Mechanical properties :
#
#
# Convention : Reuss Voigt Hill
#
# Bulk Modulus (GPa) = 69.24056 73.78935 71.51495
# Shear Modulus (GPa) = 27.32343 28.88788 28.10566
#
# Velocity S-wave (km/s) = 3.66183 3.76520 3.71387
# Velocity P-wave (km/s) = 7.20128 7.42391 7.31344
#
# Compressibility (1/GPa) = 0.01444240
#
# Stress axis : x y z
#
# Youngs Moduli (GPa) = 78.69673 94.88922 66.72803
#
# Poissons Ratio (x) = 0.39172 0.21165
# Poissons Ratio (y) = 0.32487 0.30659
# Poissons Ratio (z) = 0.24962 0.43599
#
# Static dielectric constant tensor:
#      x y z
#    x 3.762700 0.000000 0.000000 
#    y 0.000000 3.718570 0.000000 
#    z 0.000000 0.000000 3.615490 
# 
# 
# High freq. dielectric constant tensor:
#      x y z
#    x 1.811500 0.000000 0.000000 
#    y 0.000000 1.798790 0.000000 
#    z 0.000000 0.000000 1.780910 
# 
# From -- ./inp_files/5099.got.cif
#   From: 2010.03.12/outbox.cif.g09.slc.cpg/sg28_3_cif.got.tgz:5099.got - 2010.04.14 03:39:34.
