data_PCOD8168141
_publ_section_title
;
Structure prediction by ZEFSAII (Michael W. Deem and Ramdas Pophale) SiO2 
 PCOD8168141
Probable space group: P M A 2
;
_chemical_formula_sum "Si O2"
_cell_formula_units_Z 28
_cell_length_a 8.887221
_cell_length_b 9.439602
_cell_length_c 17.916303
_cell_angle_alpha 90.000000
_cell_angle_beta 90.000000
_cell_angle_gamma 90.000000
_cell_volume 1503.031430
_symmetry_space_group_name_H-M "P M A 2"
_symmetry_group_IT_number 28
_symmetry_cell_setting 'orthorhombic'
loop_
_space_group_symop_operation_xyz
x,y,z
-x,-y,z
1/2-x,y,z
1/2+x,-y,z
loop_
_atom_site_type_symbol
_atom_site_label
_atom_site_fract_x
_atom_site_fract_y
_atom_site_fract_z
Si Si1 0.575995 0.349184 0.038620
Si Si2 0.427951 0.152722 0.750526
Si Si3 0.571747 0.654805 0.183322
Si Si4 0.572603 0.646404 0.450815
Si Si5 0.573819 0.645015 0.618949
Si Si6 0.425279 0.653461 0.873245
Si Si7 0.427234 0.152146 0.320781
O O1 0.500000 0.500000 0.032035
O O2 0.750000 0.364809 0.060232
O O3 0.490409 0.270359 0.106892
O O4 0.556679 0.279699 0.956769
O O5 0.250000 0.140202 0.759119
O O6 0.475366 0.229383 0.673696
O O7 0.492158 0.237767 0.820022
O O8 0.500000 0.000000 0.748518
O O9 0.500000 0.500000 0.193908
O O10 0.750000 0.639990 0.179472
O O11 0.519551 0.752971 0.251340
O O12 0.500000 0.500000 0.423630
O O13 0.750000 0.626643 0.445219
O O14 0.520321 0.683728 0.535090
O O15 0.517503 0.772067 0.396863
O O16 0.500000 0.500000 0.647366
O O17 0.750000 0.619642 0.621530
O O18 0.500000 0.500000 0.865292
O O19 0.250000 0.638693 0.852131
O O20 0.250000 0.132414 0.320627
O O21 0.500000 0.000000 0.314864
#
# Coordination Sequence:
#
# PCOD8168141 Si02
#       7
#     4   4   4   4   4   4   4
#     4   9  17  30  51  78 104 132 168 211 258 306
#     4  11  23  37  53  76 107 142 178 217 262 312
#     4  10  19  32  52  78 104 133 171 214 258 304
#     4   9  18  35  56  79 105 133 170 213 256 304
#     4   9  19  35  56  80 105 134 170 213 258 306
#     4  10  20  35  56  81 107 137 175 217 262 312
#     4  10  22  36  51  74 105 139 174 211 253 304
#
# _framework density 18.629017000000001
#
# number of rings (size 3 to 8) (size 9 to 14) (size 15 to 20)
#    0.000    2.286    0.000    3.429    0.000    6.286 
#    0.000    0.714    0.000    1.714    0.000    0.000 
#    0.000    0.000    0.000    0.000    0.000    0.000 
#
# Total GULP energy -347122.732626 kJ/mol
# GULP energy per Si atom -12397.240451 kJ/mol
# Density = 1.858662 g / cm^3
# Si number density = 18.629017 Si / 1000 Ang^3
#
#
#
# Elastic Constant Matrix: (Units=GPa)
#
#
# Indices 1 2 3 4 5 6 
#
# 1 74.8897 50.1990 57.0246 0.0000 0.0000 0.0000
# 2 50.1990 131.1470 87.3479 0.0000 0.0000 0.0000
# 3 57.0246 87.3479 149.9715 0.0000 0.0000 0.0000
# 4 0.0000 0.0000 0.0000 -0.0318 0.0000 0.0000
# 5 0.0000 0.0000 0.0000 0.0000 29.7580 0.0000
# 6 0.0000 0.0000 0.0000 0.0000 0.0000 32.2079
#
#
#
# Elastic Compliance Matrix: (Units=1/GPa)
#
#
# Indices 1 2 3 4 5 6 
#
# 1 0.020156 -0.004265 -0.005180 0.000000 0.000000 0.000000
# 2 -0.004265 0.013360 -0.006159 0.000000 0.000000 0.000000
# 3 -0.005180 -0.006159 0.012225 0.000000 0.000000 0.000000
# 4 0.000000 0.000000 0.000000-31.492629 0.000000 0.000000
# 5 0.000000 0.000000 0.000000 0.000000 0.033604 0.000000
# 6 0.000000 0.000000 0.000000 0.000000 0.000000 0.031048
#
#
# Mechanical properties :
#
#
# Convention : Reuss Voigt Hill
#
# Bulk Modulus (GPa) = 68.81368 82.79459 75.80413
# Shear Modulus (GPa) = -0.15951 23.14926 11.49488
#
# Velocity S-wave (km/s) = -0.29293 3.52894 2.48673
# Velocity P-wave (km/s) = 6.07493 7.81952 7.00177
#
# Compressibility (1/GPa) = 0.01453199
#
# Stress axis : x y z
#
# Youngs Moduli (GPa) = 49.61243 74.85017 81.79944
#
# Poissons Ratio (x) = 0.31925 0.42372
# Poissons Ratio (y) = 0.21161 0.50384
# Poissons Ratio (z) = 0.25699 0.46104
#
# Static dielectric constant tensor:
#      x y z
#    x 3.450820 0.000000 0.000000 
#    y 0.000000 3.218200 0.000000 
#    z 0.000000 0.000000 4.171090 
# 
# 
# High freq. dielectric constant tensor:
#      x y z
#    x 1.729670 0.000000 0.000000 
#    y 0.000000 1.695170 0.000000 
#    z 0.000000 0.000000 1.746170 
# 
# From -- ./inp_files/6746.got.cif
#   From: 2010.03.12/outbox.cif.g09.slc.cpg/sg28_4_cif.got.tgz:6746.got - 2010.04.14 03:39:34.
