data_PCOD8168321
_publ_section_title
;
Structure prediction by ZEFSAII (Michael W. Deem and Ramdas Pophale) SiO2 
 PCOD8168321
Probable space group: P M A 2
;
_chemical_formula_sum "Si O2"
_cell_formula_units_Z 28
_cell_length_a 8.745274
_cell_length_b 9.787439
_cell_length_c 17.569435
_cell_angle_alpha 90.000000
_cell_angle_beta 90.000000
_cell_angle_gamma 90.000000
_cell_volume 1503.835335
_symmetry_space_group_name_H-M "P M A 2"
_symmetry_group_IT_number 28
_symmetry_cell_setting 'orthorhombic'
loop_
_space_group_symop_operation_xyz
x,y,z
-x,-y,z
1/2-x,y,z
1/2+x,-y,z
loop_
_atom_site_type_symbol
_atom_site_label
_atom_site_fract_x
_atom_site_fract_y
_atom_site_fract_z
Si Si1 0.431824 0.351492 0.101360
Si Si2 0.929985 0.141277 0.817940
Si Si3 0.931854 0.352606 0.944254
Si Si4 0.928644 0.142355 0.392734
Si Si5 0.569441 0.143022 0.646472
Si Si6 0.069230 0.649764 0.518832
Si Si7 0.569362 0.144195 0.218080
O O1 0.500000 0.500000 0.116287
O O2 0.250000 0.359085 0.097322
O O3 0.484733 0.258736 0.170433
O O4 0.497879 0.292070 0.022159
O O5 0.750000 0.126174 0.820362
O O6 0.986075 0.258868 0.874563
O O7 0.986219 0.175955 0.732395
O O8 0.000000 0.000000 0.847006
O O9 0.750000 0.361005 0.952254
O O10 0.000000 0.500000 0.926937
O O11 0.750000 0.124444 0.403905
O O12 0.988783 0.267385 0.444464
O O13 0.971655 0.174706 0.305736
O O14 0.000000 0.000000 0.420379
O O15 0.750000 0.127748 0.641685
O O16 0.512833 0.266751 0.593115
O O17 0.500000 0.000000 0.617756
O O18 0.250000 0.634346 0.518342
O O19 0.000000 0.500000 0.519270
O O20 0.750000 0.145702 0.202849
O O21 0.500000 0.000000 0.192619
#
# Coordination Sequence:
#
# PCOD8168321 Si02
#       7
#     4   4   4   4   4   4   4
#     4  11  22  37  56  78 105 139 177 216 263 315
#     4   9  19  34  53  77 104 134 170 213 257 304
#     4  10  20  35  53  75 104 137 174 214 258 309
#     4   9  19  35  55  78 104 136 173 213 256 306
#     4   9  18  34  54  76 103 135 172 212 255 304
#     4  10  21  35  51  76 108 138 172 213 255 301
#     4  10  20  36  56  80 108 137 174 217 262 311
#
# _framework density 18.619060000000001
#
# number of rings (size 3 to 8) (size 9 to 14) (size 15 to 20)
#    0.000    2.286    0.000    3.429    0.000    4.571 
#    0.000    2.857    0.000    0.000    0.000    0.000 
#    0.000    0.000    0.000    0.000    0.000    0.000 
#
# Total GULP energy -347224.206227 kJ/mol
# GULP energy per Si atom -12400.864508 kJ/mol
# Density = 1.857668 g / cm^3
# Si number density = 18.619060 Si / 1000 Ang^3
#
#
#
# Elastic Constant Matrix: (Units=GPa)
#
#
# Indices 1 2 3 4 5 6 
#
# 1 66.5753 47.0020 44.3451 0.0000 0.0000 0.0000
# 2 47.0020 146.4832 96.3462 0.0000 0.0000 0.0000
# 3 44.3451 96.3462 128.0737 0.0000 0.0000 0.0000
# 4 0.0000 0.0000 0.0000 35.9758 0.0000 0.0000
# 5 0.0000 0.0000 0.0000 0.0000 10.1125 0.0000
# 6 0.0000 0.0000 0.0000 0.0000 0.0000 36.5208
#
#
#
# Elastic Compliance Matrix: (Units=1/GPa)
#
#
# Indices 1 2 3 4 5 6 
#
# 1 0.020531 -0.003785 -0.004262 0.000000 0.000000 0.000000
# 2 -0.003785 0.014210 -0.009380 0.000000 0.000000 0.000000
# 3 -0.004262 -0.009380 0.016340 0.000000 0.000000 0.000000
# 4 0.000000 0.000000 0.000000 0.027796 0.000000 0.000000
# 5 0.000000 0.000000 0.000000 0.000000 0.098887 0.000000
# 6 0.000000 0.000000 0.000000 0.000000 0.000000 0.027382
#
#
# Mechanical properties :
#
#
# Convention : Reuss Voigt Hill
#
# Bulk Modulus (GPa) = 61.61774 79.61321 70.61547
# Shear Modulus (GPa) = 20.37417 26.75109 23.56263
#
# Velocity S-wave (km/s) = 3.31156 3.79457 3.56126
# Velocity P-wave (km/s) = 6.91286 7.87719 7.41073
#
# Compressibility (1/GPa) = 0.01622909
#
# Stress axis : x y z
#
# Youngs Moduli (GPa) = 48.70607 70.37103 61.20107
#
# Poissons Ratio (x) = 0.26634 0.26082
# Poissons Ratio (y) = 0.18435 0.57404
# Poissons Ratio (z) = 0.20757 0.66005
#
# Static dielectric constant tensor:
#      x y z
#    x 3.361610 0.000000 0.000000 
#    y 0.000000 3.496230 0.000000 
#    z 0.000000 0.000000 3.784980 
# 
# 
# High freq. dielectric constant tensor:
#      x y z
#    x 1.723010 0.000000 0.000000 
#    y 0.000000 1.721170 0.000000 
#    z 0.000000 0.000000 1.733890 
# 
# From -- ./inp_files/6814.got.cif
#   From: 2010.03.12/outbox.cif.g09.slc.cpg/sg28_4_cif.got.tgz:6814.got - 2010.04.14 03:39:34.
