data_PCOD8168275
_publ_section_title
;
Structure prediction by ZEFSAII (Michael W. Deem and Ramdas Pophale) SiO2 
 PCOD8168275
Probable space group: P M A 2
;
_chemical_formula_sum "Si O2"
_cell_formula_units_Z 28
_cell_length_a 8.800419
_cell_length_b 15.296686
_cell_length_c 12.606635
_cell_angle_alpha 90.000000
_cell_angle_beta 90.000000
_cell_angle_gamma 90.000000
_cell_volume 1697.070486
_symmetry_space_group_name_H-M "P M A 2"
_symmetry_group_IT_number 28
_symmetry_cell_setting 'orthorhombic'
loop_
_space_group_symop_operation_xyz
x,y,z
-x,-y,z
1/2-x,y,z
1/2+x,-y,z
loop_
_atom_site_type_symbol
_atom_site_label
_atom_site_fract_x
_atom_site_fract_y
_atom_site_fract_z
Si Si1 0.572595 0.725817 0.446930
Si Si2 0.072702 0.595209 0.283011
Si Si3 0.426405 0.916974 0.672419
Si Si4 0.074930 0.082247 0.443268
Si Si5 0.929227 0.595980 0.841302
Si Si6 0.072958 0.723192 0.676094
Si Si7 0.425837 0.593746 0.048847
O O1 0.750000 0.711384 0.472115
O O2 0.515342 0.655864 0.363777
O O3 0.546029 0.821822 0.393306
O O4 0.478834 0.715651 0.554727
O O5 0.250000 0.588925 0.312694
O O6 0.052655 0.637436 0.164790
O O7 0.000000 0.500000 0.290292
O O8 0.250000 0.935349 0.659384
O O9 0.504138 0.914528 0.558991
O O10 0.454915 0.821254 0.723671
O O11 0.500000 0.000000 0.736891
O O12 0.250000 0.060735 0.452564
O O13 0.000000 0.000000 0.379030
O O14 0.750000 0.587467 0.845396
O O15 0.000000 0.500000 0.826983
O O16 0.975640 0.655646 0.743259
O O17 0.989944 0.641869 0.950670
O O18 0.250000 0.698533 0.682272
O O19 0.500000 0.500000 0.058045
O O20 0.250000 0.585043 0.018938
#
# Coordination Sequence:
#
# PCOD8168275 Si02
#       7
#     4   4   4   4   4   4   4
#     4  10  20  32  46  68  97 126 157 191 228 274
#     4  10  20  33  50  70  93 123 156 191 230 272
#     4   9  16  26  43  64  88 118 150 187 226 266
#     4   9  16  26  42  63  88 118 151 188 226 266
#     4  11  21  33  50  70  93 122 155 192 232 273
#     4  10  20  33  47  67  96 127 158 190 227 274
#     4   9  17  31  50  70  90 114 150 193 233 271
#
# _framework density 16.499020000000002
#
# number of rings (size 3 to 8) (size 9 to 14) (size 15 to 20)
#    0.000    2.286    0.000    5.571    0.000    5.714 
#    0.000    2.857    0.000    0.000    0.000    1.000 
#    0.000    6.857    0.000    0.000    0.000    0.000 
#
# Total GULP energy -346875.359705 kJ/mol
# GULP energy per Si atom -12388.405704 kJ/mol
# Density = 1.646147 g / cm^3
# Si number density = 16.499020 Si / 1000 Ang^3
#
#
#
# Elastic Constant Matrix: (Units=GPa)
#
#
# Indices 1 2 3 4 5 6 
#
# 1 113.6103 47.1143 28.8665 0.0000 0.0000 0.0000
# 2 47.1143 97.1816 40.1288 0.0000 0.0000 0.0000
# 3 28.8665 40.1288 62.9553 0.0000 0.0000 0.0000
# 4 0.0000 0.0000 0.0000 -2.5104 0.0000 0.0000
# 5 0.0000 0.0000 0.0000 0.0000 20.6397 0.0000
# 6 0.0000 0.0000 0.0000 0.0000 0.0000 29.7548
#
#
#
# Elastic Compliance Matrix: (Units=1/GPa)
#
#
# Indices 1 2 3 4 5 6 
#
# 1 0.011254 -0.004513 -0.002283 0.000000 0.000000 0.000000
# 2 -0.004513 0.015776 -0.007986 0.000000 0.000000 0.000000
# 3 -0.002283 -0.007986 0.022022 0.000000 0.000000 0.000000
# 4 0.000000 0.000000 0.000000 -0.398348 0.000000 0.000000
# 5 0.000000 0.000000 0.000000 0.000000 0.048450 0.000000
# 6 0.000000 0.000000 0.000000 0.000000 0.000000 0.033608
#
#
# Mechanical properties :
#
#
# Convention : Reuss Voigt Hill
#
# Bulk Modulus (GPa) = 51.31954 56.21847 53.76901
# Shear Modulus (GPa) = -21.62844 20.08600 -0.77122
#
# Velocity S-wave (km/s) = -3.62455 3.49292 -0.68443
# Velocity P-wave (km/s) = 3.69535 7.10036 5.65998
#
# Compressibility (1/GPa) = 0.01948576
#
# Stress axis : x y z
#
# Youngs Moduli (GPa) = 88.85927 63.38855 45.40919
#
# Poissons Ratio (x) = 0.28607 0.10369
# Poissons Ratio (y) = 0.40102 0.36266
# Poissons Ratio (z) = 0.20291 0.50625
#
# Static dielectric constant tensor:
#      x y z
#    x 3.326060 0.000000 0.000000 
#    y 0.000000 3.771360 0.000000 
#    z 0.000000 0.000000 3.122510 
# 
# 
# High freq. dielectric constant tensor:
#      x y z
#    x 1.660810 0.000000 0.000000 
#    y 0.000000 1.630770 0.000000 
#    z 0.000000 0.000000 1.595580 
# 
# From -- ./inp_files/5130.got.cif
#   From: 2010.03.12/outbox.cif.g09.slc.cpg/sg28_3_cif.got.tgz:5130.got - 2010.04.14 03:39:34.
