data_PCOD8168081
_publ_section_title
;
Structure prediction by ZEFSAII (Michael W. Deem and Ramdas Pophale) SiO2 
 PCOD8168081
Probable space group: P M A 2
;
_chemical_formula_sum "Si O2"
_cell_formula_units_Z 32
_cell_length_a 9.228521
_cell_length_b 17.535677
_cell_length_c 11.491199
_cell_angle_alpha 90.000000
_cell_angle_beta 90.000000
_cell_angle_gamma 90.000000
_cell_volume 1859.601928
_symmetry_space_group_name_H-M "P M A 2"
_symmetry_group_IT_number 28
_symmetry_cell_setting 'orthorhombic'
loop_
_space_group_symop_operation_xyz
x,y,z
-x,-y,z
1/2-x,y,z
1/2+x,-y,z
loop_
_atom_site_type_symbol
_atom_site_label
_atom_site_fract_x
_atom_site_fract_y
_atom_site_fract_z
Si Si1 0.581481 0.233759 0.673830
Si Si2 0.919121 0.073337 0.566282
Si Si3 0.920145 0.264695 0.939202
Si Si4 0.414760 0.573491 0.037941
Si Si5 0.082872 0.650638 0.268046
Si Si6 0.912937 0.697961 0.472941
Si Si7 0.409669 0.134703 0.365399
Si Si8 0.919481 0.786311 0.144298
O O1 0.750000 0.247362 0.648210
O O2 0.538397 0.146829 0.642691
O O3 0.540265 0.248627 0.806373
O O4 0.492774 0.294201 0.596596
O O5 0.750000 0.057360 0.566204
O O6 0.971500 0.084774 0.432497
O O7 0.000000 0.000000 0.620581
O O8 0.750000 0.252977 0.964659
O O9 0.970384 0.350491 0.971939
O O10 0.013293 0.203339 0.015057
O O11 0.500000 0.500000 0.992342
O O12 0.250000 0.559842 0.002590
O O13 0.431508 0.579936 0.178681
O O14 0.250000 0.668056 0.297792
O O15 0.996868 0.637497 0.389465
O O16 0.016317 0.721002 0.199840
O O17 0.750000 0.668195 0.493626
O O18 0.914333 0.778593 0.408743
O O19 0.250000 0.100038 0.390832
O O20 0.438538 0.137982 0.225549
O O21 0.750000 0.763185 0.138388
#
# Coordination Sequence:
#
# PCOD8168081 Si02
#       8
#     4   4   4   4   4   4   4   4
#     4   9  18  32  49  68  92 126 166 200 233 280
#     4  10  19  30  47  69  92 120 152 191 239 287
#     4   9  18  32  48  68  94 125 164 202 234 278
#     4   9  18  30  46  68  93 121 152 193 241 286
#     4   9  16  27  43  64  90 119 148 179 224 278
#     4   9  16  26  43  68  93 115 144 187 232 269
#     4   8  15  27  42  63  91 116 141 178 223 272
#     4   9  16  26  43  68  93 116 145 186 231 268
#
# _framework density 17.207982999999999
#
# number of rings (size 3 to 8) (size 9 to 14) (size 15 to 20)
#    0.000    3.000    0.000    3.000    0.000    7.000 
#    0.000    0.000    0.000    1.500    0.000    5.250 
#    0.000    0.000    0.000    0.000    0.000    0.000 
#
# Total GULP energy -396545.977046 kJ/mol
# GULP energy per Si atom -12392.061783 kJ/mol
# Density = 1.716882 g / cm^3
# Si number density = 17.207983 Si / 1000 Ang^3
#
#
#
# Elastic Constant Matrix: (Units=GPa)
#
#
# Indices 1 2 3 4 5 6 
#
# 1 89.2714 27.6576 51.5999 0.0000 0.0000 0.0000
# 2 27.6576 48.4781 33.7183 0.0000 0.0000 0.0000
# 3 51.5999 33.7183 123.5553 0.0000 0.0000 0.0000
# 4 0.0000 0.0000 0.0000 14.8718 0.0000 0.0000
# 5 0.0000 0.0000 0.0000 0.0000 25.5874 0.0000
# 6 0.0000 0.0000 0.0000 0.0000 0.0000 23.1025
#
#
#
# Elastic Compliance Matrix: (Units=1/GPa)
#
#
# Indices 1 2 3 4 5 6 
#
# 1 0.015866 -0.005484 -0.005129 0.000000 0.000000 0.000000
# 2 -0.005484 0.027356 -0.005175 0.000000 0.000000 0.000000
# 3 -0.005129 -0.005175 0.011648 0.000000 0.000000 0.000000
# 4 0.000000 0.000000 0.000000 0.067241 0.000000 0.000000
# 5 0.000000 0.000000 0.000000 0.000000 0.039082 0.000000
# 6 0.000000 0.000000 0.000000 0.000000 0.000000 0.043285
#
#
# Mechanical properties :
#
#
# Convention : Reuss Voigt Hill
#
# Bulk Modulus (GPa) = 42.93194 54.13959 48.53577
# Shear Modulus (GPa) = 20.50698 22.60094 21.55396
#
# Velocity S-wave (km/s) = 3.45586 3.62802 3.54299
# Velocity P-wave (km/s) = 6.39742 7.00573 6.70847
#
# Compressibility (1/GPa) = 0.02329268
#
# Stress axis : x y z
#
# Youngs Moduli (GPa) = 63.02937 36.55486 85.85158
#
# Poissons Ratio (x) = 0.20047 0.44036
# Poissons Ratio (y) = 0.34565 0.44430
# Poissons Ratio (z) = 0.32330 0.18918
#
# Static dielectric constant tensor:
#      x y z
#    x 3.338960 0.000000 0.000000 
#    y 0.000000 2.887270 0.000000 
#    z 0.000000 0.000000 3.448680 
# 
# 
# High freq. dielectric constant tensor:
#      x y z
#    x 1.674690 0.000000 0.000000 
#    y 0.000000 1.616440 0.000000 
#    z 0.000000 0.000000 1.656340 
# 
# From -- ./inp_files/5166.got.cif
#   From: 2010.03.12/outbox.cif.g09.slc.cpg/sg28_3_cif.got.tgz:5166.got - 2010.04.14 03:39:34.
