data_PCOD8168552
_publ_section_title
;
Structure prediction by ZEFSAII (Michael W. Deem and Ramdas Pophale) SiO2 
 PCOD8168552
Probable space group: P C A 21
;
_chemical_formula_sum "Si O2"
_cell_formula_units_Z 28
_cell_length_a 20.644344
_cell_length_b 13.643478
_cell_length_c 5.045777
_cell_angle_alpha 90.000000
_cell_angle_beta 90.000000
_cell_angle_gamma 90.000000
_cell_volume 1421.196846
_symmetry_space_group_name_H-M "P C A 21"
_symmetry_group_IT_number 29
_symmetry_cell_setting 'orthorhombic'
loop_
_space_group_symop_operation_xyz
x,y,z
-x,-y,1/2+z
1/2-x,y,1/2+z
1/2+x,-y,z
loop_
_atom_site_type_symbol
_atom_site_label
_atom_site_fract_x
_atom_site_fract_y
_atom_site_fract_z
Si Si1 0.558858 0.884915 0.938630
Si Si2 0.956900 0.497427 0.577596
Si Si3 0.374950 0.033953 0.931822
Si Si4 0.415859 0.300955 0.742844
Si Si5 0.291424 0.211215 0.968661
Si Si6 0.415394 0.830909 0.938578
Si Si7 0.439223 0.710301 0.428308
O O1 0.577190 0.915758 0.643582
O O2 0.584004 0.774426 0.996538
O O3 0.482170 0.889811 0.978518
O O4 0.591863 0.959006 0.144340
O O5 0.909185 0.588683 0.631454
O O6 0.916828 0.401493 0.484851
O O7 0.993869 0.468834 0.847923
O O8 0.308213 0.095185 0.940526
O O9 0.361921 0.917528 0.976197
O O10 0.354933 0.278207 0.929818
O O11 0.482355 0.288705 0.911983
O O12 0.235883 0.236215 0.757036
O O13 0.406526 0.745937 0.155963
O O14 0.412496 0.781686 0.652860
#
# Coordination Sequence:
#
# PCOD8168552 Si02
#       7
#     4   4   4   4   4   4   4
#     4  10  18  30  48  74 101 131 166 198 250 319
#     4  10  19  32  52  78 107 138 167 201 257 323
#     4  11  21  33  49  70  99 134 168 211 255 292
#     4   9  20  35  54  75 109 142 165 212 264 299
#     4  11  23  37  52  74 100 135 183 219 248 300
#     4  11  19  31  48  73 105 134 162 202 252 307
#     4  10  20  32  51  80 107 132 169 201 248 326
#
# _framework density 19.701705
#
# number of rings (size 3 to 8) (size 9 to 14) (size 15 to 20)
#    0.000    1.714    0.000    8.571    0.000    5.714 
#    0.000    0.000    0.000    0.000    0.000    6.000 
#    0.000    0.000    0.000    0.000    0.000    0.000 
#
# Total GULP energy -347162.917158 kJ/mol
# GULP energy per Si atom -12398.675613 kJ/mol
# Density = 1.965686 g / cm^3
# Si number density = 19.701705 Si / 1000 Ang^3
#
#
#
# Elastic Constant Matrix: (Units=GPa)
#
#
# Indices 1 2 3 4 5 6 
#
# 1 29.8942 23.9868 14.0182 0.0000 0.0000 0.0000
# 2 23.9868 152.6791 24.2857 0.0000 0.0000 0.0000
# 3 14.0182 24.2857 79.8833 0.0000 0.0000 0.0000
# 4 0.0000 0.0000 0.0000 34.2469 0.0000 0.0000
# 5 0.0000 0.0000 0.0000 0.0000 18.2509 0.0000
# 6 0.0000 0.0000 0.0000 0.0000 0.0000 21.6905
#
#
#
# Elastic Compliance Matrix: (Units=1/GPa)
#
#
# Indices 1 2 3 4 5 6 
#
# 1 0.040394 -0.005484 -0.005421 0.000000 0.000000 0.000000
# 2 -0.005484 0.007627 -0.001356 0.000000 0.000000 0.000000
# 3 -0.005421 -0.001356 0.013882 0.000000 0.000000 0.000000
# 4 0.000000 0.000000 0.000000 0.029200 0.000000 0.000000
# 5 0.000000 0.000000 0.000000 0.000000 0.054792 0.000000
# 6 0.000000 0.000000 0.000000 0.000000 0.000000 0.046103
#
#
# Mechanical properties :
#
#
# Convention : Reuss Voigt Hill
#
# Bulk Modulus (GPa) = 26.75246 43.00422 34.87834
# Shear Modulus (GPa) = 21.83596 28.18206 25.00901
#
# Velocity S-wave (km/s) = 3.33277 3.78622 3.56671
# Velocity P-wave (km/s) = 5.33086 6.40226 5.89097
#
# Compressibility (1/GPa) = 0.03737974
#
# Stress axis : x y z
#
# Youngs Moduli (GPa) = 24.75637 131.11364 72.03594
#
# Poissons Ratio (x) = 0.71900 0.39052
# Poissons Ratio (y) = 0.13576 0.09771
# Poissons Ratio (z) = 0.13421 0.17784
#
# Static dielectric constant tensor:
#      x y z
#    x 3.138720 0.000000 0.000000 
#    y 0.000000 3.813410 0.000000 
#    z 0.000000 0.000000 3.707850 
# 
# 
# High freq. dielectric constant tensor:
#      x y z
#    x 1.695230 0.000000 0.000000 
#    y 0.000000 1.773960 0.000000 
#    z 0.000000 0.000000 1.788820 
# 
# From -- ./inp_files/684.got.cif
#   From: 2010.03.12/outbox.cif.g09.slc.cpg/sg29_1_cif.got.tgz:684.got - 2010.04.14 03:43:10.
