data_PCOD8168659
_publ_section_title
;
Structure prediction by ZEFSAII (Michael W. Deem and Ramdas Pophale) SiO2 
 PCOD8168659
Probable space group: P C A 21
;
_chemical_formula_sum "Si O2"
_cell_formula_units_Z 32
_cell_length_a 17.003149
_cell_length_b 11.253383
_cell_length_c 8.428792
_cell_angle_alpha 90.000000
_cell_angle_beta 90.000000
_cell_angle_gamma 90.000000
_cell_volume 1612.789909
_symmetry_space_group_name_H-M "P C A 21"
_symmetry_group_IT_number 29
_symmetry_cell_setting 'orthorhombic'
loop_
_space_group_symop_operation_xyz
x,y,z
-x,-y,1/2+z
1/2-x,y,1/2+z
1/2+x,-y,z
loop_
_atom_site_type_symbol
_atom_site_label
_atom_site_fract_x
_atom_site_fract_y
_atom_site_fract_z
Si Si1 0.329914 0.637843 0.010480
Si Si2 0.879419 0.062781 0.718425
Si Si3 0.025051 0.616130 0.118542
Si Si4 0.600710 0.564341 0.353919
Si Si5 0.920266 0.178834 0.421571
Si Si6 0.479337 0.764713 0.915834
Si Si7 0.924841 0.807709 0.715530
Si Si8 0.763420 0.220085 0.268010
O O1 0.288061 0.655983 0.179312
O O2 0.324335 0.505700 0.932123
O O3 0.422257 0.673529 0.010960
O O4 0.285946 0.739730 0.915987
O O5 0.928322 0.077046 0.554740
O O6 0.929345 0.118838 0.863984
O O7 0.794159 0.124102 0.683992
O O8 0.869294 0.921611 0.745181
O O9 0.069031 0.506299 0.200540
O O10 0.987983 0.699112 0.257392
O O11 0.087101 0.694596 0.016010
O O12 0.959751 0.569343 0.999494
O O13 0.622377 0.694650 0.287624
O O14 0.843719 0.154477 0.315012
O O15 0.994764 0.174144 0.309573
O O16 0.553065 0.793892 0.029479
#
# Coordination Sequence:
#
# PCOD8168659 Si02
#       8
#     4   4   4   4   4   4   4   4
#     4  10  20  34  56  81 110 146 196 239 283 339
#     4  10  21  35  55  87 118 149 201 247 284 348
#     4   9  19  32  54  87 117 140 189 235 292 346
#     4  10  20  33  54  85 121 149 178 237 298 355
#     4  10  20  35  58  86 109 152 196 243 292 336
#     4   9  18  34  54  85 114 148 192 243 285 338
#     4  11  20  35  58  85 123 153 186 240 310 348
#     4  11  20  36  59  82 108 149 202 244 278 336
#
# _framework density 19.841394000000001
#
# number of rings (size 3 to 8) (size 9 to 14) (size 15 to 20)
#    0.000    2.000    2.500    3.000    1.750    0.000 
#    0.000    0.000    2.750    0.000    0.000    0.000 
#    0.000    0.000    0.000    0.000    0.000    0.000 
#
# Total GULP energy -396420.982463 kJ/mol
# GULP energy per Si atom -12388.155702 kJ/mol
# Density = 1.979623 g / cm^3
# Si number density = 19.841394 Si / 1000 Ang^3
#
#
#
# Elastic Constant Matrix: (Units=GPa)
#
#
# Indices 1 2 3 4 5 6 
#
# 1 46.1571 23.2292 12.5875 0.0000 0.0000 0.0000
# 2 23.2292 127.7500 22.8392 0.0000 0.0000 0.0000
# 3 12.5875 22.8392 70.2502 0.0000 0.0000 0.0000
# 4 0.0000 0.0000 0.0000 24.6512 0.0000 0.0000
# 5 0.0000 0.0000 0.0000 0.0000 17.3848 0.0000
# 6 0.0000 0.0000 0.0000 0.0000 0.0000 21.2916
#
#
#
# Elastic Compliance Matrix: (Units=1/GPa)
#
#
# Indices 1 2 3 4 5 6 
#
# 1 0.024475 -0.003893 -0.003120 0.000000 0.000000 0.000000
# 2 -0.003893 0.008930 -0.002206 0.000000 0.000000 0.000000
# 3 -0.003120 -0.002206 0.015511 0.000000 0.000000 0.000000
# 4 0.000000 0.000000 0.000000 0.040566 0.000000 0.000000
# 5 0.000000 0.000000 0.000000 0.000000 0.057522 0.000000
# 6 0.000000 0.000000 0.000000 0.000000 0.000000 0.046967
#
#
# Mechanical properties :
#
#
# Convention : Reuss Voigt Hill
#
# Bulk Modulus (GPa) = 32.80910 40.16325 36.48617
# Shear Modulus (GPa) = 22.46518 25.03228 23.74873
#
# Velocity S-wave (km/s) = 3.36853 3.55578 3.46342
# Velocity P-wave (km/s) = 5.63035 6.09460 5.86707
#
# Compressibility (1/GPa) = 0.03047935
#
# Stress axis : x y z
#
# Youngs Moduli (GPa) = 40.85809 111.98289 64.47041
#
# Poissons Ratio (x) = 0.43590 0.20114
# Poissons Ratio (y) = 0.15904 0.14221
# Poissons Ratio (z) = 0.12747 0.24701
#
# Static dielectric constant tensor:
#      x y z
#    x 3.426390 0.000000 0.000000 
#    y 0.000000 3.689670 0.000000 
#    z 0.000000 0.000000 3.801800 
# 
# 
# High freq. dielectric constant tensor:
#      x y z
#    x 1.724570 0.000000 0.000000 
#    y 0.000000 1.763300 0.000000 
#    z 0.000000 0.000000 1.790290 
# 
# From -- ./inp_files/2196.got.cif
#   From: 2010.03.12/outbox.cif.g09.slc.cpg/sg29_2_cif.got.tgz:2196.got - 2010.04.14 03:43:10.
