data_PCOD8168088
_publ_section_title
;
Structure prediction by ZEFSAII (Michael W. Deem and Ramdas Pophale) SiO2 
 PCOD8168088
Probable space group: P M A 2
;
_chemical_formula_sum "Si O2"
_cell_formula_units_Z 24
_cell_length_a 18.075786
_cell_length_b 5.044959
_cell_length_c 13.694898
_cell_angle_alpha 90.000000
_cell_angle_beta 90.000000
_cell_angle_gamma 90.000000
_cell_volume 1248.859650
_symmetry_space_group_name_H-M "P M A 2"
_symmetry_group_IT_number 28
_symmetry_cell_setting 'orthorhombic'
loop_
_space_group_symop_operation_xyz
x,y,z
-x,-y,z
1/2-x,y,z
1/2+x,-y,z
loop_
_atom_site_type_symbol
_atom_site_label
_atom_site_fract_x
_atom_site_fract_y
_atom_site_fract_z
Si Si1 0.587863 0.039000 0.503960
Si Si2 0.951137 0.251980 0.312520
Si Si3 0.449902 0.743741 0.097945
Si Si4 0.412338 0.463179 0.612271
Si Si5 0.334041 0.283704 0.804801
Si Si6 0.166078 0.793977 0.931248
O O1 0.607691 0.157816 0.396029
O O2 0.619949 0.249328 0.582944
O O3 0.500000 0.000000 0.508615
O O4 0.619038 0.750074 0.532296
O O5 0.916722 0.326063 0.206646
O O6 0.000000 0.500000 0.353143
O O7 0.000000 0.000000 0.288890
O O8 0.500000 0.500000 0.060254
O O9 0.500000 0.000000 0.097542
O O10 0.380946 0.799895 0.029090
O O11 0.500000 0.500000 0.611742
O O12 0.387539 0.368055 0.717883
O O13 0.250000 0.257223 0.765538
O O14 0.339366 0.502125 0.888306
O O15 0.362536 0.007651 0.851298
O O16 0.250000 0.869171 0.959574
#
# Coordination Sequence:
#
# PCOD8168088 Si02
#       6
#     4   4   4   4   4   4
#     4   9  16  28  46  71 100 127 156 194 242 295
#     4   9  16  28  47  72 101 129 158 196 245 299
#     4  10  20  33  53  80 103 128 167 213 253 290
#     4  10  19  30  48  73  97 124 162 205 244 281
#     4  10  21  36  52  70  97 136 173 203 247 305
#     4  10  21  37  54  72 100 138 171 203 253 310
#
# _framework density 19.21753
#
# number of rings (size 3 to 8) (size 9 to 14) (size 15 to 20)
#    0.000    2.333    0.000    4.500    0.000    2.000 
#    0.000    0.000    0.000    2.000    0.000    0.000 
#    0.000    5.333    0.000    0.000    0.000    0.000 
#
# Total GULP energy -297346.693201 kJ/mol
# GULP energy per Si atom -12389.445550 kJ/mol
# Density = 1.917379 g / cm^3
# Si number density = 19.217530 Si / 1000 Ang^3
#
#
#
# Elastic Constant Matrix: (Units=GPa)
#
#
# Indices 1 2 3 4 5 6 
#
# 1 35.6345 23.1641 40.7416 0.0000 0.0000 0.0000
# 2 23.1641 107.1075 22.8638 0.0000 0.0000 0.0000
# 3 40.7416 22.8638 116.3184 0.0000 0.0000 0.0000
# 4 0.0000 0.0000 0.0000 34.6159 0.0000 0.0000
# 5 0.0000 0.0000 0.0000 0.0000 2.4173 0.0000
# 6 0.0000 0.0000 0.0000 0.0000 0.0000 16.2481
#
#
#
# Elastic Compliance Matrix: (Units=1/GPa)
#
#
# Indices 1 2 3 4 5 6 
#
# 1 0.052285 -0.007722 -0.016795 0.000000 0.000000 0.000000
# 2 -0.007722 0.010886 0.000565 0.000000 0.000000 0.000000
# 3 -0.016795 0.000565 0.014369 0.000000 0.000000 0.000000
# 4 0.000000 0.000000 0.000000 0.028888 0.000000 0.000000
# 5 0.000000 0.000000 0.000000 0.000000 0.413686 0.000000
# 6 0.000000 0.000000 0.000000 0.000000 0.000000 0.061546
#
#
# Mechanical properties :
#
#
# Convention : Reuss Voigt Hill
#
# Bulk Modulus (GPa) = 33.74464 48.06660 40.90562
# Shear Modulus (GPa) = 7.81930 22.14230 14.98080
#
# Velocity S-wave (km/s) = 2.01932 3.39808 2.79505
# Velocity P-wave (km/s) = 4.79941 6.36098 5.63455
#
# Compressibility (1/GPa) = 0.02963433
#
# Stress axis : x y z
#
# Youngs Moduli (GPa) = 19.12584 91.86182 69.59525
#
# Poissons Ratio (x) = 0.70940 1.16889
# Poissons Ratio (y) = 0.14770 -0.03933
# Poissons Ratio (z) = 0.32123 -0.05191
#
# Static dielectric constant tensor:
#      x y z
#    x 2.986400 0.000000 0.000000 
#    y 0.000000 3.969120 0.000000 
#    z 0.000000 0.000000 3.748590 
# 
# 
# High freq. dielectric constant tensor:
#      x y z
#    x 1.677430 0.000000 0.000000 
#    y 0.000000 1.779860 0.000000 
#    z 0.000000 0.000000 1.756720 
# 
# From -- ./inp_files/5662.got.cif
#   From: 2010.03.12/outbox.cif.g09.slc.cpg/sg28_3_cif.got.tgz:5662.got - 2010.04.14 03:39:34.
