data_PCOD8168753
_publ_section_title
;
Structure prediction by ZEFSAII (Michael W. Deem and Ramdas Pophale) SiO2 
 PCOD8168753
Probable space group: P C A 21
;
_chemical_formula_sum "Si O2"
_cell_formula_units_Z 20
_cell_length_a 12.954384
_cell_length_b 7.676763
_cell_length_c 10.052797
_cell_angle_alpha 90.000000
_cell_angle_beta 90.000000
_cell_angle_gamma 90.000000
_cell_volume 999.727900
_symmetry_space_group_name_H-M "P C A 21"
_symmetry_group_IT_number 29
_symmetry_cell_setting 'orthorhombic'
loop_
_space_group_symop_operation_xyz
x,y,z
-x,-y,1/2+z
1/2-x,y,1/2+z
1/2+x,-y,z
loop_
_atom_site_type_symbol
_atom_site_label
_atom_site_fract_x
_atom_site_fract_y
_atom_site_fract_z
Si Si1 0.672268 0.663548 0.032730
Si Si2 0.664486 0.054831 0.011975
Si Si3 0.566575 0.344939 0.157029
Si Si4 0.156185 0.426766 0.738758
Si Si5 0.769399 0.209470 0.243419
O O1 0.585703 0.529657 0.084365
O O2 0.774953 0.651732 0.121102
O O3 0.626319 0.858613 0.037180
O O4 0.704471 0.619676 0.881773
O O5 0.571414 0.189477 0.046264
O O6 0.762560 0.096471 0.108148
O O7 0.702110 0.079090 0.861413
O O8 0.457444 0.344390 0.229432
O O9 0.657269 0.305683 0.265364
O O10 0.147186 0.636554 0.726743
#
# Coordination Sequence:
#
# PCOD8168753 Si02
#       5
#     4   4   4   4   4
#     4  11  23  41  69  91 126 172 208 261 327 371
#     4  10  20  43  60  93 124 163 206 261 313 373
#     4   9  23  40  62  93 126 163 209 256 311 382
#     4  11  21  44  65  92 128 171 209 259 323 378
#     4   9  19  40  62  85 128 161 200 263 310 364
#
# _framework density 20.005445000000002
#
# number of rings (size 3 to 8) (size 9 to 14) (size 15 to 20)
#    1.200    0.800    2.000    1.200    0.000    4.800 
#   10.800    0.000    0.000    0.000    0.000    0.000 
#    0.000    0.000    0.000    0.000    0.000    0.000 
#
# Total GULP energy -247853.814390 kJ/mol
# GULP energy per Si atom -12392.690720 kJ/mol
# Density = 1.995991 g / cm^3
# Si number density = 20.005445 Si / 1000 Ang^3
#
#
#
# Elastic Constant Matrix: (Units=GPa)
#
#
# Indices 1 2 3 4 5 6 
#
# 1 61.0768 5.1636 15.9304 0.0000 0.0000 0.0000
# 2 5.1636 140.2310 11.1792 0.0000 0.0000 0.0000
# 3 15.9304 11.1792 90.0831 0.0000 0.0000 0.0000
# 4 0.0000 0.0000 0.0000 26.7602 0.0000 0.0000
# 5 0.0000 0.0000 0.0000 0.0000 21.9106 0.0000
# 6 0.0000 0.0000 0.0000 0.0000 0.0000 12.2864
#
#
#
# Elastic Compliance Matrix: (Units=1/GPa)
#
#
# Indices 1 2 3 4 5 6 
#
# 1 0.017186 -0.000394 -0.002990 0.000000 0.000000 0.000000
# 2 -0.000394 0.007211 -0.000825 0.000000 0.000000 0.000000
# 3 -0.002990 -0.000825 0.011732 0.000000 0.000000 0.000000
# 4 0.000000 0.000000 0.000000 0.037369 0.000000 0.000000
# 5 0.000000 0.000000 0.000000 0.000000 0.045640 0.000000
# 6 0.000000 0.000000 0.000000 0.000000 0.000000 0.081391
#
#
# Mechanical properties :
#
#
# Convention : Reuss Voigt Hill
#
# Bulk Modulus (GPa) = 36.08828 39.54858 37.81843
# Shear Modulus (GPa) = 22.91624 29.46595 26.19110
#
# Velocity S-wave (km/s) = 3.38820 3.84200 3.62221
# Velocity P-wave (km/s) = 5.77796 6.28435 6.03647
#
# Compressibility (1/GPa) = 0.02770983
#
# Stress axis : x y z
#
# Youngs Moduli (GPa) = 58.18653 138.66939 85.23647
#
# Poissons Ratio (x) = 0.05470 0.25488
# Poissons Ratio (y) = 0.02295 0.07033
# Poissons Ratio (z) = 0.17399 0.11443
#
# Static dielectric constant tensor:
#      x y z
#    x 3.099160 0.000000 0.000000 
#    y 0.000000 3.718550 0.000000 
#    z 0.000000 0.000000 3.528860 
# 
# 
# High freq. dielectric constant tensor:
#      x y z
#    x 1.737010 0.000000 0.000000 
#    y 0.000000 1.794760 0.000000 
#    z 0.000000 0.000000 1.780010 
# 
# From -- ./inp_files/1679.got.cif
#   From: 2010.03.12/outbox.cif.g09.slc.cpg/sg29_1_cif.got.tgz:1679.got - 2010.04.14 03:43:10.
