data_PCOD8168217
_publ_section_title
;
Structure prediction by ZEFSAII (Michael W. Deem and Ramdas Pophale) SiO2 
 PCOD8168217
Probable space group: P M A 2
;
_chemical_formula_sum "Si O2"
_cell_formula_units_Z 32
_cell_length_a 8.746651
_cell_length_b 14.323853
_cell_length_c 15.568696
_cell_angle_alpha 90.000000
_cell_angle_beta 90.000000
_cell_angle_gamma 90.000000
_cell_volume 1950.535648
_symmetry_space_group_name_H-M "P M A 2"
_symmetry_group_IT_number 28
_symmetry_cell_setting 'orthorhombic'
loop_
_space_group_symop_operation_xyz
x,y,z
-x,-y,z
1/2-x,y,z
1/2+x,-y,z
loop_
_atom_site_type_symbol
_atom_site_label
_atom_site_fract_x
_atom_site_fract_y
_atom_site_fract_z
Si Si1 0.068388 0.102070 0.373380
Si Si2 0.572250 0.407342 0.273453
Si Si3 0.071926 0.899583 0.697762
Si Si4 0.570186 0.405705 0.467074
Si Si5 0.069503 0.792924 0.530417
Si Si6 0.929940 0.101813 0.885627
Si Si7 0.429832 0.792438 0.213626
Si Si8 0.930513 0.897288 0.055382
O O1 0.250000 0.098919 0.361921
O O2 0.025125 0.143152 0.465599
O O3 0.992616 0.165545 0.301227
O O4 0.000000 0.000000 0.363677
O O5 0.500000 0.500000 0.230946
O O6 0.750000 0.424531 0.280066
O O7 0.507279 0.392070 0.369983
O O8 0.535115 0.318077 0.214923
O O9 0.250000 0.919033 0.693992
O O10 0.022346 0.825139 0.625982
O O11 0.029835 0.855395 0.791685
O O12 0.000000 0.000000 0.679869
O O13 0.500000 0.500000 0.508194
O O14 0.750000 0.416471 0.468647
O O15 0.519873 0.315134 0.521684
O O16 0.250000 0.805701 0.511783
O O17 0.750000 0.098701 0.902592
O O18 0.000000 0.000000 0.884781
O O19 0.009768 0.152459 0.967013
O O20 0.250000 0.813622 0.206334
O O21 0.518959 0.833071 0.133355
O O22 0.750000 0.905895 0.053576
O O23 0.000000 0.000000 0.067773
#
# Coordination Sequence:
#
# PCOD8168217 Si02
#       8
#     4   4   4   4   4   4   4   4
#     4  12  24  35  47  66  95 132 167 199 232 279
#     4   9  18  32  51  71  93 123 156 197 242 283
#     4   9  18  30  48  70  96 127 161 198 237 283
#     4   9  17  31  49  69  93 123 158 199 243 284
#     4  10  19  34  50  69  97 129 163 200 240 284
#     4   9  16  29  47  69  93 123 159 198 241 284
#     4  11  21  36  52  70  96 128 162 198 239 284
#     4  11  21  33  49  72  98 129 162 199 241 285
#
# _framework density 16.405750000000001
#
# number of rings (size 3 to 8) (size 9 to 14) (size 15 to 20)
#    0.000    2.000    1.250    4.500    0.000    3.500 
#    0.000    0.000    0.000    0.000    0.000    0.875 
#    0.000    2.000    0.000    0.000    0.000    0.000 
#
# Total GULP energy -396666.723256 kJ/mol
# GULP energy per Si atom -12395.835102 kJ/mol
# Density = 1.636841 g / cm^3
# Si number density = 16.405750 Si / 1000 Ang^3
#
#
#
# Elastic Constant Matrix: (Units=GPa)
#
#
# Indices 1 2 3 4 5 6 
#
# 1 67.9055 34.7836 32.2252 0.0000 0.0000 0.0000
# 2 34.7836 78.4535 30.4067 0.0000 0.0000 0.0000
# 3 32.2252 30.4067 102.9898 0.0000 0.0000 0.0000
# 4 0.0000 0.0000 0.0000 1.9659 0.0000 0.0000
# 5 0.0000 0.0000 0.0000 0.0000 21.7568 0.0000
# 6 0.0000 0.0000 0.0000 0.0000 0.0000 23.9630
#
#
#
# Elastic Compliance Matrix: (Units=1/GPa)
#
#
# Indices 1 2 3 4 5 6 
#
# 1 0.020563 -0.007479 -0.004226 0.000000 0.000000 0.000000
# 2 -0.007479 0.017114 -0.002712 0.000000 0.000000 0.000000
# 3 -0.004226 -0.002712 0.011833 0.000000 0.000000 0.000000
# 4 0.000000 0.000000 0.000000 0.508661 0.000000 0.000000
# 5 0.000000 0.000000 0.000000 0.000000 0.045963 0.000000
# 6 0.000000 0.000000 0.000000 0.000000 0.000000 0.041731
#
#
# Mechanical properties :
#
#
# Convention : Reuss Voigt Hill
#
# Bulk Modulus (GPa) = 48.36887 49.35330 48.86109
# Shear Modulus (GPa) = 7.33579 19.66604 13.50091
#
# Velocity S-wave (km/s) = 2.11688 3.46602 2.87180
# Velocity P-wave (km/s) = 5.96002 6.79456 6.39092
#
# Compressibility (1/GPa) = 0.02067445
#
# Stress axis : x y z
#
# Youngs Moduli (GPa) = 48.63146 58.43300 84.51080
#
# Poissons Ratio (x) = 0.43702 0.35714
# Poissons Ratio (y) = 0.36371 0.22923
# Poissons Ratio (z) = 0.20551 0.15850
#
# Static dielectric constant tensor:
#      x y z
#    x 3.137220 0.000000 0.000000 
#    y 0.000000 3.039080 0.000000 
#    z 0.000000 0.000000 3.684930 
# 
# 
# High freq. dielectric constant tensor:
#      x y z
#    x 1.639910 0.000000 0.000000 
#    y 0.000000 1.609900 0.000000 
#    z 0.000000 0.000000 1.624960 
# 
# From -- ./inp_files/6420.got.cif
#   From: 2010.03.12/outbox.cif.g09.slc.cpg/sg28_4_cif.got.tgz:6420.got - 2010.04.14 03:39:34.
