data_PCOD8168614
_publ_section_title
;
Structure prediction by ZEFSAII (Michael W. Deem and Ramdas Pophale) SiO2 
 PCOD8168614
Probable space group: P C A 21
;
_chemical_formula_sum "Si O2"
_cell_formula_units_Z 32
_cell_length_a 19.759565
_cell_length_b 8.161103
_cell_length_c 8.538121
_cell_angle_alpha 90.000000
_cell_angle_beta 90.000000
_cell_angle_gamma 90.000000
_cell_volume 1376.856071
_symmetry_space_group_name_H-M "P C A 21"
_symmetry_group_IT_number 29
_symmetry_cell_setting 'orthorhombic'
loop_
_space_group_symop_operation_xyz
x,y,z
-x,-y,1/2+z
1/2-x,y,1/2+z
1/2+x,-y,z
loop_
_atom_site_type_symbol
_atom_site_label
_atom_site_fract_x
_atom_site_fract_y
_atom_site_fract_z
Si Si1 0.792161 0.894911 0.417690
Si Si2 0.795793 0.377728 0.511837
Si Si3 0.077660 0.275592 0.029039
Si Si4 0.424603 0.593398 0.689091
Si Si5 0.301028 0.910733 0.119366
Si Si6 0.427444 0.441428 0.206115
Si Si7 0.283914 0.410783 0.221667
Si Si8 0.069644 0.754192 0.521416
O O1 0.862465 0.854321 0.506350
O O2 0.761362 0.744390 0.321820
O O3 0.735449 0.931038 0.546364
O O4 0.803170 0.056560 0.307034
O O5 0.869523 0.320535 0.574920
O O6 0.739474 0.248736 0.564254
O O7 0.774753 0.550001 0.597499
O O8 0.795167 0.423017 0.328422
O O9 0.083547 0.393141 0.182409
O O10 0.006978 0.174399 0.018340
O O11 0.077389 0.414483 0.892940
O O12 0.502658 0.639614 0.640283
O O13 0.410651 0.653577 0.865115
O O14 0.377217 0.899960 0.051347
O O15 0.356693 0.367469 0.138373
O O16 0.427075 0.633651 0.169623
#
# Coordination Sequence:
#
# PCOD8168614 Si02
#       8
#     4   4   4   4   4   4   4   4
#     4  11  24  43  60  89 134 172 206 265 327 386
#     4  12  22  38  64  95 120 165 216 265 317 381
#     4   9  20  41  64  88 126 170 213 266 326 393
#     4  10  19  35  63  94 123 154 214 275 315 375
#     4  12  25  41  62  95 136 169 212 269 326 392
#     4   9  18  36  61  92 121 157 207 276 318 372
#     4  11  22  40  63  88 122 164 216 260 321 380
#     4  10  20  38  65  95 126 161 218 268 330 385
#
# _framework density 23.241356
#
# number of rings (size 3 to 8) (size 9 to 14) (size 15 to 20)
#    0.000    1.500    3.750    3.000    0.000    0.000 
#    0.000    5.000    0.000    0.000    0.000    0.000 
#    0.000    0.000    0.000    0.000    0.000    0.000 
#
# Total GULP energy -396477.938766 kJ/mol
# GULP energy per Si atom -12389.935586 kJ/mol
# Density = 2.318846 g / cm^3
# Si number density = 23.241356 Si / 1000 Ang^3
#
#
#
# Elastic Constant Matrix: (Units=GPa)
#
#
# Indices 1 2 3 4 5 6 
#
# 1 132.3659 19.7958 36.1862 0.0000 0.0000 0.0000
# 2 19.7958 34.9145 4.1191 0.0000 0.0000 0.0000
# 3 36.1862 4.1191 64.9133 0.0000 0.0000 0.0000
# 4 0.0000 0.0000 0.0000 38.4449 0.0000 0.0000
# 5 0.0000 0.0000 0.0000 0.0000 29.4744 0.0000
# 6 0.0000 0.0000 0.0000 0.0000 0.0000 38.7039
#
#
#
# Elastic Compliance Matrix: (Units=1/GPa)
#
#
# Indices 1 2 3 4 5 6 
#
# 1 0.009675 -0.004886 -0.005083 0.000000 0.000000 0.000000
# 2 -0.004886 0.031325 0.000736 0.000000 0.000000 0.000000
# 3 -0.005083 0.000736 0.018192 0.000000 0.000000 0.000000
# 4 0.000000 0.000000 0.000000 0.026011 0.000000 0.000000
# 5 0.000000 0.000000 0.000000 0.000000 0.033928 0.000000
# 6 0.000000 0.000000 0.000000 0.000000 0.000000 0.025837
#
#
# Mechanical properties :
#
#
# Convention : Reuss Voigt Hill
#
# Bulk Modulus (GPa) = 24.55467 39.15510 31.85489
# Shear Modulus (GPa) = 28.24691 32.79749 30.52220
#
# Velocity S-wave (km/s) = 3.49000 3.76063 3.62784
# Velocity P-wave (km/s) = 5.17959 5.97831 5.59323
#
# Compressibility (1/GPa) = 0.04072545
#
# Stress axis : x y z
#
# Youngs Moduli (GPa) = 103.35656 31.92356 54.96841
#
# Poissons Ratio (x) = 0.15598 0.27943
# Poissons Ratio (y) = 0.50499 -0.04046
# Poissons Ratio (z) = 0.52541 -0.02349
#
# Static dielectric constant tensor:
#      x y z
#    x 4.705350 0.000000 0.000000 
#    y 0.000000 3.789910 0.000000 
#    z 0.000000 0.000000 4.156630 
# 
# 
# High freq. dielectric constant tensor:
#      x y z
#    x 1.943840 0.000000 0.000000 
#    y 0.000000 1.879490 0.000000 
#    z 0.000000 0.000000 1.908850 
# 
# From -- ./inp_files/2255.got.cif
#   From: 2010.03.12/outbox.cif.g09.slc.cpg/sg29_2_cif.got.tgz:2255.got - 2010.04.14 03:43:10.
