data_PCOD8168368
_publ_section_title
;
Structure prediction by ZEFSAII (Michael W. Deem and Ramdas Pophale) SiO2 
 PCOD8168368
Probable space group: P M A 2
;
_chemical_formula_sum "Si O2"
_cell_formula_units_Z 24
_cell_length_a 15.219459
_cell_length_b 8.378148
_cell_length_c 9.460373
_cell_angle_alpha 90.000000
_cell_angle_beta 90.000000
_cell_angle_gamma 90.000000
_cell_volume 1206.300486
_symmetry_space_group_name_H-M "P M A 2"
_symmetry_group_IT_number 28
_symmetry_cell_setting 'orthorhombic'
loop_
_space_group_symop_operation_xyz
x,y,z
-x,-y,z
1/2-x,y,z
1/2+x,-y,z
loop_
_atom_site_type_symbol
_atom_site_label
_atom_site_fract_x
_atom_site_fract_y
_atom_site_fract_z
Si Si1 0.647802 0.299083 0.510750
Si Si2 0.506123 0.684718 0.003128
Si Si3 0.916276 0.112854 0.779181
Si Si4 0.499823 0.814265 0.310943
Si Si5 0.845599 0.795037 0.813111
Si Si6 0.647402 0.675342 0.512007
O O1 0.750000 0.252474 0.493727
O O2 0.592197 0.220307 0.386573
O O3 0.633822 0.487421 0.500940
O O4 0.609273 0.234896 0.657052
O O5 0.500000 0.500000 0.967927
O O6 0.499498 0.712755 0.168662
O O7 0.431373 0.782865 0.919783
O O8 0.600066 0.743201 0.948708
O O9 0.838052 0.987874 0.806863
O O10 0.000000 0.000000 0.740141
O O11 0.585903 0.765551 0.400088
O O12 0.500000 0.000000 0.273916
O O13 0.750000 0.719955 0.833664
O O14 0.886097 0.728804 0.666647
O O15 0.750000 0.723213 0.487527
#
# Coordination Sequence:
#
# PCOD8168368 Si02
#       6
#     4   4   4   4   4   4
#     4  11  22  38  61  89 117 152 195 239 285 340
#     4  11  23  40  60  82 114 155 193 234 288 345
#     4  10  20  36  59  86 117 152 192 235 285 339
#     4  12  24  40  60  84 118 155 193 239 290 345
#     4  10  20  37  60  88 117 148 189 238 285 337
#     4  10  22  39  62  89 118 152 193 237 286 340
#
# _framework density 19.895541000000001
#
# number of rings (size 3 to 8) (size 9 to 14) (size 15 to 20)
#    0.000    1.333    0.000    8.000    0.000    2.667 
#    0.000    5.000    0.000    0.000    0.000    0.000 
#    0.000    0.000    0.000    0.000    0.000    0.000 
#
# Total GULP energy -297591.444882 kJ/mol
# GULP energy per Si atom -12399.643537 kJ/mol
# Density = 1.985026 g / cm^3
# Si number density = 19.895541 Si / 1000 Ang^3
#
#
#
# Elastic Constant Matrix: (Units=GPa)
#
#
# Indices 1 2 3 4 5 6 
#
# 1 85.9424 12.8302 37.2667 0.0000 0.0000 0.0000
# 2 12.8302 90.6240 3.0036 0.0000 0.0000 0.0000
# 3 37.2667 3.0036 105.0037 0.0000 0.0000 0.0000
# 4 0.0000 0.0000 0.0000 39.4881 0.0000 0.0000
# 5 0.0000 0.0000 0.0000 0.0000 15.0282 0.0000
# 6 0.0000 0.0000 0.0000 0.0000 0.0000 23.2319
#
#
#
# Elastic Compliance Matrix: (Units=1/GPa)
#
#
# Indices 1 2 3 4 5 6 
#
# 1 0.014047 -0.001825 -0.004933 0.000000 0.000000 0.000000
# 2 -0.001825 0.011282 0.000325 0.000000 0.000000 0.000000
# 3 -0.004933 0.000325 0.011265 0.000000 0.000000 0.000000
# 4 0.000000 0.000000 0.000000 0.025324 0.000000 0.000000
# 5 0.000000 0.000000 0.000000 0.000000 0.066541 0.000000
# 6 0.000000 0.000000 0.000000 0.000000 0.000000 0.043044
#
#
# Mechanical properties :
#
#
# Convention : Reuss Voigt Hill
#
# Bulk Modulus (GPa) = 42.14489 43.08567 42.61528
# Shear Modulus (GPa) = 26.00365 30.78097 28.39231
#
# Velocity S-wave (km/s) = 3.61918 3.93762 3.78175
# Velocity P-wave (km/s) = 6.22043 6.50969 6.36670
#
# Compressibility (1/GPa) = 0.02372767
#
# Stress axis : x y z
#
# Youngs Moduli (GPa) = 71.18749 88.63481 88.77007
#
# Poissons Ratio (x) = 0.16178 0.43793
# Poissons Ratio (y) = 0.12994 -0.02886
# Poissons Ratio (z) = 0.35119 -0.02881
#
# Static dielectric constant tensor:
#      x y z
#    x 3.562160 0.000000 0.000000 
#    y 0.000000 3.883340 0.000000 
#    z 0.000000 0.000000 3.474320 
# 
# 
# High freq. dielectric constant tensor:
#      x y z
#    x 1.780070 0.000000 0.000000 
#    y 0.000000 1.795960 0.000000 
#    z 0.000000 0.000000 1.770100 
# 
# From -- ./inp_files/3805.got.cif
#   From: 2010.03.12/outbox.cif.g09.slc.cpg/sg28_2_cif.got.tgz:3805.got - 2010.04.14 03:39:34.
