data_PCOD8168764
_publ_section_title
;
Structure prediction by ZEFSAII (Michael W. Deem and Ramdas Pophale) SiO2 
 PCOD8168764
Probable space group: P C A 21
;
_chemical_formula_sum "Si O2"
_cell_formula_units_Z 32
_cell_length_a 35.667838
_cell_length_b 4.908050
_cell_length_c 8.590528
_cell_angle_alpha 90.000000
_cell_angle_beta 90.000000
_cell_angle_gamma 90.000000
_cell_volume 1503.853814
_symmetry_space_group_name_H-M "P C A 21"
_symmetry_group_IT_number 29
_symmetry_cell_setting 'orthorhombic'
loop_
_space_group_symop_operation_xyz
x,y,z
-x,-y,1/2+z
1/2-x,y,1/2+z
1/2+x,-y,z
loop_
_atom_site_type_symbol
_atom_site_label
_atom_site_fract_x
_atom_site_fract_y
_atom_site_fract_z
Si Si1 0.672461 0.521937 0.375000
Si Si2 0.518040 0.281551 0.735880
Si Si3 0.219690 0.975585 0.338938
Si Si4 0.470010 0.200528 0.030362
Si Si5 0.400189 0.754508 0.303956
Si Si6 0.611761 0.746238 0.604802
Si Si7 0.845871 0.521700 0.527807
Si Si8 0.297663 0.950975 0.492547
O O1 0.691703 0.235804 0.432043
O O2 0.647154 0.694985 0.493949
O O3 0.649968 0.474312 0.213337
O O4 0.707633 0.713922 0.348737
O O5 0.520675 0.578892 0.662312
O O6 0.555624 0.192440 0.830661
O O7 0.510547 0.074645 0.593288
O O8 0.484451 0.277972 0.859771
O O9 0.263028 0.999417 0.381496
O O10 0.218975 0.887911 0.161107
O O11 0.425120 0.150405 0.012674
O O12 0.396632 0.557307 0.158304
O O13 0.384841 0.586561 0.453710
O O14 0.380005 0.039851 0.248159
O O15 0.815989 0.331003 0.440045
O O16 0.831300 0.825348 0.490245
#
# Coordination Sequence:
#
# PCOD8168764 Si02
#       8
#     4   4   4   4   4   4   4   4
#     4  10  21  37  55  79 110 142 181 228 277 333
#     4  10  21  38  59  86 119 153 194 241 287 343
#     4  10  21  36  54  78 107 139 180 227 274 330
#     4  10  21  38  59  86 119 153 194 241 287 343
#     4  10  21  37  57  83 113 146 188 234 280 336
#     4  10  21  37  57  83 113 146 188 234 280 336
#     4  10  21  37  55  79 110 142 181 228 277 333
#     4  10  21  36  54  78 107 139 180 227 274 330
#
# _framework density 21.278663999999999
#
# number of rings (size 3 to 8) (size 9 to 14) (size 15 to 20)
#    0.000    2.000    0.000    3.000    0.000    4.000 
#    0.000    3.750    0.000    0.000    0.000    0.000 
#    0.000    0.000    0.000    0.000    0.000    0.000 
#
# Total GULP energy -396424.999348 kJ/mol
# GULP energy per Si atom -12388.281230 kJ/mol
# Density = 2.123023 g / cm^3
# Si number density = 21.278664 Si / 1000 Ang^3
#
#
#
# Elastic Constant Matrix: (Units=GPa)
#
#
# Indices 1 2 3 4 5 6 
#
# 1 30.2158 2.1306 2.1488 0.0000 0.0000 0.0000
# 2 2.1306 84.2897 5.7862 0.0000 0.0000 0.0000
# 3 2.1488 5.7862 23.8072 0.0000 0.0000 0.0000
# 4 0.0000 0.0000 0.0000 29.5139 0.0000 0.0000
# 5 0.0000 0.0000 0.0000 0.0000 32.2878 0.0000
# 6 0.0000 0.0000 0.0000 0.0000 0.0000 26.8568
#
#
#
# Elastic Compliance Matrix: (Units=1/GPa)
#
#
# Indices 1 2 3 4 5 6 
#
# 1 0.033344 -0.000647 -0.002852 0.000000 0.000000 0.000000
# 2 -0.000647 0.012078 -0.002877 0.000000 0.000000 0.000000
# 3 -0.002852 -0.002877 0.042961 0.000000 0.000000 0.000000
# 4 0.000000 0.000000 0.000000 0.033882 0.000000 0.000000
# 5 0.000000 0.000000 0.000000 0.000000 0.030971 0.000000
# 6 0.000000 0.000000 0.000000 0.000000 0.000000 0.037234
#
#
# Mechanical properties :
#
#
# Convention : Reuss Voigt Hill
#
# Bulk Modulus (GPa) = 13.22230 17.60483 15.41357
# Shear Modulus (GPa) = 21.88826 26.28153 24.08489
#
# Velocity S-wave (km/s) = 3.21073 3.51823 3.36799
# Velocity P-wave (km/s) = 4.46906 4.97949 4.73116
#
# Compressibility (1/GPa) = 0.07562978
#
# Stress axis : x y z
#
# Youngs Moduli (GPa) = 29.99062 82.79721 23.27701
#
# Poissons Ratio (x) = 0.05357 0.06639
# Poissons Ratio (y) = 0.01940 0.06697
# Poissons Ratio (z) = 0.08554 0.23821
#
# Static dielectric constant tensor:
#      x y z
#    x 3.883290 0.000000 0.000000 
#    y 0.000000 4.064290 0.000000 
#    z 0.000000 0.000000 3.607160 
# 
# 
# High freq. dielectric constant tensor:
#      x y z
#    x 1.825170 0.000000 0.000000 
#    y 0.000000 1.856690 0.000000 
#    z 0.000000 0.000000 1.811260 
# 
# From -- ./inp_files/2586.got.cif
#   From: 2010.03.12/outbox.cif.g09.slc.cpg/sg29_2_cif.got.tgz:2586.got - 2010.04.14 03:43:10.
