data_PCOD8168241
_publ_section_title
;
Structure prediction by ZEFSAII (Michael W. Deem and Ramdas Pophale) SiO2 
 PCOD8168241
Probable space group: P M A 2
;
_chemical_formula_sum "Si O2"
_cell_formula_units_Z 32
_cell_length_a 9.078501
_cell_length_b 16.228482
_cell_length_c 10.888509
_cell_angle_alpha 90.000000
_cell_angle_beta 90.000000
_cell_angle_gamma 90.000000
_cell_volume 1604.207189
_symmetry_space_group_name_H-M "P M A 2"
_symmetry_group_IT_number 28
_symmetry_cell_setting 'orthorhombic'
loop_
_space_group_symop_operation_xyz
x,y,z
-x,-y,z
1/2-x,y,z
1/2+x,-y,z
loop_
_atom_site_type_symbol
_atom_site_label
_atom_site_fract_x
_atom_site_fract_y
_atom_site_fract_z
Si Si1 0.913377 0.112345 0.661760
Si Si2 0.417550 0.073347 0.428885
Si Si3 0.926023 0.257464 0.070096
Si Si4 0.087772 0.424381 0.696764
Si Si5 0.577262 0.749232 0.327716
Si Si6 0.075975 0.914546 0.941234
Si Si7 0.914082 0.294557 0.563929
Si Si8 0.084559 0.419799 0.983311
O O1 0.750000 0.073401 0.647984
O O2 0.971469 0.100672 0.800239
O O3 0.904648 0.206440 0.624518
O O4 0.028362 0.071205 0.569841
O O5 0.250000 0.050089 0.430667
O O6 0.451432 0.155807 0.357113
O O7 0.500000 0.000000 0.356139
O O8 0.750000 0.265010 0.067244
O O9 0.986837 0.269935 0.206520
O O10 0.975357 0.167616 0.016512
O O11 0.995052 0.334258 0.996566
O O12 0.250000 0.418641 0.637043
O O13 0.102474 0.436918 0.840678
O O14 0.000000 0.500000 0.635662
O O15 0.994668 0.343862 0.670064
O O16 0.750000 0.728768 0.312404
O O17 0.509392 0.697414 0.439548
O O18 0.250000 0.925738 0.955608
O O19 0.000000 0.000000 0.988648
O O20 0.750000 0.327977 0.536099
O O21 0.250000 0.412663 0.041560
O O22 0.000000 0.500000 0.041481
#
# Coordination Sequence:
#
# PCOD8168241 Si02
#       8
#     4   4   4   4   4   4   4   4
#     4   9  18  33  53  78 108 141 178 223 277 335
#     4  10  20  33  52  77 105 138 178 227 278 330
#     4  11  23  40  60  82 112 151 195 241 289 338
#     4  10  20  34  55  85 118 148 179 218 268 328
#     4  10  22  39  56  77 106 142 187 232 276 331
#     4  10  22  37  54  80 114 151 190 234 283 337
#     4  10  19  34  57  82 110 144 181 224 278 334
#     4  10  21  38  62  91 120 151 188 231 281 337
#
# _framework density 19.947548000000001
#
# number of rings (size 3 to 8) (size 9 to 14) (size 15 to 20)
#    0.000    2.000    0.000    3.375    0.000    7.500 
#    0.000    3.125    0.000    0.000    0.000    0.000 
#    0.000    0.000    0.000    0.000    0.000    0.000 
#
# Total GULP energy -396609.165177 kJ/mol
# GULP energy per Si atom -12394.036412 kJ/mol
# Density = 1.990215 g / cm^3
# Si number density = 19.947548 Si / 1000 Ang^3
#
#
#
# Elastic Constant Matrix: (Units=GPa)
#
#
# Indices 1 2 3 4 5 6 
#
# 1 108.1359 54.4951 13.6973 0.0000 0.0000 0.0000
# 2 54.4951 93.0760 16.1578 0.0000 0.0000 0.0000
# 3 13.6973 16.1578 39.3537 0.0000 0.0000 0.0000
# 4 0.0000 0.0000 0.0000 64.7031 0.0000 0.0000
# 5 0.0000 0.0000 0.0000 0.0000 18.6179 0.0000
# 6 0.0000 0.0000 0.0000 0.0000 0.0000 37.8587
#
#
#
# Elastic Compliance Matrix: (Units=1/GPa)
#
#
# Indices 1 2 3 4 5 6 
#
# 1 0.013203 -0.007465 -0.001531 0.000000 0.000000 0.000000
# 2 -0.007465 0.015789 -0.003884 0.000000 0.000000 0.000000
# 3 -0.001531 -0.003884 0.027538 0.000000 0.000000 0.000000
# 4 0.000000 0.000000 0.000000 0.015455 0.000000 0.000000
# 5 0.000000 0.000000 0.000000 0.000000 0.053712 0.000000
# 6 0.000000 0.000000 0.000000 0.000000 0.000000 0.026414
#
#
# Mechanical properties :
#
#
# Convention : Reuss Voigt Hill
#
# Bulk Modulus (GPa) = 32.49837 45.47398 38.98617
# Shear Modulus (GPa) = 26.57768 34.65030 30.61399
#
# Velocity S-wave (km/s) = 3.65414 4.17234 3.92181
# Velocity P-wave (km/s) = 5.84217 6.78657 6.33200
#
# Compressibility (1/GPa) = 0.03077078
#
# Stress axis : x y z
#
# Youngs Moduli (GPa) = 75.73838 63.33630 36.31322
#
# Poissons Ratio (x) = 0.47279 0.05558
# Poissons Ratio (y) = 0.56536 0.14105
# Poissons Ratio (z) = 0.11593 0.24602
#
# Static dielectric constant tensor:
#      x y z
#    x 3.933030 0.000000 0.000000 
#    y 0.000000 3.169690 0.000000 
#    z 0.000000 0.000000 3.417060 
# 
# 
# High freq. dielectric constant tensor:
#      x y z
#    x 1.792150 0.000000 0.000000 
#    y 0.000000 1.784250 0.000000 
#    z 0.000000 0.000000 1.754620 
# 
# From -- ./inp_files/5067.got.cif
#   From: 2010.03.12/outbox.cif.g09.slc.cpg/sg28_3_cif.got.tgz:5067.got - 2010.04.14 03:39:34.
