data_PCOD8168179
_publ_section_title
;
Structure prediction by ZEFSAII (Michael W. Deem and Ramdas Pophale) SiO2 
 PCOD8168179
Probable space group: P M A 2
;
_chemical_formula_sum "Si O2"
_cell_formula_units_Z 32
_cell_length_a 8.869043
_cell_length_b 9.288008
_cell_length_c 21.035178
_cell_angle_alpha 90.000000
_cell_angle_beta 90.000000
_cell_angle_gamma 90.000000
_cell_volume 1732.788403
_symmetry_space_group_name_H-M "P M A 2"
_symmetry_group_IT_number 28
_symmetry_cell_setting 'orthorhombic'
loop_
_space_group_symop_operation_xyz
x,y,z
-x,-y,z
1/2-x,y,z
1/2+x,-y,z
loop_
_atom_site_type_symbol
_atom_site_label
_atom_site_fract_x
_atom_site_fract_y
_atom_site_fract_z
Si Si1 0.927067 0.655498 0.395310
Si Si2 0.928698 0.341692 0.624725
Si Si3 0.923812 0.348791 0.763230
Si Si4 0.428829 0.155794 0.515825
Si Si5 0.426360 0.844777 0.151578
Si Si6 0.574217 0.153662 0.012721
Si Si7 0.572569 0.344886 0.899660
Si Si8 0.928920 0.842360 0.275948
O O1 0.750000 0.633313 0.393846
O O2 0.977260 0.746642 0.456381
O O3 0.982878 0.740695 0.333138
O O4 0.000000 0.500000 0.398441
O O5 0.750000 0.352322 0.611704
O O6 0.965141 0.275405 0.695584
O O7 0.000000 0.500000 0.615559
O O8 0.004932 0.228364 0.578491
O O9 0.750000 0.384146 0.762817
O O10 0.964630 0.269111 0.830324
O O11 0.000000 0.500000 0.765436
O O12 0.250000 0.140908 0.522041
O O13 0.500000 0.000000 0.505974
O O14 0.250000 0.857408 0.167052
O O15 0.454028 0.771724 0.082282
O O16 0.509440 0.766583 0.210788
O O17 0.500000 0.000000 0.147337
O O18 0.750000 0.130202 0.001562
O O19 0.500000 0.000000 0.008632
O O20 0.503423 0.250557 0.956786
O O21 0.500000 0.500000 0.903894
O O22 0.750000 0.362534 0.909355
O O23 0.750000 0.857441 0.273505
O O24 0.000000 0.000000 0.285487
#
# Coordination Sequence:
#
# PCOD8168179 Si02
#       8
#     4   4   4   4   4   4   4   4
#     4  10  23  39  56  78 104 133 168 205 246 294
#     4  10  19  33  54  80 106 135 170 211 255 303
#     4   8  15  28  48  71  98 130 166 205 247 293
#     4  11  23  39  57  79 105 136 171 209 252 301
#     4   9  16  28  47  71  97 129 165 203 245 293
#     4   9  18  31  48  70  98 129 166 207 248 294
#     4   9  17  31  49  71  98 130 167 208 249 295
#     4  10  19  33  53  78 102 128 163 204 247 295
#
# _framework density 18.467344000000001
#
# number of rings (size 3 to 8) (size 9 to 14) (size 15 to 20)
#    0.000    2.500    0.000    3.000    0.000    4.500 
#    0.000    1.250    0.000    4.500    0.000    0.000 
#    0.000    0.000    0.000    0.000    0.000    0.000 
#
# Total GULP energy -396427.400485 kJ/mol
# GULP energy per Si atom -12388.356265 kJ/mol
# Density = 1.842531 g / cm^3
# Si number density = 18.467344 Si / 1000 Ang^3
#
#
#
# Elastic Constant Matrix: (Units=GPa)
#
#
# Indices 1 2 3 4 5 6 
#
# 1 61.6849 35.5702 56.5682 0.0000 0.0000 0.0000
# 2 35.5702 92.1954 77.2057 0.0000 0.0000 0.0000
# 3 56.5682 77.2057 206.2985 0.0000 0.0000 0.0000
# 4 0.0000 0.0000 0.0000 30.4747 0.0000 0.0000
# 5 0.0000 0.0000 0.0000 0.0000 39.2718 0.0000
# 6 0.0000 0.0000 0.0000 0.0000 0.0000 25.1439
#
#
#
# Elastic Compliance Matrix: (Units=1/GPa)
#
#
# Indices 1 2 3 4 5 6 
#
# 1 0.023311 -0.005303 -0.004407 0.000000 0.000000 0.000000
# 2 -0.005303 0.017004 -0.004909 0.000000 0.000000 0.000000
# 3 -0.004407 -0.004909 0.007893 0.000000 0.000000 0.000000
# 4 0.000000 0.000000 0.000000 0.032814 0.000000 0.000000
# 5 0.000000 0.000000 0.000000 0.000000 0.025464 0.000000
# 6 0.000000 0.000000 0.000000 0.000000 0.000000 0.039771
#
#
# Mechanical properties :
#
#
# Convention : Reuss Voigt Hill
#
# Bulk Modulus (GPa) = 52.71897 77.65188 65.18542
# Shear Modulus (GPa) = 27.49984 31.70039 29.60012
#
# Velocity S-wave (km/s) = 3.86308 4.14764 4.00789
# Velocity P-wave (km/s) = 6.96469 8.06701 7.53604
#
# Compressibility (1/GPa) = 0.01896850
#
# Stress axis : x y z
#
# Youngs Moduli (GPa) = 42.89789 58.81085 126.69099
#
# Poissons Ratio (x) = 0.31187 0.55839
# Poissons Ratio (y) = 0.22748 0.62198
# Poissons Ratio (z) = 0.18907 0.28873
#
# Static dielectric constant tensor:
#      x y z
#    x 3.433910 0.000000 0.000000 
#    y 0.000000 3.078050 0.000000 
#    z 0.000000 0.000000 4.535480 
# 
# 
# High freq. dielectric constant tensor:
#      x y z
#    x 1.721640 0.000000 0.000000 
#    y 0.000000 1.672440 0.000000 
#    z 0.000000 0.000000 1.750910 
# 
# From -- ./inp_files/7053.got.cif
#   From: 2010.03.12/outbox.cif.g09.slc.cpg/sg28_4_cif.got.tgz:7053.got - 2010.04.14 03:39:34.
