data_PCOD8168462
_publ_section_title
;
Structure prediction by ZEFSAII (Michael W. Deem and Ramdas Pophale) SiO2 
 PCOD8168462
Probable space group: P M A 2
;
_chemical_formula_sum "Si O2"
_cell_formula_units_Z 28
_cell_length_a 18.966732
_cell_length_b 6.324654
_cell_length_c 11.495393
_cell_angle_alpha 90.000000
_cell_angle_beta 90.000000
_cell_angle_gamma 90.000000
_cell_volume 1378.964554
_symmetry_space_group_name_H-M "P M A 2"
_symmetry_group_IT_number 28
_symmetry_cell_setting 'orthorhombic'
loop_
_space_group_symop_operation_xyz
x,y,z
-x,-y,z
1/2-x,y,z
1/2+x,-y,z
loop_
_atom_site_type_symbol
_atom_site_label
_atom_site_fract_x
_atom_site_fract_y
_atom_site_fract_z
Si Si1 0.627857 0.250001 0.686880
Si Si2 0.579040 0.975213 0.887694
Si Si3 0.828236 0.921720 0.504692
Si Si4 0.828236 0.578281 0.869068
Si Si5 0.579040 0.524788 0.486065
Si Si6 0.668730 0.236170 0.056403
Si Si7 0.668730 0.263832 0.317357
O O1 0.674756 0.412526 0.761918
O O2 0.578512 0.378550 0.599603
O O3 0.578512 0.121452 0.774156
O O4 0.674756 0.087475 0.611842
O O5 0.607784 0.743171 0.852272
O O6 0.500000 0.000000 0.936198
O O7 0.629570 0.048708 0.990631
O O8 0.750000 0.814634 0.502335
O O9 0.892216 0.756832 0.521486
O O10 0.842600 0.042139 0.383435
O O11 0.750000 0.685365 0.871427
O O12 0.842602 0.457863 0.990325
O O13 0.500000 0.500000 0.437561
O O14 0.629570 0.451293 0.383129
O O15 0.750000 0.169942 0.059266
O O16 0.638261 0.250000 0.186880
O O17 0.750000 0.330062 0.314490
#
# Coordination Sequence:
#
# PCOD8168462 Si02
#       7
#     4   4   4   4   4   4   4
#     4  10  23  36  60  86 123 158 200 252 299 356
#     4  11  24  38  58  88 123 163 202 245 301 361
#     4  10  21  39  63  91 120 157 203 249 299 353
#     4  10  21  39  63  91 120 157 203 249 299 353
#     4  11  24  38  58  88 123 163 202 245 301 361
#     4   9  20  41  64  89 120 156 202 253 296 351
#     4   9  20  41  64  89 120 156 202 253 296 351
#
# _framework density 20.305091999999998
#
# number of rings (size 3 to 8) (size 9 to 14) (size 15 to 20)
#    0.000    2.000    0.000    2.143    4.000    9.143 
#    5.143    4.286    0.000    0.000    0.000    0.000 
#    0.000    0.000    0.000    0.000    0.000    0.000 
#
# Total GULP energy -347130.774814 kJ/mol
# GULP energy per Si atom -12397.527672 kJ/mol
# Density = 2.025888 g / cm^3
# Si number density = 20.305092 Si / 1000 Ang^3
#
#
#
# Elastic Constant Matrix: (Units=GPa)
#
#
# Indices 1 2 3 4 5 6 
#
# 1 104.9682 53.9700 28.4935 0.0000 0.0000 0.0000
# 2 53.9700 104.7715 44.9467 0.0000 0.0000 0.0000
# 3 28.4935 44.9467 147.2493 0.0000 0.0000 0.0000
# 4 0.0000 0.0000 0.0000 16.5337 0.0000 0.0000
# 5 0.0000 0.0000 0.0000 0.0000 5.3780 0.0000
# 6 0.0000 0.0000 0.0000 0.0000 0.0000 16.3763
#
#
#
# Elastic Compliance Matrix: (Units=1/GPa)
#
#
# Indices 1 2 3 4 5 6 
#
# 1 0.012996 -0.006462 -0.000542 0.000000 0.000000 0.000000
# 2 -0.006462 0.014196 -0.003083 0.000000 0.000000 0.000000
# 3 -0.000542 -0.003083 0.007837 0.000000 0.000000 0.000000
# 4 0.000000 0.000000 0.000000 0.060483 0.000000 0.000000
# 5 0.000000 0.000000 0.000000 0.000000 0.185942 0.000000
# 6 0.000000 0.000000 0.000000 0.000000 0.000000 0.061064
#
#
# Mechanical properties :
#
#
# Convention : Reuss Voigt Hill
#
# Bulk Modulus (GPa) = 67.31718 67.97883 67.64801
# Shear Modulus (GPa) = 13.60011 22.96285 18.28148
#
# Velocity S-wave (km/s) = 2.59083 3.36652 3.00382
# Velocity P-wave (km/s) = 6.49421 6.97586 6.73934
#
# Compressibility (1/GPa) = 0.01485505
#
# Stress axis : x y z
#
# Youngs Moduli (GPa) = 76.94423 70.44333 127.59767
#
# Poissons Ratio (x) = 0.45521 0.06921
# Poissons Ratio (y) = 0.49722 0.39335
# Poissons Ratio (z) = 0.04173 0.21716
#
# Static dielectric constant tensor:
#      x y z
#    x 3.439640 0.000000 0.000000 
#    y 0.000000 3.607390 0.000000 
#    z 0.000000 0.000000 3.829910 
# 
# 
# High freq. dielectric constant tensor:
#      x y z
#    x 1.781640 0.000000 0.000000 
#    y 0.000000 1.787430 0.000000 
#    z 0.000000 0.000000 1.799680 
# 
# From -- ./inp_files/5796.got.cif
#   From: 2010.03.12/outbox.cif.g09.slc.cpg/sg28_3_cif.got.tgz:5796.got - 2010.04.14 03:39:34.
