data_PCOD8168834
_publ_section_title
;
Structure prediction by ZEFSAII (Michael W. Deem and Ramdas Pophale) SiO2 
 PCOD8168834
Probable space group: P C A 21
;
_chemical_formula_sum "Si O2"
_cell_formula_units_Z 32
_cell_length_a 14.328535
_cell_length_b 11.803654
_cell_length_c 9.052576
_cell_angle_alpha 90.000000
_cell_angle_beta 90.000000
_cell_angle_gamma 90.000000
_cell_volume 1531.053755
_symmetry_space_group_name_H-M "P C A 21"
_symmetry_group_IT_number 29
_symmetry_cell_setting 'orthorhombic'
loop_
_space_group_symop_operation_xyz
x,y,z
-x,-y,1/2+z
1/2-x,y,1/2+z
1/2+x,-y,z
loop_
_atom_site_type_symbol
_atom_site_label
_atom_site_fract_x
_atom_site_fract_y
_atom_site_fract_z
Si Si1 0.670400 0.613101 0.194260
Si Si2 0.577853 0.088484 0.904291
Si Si3 0.459093 0.296624 0.193422
Si Si4 0.449052 0.921965 0.744484
Si Si5 0.985449 0.340705 0.379725
Si Si6 0.265988 0.007043 0.901527
Si Si7 0.277110 0.165868 0.159836
Si Si8 0.651992 0.531136 0.874903
O O1 0.573777 0.620144 0.283208
O O2 0.699648 0.736913 0.133835
O O3 0.748812 0.554547 0.297823
O O4 0.660560 0.534345 0.051325
O O5 0.532943 0.207529 0.858513
O O6 0.538651 0.990720 0.799254
O O7 0.689432 0.091596 0.879846
O O8 0.561178 0.051078 0.072340
O O9 0.537127 0.213601 0.263513
O O10 0.377939 0.217231 0.126864
O O11 0.423557 0.376333 0.323262
O O12 0.496533 0.367494 0.053183
O O13 0.362838 0.958820 0.844409
O O14 0.892440 0.409454 0.331414
O O15 0.237153 0.126411 0.827408
O O16 0.268100 0.048116 0.070577
#
# Coordination Sequence:
#
# PCOD8168834 Si02
#       8
#     4   4   4   4   4   4   4   4
#     4  11  23  42  72  97 126 170 220 270 321 375
#     4  11  25  42  62  97 131 172 214 260 326 383
#     4  10  21  41  66  93 127 167 219 270 318 380
#     4  11  23  40  64  91 134 168 210 267 320 384
#     4  11  24  45  65  95 131 170 215 272 320 388
#     4  12  22  38  60  95 130 171 206 258 321 383
#     4  11  20  38  65  93 128 166 218 261 306 384
#     4  11  24  44  68  99 123 168 220 268 324 383
#
# _framework density 20.900637
#
# number of rings (size 3 to 8) (size 9 to 14) (size 15 to 20)
#    0.000    1.000    2.500    6.750    0.000    0.000 
#    6.750    0.000    0.000    0.000    0.000    0.000 
#    0.000    0.000    0.000    0.000    0.000    0.000 
#
# Total GULP energy -396777.834696 kJ/mol
# GULP energy per Si atom -12399.307334 kJ/mol
# Density = 2.085307 g / cm^3
# Si number density = 20.900637 Si / 1000 Ang^3
#
#
#
# Elastic Constant Matrix: (Units=GPa)
#
#
# Indices 1 2 3 4 5 6 
#
# 1 97.7107 42.2347 32.2735 0.0000 0.0000 0.0000
# 2 42.2347 58.0574 41.0376 0.0000 0.0000 0.0000
# 3 32.2735 41.0376 85.9047 0.0000 0.0000 0.0000
# 4 0.0000 0.0000 0.0000 30.6171 0.0000 0.0000
# 5 0.0000 0.0000 0.0000 0.0000 23.9687 0.0000
# 6 0.0000 0.0000 0.0000 0.0000 0.0000 37.9256
#
#
#
# Elastic Compliance Matrix: (Units=1/GPa)
#
#
# Indices 1 2 3 4 5 6 
#
# 1 0.014951 -0.010427 -0.000636 0.000000 0.000000 0.000000
# 2 -0.010427 0.033277 -0.011980 0.000000 0.000000 0.000000
# 3 -0.000636 -0.011980 0.017603 0.000000 0.000000 0.000000
# 4 0.000000 0.000000 0.000000 0.032662 0.000000 0.000000
# 5 0.000000 0.000000 0.000000 0.000000 0.041721 0.000000
# 6 0.000000 0.000000 0.000000 0.000000 0.000000 0.026367
#
#
# Mechanical properties :
#
#
# Convention : Reuss Voigt Hill
#
# Bulk Modulus (GPa) = 50.64320 52.52938 51.58629
# Shear Modulus (GPa) = 22.80514 26.91073 24.85794
#
# Velocity S-wave (km/s) = 3.30680 3.59214 3.45242
# Velocity P-wave (km/s) = 6.23401 6.51092 6.37397
#
# Compressibility (1/GPa) = 0.01974599
#
# Stress axis : x y z
#
# Youngs Moduli (GPa) = 66.88349 30.05039 56.80995
#
# Poissons Ratio (x) = 0.31334 0.03613
# Poissons Ratio (y) = 0.69740 0.68056
# Poissons Ratio (z) = 0.04253 0.35999
#
# Static dielectric constant tensor:
#      x y z
#    x 3.903460 0.000000 0.000000 
#    y 0.000000 3.713240 0.000000 
#    z 0.000000 0.000000 3.765990 
# 
# 
# High freq. dielectric constant tensor:
#      x y z
#    x 1.825780 0.000000 0.000000 
#    y 0.000000 1.805730 0.000000 
#    z 0.000000 0.000000 1.824690 
# 
# From -- ./inp_files/1825.got.cif
#   From: 2010.03.12/outbox.cif.g09.slc.cpg/sg29_1_cif.got.tgz:1825.got - 2010.04.14 03:43:10.
