data_PCOD8168498
_publ_section_title
;
Structure prediction by ZEFSAII (Michael W. Deem and Ramdas Pophale) SiO2 
 PCOD8168498
Probable space group: P M A 2
;
_chemical_formula_sum "Si O2"
_cell_formula_units_Z 12
_cell_length_a 20.061287
_cell_length_b 5.128013
_cell_length_c 5.187816
_cell_angle_alpha 90.000000
_cell_angle_beta 90.000000
_cell_angle_gamma 90.000000
_cell_volume 533.694187
_symmetry_space_group_name_H-M "P M A 2"
_symmetry_group_IT_number 28
_symmetry_cell_setting 'orthorhombic'
loop_
_space_group_symop_operation_xyz
x,y,z
-x,-y,z
1/2-x,y,z
1/2+x,-y,z
loop_
_atom_site_type_symbol
_atom_site_label
_atom_site_fract_x
_atom_site_fract_y
_atom_site_fract_z
Si Si1 0.325208 0.102934 0.435380
Si Si2 0.614928 0.378738 0.234032
Si Si3 0.566737 0.154194 0.724424
O O1 0.250000 0.160442 0.527596
O O2 0.352785 0.339073 0.263220
O O3 0.372113 0.053137 0.686636
O O4 0.327575 0.843209 0.257568
O O5 0.560412 0.324996 0.461633
O O6 0.579974 0.354555 0.957291
O O7 0.500000 0.000000 0.786239
#
# Coordination Sequence:
#
# PCOD8168498 Si02
#       3
#     4   4   4
#     4  10  24  44  66  99 134 176 224 277 335 398
#     4  10  24  42  67  97 129 175 222 272 334 400
#     4  10  24  46  67 101 133 178 224 279 337 400
#
# _framework density 22.484788000000002
#
# number of rings (size 3 to 8) (size 9 to 14) (size 15 to 20)
#    2.000    0.000    0.000    2.000    4.667    4.000 
#    0.000    0.000    0.000    0.000    0.000    0.000 
#    0.000    0.000    0.000    0.000    0.000    0.000 
#
# Total GULP energy -148674.001209 kJ/mol
# GULP energy per Si atom -12389.500101 kJ/mol
# Density = 2.243361 g / cm^3
# Si number density = 22.484788 Si / 1000 Ang^3
#
#
#
# Elastic Constant Matrix: (Units=GPa)
#
#
# Indices 1 2 3 4 5 6 
#
# 1 95.0618 1.5097 26.7860 0.0000 0.0000 0.0000
# 2 1.5097 107.7102 22.6825 0.0000 0.0000 0.0000
# 3 26.7860 22.6825 148.4034 0.0000 0.0000 0.0000
# 4 0.0000 0.0000 0.0000 15.6636 0.0000 0.0000
# 5 0.0000 0.0000 0.0000 0.0000 13.9249 0.0000
# 6 0.0000 0.0000 0.0000 0.0000 0.0000 18.9872
#
#
#
# Elastic Compliance Matrix: (Units=1/GPa)
#
#
# Indices 1 2 3 4 5 6 
#
# 1 0.011091 0.000275 -0.002044 0.000000 0.000000 0.000000
# 2 0.000275 0.009600 -0.001517 0.000000 0.000000 0.000000
# 3 -0.002044 -0.001517 0.007339 0.000000 0.000000 0.000000
# 4 0.000000 0.000000 0.000000 0.063842 0.000000 0.000000
# 5 0.000000 0.000000 0.000000 0.000000 0.071814 0.000000
# 6 0.000000 0.000000 0.000000 0.000000 0.000000 0.052667
#
#
# Mechanical properties :
#
#
# Convention : Reuss Voigt Hill
#
# Bulk Modulus (GPa) = 46.60205 50.34798 48.47501
# Shear Modulus (GPa) = 21.73177 29.72826 25.73002
#
# Velocity S-wave (km/s) = 3.11225 3.64008 3.38646
# Velocity P-wave (km/s) = 5.80395 6.33305 6.07426
#
# Compressibility (1/GPa) = 0.02145829
#
# Stress axis : x y z
#
# Youngs Moduli (GPa) = 90.16302 104.16927 136.25554
#
# Poissons Ratio (x) = -0.02864 0.27849
# Poissons Ratio (y) = -0.02479 0.20668
# Poissons Ratio (z) = 0.18428 0.15801
#
# Static dielectric constant tensor:
#      x y z
#    x 3.904790 0.000000 0.000000 
#    y 0.000000 3.924070 0.000000 
#    z 0.000000 0.000000 3.741730 
# 
# 
# High freq. dielectric constant tensor:
#      x y z
#    x 1.867420 0.000000 0.000000 
#    y 0.000000 1.891360 0.000000 
#    z 0.000000 0.000000 1.872160 
# 
# From -- ./inp_files/878.got.cif
#   From: 2010.03.12/outbox.cif.g09.slc.cpg/sg28_1_cif.got.tgz:878.got - 2010.04.14 03:39:34.
