data_PCOD8168944
_publ_section_title
;
Structure prediction by ZEFSAII (Michael W. Deem and Ramdas Pophale) SiO2 
 PCOD8168944
Probable space group: P C A 21
;
_chemical_formula_sum "Si O2"
_cell_formula_units_Z 28
_cell_length_a 24.815199
_cell_length_b 5.482774
_cell_length_c 8.303965
_cell_angle_alpha 90.000000
_cell_angle_beta 90.000000
_cell_angle_gamma 90.000000
_cell_volume 1129.805324
_symmetry_space_group_name_H-M "P C A 21"
_symmetry_group_IT_number 29
_symmetry_cell_setting 'orthorhombic'
loop_
_space_group_symop_operation_xyz
x,y,z
-x,-y,1/2+z
1/2-x,y,1/2+z
1/2+x,-y,z
loop_
_atom_site_type_symbol
_atom_site_label
_atom_site_fract_x
_atom_site_fract_y
_atom_site_fract_z
Si Si1 0.378309 0.919079 0.620990
Si Si2 0.559360 0.403047 0.674208
Si Si3 0.699362 0.957600 0.387072
Si Si4 0.726426 0.657855 0.667441
Si Si5 0.934043 0.893445 0.328331
Si Si6 0.284510 0.663712 0.443144
Si Si7 0.038648 0.637417 0.308978
O O1 0.355443 0.039730 0.784258
O O2 0.413229 0.103702 0.512912
O O3 0.329014 0.846460 0.506652
O O4 0.415096 0.693004 0.677875
O O5 0.583499 0.145072 0.737612
O O6 0.496883 0.415404 0.735716
O O7 0.564322 0.424700 0.481744
O O8 0.590039 0.645087 0.745771
O O9 0.723577 0.222031 0.434140
O O10 0.685925 0.793522 0.544110
O O11 0.749952 0.853997 0.289296
O O12 0.697047 0.444440 0.769843
O O13 0.778071 0.552487 0.572024
O O14 0.999273 0.873321 0.330747
#
# Coordination Sequence:
#
# PCOD8168944 Si02
#       7
#     4   4   4   4   4   4   4
#     4  12  24  47  78 104 145 205 253 303 397 456
#     4  10  23  47  74 105 156 190 244 325 380 433
#     4  11  22  45  71 104 147 190 242 314 367 454
#     4  10  22  43  72 102 153 188 236 315 373 432
#     4  10  25  47  74 110 151 196 250 324 374 458
#     4  11  22  45  70 105 144 186 242 310 368 450
#     4  10  24  46  77 106 148 197 255 317 379 459
#
# _framework density 24.783031000000001
#
# number of rings (size 3 to 8) (size 9 to 14) (size 15 to 20)
#    0.857    0.571    2.857    1.714    2.000    1.143 
#    7.714    0.000    3.143    0.000    0.000    0.000 
#    0.000    0.000    0.000    0.000    0.000    0.000 
#
# Total GULP energy -346990.378233 kJ/mol
# GULP energy per Si atom -12392.513508 kJ/mol
# Density = 2.472662 g / cm^3
# Si number density = 24.783031 Si / 1000 Ang^3
#
#
#
# Elastic Constant Matrix: (Units=GPa)
#
#
# Indices 1 2 3 4 5 6 
#
# 1 44.3961 9.3888 15.5094 0.0000 0.0000 0.0000
# 2 9.3888 119.4706 38.3989 0.0000 0.0000 0.0000
# 3 15.5094 38.3989 129.9868 0.0000 0.0000 0.0000
# 4 0.0000 0.0000 0.0000 44.4560 0.0000 0.0000
# 5 0.0000 0.0000 0.0000 0.0000 48.6983 0.0000
# 6 0.0000 0.0000 0.0000 0.0000 0.0000 12.4920
#
#
#
# Elastic Compliance Matrix: (Units=1/GPa)
#
#
# Indices 1 2 3 4 5 6 
#
# 1 0.023623 -0.001050 -0.002508 0.000000 0.000000 0.000000
# 2 -0.001050 0.009295 -0.002621 0.000000 0.000000 0.000000
# 3 -0.002508 -0.002621 0.008766 0.000000 0.000000 0.000000
# 4 0.000000 0.000000 0.000000 0.022494 0.000000 0.000000
# 5 0.000000 0.000000 0.000000 0.000000 0.020535 0.000000
# 6 0.000000 0.000000 0.000000 0.000000 0.000000 0.080051
#
#
# Mechanical properties :
#
#
# Convention : Reuss Voigt Hill
#
# Bulk Modulus (GPa) = 34.09915 46.71642 40.40779
# Shear Modulus (GPa) = 26.75256 36.49969 31.62613
#
# Velocity S-wave (km/s) = 3.28909 3.84183 3.57616
# Velocity P-wave (km/s) = 5.31160 6.21053 5.77857
#
# Compressibility (1/GPa) = 0.02932624
#
# Stress axis : x y z
#
# Youngs Moduli (GPa) = 42.33189 107.58418 114.07092
#
# Poissons Ratio (x) = 0.11299 0.28612
# Poissons Ratio (y) = 0.04446 0.29892
# Poissons Ratio (z) = 0.10618 0.28192
#
# Static dielectric constant tensor:
#      x y z
#    x 3.978110 0.000000 0.000000 
#    y 0.000000 4.332710 0.000000 
#    z 0.000000 0.000000 4.649270 
# 
# 
# High freq. dielectric constant tensor:
#      x y z
#    x 1.953510 0.000000 0.000000 
#    y 0.000000 1.979350 0.000000 
#    z 0.000000 0.000000 2.003930 
# 
# From -- ./inp_files/2519.got.cif
#   From: 2010.03.12/outbox.cif.g09.slc.cpg/sg29_2_cif.got.tgz:2519.got - 2010.04.14 03:43:10.
