data_PCOD8168701
_publ_section_title
;
Structure prediction by ZEFSAII (Michael W. Deem and Ramdas Pophale) SiO2 
 PCOD8168701
Probable space group: P C A 21
;
_chemical_formula_sum "Si O2"
_cell_formula_units_Z 32
_cell_length_a 19.476838
_cell_length_b 8.432007
_cell_length_c 8.589285
_cell_angle_alpha 90.000000
_cell_angle_beta 90.000000
_cell_angle_gamma 90.000000
_cell_volume 1410.608263
_symmetry_space_group_name_H-M "P C A 21"
_symmetry_group_IT_number 29
_symmetry_cell_setting 'orthorhombic'
loop_
_space_group_symop_operation_xyz
x,y,z
-x,-y,1/2+z
1/2-x,y,1/2+z
1/2+x,-y,z
loop_
_atom_site_type_symbol
_atom_site_label
_atom_site_fract_x
_atom_site_fract_y
_atom_site_fract_z
Si Si1 0.915574 0.778873 0.659860
Si Si2 0.794004 0.897935 0.202076
Si Si3 0.434375 0.773610 0.146100
Si Si4 0.194406 0.596535 0.549456
Si Si5 0.209256 0.399138 0.255556
Si Si6 0.784379 0.114365 0.483666
Si Si7 0.072587 0.906225 0.983808
Si Si8 0.422409 0.091435 0.003635
O O1 0.855265 0.648422 0.645380
O O2 0.904410 0.860135 0.828445
O O3 0.989904 0.693186 0.642847
O O4 0.911878 0.908527 0.522326
O O5 0.759939 0.748337 0.287540
O O6 0.804191 0.050563 0.311925
O O7 0.741016 0.959059 0.072764
O O8 0.865286 0.841205 0.122207
O O9 0.432108 0.882392 0.299377
O O10 0.377656 0.635641 0.134176
O O11 0.422720 0.898713 0.005437
O O12 0.181402 0.460995 0.421395
O O13 0.248325 0.539753 0.677268
O O14 0.226185 0.753483 0.471093
O O15 0.858274 0.183048 0.548296
O O16 0.999534 0.849969 0.056764
#
# Coordination Sequence:
#
# PCOD8168701 Si02
#       8
#     4   4   4   4   4   4   4   4
#     4  10  22  40  67  98 134 172 223 281 337 402
#     4  12  23  40  68  98 129 177 225 279 329 392
#     4  10  21  42  66  93 133 174 226 276 336 398
#     4  12  26  44  67  98 140 182 219 278 336 405
#     4  12  26  43  64  99 141 174 222 272 344 405
#     4  12  22  40  67  94 127 173 231 272 327 392
#     4  10  20  37  67  99 128 165 224 289 326 390
#     4  10  20  38  66  97 130 167 220 287 335 380
#
# _framework density 22.685248999999999
#
# number of rings (size 3 to 8) (size 9 to 14) (size 15 to 20)
#    0.000    1.000    3.750    3.750    0.000    1.000 
#    0.000    5.000    0.000    0.000    0.000    0.000 
#    0.000    0.000    0.000    0.000    0.000    0.000 
#
# Total GULP energy -396572.108769 kJ/mol
# GULP energy per Si atom -12392.878399 kJ/mol
# Density = 2.263362 g / cm^3
# Si number density = 22.685249 Si / 1000 Ang^3
#
#
#
# Elastic Constant Matrix: (Units=GPa)
#
#
# Indices 1 2 3 4 5 6 
#
# 1 188.3817 43.0345 28.1994 0.0000 0.0000 0.0000
# 2 43.0345 72.0090 27.6882 0.0000 0.0000 0.0000
# 3 28.1994 27.6882 65.2770 0.0000 0.0000 0.0000
# 4 0.0000 0.0000 0.0000 32.9044 0.0000 0.0000
# 5 0.0000 0.0000 0.0000 0.0000 30.1448 0.0000
# 6 0.0000 0.0000 0.0000 0.0000 0.0000 36.6647
#
#
#
# Elastic Compliance Matrix: (Units=1/GPa)
#
#
# Indices 1 2 3 4 5 6 
#
# 1 0.006243 -0.003219 -0.001332 0.000000 0.000000 0.000000
# 2 -0.003219 0.018253 -0.006352 0.000000 0.000000 0.000000
# 3 -0.001332 -0.006352 0.018589 0.000000 0.000000 0.000000
# 4 0.000000 0.000000 0.000000 0.030391 0.000000 0.000000
# 5 0.000000 0.000000 0.000000 0.000000 0.033173 0.000000
# 6 0.000000 0.000000 0.000000 0.000000 0.000000 0.027274
#
#
# Mechanical properties :
#
#
# Convention : Reuss Voigt Hill
#
# Bulk Modulus (GPa) = 46.99175 58.16797 52.57986
# Shear Modulus (GPa) = 30.70842 35.05915 32.88378
#
# Velocity S-wave (km/s) = 3.68322 3.93550 3.81145
# Velocity P-wave (km/s) = 6.23280 6.80793 6.52670
#
# Compressibility (1/GPa) = 0.02128033
#
# Stress axis : x y z
#
# Youngs Moduli (GPa) = 160.17782 54.78482 53.79589
#
# Poissons Ratio (x) = 0.17635 0.07163
# Poissons Ratio (y) = 0.51561 0.34170
# Poissons Ratio (z) = 0.21329 0.34798
#
# Static dielectric constant tensor:
#      x y z
#    x 4.754170 0.000000 0.000000 
#    y 0.000000 3.681300 0.000000 
#    z 0.000000 0.000000 3.940220 
# 
# 
# High freq. dielectric constant tensor:
#      x y z
#    x 1.930930 0.000000 0.000000 
#    y 0.000000 1.852370 0.000000 
#    z 0.000000 0.000000 1.881800 
# 
# From -- ./inp_files/2256.got.cif
#   From: 2010.03.12/outbox.cif.g09.slc.cpg/sg29_2_cif.got.tgz:2256.got - 2010.04.14 03:43:10.
