data_PCOD8168924
_publ_section_title
;
Structure prediction by ZEFSAII (Michael W. Deem and Ramdas Pophale) SiO2 
 PCOD8168924
Probable space group: P C A 21
;
_chemical_formula_sum "Si O2"
_cell_formula_units_Z 32
_cell_length_a 15.107894
_cell_length_b 8.533999
_cell_length_c 11.459454
_cell_angle_alpha 90.000000
_cell_angle_beta 90.000000
_cell_angle_gamma 90.000000
_cell_volume 1477.476025
_symmetry_space_group_name_H-M "P C A 21"
_symmetry_group_IT_number 29
_symmetry_cell_setting 'orthorhombic'
loop_
_space_group_symop_operation_xyz
x,y,z
-x,-y,1/2+z
1/2-x,y,1/2+z
1/2+x,-y,z
loop_
_atom_site_type_symbol
_atom_site_label
_atom_site_fract_x
_atom_site_fract_y
_atom_site_fract_z
Si Si1 0.086603 0.260440 0.278750
Si Si2 0.345320 0.013518 0.472146
Si Si3 0.089710 0.579476 0.711392
Si Si4 0.845320 0.513518 0.972146
Si Si5 0.250000 0.750000 0.323608
Si Si6 0.910290 0.079476 0.711392
Si Si7 0.086603 0.239560 0.778750
Si Si8 0.250000 0.250000 0.613378
O O1 0.103263 0.356708 0.396217
O O2 0.165652 0.297262 0.189974
O O3 0.991571 0.305572 0.228739
O O4 0.081521 0.072795 0.295584
O O5 0.396737 0.143292 0.396217
O O6 0.262619 0.098438 0.532912
O O7 0.309101 0.866336 0.401105
O O8 0.412504 0.960856 0.573824
O O9 0.087496 0.539144 0.573825
O O10 0.183410 0.657993 0.740234
O O11 0.081521 0.427205 0.795584
O O12 0.809101 0.366336 0.901105
O O13 0.762619 0.598438 0.032911
O O14 0.183410 0.842007 0.240234
O O15 0.991571 0.194427 0.728739
O O16 0.165652 0.202739 0.689973
#
# Coordination Sequence:
#
# PCOD8168924 Si02
#       8
#     4   4   4   4   4   4   4   4
#     4  11  24  43  66  95 130 167 215 262 314 382
#     4  11  23  41  67  93 130 174 206 262 322 365
#     4  11  26  43  65  97 129 166 216 263 313 384
#     4  11  23  41  67  93 130 174 206 262 322 365
#     4  12  24  42  66  96 130 168 216 260 314 382
#     4  11  26  43  65  97 129 166 216 263 313 384
#     4  11  24  43  66  95 130 167 215 262 314 382
#     4  10  22  42  66  94 128 168 214 260 316 382
#
# _framework density 21.658559
#
# number of rings (size 3 to 8) (size 9 to 14) (size 15 to 20)
#    0.000    1.000    0.000    7.500    0.000   12.000 
#    0.000    0.000    0.000    0.000    0.000    0.000 
#    0.000    0.000    0.000    0.000    0.000    0.000 
#
# Total GULP energy -396823.691623 kJ/mol
# GULP energy per Si atom -12400.740363 kJ/mol
# Density = 2.160926 g / cm^3
# Si number density = 21.658559 Si / 1000 Ang^3
#
#
#
# Elastic Constant Matrix: (Units=GPa)
#
#
# Indices 1 2 3 4 5 6 
#
# 1 129.0498 58.1845 35.7104 0.0000 0.0000 0.0000
# 2 58.1845 133.5885 49.8983 0.0000 0.0000 0.0000
# 3 35.7104 49.8983 108.9607 0.0000 0.0000 0.0000
# 4 0.0000 0.0000 0.0000 10.4110 0.0000 0.0000
# 5 0.0000 0.0000 0.0000 0.0000 9.2749 0.0000
# 6 0.0000 0.0000 0.0000 0.0000 0.0000 45.7415
#
#
#
# Elastic Compliance Matrix: (Units=1/GPa)
#
#
# Indices 1 2 3 4 5 6 
#
# 1 0.009848 -0.003720 -0.001524 0.000000 0.000000 0.000000
# 2 -0.003720 0.010436 -0.003560 0.000000 0.000000 0.000000
# 3 -0.001524 -0.003560 0.011307 0.000000 0.000000 0.000000
# 4 0.000000 0.000000 0.000000 0.096053 0.000000 0.000000
# 5 0.000000 0.000000 0.000000 0.000000 0.107817 0.000000
# 6 0.000000 0.000000 0.000000 0.000000 0.000000 0.021862
#
#
# Mechanical properties :
#
#
# Convention : Reuss Voigt Hill
#
# Bulk Modulus (GPa) = 71.51396 73.24281 72.37838
# Shear Modulus (GPa) = 17.88325 28.27253 23.07789
#
# Velocity S-wave (km/s) = 2.87660 3.61692 3.26779
# Velocity P-wave (km/s) = 6.64256 7.16472 6.90857
#
# Compressibility (1/GPa) = 0.01398328
#
# Stress axis : x y z
#
# Youngs Moduli (GPa) = 101.54459 95.82601 88.43880
#
# Poissons Ratio (x) = 0.35648 0.13477
# Poissons Ratio (y) = 0.37775 0.31482
# Poissons Ratio (z) = 0.15475 0.34112
#
# Static dielectric constant tensor:
#      x y z
#    x 3.906250 0.000000 0.000000 
#    y 0.000000 4.170430 0.000000 
#    z 0.000000 0.000000 4.008900 
# 
# 
# High freq. dielectric constant tensor:
#      x y z
#    x 1.856570 0.000000 0.000000 
#    y 0.000000 1.868150 0.000000 
#    z 0.000000 0.000000 1.853770 
# 
# From -- ./inp_files/3452.got.cif
#   From: 2010.03.12/outbox.cif.g09.slc.cpg/sg29_2_cif.got.tgz:3452.got - 2010.04.14 03:43:10.
