data_PCOD8168647
_publ_section_title
;
Structure prediction by ZEFSAII (Michael W. Deem and Ramdas Pophale) SiO2 
 PCOD8168647
Probable space group: P C A 21
;
_chemical_formula_sum "Si O2"
_cell_formula_units_Z 32
_cell_length_a 19.684437
_cell_length_b 6.982877
_cell_length_c 10.975997
_cell_angle_alpha 90.000000
_cell_angle_beta 90.000000
_cell_angle_gamma 90.000000
_cell_volume 1508.694718
_symmetry_space_group_name_H-M "P C A 21"
_symmetry_group_IT_number 29
_symmetry_cell_setting 'orthorhombic'
loop_
_space_group_symop_operation_xyz
x,y,z
-x,-y,1/2+z
1/2-x,y,1/2+z
1/2+x,-y,z
loop_
_atom_site_type_symbol
_atom_site_label
_atom_site_fract_x
_atom_site_fract_y
_atom_site_fract_z
Si Si1 0.243514 0.999298 0.447220
Si Si2 0.966787 0.481383 0.802106
Si Si3 0.892154 0.090970 0.844822
Si Si4 0.023991 0.201025 0.487181
Si Si5 0.110013 0.985151 0.935484
Si Si6 0.408756 0.275555 0.235408
Si Si7 0.261885 0.227069 0.198065
Si Si8 0.616605 0.753808 0.153084
O O1 0.315571 0.887039 0.451061
O O2 0.253084 0.149820 0.336054
O O3 0.229328 0.082195 0.582899
O O4 0.180270 0.865832 0.410058
O O5 0.923205 0.289798 0.803645
O O6 0.942749 0.603954 0.684442
O O7 0.048084 0.440629 0.804240
O O8 0.948534 0.612651 0.917297
O O9 0.884356 0.950629 0.730388
O O10 0.941455 0.994042 0.942632
O O11 0.040845 0.230074 0.625833
O O12 0.943270 0.178338 0.470158
O O13 0.097205 0.069360 0.801032
O O14 0.104854 0.179634 0.015610
O O15 0.332715 0.349418 0.199342
O O16 0.191952 0.343336 0.170341
#
# Coordination Sequence:
#
# PCOD8168647 Si02
#       8
#     4   4   4   4   4   4   4   4
#     4   9  18  36  65  91 116 165 215 251 320 383
#     4  11  24  38  61  96 121 166 210 258 317 383
#     4  10  19  41  65  85 124 163 203 257 314 380
#     4  11  23  39  61  88 127 164 206 253 322 374
#     4  10  21  39  64  92 121 165 206 263 315 371
#     4  11  22  38  64  91 123 162 211 258 312 378
#     4   9  18  37  64  90 120 166 207 258 320 378
#     4   9  21  40  66  87 124 163 206 256 320 379
#
# _framework density 21.210388999999999
#
# number of rings (size 3 to 8) (size 9 to 14) (size 15 to 20)
#    0.000    2.000    2.500    0.750    3.500    0.000 
#    2.250    0.000    8.250    0.000    0.000    0.000 
#    0.000    0.000    0.000    0.000    0.000    0.000 
#
# Total GULP energy -396420.183726 kJ/mol
# GULP energy per Si atom -12388.130741 kJ/mol
# Density = 2.116211 g / cm^3
# Si number density = 21.210389 Si / 1000 Ang^3
#
#
#
# Elastic Constant Matrix: (Units=GPa)
#
#
# Indices 1 2 3 4 5 6 
#
# 1 156.6145 37.6562 6.8694 0.0000 0.0000 0.0000
# 2 37.6562 70.4068 10.2985 0.0000 0.0000 0.0000
# 3 6.8694 10.2985 80.2355 0.0000 0.0000 0.0000
# 4 0.0000 0.0000 0.0000 11.9165 0.0000 0.0000
# 5 0.0000 0.0000 0.0000 0.0000 31.3214 0.0000
# 6 0.0000 0.0000 0.0000 0.0000 0.0000 22.4589
#
#
#
# Elastic Compliance Matrix: (Units=1/GPa)
#
#
# Indices 1 2 3 4 5 6 
#
# 1 0.007329 -0.003901 -0.000127 0.000000 0.000000 0.000000
# 2 -0.003901 0.016551 -0.001790 0.000000 0.000000 0.000000
# 3 -0.000127 -0.001790 0.012704 0.000000 0.000000 0.000000
# 4 0.000000 0.000000 0.000000 0.083917 0.000000 0.000000
# 5 0.000000 0.000000 0.000000 0.000000 0.031927 0.000000
# 6 0.000000 0.000000 0.000000 0.000000 0.000000 0.044526
#
#
# Mechanical properties :
#
#
# Convention : Reuss Voigt Hill
#
# Bulk Modulus (GPa) = 40.08403 46.32278 43.20341
# Shear Modulus (GPa) = 23.05138 29.96822 26.50980
#
# Velocity S-wave (km/s) = 3.30024 3.76294 3.53916
# Velocity P-wave (km/s) = 5.78458 6.38488 6.09213
#
# Compressibility (1/GPa) = 0.02494759
#
# Stress axis : x y z
#
# Youngs Moduli (GPa) = 136.45109 60.41750 78.71556
#
# Poissons Ratio (x) = 0.23569 0.00998
# Poissons Ratio (y) = 0.53231 0.14094
# Poissons Ratio (z) = 0.01729 0.10817
#
# Static dielectric constant tensor:
#      x y z
#    x 4.497790 0.000000 0.000000 
#    y 0.000000 3.320860 0.000000 
#    z 0.000000 0.000000 4.005620 
# 
# 
# High freq. dielectric constant tensor:
#      x y z
#    x 1.862050 0.000000 0.000000 
#    y 0.000000 1.765200 0.000000 
#    z 0.000000 0.000000 1.848930 
# 
# From -- ./inp_files/3906.got.cif
#   From: 2010.03.12/outbox.cif.g09.slc.cpg/sg29_2_cif.got.tgz:3906.got - 2010.04.14 03:43:10.
