data_PCOD8168320
_publ_section_title
;
Structure prediction by ZEFSAII (Michael W. Deem and Ramdas Pophale) SiO2 
 PCOD8168320
Probable space group: P M A 2
;
_chemical_formula_sum "Si O2"
_cell_formula_units_Z 24
_cell_length_a 8.840943
_cell_length_b 15.609472
_cell_length_c 9.925440
_cell_angle_alpha 90.000000
_cell_angle_beta 90.000000
_cell_angle_gamma 90.000000
_cell_volume 1369.735059
_symmetry_space_group_name_H-M "P M A 2"
_symmetry_group_IT_number 28
_symmetry_cell_setting 'orthorhombic'
loop_
_space_group_symop_operation_xyz
x,y,z
-x,-y,z
1/2-x,y,z
1/2+x,-y,z
loop_
_atom_site_type_symbol
_atom_site_label
_atom_site_fract_x
_atom_site_fract_y
_atom_site_fract_z
Si Si1 0.426571 0.581225 0.110070
Si Si2 0.426519 0.769600 0.108603
Si Si3 0.926515 0.769601 0.819670
Si Si4 0.069276 0.909952 0.321169
Si Si5 0.569276 0.909953 0.607096
Si Si6 0.573431 0.581223 0.818202
O O1 0.500000 0.500000 0.191597
O O2 0.250000 0.564470 0.099216
O O3 0.462250 0.675105 0.172104
O O4 0.499979 0.582380 0.964127
O O5 0.250000 0.779928 0.084512
O O6 0.485658 0.839391 0.214211
O O7 0.499985 0.785335 0.964129
O O8 0.750000 0.779939 0.843793
O O9 0.985644 0.839387 0.714051
O O10 0.962223 0.675105 0.756162
O O11 0.250000 0.916548 0.332394
O O12 0.000006 0.883027 0.464135
O O13 0.000000 0.000000 0.273147
O O14 0.750000 0.916555 0.595857
O O15 0.500000 0.000000 0.655126
O O16 0.500000 0.500000 0.736668
O O17 0.750000 0.564464 0.829091
#
# Coordination Sequence:
#
# PCOD8168320 Si02
#       6
#     4   4   4   4   4   4
#     4   9  15  25  41  64  92 122 152 186 225 271
#     4   9  19  32  48  71  99 125 155 193 235 277
#     4   9  19  32  48  71  99 125 155 193 235 277
#     4  10  20  35  52  71  93 123 159 195 233 281
#     4  10  20  35  52  71  93 123 159 195 233 281
#     4   9  15  25  41  64  92 122 152 186 225 271
#
# _framework density 17.521635
#
# number of rings (size 3 to 8) (size 9 to 14) (size 15 to 20)
#    0.000    2.667    0.000    4.000    0.000    4.667 
#    0.000    3.333    0.000    1.000    0.000    7.000 
#    0.000    0.000    0.000    0.000    0.000    0.000 
#
# Total GULP energy -297350.345696 kJ/mol
# GULP energy per Si atom -12389.597737 kJ/mol
# Density = 1.748176 g / cm^3
# Si number density = 17.521635 Si / 1000 Ang^3
#
#
#
# Elastic Constant Matrix: (Units=GPa)
#
#
# Indices 1 2 3 4 5 6 
#
# 1 78.7973 62.1900 34.3592 0.0000 0.0000 0.0000
# 2 62.1900 190.9359 88.6774 0.0000 0.0000 0.0000
# 3 34.3592 88.6774 72.7516 0.0000 0.0000 0.0000
# 4 0.0000 0.0000 0.0000 5.7894 0.0000 0.0000
# 5 0.0000 0.0000 0.0000 0.0000 15.2518 0.0000
# 6 0.0000 0.0000 0.0000 0.0000 0.0000 44.8956
#
#
#
# Elastic Compliance Matrix: (Units=1/GPa)
#
#
# Indices 1 2 3 4 5 6 
#
# 1 0.017364 -0.004257 -0.003012 0.000000 0.000000 0.000000
# 2 -0.004257 0.013114 -0.013974 0.000000 0.000000 0.000000
# 3 -0.003012 -0.013974 0.032201 0.000000 0.000000 0.000000
# 4 0.000000 0.000000 0.000000 0.172729 0.000000 0.000000
# 5 0.000000 0.000000 0.000000 0.000000 0.065566 0.000000
# 6 0.000000 0.000000 0.000000 0.000000 0.000000 0.022274
#
#
# Mechanical properties :
#
#
# Convention : Reuss Voigt Hill
#
# Bulk Modulus (GPa) = 49.52252 79.21535 64.36894
# Shear Modulus (GPa) = 13.42408 23.67124 18.54766
#
# Velocity S-wave (km/s) = 2.77093 3.67955 3.25708
# Velocity P-wave (km/s) = 6.20986 7.95991 7.13872
#
# Compressibility (1/GPa) = 0.02019283
#
# Stress axis : x y z
#
# Youngs Moduli (GPa) = 57.59140 76.25441 31.05449
#
# Poissons Ratio (x) = 0.32459 0.09354
# Poissons Ratio (y) = 0.24514 0.43397
# Poissons Ratio (z) = 0.17347 1.06561
#
# Static dielectric constant tensor:
#      x y z
#    x 3.346420 0.000000 0.000000 
#    y 0.000000 4.700070 0.000000 
#    z 0.000000 0.000000 2.896180 
# 
# 
# High freq. dielectric constant tensor:
#      x y z
#    x 1.688960 0.000000 0.000000 
#    y 0.000000 1.705290 0.000000 
#    z 0.000000 0.000000 1.623680 
# 
# From -- ./inp_files/2563.got.cif
#   From: 2010.03.12/outbox.cif.g09.slc.cpg/sg28_2_cif.got.tgz:2563.got - 2010.04.14 03:39:34.
