data_PCOD8168605
_publ_section_title
;
Structure prediction by ZEFSAII (Michael W. Deem and Ramdas Pophale) SiO2 
 PCOD8168605
Probable space group: P C A 21
;
_chemical_formula_sum "Si O2"
_cell_formula_units_Z 32
_cell_length_a 14.106683
_cell_length_b 8.401982
_cell_length_c 14.260349
_cell_angle_alpha 90.000000
_cell_angle_beta 90.000000
_cell_angle_gamma 90.000000
_cell_volume 1690.194983
_symmetry_space_group_name_H-M "P C A 21"
_symmetry_group_IT_number 29
_symmetry_cell_setting 'orthorhombic'
loop_
_space_group_symop_operation_xyz
x,y,z
-x,-y,1/2+z
1/2-x,y,1/2+z
1/2+x,-y,z
loop_
_atom_site_type_symbol
_atom_site_label
_atom_site_fract_x
_atom_site_fract_y
_atom_site_fract_z
Si Si1 0.498779 0.937705 0.733140
Si Si2 0.006755 0.063278 0.523352
Si Si3 0.347110 0.564184 0.880237
Si Si4 0.140595 0.435024 0.888469
Si Si5 0.501220 0.437706 0.233141
Si Si6 0.640595 0.935025 0.888468
Si Si7 0.347111 0.935816 0.880237
Si Si8 0.506755 0.563276 0.523353
O O1 0.501399 0.008512 0.628620
O O2 0.494223 0.749999 0.725679
O O3 0.592288 0.991060 0.790774
O O4 0.405285 0.995891 0.789052
O O5 0.029875 0.250001 0.522771
O O6 0.090891 0.969318 0.472326
O O7 0.905783 0.032255 0.474043
O O8 0.251607 0.464298 0.884189
O O9 0.405284 0.504109 0.789053
O O10 0.322778 0.750000 0.875173
O O11 0.409109 0.530684 0.972327
O O12 0.092288 0.491061 0.790775
O O13 0.119313 0.249999 0.905866
O O14 0.094217 0.532252 0.974045
O O15 0.498600 0.508513 0.128621
O O16 0.751607 0.964298 0.884188
#
# Coordination Sequence:
#
# PCOD8168605 Si02
#       8
#     4   4   4   4   4   4   4   4
#     4   8  18  35  54  75 104 135 171 214 258 304
#     4  10  19  35  56  79 104 135 171 214 260 306
#     4  10  20  36  54  77 106 138 172 212 256 306
#     4  10  20  36  54  77 106 138 172 212 256 306
#     4   8  18  35  54  75 104 135 171 214 258 304
#     4  10  20  36  54  77 106 138 172 212 256 306
#     4  10  20  36  54  77 106 138 172 212 256 306
#     4  10  19  35  56  79 104 135 171 214 260 306
#
# _framework density 18.932727
#
# number of rings (size 3 to 8) (size 9 to 14) (size 15 to 20)
#    0.000    2.500    0.000    3.750    0.000    2.000 
#    0.000   20.000    0.000    0.000    0.000    0.000 
#    0.000    0.000    0.000    0.000    0.000    0.000 
#
# Total GULP energy -396794.624735 kJ/mol
# GULP energy per Si atom -12399.832023 kJ/mol
# Density = 1.888964 g / cm^3
# Si number density = 18.932727 Si / 1000 Ang^3
#
#
#
# Elastic Constant Matrix: (Units=GPa)
#
#
# Indices 1 2 3 4 5 6 
#
# 1 126.4718 0.1806 59.5395 0.0000 0.0000 0.0000
# 2 0.1806 36.6277 11.9174 0.0000 0.0000 0.0000
# 3 59.5395 11.9174 172.6287 0.0000 0.0000 0.0000
# 4 0.0000 0.0000 0.0000 23.9861 0.0000 0.0000
# 5 0.0000 0.0000 0.0000 0.0000 13.0719 0.0000
# 6 0.0000 0.0000 0.0000 0.0000 0.0000 25.2738
#
#
#
# Elastic Compliance Matrix: (Units=1/GPa)
#
#
# Indices 1 2 3 4 5 6 
#
# 1 0.009478 0.001040 -0.003341 0.000000 0.000000 0.000000
# 2 0.001040 0.028043 -0.002295 0.000000 0.000000 0.000000
# 3 -0.003341 -0.002295 0.007103 0.000000 0.000000 0.000000
# 4 0.000000 0.000000 0.000000 0.041691 0.000000 0.000000
# 5 0.000000 0.000000 0.000000 0.000000 0.076500 0.000000
# 6 0.000000 0.000000 0.000000 0.000000 0.000000 0.039567
#
#
# Mechanical properties :
#
#
# Convention : Reuss Voigt Hill
#
# Bulk Modulus (GPa) = 28.22127 53.22257 40.72192
# Shear Modulus (GPa) = 22.38295 30.07242 26.22769
#
# Velocity S-wave (km/s) = 3.44210 3.98978 3.72601
# Velocity P-wave (km/s) = 5.54399 7.02829 6.32980
#
# Compressibility (1/GPa) = 0.03543427
#
# Stress axis : x y z
#
# Youngs Moduli (GPa) = 105.50543 35.65919 140.77674
#
# Poissons Ratio (x) = -0.03710 0.47031
# Poissons Ratio (y) = -0.10975 0.32305
# Poissons Ratio (z) = 0.35248 0.08183
#
# Static dielectric constant tensor:
#      x y z
#    x 3.381460 0.000000 0.000000 
#    y 0.000000 3.288850 0.000000 
#    z 0.000000 0.000000 3.871850 
# 
# 
# High freq. dielectric constant tensor:
#      x y z
#    x 1.735330 0.000000 0.000000 
#    y 0.000000 1.724570 0.000000 
#    z 0.000000 0.000000 1.739610 
# 
# From -- ./inp_files/4699.got.cif
#   From: 2010.03.12/outbox.cif.g09.slc.cpg/sg29_3_cif.got.tgz:4699.got - 2010.04.14 03:43:10.
