data_PCOD8168728
_publ_section_title
;
Structure prediction by ZEFSAII (Michael W. Deem and Ramdas Pophale) SiO2 
 PCOD8168728
Probable space group: P C A 21
;
_chemical_formula_sum "Si O2"
_cell_formula_units_Z 32
_cell_length_a 17.474662
_cell_length_b 6.666326
_cell_length_c 13.793394
_cell_angle_alpha 90.000000
_cell_angle_beta 90.000000
_cell_angle_gamma 90.000000
_cell_volume 1606.817207
_symmetry_space_group_name_H-M "P C A 21"
_symmetry_group_IT_number 29
_symmetry_cell_setting 'orthorhombic'
loop_
_space_group_symop_operation_xyz
x,y,z
-x,-y,1/2+z
1/2-x,y,1/2+z
1/2+x,-y,z
loop_
_atom_site_type_symbol
_atom_site_label
_atom_site_fract_x
_atom_site_fract_y
_atom_site_fract_z
Si Si1 0.724639 0.356645 0.657390
Si Si2 0.563716 0.511774 0.618362
Si Si3 0.526470 0.424054 0.828218
Si Si4 0.944788 0.850987 0.967629
Si Si5 0.689020 0.630349 0.028704
Si Si6 0.194311 0.687117 0.870150
Si Si7 0.025029 0.249034 0.980675
Si Si8 0.217362 0.982794 0.505922
O O1 0.652605 0.505348 0.645662
O O2 0.798672 0.469032 0.614515
O O3 0.741132 0.315277 0.769826
O O4 0.706514 0.151145 0.601388
O O5 0.513415 0.471511 0.714998
O O6 0.546838 0.726323 0.568141
O O7 0.545204 0.336107 0.542666
O O8 0.457074 0.294496 0.874579
O O9 0.603751 0.295023 0.848337
O O10 0.530041 0.642610 0.877096
O O11 0.864128 0.965070 0.957070
O O12 0.012965 0.013119 0.967232
O O13 0.603080 0.708536 0.038236
O O14 0.746376 0.812081 0.041655
O O15 0.709000 0.519687 0.927525
O O16 0.226045 0.877562 0.929033
#
# Coordination Sequence:
#
# PCOD8168728 Si02
#       8
#     4   4   4   4   4   4   4   4
#     4  10  20  40  62  86 118 156 198 240 295 356
#     4  10  20  40  62  85 117 160 198 236 293 359
#     4   9  21  39  61  85 119 161 196 239 298 361
#     4  11  21  37  63  87 120 157 198 250 295 353
#     4  10  21  39  60  84 118 156 191 245 298 349
#     4   9  21  39  61  85 119 157 198 243 294 360
#     4  10  21  39  59  88 119 152 195 245 298 348
#     4  11  21  37  62  90 118 153 198 250 295 350
#
# _framework density 19.915144999999999
#
# number of rings (size 3 to 8) (size 9 to 14) (size 15 to 20)
#    0.000    2.000    2.500    0.750    0.000    3.000 
#    9.000    0.000    0.000    0.000    0.000    0.000 
#    0.000    0.000    0.000    0.000    0.000    0.000 
#
# Total GULP energy -396794.552633 kJ/mol
# GULP energy per Si atom -12399.829770 kJ/mol
# Density = 1.986982 g / cm^3
# Si number density = 19.915145 Si / 1000 Ang^3
#
#
#
# Elastic Constant Matrix: (Units=GPa)
#
#
# Indices 1 2 3 4 5 6 
#
# 1 48.0370 22.8672 3.3344 0.0000 0.0000 0.0000
# 2 22.8672 100.4664 25.8629 0.0000 0.0000 0.0000
# 3 3.3344 25.8629 99.7489 0.0000 0.0000 0.0000
# 4 0.0000 0.0000 0.0000 19.3639 0.0000 0.0000
# 5 0.0000 0.0000 0.0000 0.0000 25.4352 0.0000
# 6 0.0000 0.0000 0.0000 0.0000 0.0000 36.3429
#
#
#
# Elastic Compliance Matrix: (Units=1/GPa)
#
#
# Indices 1 2 3 4 5 6 
#
# 1 0.023385 -0.005488 0.000641 0.000000 0.000000 0.000000
# 2 -0.005488 0.011953 -0.002916 0.000000 0.000000 0.000000
# 3 0.000641 -0.002916 0.010760 0.000000 0.000000 0.000000
# 4 0.000000 0.000000 0.000000 0.051643 0.000000 0.000000
# 5 0.000000 0.000000 0.000000 0.000000 0.039316 0.000000
# 6 0.000000 0.000000 0.000000 0.000000 0.000000 0.027516
#
#
# Mechanical properties :
#
#
# Convention : Reuss Voigt Hill
#
# Bulk Modulus (GPa) = 32.70823 39.15348 35.93085
# Shear Modulus (GPa) = 26.27596 29.30756 27.79176
#
# Velocity S-wave (km/s) = 3.63629 3.84033 3.73970
# Velocity P-wave (km/s) = 5.83863 6.27432 6.06039
#
# Compressibility (1/GPa) = 0.03057335
#
# Stress axis : x y z
#
# Youngs Moduli (GPa) = 42.76220 83.65919 92.93898
#
# Poissons Ratio (x) = 0.45910 -0.05959
# Poissons Ratio (y) = 0.23467 0.27099
# Poissons Ratio (z) = -0.02742 0.24393
#
# Static dielectric constant tensor:
#      x y z
#    x 3.580460 0.000000 0.000000 
#    y 0.000000 3.571880 0.000000 
#    z 0.000000 0.000000 3.578570 
# 
# 
# High freq. dielectric constant tensor:
#      x y z
#    x 1.771510 0.000000 0.000000 
#    y 0.000000 1.780330 0.000000 
#    z 0.000000 0.000000 1.768180 
# 
# From -- ./inp_files/4781.got.cif
#   From: 2010.03.12/outbox.cif.g09.slc.cpg/sg29_3_cif.got.tgz:4781.got - 2010.04.14 03:43:10.
