data_PCOD8168020
_publ_section_title
;
Structure prediction by ZEFSAII (Michael W. Deem and Ramdas Pophale) SiO2 
 PCOD8168020
Probable space group: P M A 2
;
_chemical_formula_sum "Si O2"
_cell_formula_units_Z 32
_cell_length_a 9.194631
_cell_length_b 17.995311
_cell_length_c 11.398929
_cell_angle_alpha 90.000000
_cell_angle_beta 90.000000
_cell_angle_gamma 90.000000
_cell_volume 1886.069578
_symmetry_space_group_name_H-M "P M A 2"
_symmetry_group_IT_number 28
_symmetry_cell_setting 'orthorhombic'
loop_
_space_group_symop_operation_xyz
x,y,z
-x,-y,z
1/2-x,y,z
1/2+x,-y,z
loop_
_atom_site_type_symbol
_atom_site_label
_atom_site_fract_x
_atom_site_fract_y
_atom_site_fract_z
Si Si1 0.908905 0.363453 0.821800
Si Si2 0.577932 0.774685 0.237032
Si Si3 0.910945 0.854656 0.890118
Si Si4 0.923474 0.719885 0.493104
Si Si5 0.087903 0.793352 0.695984
Si Si6 0.424972 0.574976 0.580735
Si Si7 0.910037 0.696798 0.013803
Si Si8 0.921903 0.925673 0.128078
O O1 0.750000 0.391124 0.859222
O O2 0.900510 0.281157 0.770361
O O3 0.969440 0.415973 0.717866
O O4 0.003866 0.365746 0.940094
O O5 0.750000 0.775098 0.218233
O O6 0.532254 0.750003 0.365744
O O7 0.515763 0.716012 0.140002
O O8 0.521704 0.858144 0.210566
O O9 0.750000 0.878834 0.848052
O O10 0.019268 0.857641 0.778604
O O11 0.901802 0.771802 0.939636
O O12 0.966661 0.909102 0.993008
O O13 0.750000 0.710205 0.508810
O O14 0.983107 0.780525 0.584811
O O15 0.005471 0.641819 0.506806
O O16 0.250000 0.817785 0.655335
O O17 0.500000 0.500000 0.533801
O O18 0.250000 0.574597 0.564157
O O19 0.750000 0.663077 0.032414
O O20 0.750000 0.936013 0.139365
O O21 0.000000 0.000000 0.171903
#
# Coordination Sequence:
#
# PCOD8168020 Si02
#       8
#     4   4   4   4   4   4   4   4
#     4   8  15  26  40  62  90 113 135 173 223 269
#     4   8  16  30  47  68  94 125 161 198 233 278
#     4   8  14  25  42  63  87 115 145 178 223 278
#     4  10  18  30  49  69  92 126 165 199 236 280
#     4   9  16  26  41  64  92 115 143 186 228 267
#     4  10  20  33  48  69  96 122 153 195 241 288
#     4   8  13  24  43  64  85 111 144 179 216 262
#     4   9  17  30  47  69  96 123 155 196 242 292
#
# _framework density 16.9665
#
# number of rings (size 3 to 8) (size 9 to 14) (size 15 to 20)
#    0.000    3.250    0.000    3.375    0.000    4.000 
#    0.000    4.375    0.000    1.500    0.000    3.500 
#    0.000    0.000    0.000    0.000    0.000    0.000 
#
# Total GULP energy -396511.344953 kJ/mol
# GULP energy per Si atom -12390.979530 kJ/mol
# Density = 1.692788 g / cm^3
# Si number density = 16.966500 Si / 1000 Ang^3
#
#
#
# Elastic Constant Matrix: (Units=GPa)
#
#
# Indices 1 2 3 4 5 6 
#
# 1 80.6890 35.4207 52.7200 0.0000 0.0000 0.0000
# 2 35.4207 65.5914 46.6545 0.0000 0.0000 0.0000
# 3 52.7200 46.6545 115.9361 0.0000 0.0000 0.0000
# 4 0.0000 0.0000 0.0000 16.5460 0.0000 0.0000
# 5 0.0000 0.0000 0.0000 0.0000 18.5547 0.0000
# 6 0.0000 0.0000 0.0000 0.0000 0.0000 20.7479
#
#
#
# Elastic Compliance Matrix: (Units=1/GPa)
#
#
# Indices 1 2 3 4 5 6 
#
# 1 0.019082 -0.005790 -0.006347 0.000000 0.000000 0.000000
# 2 -0.005790 0.023117 -0.006670 0.000000 0.000000 0.000000
# 3 -0.006347 -0.006670 0.014196 0.000000 0.000000 0.000000
# 4 0.000000 0.000000 0.000000 0.060438 0.000000 0.000000
# 5 0.000000 0.000000 0.000000 0.000000 0.053895 0.000000
# 6 0.000000 0.000000 0.000000 0.000000 0.000000 0.048198
#
#
# Mechanical properties :
#
#
# Convention : Reuss Voigt Hill
#
# Bulk Modulus (GPa) = 53.24609 59.08965 56.16787
# Shear Modulus (GPa) = 19.02599 19.66446 19.34523
#
# Velocity S-wave (km/s) = 3.35234 3.40813 3.38035
# Velocity P-wave (km/s) = 6.81436 7.09859 6.95792
#
# Compressibility (1/GPa) = 0.01878072
#
# Stress axis : x y z
#
# Youngs Moduli (GPa) = 52.40518 43.25889 70.44381
#
# Poissons Ratio (x) = 0.25047 0.44713
# Poissons Ratio (y) = 0.30342 0.46983
# Poissons Ratio (z) = 0.33263 0.28852
#
# Static dielectric constant tensor:
#      x y z
#    x 3.301180 0.000000 0.000000 
#    y 0.000000 2.904300 0.000000 
#    z 0.000000 0.000000 3.230730 
# 
# 
# High freq. dielectric constant tensor:
#      x y z
#    x 1.649620 0.000000 0.000000 
#    y 0.000000 1.615070 0.000000 
#    z 0.000000 0.000000 1.642000 
# 
# From -- ./inp_files/5202.got.cif
#   From: 2010.03.12/outbox.cif.g09.slc.cpg/sg28_3_cif.got.tgz:5202.got - 2010.04.14 03:39:34.
