data_PCOD8168744
_publ_section_title
;
Structure prediction by ZEFSAII (Michael W. Deem and Ramdas Pophale) SiO2 
 PCOD8168744
Probable space group: P C A 21
;
_chemical_formula_sum "Si O2"
_cell_formula_units_Z 28
_cell_length_a 15.310335
_cell_length_b 7.430366
_cell_length_c 11.562792
_cell_angle_alpha 90.000000
_cell_angle_beta 90.000000
_cell_angle_gamma 90.000000
_cell_volume 1315.399321
_symmetry_space_group_name_H-M "P C A 21"
_symmetry_group_IT_number 29
_symmetry_cell_setting 'orthorhombic'
loop_
_space_group_symop_operation_xyz
x,y,z
-x,-y,1/2+z
1/2-x,y,1/2+z
1/2+x,-y,z
loop_
_atom_site_type_symbol
_atom_site_label
_atom_site_fract_x
_atom_site_fract_y
_atom_site_fract_z
Si Si1 0.941453 0.461117 0.672420
Si Si2 0.748694 0.384622 0.216840
Si Si3 0.950242 0.234390 0.889876
Si Si4 0.889351 0.527346 0.047565
Si Si5 0.315210 0.982942 0.747355
Si Si6 0.760340 0.688362 0.894597
Si Si7 0.105103 0.194898 0.051815
O O1 0.844261 0.385617 0.647136
O O2 0.976317 0.392062 0.797203
O O3 0.933795 0.677570 0.654738
O O4 0.015050 0.396955 0.581381
O O5 0.829148 0.480645 0.156627
O O6 0.738737 0.492292 0.336059
O O7 0.760177 0.171115 0.240640
O O8 0.895333 0.077723 0.828733
O O9 0.892162 0.335961 0.983744
O O10 0.032191 0.143064 0.956140
O O11 0.847155 0.688599 0.973764
O O12 0.265906 0.155034 0.799811
O O13 0.353922 0.024646 0.619094
O O14 0.678346 0.702501 0.978543
#
# Coordination Sequence:
#
# PCOD8168744 Si02
#       7
#     4   4   4   4   4   4   4
#     4  10  20  41  64  95 124 170 218 268 316 402
#     4  11  23  43  63  94 133 166 219 275 314 402
#     4  10  23  42  63  94 132 166 218 273 328 387
#     4  11  21  39  70  89 125 178 212 260 339 377
#     4  11  24  41  63  96 136 164 226 274 318 403
#     4  12  22  43  65  97 129 176 213 277 326 394
#     4  11  23  41  68  95 133 176 218 271 343 385
#
# _framework density 21.286313
#
# number of rings (size 3 to 8) (size 9 to 14) (size 15 to 20)
#    0.000    1.143    5.714    0.857    2.000    2.286 
#    5.143    0.000    0.000    0.000    0.000    0.000 
#    0.000    0.000    0.000    0.000    0.000    0.000 
#
# Total GULP energy -346908.708723 kJ/mol
# GULP energy per Si atom -12389.596740 kJ/mol
# Density = 2.123786 g / cm^3
# Si number density = 21.286313 Si / 1000 Ang^3
#
#
#
# Elastic Constant Matrix: (Units=GPa)
#
#
# Indices 1 2 3 4 5 6 
#
# 1 72.1704 5.1905 23.2254 0.0000 0.0000 0.0000
# 2 5.1905 75.3001 27.8530 0.0000 0.0000 0.0000
# 3 23.2254 27.8530 84.8933 0.0000 0.0000 0.0000
# 4 0.0000 0.0000 0.0000 32.8638 0.0000 0.0000
# 5 0.0000 0.0000 0.0000 0.0000 41.2984 0.0000
# 6 0.0000 0.0000 0.0000 0.0000 0.0000 19.6739
#
#
#
# Elastic Compliance Matrix: (Units=1/GPa)
#
#
# Indices 1 2 3 4 5 6 
#
# 1 0.015214 0.000559 -0.004346 0.000000 0.000000 0.000000
# 2 0.000559 0.015135 -0.005119 0.000000 0.000000 0.000000
# 3 -0.004346 -0.005119 0.014648 0.000000 0.000000 0.000000
# 4 0.000000 0.000000 0.000000 0.030429 0.000000 0.000000
# 5 0.000000 0.000000 0.000000 0.000000 0.024214 0.000000
# 6 0.000000 0.000000 0.000000 0.000000 0.000000 0.050829
#
#
# Mechanical properties :
#
#
# Convention : Reuss Voigt Hill
#
# Bulk Modulus (GPa) = 36.78358 38.32242 37.55300
# Shear Modulus (GPa) = 28.19412 30.50686 29.35049
#
# Velocity S-wave (km/s) = 3.64334 3.78983 3.71731
# Velocity P-wave (km/s) = 5.91747 6.09859 6.00871
#
# Compressibility (1/GPa) = 0.02718604
#
# Stress axis : x y z
#
# Youngs Moduli (GPa) = 65.72707 66.07197 68.26964
#
# Poissons Ratio (x) = -0.03691 0.29668
# Poissons Ratio (y) = -0.03672 0.34944
# Poissons Ratio (z) = 0.28563 0.33819
#
# Static dielectric constant tensor:
#      x y z
#    x 3.853180 0.000000 0.000000 
#    y 0.000000 3.667750 0.000000 
#    z 0.000000 0.000000 4.033170 
# 
# 
# High freq. dielectric constant tensor:
#      x y z
#    x 1.832390 0.000000 0.000000 
#    y 0.000000 1.817810 0.000000 
#    z 0.000000 0.000000 1.839660 
# 
# From -- ./inp_files/3433.got.cif
#   From: 2010.03.12/outbox.cif.g09.slc.cpg/sg29_2_cif.got.tgz:3433.got - 2010.04.14 03:43:10.
