data_PCOD8168516
_publ_section_title
;
Structure prediction by ZEFSAII (Michael W. Deem and Ramdas Pophale) SiO2 
 PCOD8168516
Probable space group: P M A 2
;
_chemical_formula_sum "Si O2"
_cell_formula_units_Z 20
_cell_length_a 16.330082
_cell_length_b 4.939257
_cell_length_c 11.152552
_cell_angle_alpha 90.000000
_cell_angle_beta 90.000000
_cell_angle_gamma 90.000000
_cell_volume 899.547801
_symmetry_space_group_name_H-M "P M A 2"
_symmetry_group_IT_number 28
_symmetry_cell_setting 'orthorhombic'
loop_
_space_group_symop_operation_xyz
x,y,z
-x,-y,z
1/2-x,y,z
1/2+x,-y,z
loop_
_atom_site_type_symbol
_atom_site_label
_atom_site_fract_x
_atom_site_fract_y
_atom_site_fract_z
Si Si1 0.655997 0.383321 0.630110
Si Si2 0.843480 0.876942 0.012667
Si Si3 0.408345 0.609566 0.885451
Si Si4 0.908840 0.895817 0.500632
Si Si5 0.558023 0.757526 0.239168
O O1 0.750000 0.463685 0.650275
O O2 0.613585 0.284808 0.753028
O O3 0.605947 0.640485 0.584701
O O4 0.652181 0.138905 0.534685
O O5 0.750000 0.970346 0.027832
O O6 0.874962 0.736009 0.134936
O O7 0.848671 0.642420 0.912906
O O8 0.896335 0.140054 0.976327
O O9 0.500000 0.500000 0.899201
O O10 0.893977 0.809808 0.363281
O O11 0.000000 0.000000 0.522092
O O12 0.500000 0.500000 0.251561
O O13 0.500000 0.000000 0.204023
#
# Coordination Sequence:
#
# PCOD8168516 Si02
#       5
#     4   4   4   4   4
#     4  12  25  42  65  96 133 169 215 274 334 389
#     4  12  25  42  66  98 133 167 215 276 334 386
#     4  12  25  44  67  93 129 176 222 266 325 398
#     4  11  23  43  67  94 127 172 221 267 321 392
#     4  11  23  43  68  93 127 170 216 261 313 385
#
# _framework density 22.233394000000001
#
# number of rings (size 3 to 8) (size 9 to 14) (size 15 to 20)
#    0.000    0.400    0.000   11.400    0.000    1.600 
#    0.000    0.000    0.000    0.000    0.000    0.000 
#    0.000    0.000    0.000    0.000    0.000    0.000 
#
# Total GULP energy -248125.541691 kJ/mol
# GULP energy per Si atom -12406.277085 kJ/mol
# Density = 2.218279 g / cm^3
# Si number density = 22.233394 Si / 1000 Ang^3
#
#
#
# Elastic Constant Matrix: (Units=GPa)
#
#
# Indices 1 2 3 4 5 6 
#
# 1 99.5326 32.2679 65.1614 0.0000 0.0000 0.0000
# 2 32.2679 144.2644 50.5692 0.0000 0.0000 0.0000
# 3 65.1614 50.5692 126.6614 0.0000 0.0000 0.0000
# 4 0.0000 0.0000 0.0000 38.8161 0.0000 0.0000
# 5 0.0000 0.0000 0.0000 0.0000 30.2751 0.0000
# 6 0.0000 0.0000 0.0000 0.0000 0.0000 32.2528
#
#
#
# Elastic Compliance Matrix: (Units=1/GPa)
#
#
# Indices 1 2 3 4 5 6 
#
# 1 0.015222 -0.000767 -0.007525 0.000000 0.000000 0.000000
# 2 -0.000767 0.008098 -0.002839 0.000000 0.000000 0.000000
# 3 -0.007525 -0.002839 0.012899 0.000000 0.000000 0.000000
# 4 0.000000 0.000000 0.000000 0.025763 0.000000 0.000000
# 5 0.000000 0.000000 0.000000 0.000000 0.033030 0.000000
# 6 0.000000 0.000000 0.000000 0.000000 0.000000 0.031005
#
#
# Mechanical properties :
#
#
# Convention : Reuss Voigt Hill
#
# Bulk Modulus (GPa) = 71.63880 74.05060 72.84470
# Shear Modulus (GPa) = 32.69442 35.09946 33.89694
#
# Velocity S-wave (km/s) = 3.83888 3.97757 3.90884
# Velocity P-wave (km/s) = 7.20698 7.38059 7.29430
#
# Compressibility (1/GPa) = 0.01395892
#
# Stress axis : x y z
#
# Youngs Moduli (GPa) = 65.69507 123.48251 77.52260
#
# Poissons Ratio (x) = 0.09472 0.58333
# Poissons Ratio (y) = 0.05039 0.22006
# Poissons Ratio (z) = 0.49433 0.35052
#
# Static dielectric constant tensor:
#      x y z
#    x 3.772690 0.000000 0.000000 
#    y 0.000000 4.077680 0.000000 
#    z 0.000000 0.000000 4.152560 
# 
# 
# High freq. dielectric constant tensor:
#      x y z
#    x 1.870460 0.000000 0.000000 
#    y 0.000000 1.891920 0.000000 
#    z 0.000000 0.000000 1.885570 
# 
# From -- ./inp_files/5438.got.cif
#   From: 2010.03.12/outbox.cif.g09.slc.cpg/sg28_3_cif.got.tgz:5438.got - 2010.04.14 03:39:34.
