data_PCOD8168587
_publ_section_title
;
Structure prediction by ZEFSAII (Michael W. Deem and Ramdas Pophale) SiO2 
 PCOD8168587
Probable space group: P C A 21
;
_chemical_formula_sum "Si O2"
_cell_formula_units_Z 28
_cell_length_a 16.278739
_cell_length_b 16.122267
_cell_length_c 5.065001
_cell_angle_alpha 90.000000
_cell_angle_beta 90.000000
_cell_angle_gamma 90.000000
_cell_volume 1329.310407
_symmetry_space_group_name_H-M "P C A 21"
_symmetry_group_IT_number 29
_symmetry_cell_setting 'orthorhombic'
loop_
_space_group_symop_operation_xyz
x,y,z
-x,-y,1/2+z
1/2-x,y,1/2+z
1/2+x,-y,z
loop_
_atom_site_type_symbol
_atom_site_label
_atom_site_fract_x
_atom_site_fract_y
_atom_site_fract_z
Si Si1 0.459973 0.464971 0.291440
Si Si2 0.962630 0.207683 0.530022
Si Si3 0.463497 0.037948 0.077388
Si Si4 0.282135 0.028715 0.913557
Si Si5 0.210980 0.847868 0.869358
Si Si6 0.956001 0.313841 0.039900
Si Si7 0.308808 0.564249 0.155693
O O1 0.484569 0.530050 0.524855
O O2 0.474436 0.375493 0.424162
O O3 0.365475 0.482025 0.203217
O O4 0.884784 0.158563 0.417639
O O5 0.937331 0.250008 0.804839
O O6 0.031242 0.137918 0.582457
O O7 0.993580 0.269972 0.300637
O O8 0.375886 0.010755 0.969636
O O9 0.527268 0.996548 0.873279
O O10 0.266744 0.079279 0.641749
O O11 0.236397 0.943369 0.822452
O O12 0.236151 0.802391 0.597813
O O13 0.872743 0.359182 0.138313
O O14 0.242090 0.566179 0.386303
#
# Coordination Sequence:
#
# PCOD8168587 Si02
#       7
#     4   4   4   4   4   4   4
#     4  10  20  40  65  87 124 172 209 241 293 371
#     4  12  24  37  59  88 121 162 204 256 318 378
#     4  12  23  40  62  86 117 162 224 270 302 377
#     4  10  20  36  57  79 107 146 196 258 312 354
#     4  10  19  33  50  76 110 147 187 234 306 368
#     4  11  24  40  59  90 130 163 194 247 317 376
#     4  11  22  38  64  98 127 162 208 252 298 366
#
# _framework density 21.063552999999999
#
# number of rings (size 3 to 8) (size 9 to 14) (size 15 to 20)
#    0.000    1.143    0.000   10.286    0.000    3.429 
#    0.000    0.000    0.000    5.143    0.000    0.000 
#    0.000    0.000    0.000    0.000    0.000    0.000 
#
# Total GULP energy -346955.791692 kJ/mol
# GULP energy per Si atom -12391.278275 kJ/mol
# Density = 2.101561 g / cm^3
# Si number density = 21.063553 Si / 1000 Ang^3
#
#
#
# Elastic Constant Matrix: (Units=GPa)
#
#
# Indices 1 2 3 4 5 6 
#
# 1 62.0315 33.0316 11.6263 0.0000 0.0000 0.0000
# 2 33.0316 82.4389 17.5887 0.0000 0.0000 0.0000
# 3 11.6263 17.5887 124.2323 0.0000 0.0000 0.0000
# 4 0.0000 0.0000 0.0000 26.1276 0.0000 0.0000
# 5 0.0000 0.0000 0.0000 0.0000 36.4188 0.0000
# 6 0.0000 0.0000 0.0000 0.0000 0.0000 25.4963
#
#
#
# Elastic Compliance Matrix: (Units=1/GPa)
#
#
# Indices 1 2 3 4 5 6 
#
# 1 0.020567 -0.008074 -0.000782 0.000000 0.000000 0.000000
# 2 -0.008074 0.015678 -0.001464 0.000000 0.000000 0.000000
# 3 -0.000782 -0.001464 0.008330 0.000000 0.000000 0.000000
# 4 0.000000 0.000000 0.000000 0.038274 0.000000 0.000000
# 5 0.000000 0.000000 0.000000 0.000000 0.027458 0.000000
# 6 0.000000 0.000000 0.000000 0.000000 0.000000 0.039221
#
#
# Mechanical properties :
#
#
# Convention : Reuss Voigt Hill
#
# Bulk Modulus (GPa) = 41.77978 43.68843 42.73411
# Shear Modulus (GPa) = 28.06702 31.37228 29.71965
#
# Velocity S-wave (km/s) = 3.65429 3.86348 3.76034
# Velocity P-wave (km/s) = 6.13867 6.37873 6.25985
#
# Compressibility (1/GPa) = 0.02393502
#
# Stress axis : x y z
#
# Youngs Moduli (GPa) = 48.62237 63.78527 120.05003
#
# Poissons Ratio (x) = 0.51500 0.09384
# Poissons Ratio (y) = 0.39257 0.17576
# Poissons Ratio (z) = 0.03801 0.09338
#
# Static dielectric constant tensor:
#      x y z
#    x 3.624440 0.000000 0.000000 
#    y 0.000000 3.674110 0.000000 
#    z 0.000000 0.000000 4.714820 
# 
# 
# High freq. dielectric constant tensor:
#      x y z
#    x 1.806280 0.000000 0.000000 
#    y 0.000000 1.786520 0.000000 
#    z 0.000000 0.000000 1.871650 
# 
# From -- ./inp_files/226.got.cif
#   From: 2010.03.12/outbox.cif.g09.slc.cpg/sg29_1_cif.got.tgz:226.got - 2010.04.14 03:43:10.
