data_PCOD8168938
_publ_section_title
;
Structure prediction by ZEFSAII (Michael W. Deem and Ramdas Pophale) SiO2 
 PCOD8168938
Probable space group: P C A 21
;
_chemical_formula_sum "Si O2"
_cell_formula_units_Z 28
_cell_length_a 9.686931
_cell_length_b 14.444300
_cell_length_c 8.722454
_cell_angle_alpha 90.000000
_cell_angle_beta 90.000000
_cell_angle_gamma 90.000000
_cell_volume 1220.453940
_symmetry_space_group_name_H-M "P C A 21"
_symmetry_group_IT_number 29
_symmetry_cell_setting 'orthorhombic'
loop_
_space_group_symop_operation_xyz
x,y,z
-x,-y,1/2+z
1/2-x,y,1/2+z
1/2+x,-y,z
loop_
_atom_site_type_symbol
_atom_site_label
_atom_site_fract_x
_atom_site_fract_y
_atom_site_fract_z
Si Si1 0.600370 0.967416 0.627080
Si Si2 0.325489 0.612784 0.231223
Si Si3 0.685362 0.264092 0.016553
Si Si4 0.828767 0.057220 0.440070
Si Si5 0.388299 0.461377 0.686345
Si Si6 0.405319 0.240140 0.178900
Si Si7 0.233143 0.347597 0.930169
O O1 0.444465 0.967107 0.565550
O O2 0.639272 0.866527 0.689327
O O3 0.696079 0.996437 0.483969
O O4 0.619038 0.038124 0.767996
O O5 0.358393 0.658944 0.393169
O O6 0.444374 0.537081 0.190745
O O7 0.177084 0.560501 0.228279
O O8 0.319041 0.695780 0.106225
O O9 0.716563 0.165021 0.940685
O O10 0.565168 0.252530 0.141110
O O11 0.342087 0.384445 0.807302
O O12 0.341646 0.433131 0.514891
O O13 0.381484 0.286479 0.343785
O O14 0.312495 0.283719 0.047583
#
# Coordination Sequence:
#
# PCOD8168938 Si02
#       7
#     4   4   4   4   4   4   4
#     4  11  23  43  70 102 142 182 235 281 346 415
#     4  12  27  46  69  99 138 179 233 286 342 414
#     4  11  26  45  68  98 141 181 231 280 347 412
#     4  11  24  45  69 104 140 187 230 287 346 416
#     4  11  26  43  72  98 135 181 226 282 350 404
#     4  10  22  43  68 102 136 180 225 283 343 408
#     4  10  22  43  68 101 138 170 232 283 340 411
#
# _framework density 22.942281999999999
#
# number of rings (size 3 to 8) (size 9 to 14) (size 15 to 20)
#    0.000    1.143    1.429    3.429    6.000    4.571 
#    7.714    0.000    0.000    0.000    0.000    0.000 
#    0.000    0.000    0.000    0.000    0.000    0.000 
#
# Total GULP energy -347331.124338 kJ/mol
# GULP energy per Si atom -12404.683012 kJ/mol
# Density = 2.289006 g / cm^3
# Si number density = 22.942282 Si / 1000 Ang^3
#
#
#
# Elastic Constant Matrix: (Units=GPa)
#
#
# Indices 1 2 3 4 5 6 
#
# 1 78.4816 36.3033 16.0578 0.0000 0.0000 0.0000
# 2 36.3033 102.0029 5.4417 0.0000 0.0000 0.0000
# 3 16.0578 5.4417 76.3800 0.0000 0.0000 0.0000
# 4 0.0000 0.0000 0.0000 36.7105 0.0000 0.0000
# 5 0.0000 0.0000 0.0000 0.0000 24.3747 0.0000
# 6 0.0000 0.0000 0.0000 0.0000 0.0000 35.4779
#
#
#
# Elastic Compliance Matrix: (Units=1/GPa)
#
#
# Indices 1 2 3 4 5 6 
#
# 1 0.015888 -0.005497 -0.002949 0.000000 0.000000 0.000000
# 2 -0.005497 0.011743 0.000319 0.000000 0.000000 0.000000
# 3 -0.002949 0.000319 0.013690 0.000000 0.000000 0.000000
# 4 0.000000 0.000000 0.000000 0.027240 0.000000 0.000000
# 5 0.000000 0.000000 0.000000 0.000000 0.041026 0.000000
# 6 0.000000 0.000000 0.000000 0.000000 0.000000 0.028187
#
#
# Mechanical properties :
#
#
# Convention : Reuss Voigt Hill
#
# Bulk Modulus (GPa) = 39.89284 41.38557 40.63921
# Shear Modulus (GPa) = 30.79141 32.58340 31.68740
#
# Velocity S-wave (km/s) = 3.66748 3.77269 3.72045
# Velocity P-wave (km/s) = 5.94642 6.08734 6.01729
#
# Compressibility (1/GPa) = 0.02506715
#
# Stress axis : x y z
#
# Youngs Moduli (GPa) = 62.94049 85.15608 73.04821
#
# Poissons Ratio (x) = 0.46813 0.21539
# Poissons Ratio (y) = 0.34600 -0.02331
# Poissons Ratio (z) = 0.18558 -0.02717
#
# Static dielectric constant tensor:
#      x y z
#    x 4.013800 0.000000 0.000000 
#    y 0.000000 4.173360 0.000000 
#    z 0.000000 0.000000 4.201100 
# 
# 
# High freq. dielectric constant tensor:
#      x y z
#    x 1.898620 0.000000 0.000000 
#    y 0.000000 1.912560 0.000000 
#    z 0.000000 0.000000 1.917210 
# 
# From -- ./inp_files/1190.got.cif
#   From: 2010.03.12/outbox.cif.g09.slc.cpg/sg29_1_cif.got.tgz:1190.got - 2010.04.14 03:43:10.
