data_PCOD8168673
_publ_section_title
;
Structure prediction by ZEFSAII (Michael W. Deem and Ramdas Pophale) SiO2 
 PCOD8168673
Probable space group: P C A 21
;
_chemical_formula_sum "Si O2"
_cell_formula_units_Z 28
_cell_length_a 8.804937
_cell_length_b 13.348533
_cell_length_c 12.109922
_cell_angle_alpha 90.000000
_cell_angle_beta 90.000000
_cell_angle_gamma 90.000000
_cell_volume 1423.315367
_symmetry_space_group_name_H-M "P C A 21"
_symmetry_group_IT_number 29
_symmetry_cell_setting 'orthorhombic'
loop_
_space_group_symop_operation_xyz
x,y,z
-x,-y,1/2+z
1/2-x,y,1/2+z
1/2+x,-y,z
loop_
_atom_site_type_symbol
_atom_site_label
_atom_site_fract_x
_atom_site_fract_y
_atom_site_fract_z
Si Si1 0.120884 0.117477 0.072400
Si Si2 0.643469 0.400292 0.852393
Si Si3 0.939887 0.304561 0.128650
Si Si4 0.480418 0.602903 0.899510
Si Si5 0.189786 0.780144 0.995226
Si Si6 0.028937 0.083397 0.621053
Si Si7 0.516519 0.179978 0.356248
O O1 0.294848 0.093503 0.094977
O O2 0.076805 0.223737 0.127814
O O3 0.015143 0.032637 0.126763
O O4 0.090249 0.118622 0.940732
O O5 0.560845 0.363486 0.742206
O O6 0.588002 0.509992 0.882341
O O7 0.822454 0.414248 0.836068
O O8 0.606384 0.319289 0.948174
O O9 0.781111 0.246014 0.107610
O O10 0.958426 0.385236 0.030945
O O11 0.548899 0.706258 0.850042
O O12 0.064988 0.863359 0.022695
O O13 0.310085 0.818894 0.902987
O O14 0.987598 0.130892 0.737761
#
# Coordination Sequence:
#
# PCOD8168673 Si02
#       7
#     4   4   4   4   4   4   4
#     4  10  24  39  58  88 115 150 196 235 288 357
#     4  10  20  35  59  82 112 152 188 235 287 336
#     4   9  20  40  55  78 119 151 186 241 288 337
#     4   9  21  36  55  84 113 147 191 233 286 346
#     4   9  20  38  59  85 113 150 196 234 285 350
#     4  12  23  39  64  87 115 155 192 240 293 342
#     4   9  22  43  58  82 123 153 189 244 287 340
#
# _framework density 19.67238
#
# number of rings (size 3 to 8) (size 9 to 14) (size 15 to 20)
#    0.000    2.857    0.000    3.429    0.000   11.429 
#    0.000    1.429    0.000    0.000    0.000    0.000 
#    0.000    0.000    0.000    0.000    0.000    0.000 
#
# Total GULP energy -347112.069676 kJ/mol
# GULP energy per Si atom -12396.859631 kJ/mol
# Density = 1.962760 g / cm^3
# Si number density = 19.672380 Si / 1000 Ang^3
#
#
#
# Elastic Constant Matrix: (Units=GPa)
#
#
# Indices 1 2 3 4 5 6 
#
# 1 104.2354 55.2030 45.2828 0.0000 0.0000 0.0000
# 2 55.2030 108.8030 57.9918 0.0000 0.0000 0.0000
# 3 45.2828 57.9918 92.0618 0.0000 0.0000 0.0000
# 4 0.0000 0.0000 0.0000 25.6606 0.0000 0.0000
# 5 0.0000 0.0000 0.0000 0.0000 17.9296 0.0000
# 6 0.0000 0.0000 0.0000 0.0000 0.0000 33.5851
#
#
#
# Elastic Compliance Matrix: (Units=1/GPa)
#
#
# Indices 1 2 3 4 5 6 
#
# 1 0.013867 -0.005119 -0.003596 0.000000 0.000000 0.000000
# 2 -0.005119 0.015726 -0.007388 0.000000 0.000000 0.000000
# 3 -0.003596 -0.007388 0.017285 0.000000 0.000000 0.000000
# 4 0.000000 0.000000 0.000000 0.038970 0.000000 0.000000
# 5 0.000000 0.000000 0.000000 0.000000 0.055774 0.000000
# 6 0.000000 0.000000 0.000000 0.000000 0.000000 0.029775
#
#
# Mechanical properties :
#
#
# Convention : Reuss Voigt Hill
#
# Bulk Modulus (GPa) = 68.16044 69.11725 68.63885
# Shear Modulus (GPa) = 23.98142 25.20989 24.59565
#
# Velocity S-wave (km/s) = 3.49526 3.58367 3.53974
# Velocity P-wave (km/s) = 7.14228 7.23422 7.18840
#
# Compressibility (1/GPa) = 0.01467127
#
# Stress axis : x y z
#
# Youngs Moduli (GPa) = 72.11405 63.58897 57.85255
#
# Poissons Ratio (x) = 0.32550 0.20806
# Poissons Ratio (y) = 0.36913 0.42744
# Poissons Ratio (z) = 0.25935 0.46982
#
# Static dielectric constant tensor:
#      x y z
#    x 3.462350 0.000000 0.000000 
#    y 0.000000 3.689440 0.000000 
#    z 0.000000 0.000000 3.465970 
# 
# 
# High freq. dielectric constant tensor:
#      x y z
#    x 1.755010 0.000000 0.000000 
#    y 0.000000 1.775570 0.000000 
#    z 0.000000 0.000000 1.759870 
# 
# From -- ./inp_files/2879.got.cif
#   From: 2010.03.12/outbox.cif.g09.slc.cpg/sg29_2_cif.got.tgz:2879.got - 2010.04.14 03:43:10.
