data_PCOD8168477
_publ_section_title
;
Structure prediction by ZEFSAII (Michael W. Deem and Ramdas Pophale) SiO2 
 PCOD8168477
Probable space group: P M A 2
;
_chemical_formula_sum "Si O2"
_cell_formula_units_Z 24
_cell_length_a 15.852546
_cell_length_b 9.077362
_cell_length_c 6.886355
_cell_angle_alpha 90.000000
_cell_angle_beta 90.000000
_cell_angle_gamma 90.000000
_cell_volume 990.941655
_symmetry_space_group_name_H-M "P M A 2"
_symmetry_group_IT_number 28
_symmetry_cell_setting 'orthorhombic'
loop_
_space_group_symop_operation_xyz
x,y,z
-x,-y,z
1/2-x,y,z
1/2+x,-y,z
loop_
_atom_site_type_symbol
_atom_site_label
_atom_site_fract_x
_atom_site_fract_y
_atom_site_fract_z
Si Si1 0.424327 0.809706 0.231940
Si Si2 0.424327 0.309706 0.791971
Si Si3 0.068264 0.872893 0.660009
Si Si4 0.345220 0.034575 0.975257
Si Si5 0.568264 0.627107 0.363903
Si Si6 0.654780 0.465425 0.048654
O O1 0.395811 0.809919 0.458275
O O2 0.521858 0.753927 0.233010
O O3 0.365924 0.701544 0.105334
O O4 0.410518 0.971725 0.138370
O O5 0.521858 0.253928 0.790901
O O6 0.395811 0.309919 0.565635
O O7 0.365924 0.201545 0.918578
O O8 0.410518 0.471725 0.885541
O O9 0.146140 0.935057 0.781683
O O10 0.000000 0.000000 0.615194
O O11 0.250000 0.025992 0.054386
O O12 0.500000 0.500000 0.408719
O O13 0.646140 0.564943 0.242228
O O14 0.750000 0.474009 0.969526
#
# Coordination Sequence:
#
# PCOD8168477 Si02
#       6
#     4   4   4   4   4   4
#     4  10  22  41  62  90 123 161 208 255 305 364
#     4  10  22  41  62  90 123 161 208 255 305 364
#     4   9  21  41  65  87 116 163 215 257 295 357
#     4  11  23  38  61  92 125 160 198 252 316 372
#     4   9  21  41  65  87 116 163 215 257 295 357
#     4  11  23  38  61  92 125 160 198 252 316 372
#
# _framework density 24.219386
#
# number of rings (size 3 to 8) (size 9 to 14) (size 15 to 20)
#    0.000    2.000    0.000    2.000    0.000   14.667 
#    0.000    0.000    0.000    0.000    0.000    0.000 
#    0.000    0.000    0.000    0.000    0.000    0.000 
#
# Total GULP energy -297511.746061 kJ/mol
# GULP energy per Si atom -12396.322753 kJ/mol
# Density = 2.416426 g / cm^3
# Si number density = 24.219386 Si / 1000 Ang^3
#
#
#
# Elastic Constant Matrix: (Units=GPa)
#
#
# Indices 1 2 3 4 5 6 
#
# 1 56.7294 22.5634 36.5531 0.0000 0.0000 0.0000
# 2 22.5634 92.5155 49.2293 0.0000 0.0000 0.0000
# 3 36.5531 49.2293 74.4369 0.0000 0.0000 0.0000
# 4 0.0000 0.0000 0.0000 48.3216 0.0000 0.0000
# 5 0.0000 0.0000 0.0000 0.0000 20.4970 0.0000
# 6 0.0000 0.0000 0.0000 0.0000 0.0000 23.6701
#
#
#
# Elastic Compliance Matrix: (Units=1/GPa)
#
#
# Indices 1 2 3 4 5 6 
#
# 1 0.025816 0.000694 -0.013136 0.000000 0.000000 0.000000
# 2 0.000694 0.016697 -0.011383 0.000000 0.000000 0.000000
# 3 -0.013136 -0.011383 0.027413 0.000000 0.000000 0.000000
# 4 0.000000 0.000000 0.000000 0.020695 0.000000 0.000000
# 5 0.000000 0.000000 0.000000 0.000000 0.048788 0.000000
# 6 0.000000 0.000000 0.000000 0.000000 0.000000 0.042247
#
#
# Mechanical properties :
#
#
# Convention : Reuss Voigt Hill
#
# Bulk Modulus (GPa) = 44.89363 48.93037 46.91200
# Shear Modulus (GPa) = 21.12095 26.18682 23.65388
#
# Velocity S-wave (km/s) = 2.95628 3.29178 3.12853
# Velocity P-wave (km/s) = 5.49812 5.89021 5.69754
#
# Compressibility (1/GPa) = 0.02227487
#
# Stress axis : x y z
#
# Youngs Moduli (GPa) = 38.73622 59.89051 36.47875
#
# Poissons Ratio (x) = -0.04155 0.47918
# Poissons Ratio (y) = -0.02687 0.41525
# Poissons Ratio (z) = 0.50883 0.68176
#
# Static dielectric constant tensor:
#      x y z
#    x 3.700900 0.000000 0.000000 
#    y 0.000000 4.548460 0.000000 
#    z 0.000000 0.000000 4.461570 
# 
# 
# High freq. dielectric constant tensor:
#      x y z
#    x 1.911130 0.000000 0.000000 
#    y 0.000000 1.978820 0.000000 
#    z 0.000000 0.000000 1.971230 
# 
# From -- ./inp_files/1127.got.cif
#   From: 2010.03.12/outbox.cif.g09.slc.cpg/sg28_1_cif.got.tgz:1127.got - 2010.04.14 03:39:34.
