data_PCOD8168290
_publ_section_title
;
Structure prediction by ZEFSAII (Michael W. Deem and Ramdas Pophale) SiO2 
 PCOD8168290
Probable space group: P M A 2
;
_chemical_formula_sum "Si O2"
_cell_formula_units_Z 28
_cell_length_a 8.733588
_cell_length_b 9.045078
_cell_length_c 18.217828
_cell_angle_alpha 90.000000
_cell_angle_beta 90.000000
_cell_angle_gamma 90.000000
_cell_volume 1439.135262
_symmetry_space_group_name_H-M "P M A 2"
_symmetry_group_IT_number 28
_symmetry_cell_setting 'orthorhombic'
loop_
_space_group_symop_operation_xyz
x,y,z
-x,-y,z
1/2-x,y,z
1/2+x,-y,z
loop_
_atom_site_type_symbol
_atom_site_label
_atom_site_fract_x
_atom_site_fract_y
_atom_site_fract_z
Si Si1 0.430552 0.160856 0.208450
Si Si2 0.570590 0.338779 0.761945
Si Si3 0.570863 0.338722 0.920873
Si Si4 0.073565 0.657541 0.339021
Si Si5 0.073382 0.842945 0.485666
Si Si6 0.569282 0.662960 0.616314
Si Si7 0.930717 0.662618 0.066052
O O1 0.250000 0.146679 0.212115
O O2 0.485225 0.263148 0.274049
O O3 0.485480 0.233587 0.132302
O O4 0.500000 0.000000 0.216771
O O5 0.500000 0.500000 0.767179
O O6 0.750000 0.350397 0.745464
O O7 0.541208 0.259014 0.841424
O O8 0.488397 0.260237 0.692754
O O9 0.500000 0.500000 0.916892
O O10 0.750000 0.351344 0.936695
O O11 0.490795 0.259216 0.990464
O O12 0.250000 0.639881 0.316565
O O13 0.053694 0.748455 0.412929
O O14 0.000000 0.500000 0.353693
O O15 0.250000 0.859880 0.508316
O O16 0.982156 0.766808 0.550932
O O17 0.000000 0.000000 0.469000
O O18 0.500000 0.500000 0.606269
O O19 0.750000 0.649558 0.616870
O O20 0.750000 0.647745 0.063403
O O21 0.000000 0.500000 0.076967
#
# Coordination Sequence:
#
# PCOD8168290 Si02
#       7
#     4   4   4   4   4   4   4
#     4  11  24  40  59  83 113 149 187 228 277 331
#     4   9  16  27  45  73 107 141 180 227 278 329
#     4   9  16  26  45  73 105 141 179 225 277 326
#     4  11  24  41  64  90 116 146 182 226 273 324
#     4  11  24  41  60  84 114 148 185 226 274 329
#     4  11  21  34  55  82 112 148 188 232 280 329
#     4  10  20  33  52  79 109 143 183 228 276 328
#
# _framework density 19.456129000000001
#
# number of rings (size 3 to 8) (size 9 to 14) (size 15 to 20)
#    0.000    1.714    0.000    6.857    0.000    9.714 
#    0.000    0.000    0.000    0.857    0.000    2.000 
#    0.000    0.000    0.000    0.000    0.000    0.000 
#
# Total GULP energy -347088.769496 kJ/mol
# GULP energy per Si atom -12396.027482 kJ/mol
# Density = 1.941185 g / cm^3
# Si number density = 19.456129 Si / 1000 Ang^3
#
#
#
# Elastic Constant Matrix: (Units=GPa)
#
#
# Indices 1 2 3 4 5 6 
#
# 1 118.9255 37.3459 58.4974 0.0000 0.0000 0.0000
# 2 37.3459 78.3637 31.9044 0.0000 0.0000 0.0000
# 3 58.4974 31.9044 131.3002 0.0000 0.0000 0.0000
# 4 0.0000 0.0000 0.0000 -40.2955 0.0000 0.0000
# 5 0.0000 0.0000 0.0000 0.0000 24.0767 0.0000
# 6 0.0000 0.0000 0.0000 0.0000 0.0000 21.4292
#
#
#
# Elastic Compliance Matrix: (Units=1/GPa)
#
#
# Indices 1 2 3 4 5 6 
#
# 1 0.011725 -0.003841 -0.004291 0.000000 0.000000 0.000000
# 2 -0.003841 0.015420 -0.002036 0.000000 0.000000 0.000000
# 3 -0.004291 -0.002036 0.010022 0.000000 0.000000 0.000000
# 4 0.000000 0.000000 0.000000 -0.024817 0.000000 0.000000
# 5 0.000000 0.000000 0.000000 0.000000 0.041534 0.000000
# 6 0.000000 0.000000 0.000000 0.000000 0.000000 0.046665
#
#
# Mechanical properties :
#
#
# Convention : Reuss Voigt Hill
#
# Bulk Modulus (GPa) = 59.40600 64.89833 62.15217
# Shear Modulus (GPa) = 39.52684 14.43152 26.97918
#
# Velocity S-wave (km/s) = 4.51220 2.72646 3.72784
# Velocity P-wave (km/s) = 7.59909 6.58332 7.10937
#
# Compressibility (1/GPa) = 0.01683332
#
# Stress axis : x y z
#
# Youngs Moduli (GPa) = 85.28569 64.84928 99.77730
#
# Poissons Ratio (x) = 0.24909 0.42810
# Poissons Ratio (y) = 0.32759 0.20311
# Poissons Ratio (z) = 0.36592 0.13201
#
# Static dielectric constant tensor:
#      x y z
#    x 3.751780 0.000000 0.000000 
#    y 0.000000 3.236550 0.000000 
#    z 0.000000 0.000000 4.478990 
# 
# 
# High freq. dielectric constant tensor:
#      x y z
#    x 1.777890 0.000000 0.000000 
#    y 0.000000 1.714460 0.000000 
#    z 0.000000 0.000000 1.789640 
# 
# From -- ./inp_files/6788.got.cif
#   From: 2010.03.12/outbox.cif.g09.slc.cpg/sg28_4_cif.got.tgz:6788.got - 2010.04.14 03:39:34.
