data_PCOD8168122
_publ_section_title
;
Structure prediction by ZEFSAII (Michael W. Deem and Ramdas Pophale) SiO2 
 PCOD8168122
Probable space group: P M A 2
;
_chemical_formula_sum "Si O2"
_cell_formula_units_Z 32
_cell_length_a 8.626996
_cell_length_b 14.244182
_cell_length_c 15.612049
_cell_angle_alpha 90.000000
_cell_angle_beta 90.000000
_cell_angle_gamma 90.000000
_cell_volume 1918.478853
_symmetry_space_group_name_H-M "P M A 2"
_symmetry_group_IT_number 28
_symmetry_cell_setting 'orthorhombic'
loop_
_space_group_symop_operation_xyz
x,y,z
-x,-y,z
1/2-x,y,z
1/2+x,-y,z
loop_
_atom_site_type_symbol
_atom_site_label
_atom_site_fract_x
_atom_site_fract_y
_atom_site_fract_z
Si Si1 0.928571 0.099849 0.229700
Si Si2 0.932481 0.784379 0.570114
Si Si3 0.067853 0.897224 0.728245
Si Si4 0.565936 0.104494 0.043914
Si Si5 0.932945 0.401269 0.632553
Si Si6 0.571206 0.792691 0.886467
Si Si7 0.428950 0.405307 0.817068
Si Si8 0.067396 0.895531 0.415449
O O1 0.750000 0.080980 0.219014
O O2 0.982372 0.144961 0.138930
O O3 0.963333 0.151334 0.320413
O O4 0.000000 0.000000 0.241043
O O5 0.750000 0.777461 0.578990
O O6 0.994472 0.847492 0.646871
O O7 0.003330 0.680518 0.572062
O O8 0.978748 0.828831 0.480208
O O9 0.250000 0.902789 0.714276
O O10 0.031908 0.840709 0.814154
O O11 0.000000 0.000000 0.738127
O O12 0.750000 0.103204 0.028499
O O13 0.500000 0.000000 0.030283
O O14 0.485483 0.175370 0.978987
O O15 0.750000 0.403318 0.626788
O O16 0.000000 0.500000 0.599497
O O17 0.983314 0.380432 0.729624
O O18 0.750000 0.820731 0.871779
O O19 0.549469 0.680188 0.882885
O O20 0.500000 0.500000 0.858669
O O21 0.250000 0.422721 0.794225
O O22 0.250000 0.899018 0.436318
O O23 0.000000 0.000000 0.423487
#
# Coordination Sequence:
#
# PCOD8168122 Si02
#       8
#     4   4   4   4   4   4   4   4
#     4   8  16  30  49  71  97 128 165 208 251 294
#     4  12  23  36  51  73 102 133 170 208 248 298
#     4  12  24  37  51  68  96 136 173 207 245 292
#     4  10  19  32  50  73 101 134 170 208 249 296
#     4  11  21  35  55  76  99 129 166 208 255 297
#     4  11  22  35  50  72 101 133 167 206 248 297
#     4  10  20  34  53  73  98 127 164 209 254 296
#     4  10  19  33  51  74 102 134 170 208 252 300
#
# _framework density 16.679881000000002
#
# number of rings (size 3 to 8) (size 9 to 14) (size 15 to 20)
#    0.000    1.500    1.250    6.375    0.000    2.500 
#    0.000    0.000    0.000    0.000    0.000    0.875 
#    0.000    2.000    0.000    0.000    0.000    0.000 
#
# Total GULP energy -396661.282804 kJ/mol
# GULP energy per Si atom -12395.665088 kJ/mol
# Density = 1.664192 g / cm^3
# Si number density = 16.679881 Si / 1000 Ang^3
#
#
#
# Elastic Constant Matrix: (Units=GPa)
#
#
# Indices 1 2 3 4 5 6 
#
# 1 118.3369 44.9366 36.6564 0.0000 0.0000 0.0000
# 2 44.9366 100.5422 49.9347 0.0000 0.0000 0.0000
# 3 36.6564 49.9347 105.4254 0.0000 0.0000 0.0000
# 4 0.0000 0.0000 0.0000 2.7709 0.0000 0.0000
# 5 0.0000 0.0000 0.0000 0.0000 17.0405 0.0000
# 6 0.0000 0.0000 0.0000 0.0000 0.0000 28.0288
#
#
#
# Elastic Compliance Matrix: (Units=1/GPa)
#
#
# Indices 1 2 3 4 5 6 
#
# 1 0.010449 -0.003747 -0.001858 0.000000 0.000000 0.000000
# 2 -0.003747 0.014349 -0.005494 0.000000 0.000000 0.000000
# 3 -0.001858 -0.005494 0.012734 0.000000 0.000000 0.000000
# 4 0.000000 0.000000 0.000000 0.360899 0.000000 0.000000
# 5 0.000000 0.000000 0.000000 0.000000 0.058684 0.000000
# 6 0.000000 0.000000 0.000000 0.000000 0.000000 0.035678
#
#
# Mechanical properties :
#
#
# Convention : Reuss Voigt Hill
#
# Bulk Modulus (GPa) = 65.21596 65.26221 65.23908
# Shear Modulus (GPa) = 9.61351 22.41981 16.01666
#
# Velocity S-wave (km/s) = 2.40334 3.67021 3.10213
# Velocity P-wave (km/s) = 6.84725 7.56120 7.21307
#
# Compressibility (1/GPa) = 0.01533367
#
# Stress axis : x y z
#
# Youngs Moduli (GPa) = 95.70293 69.68987 78.53258
#
# Poissons Ratio (x) = 0.26114 0.14593
# Poissons Ratio (y) = 0.35862 0.43143
# Poissons Ratio (z) = 0.17784 0.38285
#
# Static dielectric constant tensor:
#      x y z
#    x 3.369370 0.000000 0.000000 
#    y 0.000000 3.238430 0.000000 
#    z 0.000000 0.000000 3.453900 
# 
# 
# High freq. dielectric constant tensor:
#      x y z
#    x 1.666220 0.000000 0.000000 
#    y 0.000000 1.622590 0.000000 
#    z 0.000000 0.000000 1.635960 
# 
# From -- ./inp_files/6414.got.cif
#   From: 2010.03.12/outbox.cif.g09.slc.cpg/sg28_4_cif.got.tgz:6414.got - 2010.04.14 03:39:34.
