data_PCOD8168664
_publ_section_title
;
Structure prediction by ZEFSAII (Michael W. Deem and Ramdas Pophale) SiO2 
 PCOD8168664
Probable space group: P C A 21
;
_chemical_formula_sum "Si O2"
_cell_formula_units_Z 32
_cell_length_a 12.819595
_cell_length_b 13.272516
_cell_length_c 8.919223
_cell_angle_alpha 90.000000
_cell_angle_beta 90.000000
_cell_angle_gamma 90.000000
_cell_volume 1517.590450
_symmetry_space_group_name_H-M "P C A 21"
_symmetry_group_IT_number 29
_symmetry_cell_setting 'orthorhombic'
loop_
_space_group_symop_operation_xyz
x,y,z
-x,-y,1/2+z
1/2-x,y,1/2+z
1/2+x,-y,z
loop_
_atom_site_type_symbol
_atom_site_label
_atom_site_fract_x
_atom_site_fract_y
_atom_site_fract_z
Si Si1 0.808743 0.559546 0.481530
Si Si2 0.625615 0.898652 0.239712
Si Si3 0.647170 0.328631 0.642436
Si Si4 0.113284 0.886288 0.740550
Si Si5 0.669316 0.390542 0.335305
Si Si6 0.248532 0.987762 0.989709
Si Si7 0.167112 0.332002 0.288191
Si Si8 0.492819 0.528789 0.312859
O O1 0.727172 0.471947 0.442157
O O2 0.810197 0.588280 0.654732
O O3 0.770125 0.660525 0.392474
O O4 0.923916 0.520956 0.442953
O O5 0.503984 0.929738 0.247495
O O6 0.645328 0.779478 0.232116
O O7 0.681803 0.940695 0.386476
O O8 0.672621 0.943708 0.088436
O O9 0.600767 0.233684 0.730427
O O10 0.641927 0.307243 0.463286
O O11 0.580005 0.428698 0.679925
O O12 0.765330 0.343557 0.700578
O O13 0.174326 0.924171 0.594073
O O14 0.176419 0.914351 0.890529
O O15 0.567017 0.437247 0.256987
O O16 0.064469 0.377564 0.372377
#
# Coordination Sequence:
#
# PCOD8168664 Si02
#       8
#     4   4   4   4   4   4   4   4
#     4  10  21  35  57  81 123 160 203 245 296 347
#     4  11  22  42  68  92 128 158 208 252 320 370
#     4  11  21  38  58  88 117 161 200 252 292 361
#     4  11  22  42  68  92 128 158 208 252 320 370
#     4  10  21  35  57  81 123 160 203 245 296 347
#     4  10  24  42  66  96 122 162 198 264 316 380
#     4  11  21  38  58  88 117 161 200 252 292 361
#     4  10  20  34  56  84 116 160 200 238 296 348
#
# _framework density 21.086058000000001
#
# number of rings (size 3 to 8) (size 9 to 14) (size 15 to 20)
#    0.000    1.500    1.250    5.250    0.000    2.000 
#    0.000    0.000    5.500    0.000    0.000    0.000 
#    0.000    0.000    0.000    0.000    0.000    0.000 
#
# Total GULP energy -396642.480634 kJ/mol
# GULP energy per Si atom -12395.077520 kJ/mol
# Density = 2.103807 g / cm^3
# Si number density = 21.086058 Si / 1000 Ang^3
#
#
#
# Elastic Constant Matrix: (Units=GPa)
#
#
# Indices 1 2 3 4 5 6 
#
# 1 135.7152 34.0959 52.6032 0.0000 0.0000 0.0000
# 2 34.0959 64.1238 22.6217 0.0000 0.0000 0.0000
# 3 52.6032 22.6217 106.9411 0.0000 0.0000 0.0000
# 4 0.0000 0.0000 0.0000 28.4084 0.0000 0.0000
# 5 0.0000 0.0000 0.0000 0.0000 27.9995 0.0000
# 6 0.0000 0.0000 0.0000 0.0000 0.0000 31.2321
#
#
#
# Elastic Compliance Matrix: (Units=1/GPa)
#
#
# Indices 1 2 3 4 5 6 
#
# 1 0.009906 -0.003834 -0.004062 0.000000 0.000000 0.000000
# 2 -0.003834 0.018337 -0.001993 0.000000 0.000000 0.000000
# 3 -0.004062 -0.001993 0.011770 0.000000 0.000000 0.000000
# 4 0.000000 0.000000 0.000000 0.035201 0.000000 0.000000
# 5 0.000000 0.000000 0.000000 0.000000 0.035715 0.000000
# 6 0.000000 0.000000 0.000000 0.000000 0.000000 0.032018
#
#
# Mechanical properties :
#
#
# Convention : Reuss Voigt Hill
#
# Bulk Modulus (GPa) = 49.41784 58.38019 53.89901
# Shear Modulus (GPa) = 29.50385 30.69195 30.09790
#
# Velocity S-wave (km/s) = 3.74466 3.81931 3.78217
# Velocity P-wave (km/s) = 6.49490 6.86996 6.68506
#
# Compressibility (1/GPa) = 0.02023561
#
# Stress axis : x y z
#
# Youngs Moduli (GPa) = 100.94965 54.53567 84.95961
#
# Poissons Ratio (x) = 0.20911 0.34507
# Poissons Ratio (y) = 0.38708 0.16930
# Poissons Ratio (z) = 0.41001 0.10868
#
# Static dielectric constant tensor:
#      x y z
#    x 4.138720 0.000000 0.000000 
#    y 0.000000 3.694220 0.000000 
#    z 0.000000 0.000000 3.758980 
# 
# 
# High freq. dielectric constant tensor:
#      x y z
#    x 1.842040 0.000000 0.000000 
#    y 0.000000 1.810880 0.000000 
#    z 0.000000 0.000000 1.825660 
# 
# From -- ./inp_files/1590.got.cif
#   From: 2010.03.12/outbox.cif.g09.slc.cpg/sg29_1_cif.got.tgz:1590.got - 2010.04.14 03:43:10.
