data_PCOD8168610
_publ_section_title
;
Structure prediction by ZEFSAII (Michael W. Deem and Ramdas Pophale) SiO2 
 PCOD8168610
Probable space group: P C A 21
;
_chemical_formula_sum "Si O2"
_cell_formula_units_Z 32
_cell_length_a 5.318749
_cell_length_b 16.268767
_cell_length_c 16.063978
_cell_angle_alpha 90.000000
_cell_angle_beta 90.000000
_cell_angle_gamma 90.000000
_cell_volume 1390.007795
_symmetry_space_group_name_H-M "P C A 21"
_symmetry_group_IT_number 29
_symmetry_cell_setting 'orthorhombic'
loop_
_space_group_symop_operation_xyz
x,y,z
-x,-y,1/2+z
1/2-x,y,1/2+z
1/2+x,-y,z
loop_
_atom_site_type_symbol
_atom_site_label
_atom_site_fract_x
_atom_site_fract_y
_atom_site_fract_z
Si Si1 0.241029 0.274028 0.105510
Si Si2 0.182779 0.710199 0.343464
Si Si3 0.232733 0.457555 0.176588
Si Si4 0.758446 0.212822 0.679903
Si Si5 0.808856 0.963576 0.923928
Si Si6 0.193844 0.229238 0.424570
Si Si7 0.289650 0.967903 0.735824
Si Si8 0.193852 0.523727 0.362674
O O1 0.237543 0.361374 0.152604
O O2 0.491817 0.221615 0.124750
O O3 0.995478 0.219917 0.126852
O O4 0.236270 0.282445 0.006008
O O5 0.246238 0.714161 0.246274
O O6 0.424640 0.739498 0.394012
O O7 0.116010 0.616749 0.356362
O O8 0.926124 0.760139 0.361109
O O9 0.480888 0.501273 0.138117
O O10 0.236903 0.472511 0.276391
O O11 0.761759 0.129968 0.734886
O O12 0.833007 0.867256 0.938389
O O13 0.553277 0.995539 0.967609
O O14 0.806222 0.992647 0.827809
O O15 0.547260 0.993426 0.688846
O O16 0.459008 0.517351 0.411904
#
# Coordination Sequence:
#
# PCOD8168610 Si02
#       8
#     4   4   4   4   4   4   4   4
#     4  12  26  45  67 101 142 180 218 275 348 410
#     4  12  23  41  70  99 128 175 231 281 325 395
#     4  10  20  39  64  90 125 174 219 263 326 398
#     4  12  23  41  70  99 128 175 231 281 325 395
#     4  10  20  39  64  90 125 174 219 263 326 398
#     4  12  26  45  67 101 142 180 218 275 348 410
#     4  10  19  35  59  92 125 161 217 279 323 373
#     4  10  19  35  59  92 125 161 217 279 323 373
#
# _framework density 23.021452
#
# number of rings (size 3 to 8) (size 9 to 14) (size 15 to 20)
#    0.000    1.000    0.000   10.500    0.000    0.000 
#    0.000    7.500    0.000    0.000    0.000    0.000 
#    0.000    0.000    0.000    0.000    0.000    0.000 
#
# Total GULP energy -396580.564549 kJ/mol
# GULP energy per Si atom -12393.142642 kJ/mol
# Density = 2.296905 g / cm^3
# Si number density = 23.021452 Si / 1000 Ang^3
#
#
#
# Elastic Constant Matrix: (Units=GPa)
#
#
# Indices 1 2 3 4 5 6 
#
# 1 215.8018 50.0625 7.4299 0.0000 0.0000 0.0000
# 2 50.0625 82.3604 1.3245 0.0000 0.0000 0.0000
# 3 7.4299 1.3245 29.7579 0.0000 0.0000 0.0000
# 4 0.0000 0.0000 0.0000 13.5800 0.0000 0.0000
# 5 0.0000 0.0000 0.0000 0.0000 14.1095 0.0000
# 6 0.0000 0.0000 0.0000 0.0000 0.0000 35.9607
#
#
#
# Elastic Compliance Matrix: (Units=1/GPa)
#
#
# Indices 1 2 3 4 5 6 
#
# 1 0.005438 -0.003286 -0.001211 0.000000 0.000000 0.000000
# 2 -0.003286 0.014136 0.000191 0.000000 0.000000 0.000000
# 3 -0.001211 0.000191 0.033898 0.000000 0.000000 0.000000
# 4 0.000000 0.000000 0.000000 0.073638 0.000000 0.000000
# 5 0.000000 0.000000 0.000000 0.000000 0.070874 0.000000
# 6 0.000000 0.000000 0.000000 0.000000 0.000000 0.027808
#
#
# Mechanical properties :
#
#
# Convention : Reuss Voigt Hill
#
# Bulk Modulus (GPa) = 22.29151 49.50598 35.89874
# Shear Modulus (GPa) = 20.05152 30.67028 25.36090
#
# Velocity S-wave (km/s) = 2.95446 3.65396 3.32267
# Velocity P-wave (km/s) = 4.61978 6.27318 5.50887
#
# Compressibility (1/GPa) = 0.04486013
#
# Stress axis : x y z
#
# Youngs Moduli (GPa) = 183.89556 70.74133 29.49984
#
# Poissons Ratio (x) = 0.23245 0.03574
# Poissons Ratio (y) = 0.60426 -0.00564
# Poissons Ratio (z) = 0.22278 -0.01353
#
# Static dielectric constant tensor:
#      x y z
#    x 5.853060 0.000000 0.000000 
#    y 0.000000 4.058690 0.000000 
#    z 0.000000 0.000000 3.679770 
# 
# 
# High freq. dielectric constant tensor:
#      x y z
#    x 1.956500 0.000000 0.000000 
#    y 0.000000 1.917540 0.000000 
#    z 0.000000 0.000000 1.854610 
# 
# From -- ./inp_files/4908.got.cif
#   From: 2010.03.12/outbox.cif.g09.slc.cpg/sg29_3_cif.got.tgz:4908.got - 2010.04.14 03:43:10.
