data_PCOD8168631
_publ_section_title
;
Structure prediction by ZEFSAII (Michael W. Deem and Ramdas Pophale) SiO2 
 PCOD8168631
Probable space group: P C A 21
;
_chemical_formula_sum "Si O2"
_cell_formula_units_Z 32
_cell_length_a 14.229429
_cell_length_b 11.959262
_cell_length_c 8.524781
_cell_angle_alpha 90.000000
_cell_angle_beta 90.000000
_cell_angle_gamma 90.000000
_cell_volume 1450.691560
_symmetry_space_group_name_H-M "P C A 21"
_symmetry_group_IT_number 29
_symmetry_cell_setting 'orthorhombic'
loop_
_space_group_symop_operation_xyz
x,y,z
-x,-y,1/2+z
1/2-x,y,1/2+z
1/2+x,-y,z
loop_
_atom_site_type_symbol
_atom_site_label
_atom_site_fract_x
_atom_site_fract_y
_atom_site_fract_z
Si Si1 0.121327 0.580700 0.804520
Si Si2 0.374232 0.337332 0.357907
Si Si3 0.988966 0.772884 0.770121
Si Si4 0.311993 0.603479 0.657831
Si Si5 0.632119 0.082466 0.932350
Si Si6 0.822105 0.643033 0.712983
Si Si7 0.984499 0.866826 0.431746
Si Si8 0.174020 0.848901 0.271075
O O1 0.078086 0.456583 0.821074
O O2 0.041826 0.657761 0.731855
O O3 0.200171 0.588064 0.670330
O O4 0.160932 0.618671 0.975382
O O5 0.284936 0.326440 0.245733
O O6 0.337855 0.326332 0.533550
O O7 0.451424 0.241306 0.331540
O O8 0.043390 0.834194 0.909991
O O9 0.885484 0.728010 0.818446
O O10 0.986449 0.851707 0.618412
O O11 0.350713 0.488280 0.737898
O O12 0.340216 0.715344 0.752029
O O13 0.721548 0.120545 0.829953
O O14 0.591904 0.961172 0.887267
O O15 0.663768 0.084479 0.110531
O O16 0.091739 0.895702 0.383808
#
# Coordination Sequence:
#
# PCOD8168631 Si02
#       8
#     4   4   4   4   4   4   4   4
#     4  10  20  37  64  92 130 163 209 267 322 383
#     4   9  21  42  59  94 129 170 214 261 326 381
#     4  11  22  42  64  95 132 172 218 268 330 385
#     4  10  19  38  61  97 127 164 212 258 322 381
#     4  12  26  45  66  97 129 173 219 275 323 383
#     4   9  21  38  64  91 133 171 207 266 324 392
#     4  11  27  43  66  95 132 173 225 264 323 394
#     4  12  24  43  68  95 124 168 218 273 324 385
#
# _framework density 22.058444999999999
#
# number of rings (size 3 to 8) (size 9 to 14) (size 15 to 20)
#    0.000    1.500    2.500    1.500    3.500    4.000 
#    0.000    0.000    0.000    0.000    0.000    0.000 
#    0.000    0.000    0.000    0.000    0.000    0.000 
#
# Total GULP energy -396577.499420 kJ/mol
# GULP energy per Si atom -12393.046857 kJ/mol
# Density = 2.200824 g / cm^3
# Si number density = 22.058445 Si / 1000 Ang^3
#
#
#
# Elastic Constant Matrix: (Units=GPa)
#
#
# Indices 1 2 3 4 5 6 
#
# 1 74.2752 32.7672 20.4016 0.0000 0.0000 0.0000
# 2 32.7672 99.1827 21.7405 0.0000 0.0000 0.0000
# 3 20.4016 21.7405 33.6569 0.0000 0.0000 0.0000
# 4 0.0000 0.0000 0.0000 29.8553 0.0000 0.0000
# 5 0.0000 0.0000 0.0000 0.0000 28.3910 0.0000
# 6 0.0000 0.0000 0.0000 0.0000 0.0000 40.0744
#
#
#
# Elastic Compliance Matrix: (Units=1/GPa)
#
#
# Indices 1 2 3 4 5 6 
#
# 1 0.017421 -0.004008 -0.007971 0.000000 0.000000 0.000000
# 2 -0.004008 0.012668 -0.005753 0.000000 0.000000 0.000000
# 3 -0.007971 -0.005753 0.038259 0.000000 0.000000 0.000000
# 4 0.000000 0.000000 0.000000 0.033495 0.000000 0.000000
# 5 0.000000 0.000000 0.000000 0.000000 0.035222 0.000000
# 6 0.000000 0.000000 0.000000 0.000000 0.000000 0.024954
#
#
# Mechanical properties :
#
#
# Convention : Reuss Voigt Hill
#
# Bulk Modulus (GPa) = 30.41005 39.65928 35.03466
# Shear Modulus (GPa) = 23.98721 28.47786 26.23253
#
# Velocity S-wave (km/s) = 3.30121 3.59697 3.45226
# Velocity P-wave (km/s) = 5.32416 5.93878 5.63985
#
# Compressibility (1/GPa) = 0.03288386
#
# Stress axis : x y z
#
# Youngs Moduli (GPa) = 57.40154 78.94129 26.13742
#
# Poissons Ratio (x) = 0.31642 0.20834
# Poissons Ratio (y) = 0.23008 0.15037
# Poissons Ratio (z) = 0.45754 0.45414
#
# Static dielectric constant tensor:
#      x y z
#    x 4.117280 0.000000 0.000000 
#    y 0.000000 4.205640 0.000000 
#    z 0.000000 0.000000 3.699420 
# 
# 
# High freq. dielectric constant tensor:
#      x y z
#    x 1.869570 0.000000 0.000000 
#    y 0.000000 1.875350 0.000000 
#    z 0.000000 0.000000 1.849570 
# 
# From -- ./inp_files/1815.got.cif
#   From: 2010.03.12/outbox.cif.g09.slc.cpg/sg29_1_cif.got.tgz:1815.got - 2010.04.14 03:43:10.
