data_PCOD8168750
_publ_section_title
;
Structure prediction by ZEFSAII (Michael W. Deem and Ramdas Pophale) SiO2 
 PCOD8168750
Probable space group: P C A 21
;
_chemical_formula_sum "Si O2"
_cell_formula_units_Z 24
_cell_length_a 15.059254
_cell_length_b 7.608961
_cell_length_c 10.278510
_cell_angle_alpha 90.000000
_cell_angle_beta 90.000000
_cell_angle_gamma 90.000000
_cell_volume 1177.765909
_symmetry_space_group_name_H-M "P C A 21"
_symmetry_group_IT_number 29
_symmetry_cell_setting 'orthorhombic'
loop_
_space_group_symop_operation_xyz
x,y,z
-x,-y,1/2+z
1/2-x,y,1/2+z
1/2+x,-y,z
loop_
_atom_site_type_symbol
_atom_site_label
_atom_site_fract_x
_atom_site_fract_y
_atom_site_fract_z
Si Si1 0.399878 0.406046 0.283940
Si Si2 0.152124 0.227464 0.532915
Si Si3 0.237822 0.659221 0.254291
Si Si4 0.350045 0.218239 0.534112
Si Si5 0.753211 0.111500 0.004591
Si Si6 0.918796 0.598022 0.778464
O O1 0.401572 0.272675 0.163046
O O2 0.308284 0.510220 0.286055
O O3 0.407543 0.291389 0.414537
O O4 0.479169 0.543470 0.274219
O O5 0.252094 0.310132 0.537427
O O6 0.098573 0.308135 0.414232
O O7 0.160536 0.015515 0.520690
O O8 0.244906 0.813063 0.359794
O O9 0.255684 0.735980 0.111147
O O10 0.140116 0.575739 0.258979
O O11 0.401832 0.259766 0.666044
O O12 0.336296 0.007148 0.520960
#
# Coordination Sequence:
#
# PCOD8168750 Si02
#       6
#     4   4   4   4   4   4
#     4  12  23  39  65  91 119 158 204 248 292 356
#     4  10  20  42  61  82 122 164 193 233 318 347
#     4  12  20  40  58  94 114 154 208 248 286 358
#     4  10  20  42  61  82 122 164 193 233 318 347
#     4  10  22  36  68  82 120 166 190 244 308 350
#     4  12  23  39  65  91 119 158 204 248 292 356
#
# _framework density 20.377562000000001
#
# number of rings (size 3 to 8) (size 9 to 14) (size 15 to 20)
#    1.000    0.000    3.333    5.000    0.000    0.000 
#    0.000   10.000    0.000    0.000    0.000    0.000 
#    0.000    0.000    0.000    0.000    0.000    0.000 
#
# Total GULP energy -297629.677513 kJ/mol
# GULP energy per Si atom -12401.236563 kJ/mol
# Density = 2.033118 g / cm^3
# Si number density = 20.377562 Si / 1000 Ang^3
#
#
#
# Elastic Constant Matrix: (Units=GPa)
#
#
# Indices 1 2 3 4 5 6 
#
# 1 34.3450 -6.9678 12.1933 0.0000 0.0000 0.0000
# 2 -6.9678 59.1576 2.6902 0.0000 0.0000 0.0000
# 3 12.1933 2.6902 97.6359 0.0000 0.0000 0.0000
# 4 0.0000 0.0000 0.0000 26.2475 0.0000 0.0000
# 5 0.0000 0.0000 0.0000 0.0000 21.4045 0.0000
# 6 0.0000 0.0000 0.0000 0.0000 0.0000 5.2783
#
#
#
# Elastic Compliance Matrix: (Units=1/GPa)
#
#
# Indices 1 2 3 4 5 6 
#
# 1 0.031329 0.003873 -0.004019 0.000000 0.000000 0.000000
# 2 0.003873 0.017404 -0.000963 0.000000 0.000000 0.000000
# 3 -0.004019 -0.000963 0.010771 0.000000 0.000000 0.000000
# 4 0.000000 0.000000 0.000000 0.038099 0.000000 0.000000
# 5 0.000000 0.000000 0.000000 0.000000 0.046719 0.000000
# 6 0.000000 0.000000 0.000000 0.000000 0.000000 0.189455
#
#
# Mechanical properties :
#
#
# Convention : Reuss Voigt Hill
#
# Bulk Modulus (GPa) = 17.45681 22.99666 20.22674
# Shear Modulus (GPa) = 14.08091 22.80091 18.44091
#
# Velocity S-wave (km/s) = 2.63154 3.34866 3.01152
# Velocity P-wave (km/s) = 4.22121 5.12456 4.69467
#
# Compressibility (1/GPa) = 0.05728424
#
# Stress axis : x y z
#
# Youngs Moduli (GPa) = 31.91934 57.45826 92.84519
#
# Poissons Ratio (x) = -0.22252 0.37317
# Poissons Ratio (y) = -0.12362 0.08943
# Poissons Ratio (z) = 0.12829 0.05534
#
# Static dielectric constant tensor:
#      x y z
#    x 3.402190 0.000000 0.000000 
#    y 0.000000 3.630010 0.000000 
#    z 0.000000 0.000000 3.750880 
# 
# 
# High freq. dielectric constant tensor:
#      x y z
#    x 1.769210 0.000000 0.000000 
#    y 0.000000 1.793840 0.000000 
#    z 0.000000 0.000000 1.817380 
# 
# From -- ./inp_files/1726.got.cif
#   From: 2010.03.12/outbox.cif.g09.slc.cpg/sg29_1_cif.got.tgz:1726.got - 2010.04.14 03:43:10.
