data_PCOD8168180
_publ_section_title
;
Structure prediction by ZEFSAII (Michael W. Deem and Ramdas Pophale) SiO2 
 PCOD8168180
Probable space group: P M A 2
;
_chemical_formula_sum "Si O2"
_cell_formula_units_Z 28
_cell_length_a 8.840008
_cell_length_b 9.398076
_cell_length_c 18.026455
_cell_angle_alpha 90.000000
_cell_angle_beta 90.000000
_cell_angle_gamma 90.000000
_cell_volume 1497.621063
_symmetry_space_group_name_H-M "P M A 2"
_symmetry_group_IT_number 28
_symmetry_cell_setting 'orthorhombic'
loop_
_space_group_symop_operation_xyz
x,y,z
-x,-y,z
1/2-x,y,z
1/2+x,-y,z
loop_
_atom_site_type_symbol
_atom_site_label
_atom_site_fract_x
_atom_site_fract_y
_atom_site_fract_z
Si Si1 0.073000 0.846231 0.484510
Si Si2 0.926249 0.151593 0.646177
Si Si3 0.427771 0.345430 0.201055
Si Si4 0.429472 0.154200 0.062077
Si Si5 0.570578 0.843822 0.338696
Si Si6 0.428527 0.651700 0.941610
Si Si7 0.072986 0.646932 0.772614
O O1 0.250000 0.858098 0.466587
O O2 0.044520 0.773493 0.565259
O O3 0.989915 0.769855 0.415140
O O4 0.000000 0.000000 0.489463
O O5 0.750000 0.129017 0.658399
O O6 0.995657 0.242234 0.713579
O O7 0.000000 0.000000 0.649771
O O8 0.500000 0.500000 0.198168
O O9 0.250000 0.366710 0.202743
O O10 0.478210 0.255507 0.129596
O O11 0.483942 0.259215 0.272978
O O12 0.250000 0.139510 0.054851
O O13 0.500000 0.000000 0.075645
O O14 0.496954 0.221773 0.987674
O O15 0.750000 0.859015 0.340684
O O16 0.500000 0.000000 0.326779
O O17 0.500000 0.500000 0.964001
O O18 0.250000 0.643597 0.956468
O O19 0.467225 0.690812 0.856577
O O20 0.250000 0.630885 0.761972
O O21 0.000000 0.500000 0.750744
#
# Coordination Sequence:
#
# PCOD8168180 Si02
#       7
#     4   4   4   4   4   4   4
#     4   9  16  28  48  73 101 134 170 210 257 305
#     4   9  18  32  50  74 103 134 172 215 257 304
#     4  10  23  39  56  78 105 138 174 211 254 307
#     4  11  23  39  58  82 109 138 174 215 261 310
#     4  10  19  33  53  78 104 132 170 213 257 305
#     4  10  20  36  57  80 107 140 177 217 262 313
#     4   9  19  35  53  75 104 138 175 213 255 306
#
# _framework density 18.696318000000002
#
# number of rings (size 3 to 8) (size 9 to 14) (size 15 to 20)
#    0.000    2.286    0.000    3.429    0.000    5.714 
#    0.000    2.143    0.000    3.429    0.000    0.000 
#    0.000    0.000    0.000    0.000    0.000    0.000 
#
# Total GULP energy -347086.066736 kJ/mol
# GULP energy per Si atom -12395.930955 kJ/mol
# Density = 1.865376 g / cm^3
# Si number density = 18.696318 Si / 1000 Ang^3
#
#
#
# Elastic Constant Matrix: (Units=GPa)
#
#
# Indices 1 2 3 4 5 6 
#
# 1 66.4564 44.5919 49.4897 0.0000 0.0000 0.0000
# 2 44.5919 118.1708 84.9756 0.0000 0.0000 0.0000
# 3 49.4897 84.9756 156.2151 0.0000 0.0000 0.0000
# 4 0.0000 0.0000 0.0000 27.5358 0.0000 0.0000
# 5 0.0000 0.0000 0.0000 0.0000 29.8521 0.0000
# 6 0.0000 0.0000 0.0000 0.0000 0.0000 29.4331
#
#
#
# Elastic Compliance Matrix: (Units=1/GPa)
#
#
# Indices 1 2 3 4 5 6 
#
# 1 0.021534 -0.005289 -0.003945 0.000000 0.000000 0.000000
# 2 -0.005289 0.015198 -0.006592 0.000000 0.000000 0.000000
# 3 -0.003945 -0.006592 0.011237 0.000000 0.000000 0.000000
# 4 0.000000 0.000000 0.000000 0.036316 0.000000 0.000000
# 5 0.000000 0.000000 0.000000 0.000000 0.033499 0.000000
# 6 0.000000 0.000000 0.000000 0.000000 0.000000 0.033975
#
#
# Mechanical properties :
#
#
# Convention : Reuss Voigt Hill
#
# Bulk Modulus (GPa) = 61.28331 77.66184 69.47258
# Shear Modulus (GPa) = 26.47595 28.14986 27.31291
#
# Velocity S-wave (km/s) = 3.76720 3.88446 3.82628
# Velocity P-wave (km/s) = 7.19526 7.85796 7.53390
#
# Compressibility (1/GPa) = 0.01631766
#
# Stress axis : x y z
#
# Youngs Moduli (GPa) = 46.43749 65.79718 88.99260
#
# Poissons Ratio (x) = 0.34801 0.35108
# Poissons Ratio (y) = 0.24562 0.58661
# Poissons Ratio (z) = 0.18320 0.43371
#
# Static dielectric constant tensor:
#      x y z
#    x 3.443460 0.000000 0.000000 
#    y 0.000000 3.233830 0.000000 
#    z 0.000000 0.000000 4.141980 
# 
# 
# High freq. dielectric constant tensor:
#      x y z
#    x 1.731370 0.000000 0.000000 
#    y 0.000000 1.701200 0.000000 
#    z 0.000000 0.000000 1.749770 
# 
# From -- ./inp_files/6767.got.cif
#   From: 2010.03.12/outbox.cif.g09.slc.cpg/sg28_4_cif.got.tgz:6767.got - 2010.04.14 03:39:34.
