data_PCOD8168431
_publ_section_title
;
Structure prediction by ZEFSAII (Michael W. Deem and Ramdas Pophale) SiO2 
 PCOD8168431
Probable space group: P M A 2
;
_chemical_formula_sum "Si O2"
_cell_formula_units_Z 24
_cell_length_a 16.894554
_cell_length_b 5.028549
_cell_length_c 13.661687
_cell_angle_alpha 90.000000
_cell_angle_beta 90.000000
_cell_angle_gamma 90.000000
_cell_volume 1160.629884
_symmetry_space_group_name_H-M "P M A 2"
_symmetry_group_IT_number 28
_symmetry_cell_setting 'orthorhombic'
loop_
_space_group_symop_operation_xyz
x,y,z
-x,-y,z
1/2-x,y,z
1/2+x,-y,z
loop_
_atom_site_type_symbol
_atom_site_label
_atom_site_fract_x
_atom_site_fract_y
_atom_site_fract_z
Si Si1 0.658270 0.742394 0.744600
Si Si2 0.589998 0.588147 0.541751
Si Si3 0.659593 0.228190 0.869160
Si Si4 0.342088 0.900471 0.442517
Si Si5 0.553317 0.257220 0.268738
Si Si6 0.947574 0.257994 0.050386
O O1 0.750000 0.767127 0.710795
O O2 0.603866 0.682776 0.652027
O O3 0.646933 0.518585 0.826058
O O4 0.624727 0.012842 0.792794
O O5 0.500000 0.500000 0.525278
O O6 0.645350 0.332049 0.522397
O O7 0.609855 0.833384 0.469940
O O8 0.750000 0.152025 0.884765
O O9 0.623309 0.208347 0.976364
O O10 0.250000 0.972930 0.435784
O O11 0.371758 0.786873 0.338703
O O12 0.500000 0.500000 0.308915
O O13 0.500000 0.000000 0.267074
O O14 0.585553 0.323249 0.159393
O O15 0.000000 0.500000 0.010424
O O16 0.000000 0.000000 0.055667
#
# Coordination Sequence:
#
# PCOD8168431 Si02
#       6
#     4   4   4   4   4   4
#     4  10  21  38  58  84 117 154 193 239 291 344
#     4  12  25  41  62  89 120 158 202 249 301 361
#     4  10  21  37  59  84 116 153 190 237 291 343
#     4  12  24  40  63  90 120 157 198 248 303 362
#     4  10  21  39  61  85 117 154 193 240 294 349
#     4  10  21  37  59  86 116 152 191 237 289 343
#
# _framework density 20.678425000000001
#
# number of rings (size 3 to 8) (size 9 to 14) (size 15 to 20)
#    0.000    1.333    0.000    6.500    0.000    4.000 
#    0.000    0.000    0.000   10.000    0.000    0.000 
#    0.000    0.000    0.000    0.000    0.000    0.000 
#
# Total GULP energy -297698.270198 kJ/mol
# GULP energy per Si atom -12404.094592 kJ/mol
# Density = 2.063136 g / cm^3
# Si number density = 20.678425 Si / 1000 Ang^3
#
#
#
# Elastic Constant Matrix: (Units=GPa)
#
#
# Indices 1 2 3 4 5 6 
#
# 1 96.1952 37.5021 61.9101 0.0000 0.0000 0.0000
# 2 37.5021 119.4770 20.9567 0.0000 0.0000 0.0000
# 3 61.9101 20.9567 117.3781 0.0000 0.0000 0.0000
# 4 0.0000 0.0000 0.0000 35.8070 0.0000 0.0000
# 5 0.0000 0.0000 0.0000 0.0000 38.5988 0.0000
# 6 0.0000 0.0000 0.0000 0.0000 0.0000 28.5526
#
#
#
# Elastic Compliance Matrix: (Units=1/GPa)
#
#
# Indices 1 2 3 4 5 6 
#
# 1 0.017392 -0.003975 -0.008464 0.000000 0.000000 0.000000
# 2 -0.003975 0.009549 0.000392 0.000000 0.000000 0.000000
# 3 -0.008464 0.000392 0.012914 0.000000 0.000000 0.000000
# 4 0.000000 0.000000 0.000000 0.027928 0.000000 0.000000
# 5 0.000000 0.000000 0.000000 0.000000 0.025908 0.000000
# 6 0.000000 0.000000 0.000000 0.000000 0.000000 0.035023
#
#
# Mechanical properties :
#
#
# Convention : Reuss Voigt Hill
#
# Bulk Modulus (GPa) = 63.44770 63.75423 63.60096
# Shear Modulus (GPa) = 31.63358 34.77045 33.20201
#
# Velocity S-wave (km/s) = 3.91549 4.10504 4.01139
# Velocity P-wave (km/s) = 7.15479 7.30525 7.23041
#
# Compressibility (1/GPa) = 0.01576101
#
# Stress axis : x y z
#
# Youngs Moduli (GPa) = 57.49708 104.72633 77.43715
#
# Poissons Ratio (x) = 0.41624 0.65541
# Poissons Ratio (y) = 0.22853 -0.03032
# Poissons Ratio (z) = 0.48664 -0.04100
#
# Static dielectric constant tensor:
#      x y z
#    x 3.483020 0.000000 0.000000 
#    y 0.000000 4.038940 0.000000 
#    z 0.000000 0.000000 3.976100 
# 
# 
# High freq. dielectric constant tensor:
#      x y z
#    x 1.787070 0.000000 0.000000 
#    y 0.000000 1.833500 0.000000 
#    z 0.000000 0.000000 1.819490 
# 
# From -- ./inp_files/5668.got.cif
#   From: 2010.03.12/outbox.cif.g09.slc.cpg/sg28_3_cif.got.tgz:5668.got - 2010.04.14 03:39:34.
