data_PCOD8168745
_publ_section_title
;
Structure prediction by ZEFSAII (Michael W. Deem and Ramdas Pophale) SiO2 
 PCOD8168745
Probable space group: P C A 21
;
_chemical_formula_sum "Si O2"
_cell_formula_units_Z 32
_cell_length_a 14.347889
_cell_length_b 11.481585
_cell_length_c 8.773047
_cell_angle_alpha 90.000000
_cell_angle_beta 90.000000
_cell_angle_gamma 90.000000
_cell_volume 1445.241120
_symmetry_space_group_name_H-M "P C A 21"
_symmetry_group_IT_number 29
_symmetry_cell_setting 'orthorhombic'
loop_
_space_group_symop_operation_xyz
x,y,z
-x,-y,1/2+z
1/2-x,y,1/2+z
1/2+x,-y,z
loop_
_atom_site_type_symbol
_atom_site_label
_atom_site_fract_x
_atom_site_fract_y
_atom_site_fract_z
Si Si1 0.361732 0.109070 0.938800
Si Si2 0.869061 0.303576 0.746144
Si Si3 0.519153 0.120100 0.421826
Si Si4 0.623317 0.564705 0.241203
Si Si5 0.990957 0.239136 0.242587
Si Si6 0.681019 0.326168 0.903767
Si Si7 0.332168 0.164055 0.288408
Si Si8 0.705554 0.591801 0.923161
O O1 0.441252 0.191080 0.871967
O O2 0.267294 0.113048 0.840283
O O3 0.404706 0.980705 0.928379
O O4 0.336870 0.152594 0.107060
O O5 0.948596 0.215568 0.798418
O O6 0.910552 0.432796 0.753320
O O7 0.785070 0.288900 0.864215
O O8 0.835302 0.282586 0.574848
O O9 0.506464 0.163577 0.592342
O O10 0.415584 0.085538 0.362277
O O11 0.527896 0.631372 0.211765
O O12 0.683307 0.600833 0.390118
O O13 0.695025 0.595277 0.104752
O O14 0.885841 0.250044 0.297963
O O15 0.666299 0.464685 0.870965
O O16 0.346087 0.298857 0.342697
#
# Coordination Sequence:
#
# PCOD8168745 Si02
#       8
#     4   4   4   4   4   4   4   4
#     4  12  28  46  70 101 135 187 233 298 345 413
#     4  10  23  43  65  99 135 182 223 282 353 411
#     4  12  27  46  70 100 140 185 240 284 348 415
#     4  10  21  38  66  99 137 172 223 284 345 414
#     4  12  24  43  66 102 138 179 233 284 349 417
#     4  10  23  41  67 100 140 176 223 281 354 421
#     4  12  24  46  71 100 132 179 234 290 350 413
#     4  10  20  41  65 101 133 174 221 281 346 412
#
# _framework density 22.141634
#
# number of rings (size 3 to 8) (size 9 to 14) (size 15 to 20)
#    0.000    1.000    2.500    3.750    1.750    4.000 
#    0.000    0.000    0.000    0.000    0.000    0.000 
#    0.000    0.000    0.000    0.000    0.000    0.000 
#
# Total GULP energy -396762.203092 kJ/mol
# GULP energy per Si atom -12398.818847 kJ/mol
# Density = 2.209124 g / cm^3
# Si number density = 22.141634 Si / 1000 Ang^3
#
#
#
# Elastic Constant Matrix: (Units=GPa)
#
#
# Indices 1 2 3 4 5 6 
#
# 1 84.2933 38.8238 16.8742 0.0000 0.0000 0.0000
# 2 38.8238 82.3075 26.0493 0.0000 0.0000 0.0000
# 3 16.8742 26.0493 94.4853 0.0000 0.0000 0.0000
# 4 0.0000 0.0000 0.0000 24.3960 0.0000 0.0000
# 5 0.0000 0.0000 0.0000 0.0000 42.1260 0.0000
# 6 0.0000 0.0000 0.0000 0.0000 0.0000 27.6628
#
#
#
# Elastic Compliance Matrix: (Units=1/GPa)
#
#
# Indices 1 2 3 4 5 6 
#
# 1 0.015212 -0.006919 -0.000809 0.000000 0.000000 0.000000
# 2 -0.006919 0.016458 -0.003302 0.000000 0.000000 0.000000
# 3 -0.000809 -0.003302 0.011638 0.000000 0.000000 0.000000
# 4 0.000000 0.000000 0.000000 0.040990 0.000000 0.000000
# 5 0.000000 0.000000 0.000000 0.000000 0.023738 0.000000
# 6 0.000000 0.000000 0.000000 0.000000 0.000000 0.036150
#
#
# Mechanical properties :
#
#
# Convention : Reuss Voigt Hill
#
# Bulk Modulus (GPa) = 47.06225 47.17564 47.11894
# Shear Modulus (GPa) = 28.84656 30.79287 29.81971
#
# Velocity S-wave (km/s) = 3.61338 3.73328 3.67382
# Velocity P-wave (km/s) = 6.22173 6.31948 6.27079
#
# Compressibility (1/GPa) = 0.02124845
#
# Stress axis : x y z
#
# Youngs Moduli (GPa) = 65.73640 60.75927 85.92217
#
# Poissons Ratio (x) = 0.42042 0.06952
# Poissons Ratio (y) = 0.45486 0.28370
# Poissons Ratio (z) = 0.05319 0.20061
#
# Static dielectric constant tensor:
#      x y z
#    x 4.074000 0.000000 0.000000 
#    y 0.000000 4.071280 0.000000 
#    z 0.000000 0.000000 4.036530 
# 
# 
# High freq. dielectric constant tensor:
#      x y z
#    x 1.874730 0.000000 0.000000 
#    y 0.000000 1.868650 0.000000 
#    z 0.000000 0.000000 1.881950 
# 
# From -- ./inp_files/1864.got.cif
#   From: 2010.03.12/outbox.cif.g09.slc.cpg/sg29_1_cif.got.tgz:1864.got - 2010.04.14 03:43:10.
