data_PCOD8168402
_publ_section_title
;
Structure prediction by ZEFSAII (Michael W. Deem and Ramdas Pophale) SiO2 
 PCOD8168402
Probable space group: P M A 2
;
_chemical_formula_sum "Si O2"
_cell_formula_units_Z 24
_cell_length_a 8.362201
_cell_length_b 15.315531
_cell_length_c 9.270459
_cell_angle_alpha 90.000000
_cell_angle_beta 90.000000
_cell_angle_gamma 90.000000
_cell_volume 1187.282041
_symmetry_space_group_name_H-M "P M A 2"
_symmetry_group_IT_number 28
_symmetry_cell_setting 'orthorhombic'
loop_
_space_group_symop_operation_xyz
x,y,z
-x,-y,z
1/2-x,y,z
1/2+x,-y,z
loop_
_atom_site_type_symbol
_atom_site_label
_atom_site_fract_x
_atom_site_fract_y
_atom_site_fract_z
Si Si1 0.437321 0.403367 0.318150
Si Si2 0.565568 0.251410 0.125532
Si Si3 0.561918 0.908229 0.638555
Si Si4 0.064221 0.257088 0.813518
Si Si5 0.560392 0.906628 0.309773
Si Si6 0.564020 0.407032 0.627243
O O1 0.500000 0.500000 0.285753
O O2 0.250000 0.396427 0.287117
O O3 0.530269 0.338505 0.214113
O O4 0.471172 0.376897 0.483463
O O5 0.750000 0.250039 0.080545
O O6 0.525709 0.167140 0.218950
O O7 0.457738 0.249603 0.983581
O O8 0.750000 0.910405 0.644863
O O9 0.495606 0.830086 0.737326
O O10 0.502960 0.894346 0.474746
O O11 0.500000 0.000000 0.701314
O O12 0.250000 0.270804 0.776917
O O13 0.964796 0.338787 0.754463
O O14 0.750000 0.898308 0.293146
O O15 0.500000 0.000000 0.251670
O O16 0.500000 0.500000 0.682262
O O17 0.750000 0.414963 0.589370
#
# Coordination Sequence:
#
# PCOD8168402 Si02
#       6
#     4   4   4   4   4   4
#     4  11  22  40  64  90 118 153 195 243 294 350
#     4  12  25  40  58  86 120 158 199 244 297 356
#     4   9  20  37  61  87 114 147 190 238 288 342
#     4  11  23  40  59  85 120 159 197 241 294 351
#     4  10  20  38  62  89 117 152 195 244 296 352
#     4  11  22  39  63  91 119 153 195 242 291 347
#
# _framework density 20.214236
#
# number of rings (size 3 to 8) (size 9 to 14) (size 15 to 20)
#    0.000    1.333    0.000    7.500    0.000    4.667 
#    0.000    5.000    0.000    0.000    0.000    0.000 
#    0.000    0.000    0.000    0.000    0.000    0.000 
#
# Total GULP energy -297756.628292 kJ/mol
# GULP energy per Si atom -12406.526179 kJ/mol
# Density = 2.016823 g / cm^3
# Si number density = 20.214236 Si / 1000 Ang^3
#
#
#
# Elastic Constant Matrix: (Units=GPa)
#
#
# Indices 1 2 3 4 5 6 
#
# 1 76.1440 23.8179 4.0362 0.0000 0.0000 0.0000
# 2 23.8179 141.5524 71.8132 0.0000 0.0000 0.0000
# 3 4.0362 71.8132 93.2214 0.0000 0.0000 0.0000
# 4 0.0000 0.0000 0.0000 -29.4818 0.0000 0.0000
# 5 0.0000 0.0000 0.0000 0.0000 29.0377 0.0000
# 6 0.0000 0.0000 0.0000 0.0000 0.0000 36.1763
#
#
#
# Elastic Compliance Matrix: (Units=1/GPa)
#
#
# Indices 1 2 3 4 5 6 
#
# 1 0.014085 -0.003383 0.001996 0.000000 0.000000 0.000000
# 2 -0.003383 0.012409 -0.009413 0.000000 0.000000 0.000000
# 3 0.001996 -0.009413 0.017892 0.000000 0.000000 0.000000
# 4 0.000000 0.000000 0.000000 -0.033919 0.000000 0.000000
# 5 0.000000 0.000000 0.000000 0.000000 0.034438 0.000000
# 6 0.000000 0.000000 0.000000 0.000000 0.000000 0.027642
#
#
# Mechanical properties :
#
#
# Convention : Reuss Voigt Hill
#
# Bulk Modulus (GPa) = 43.88423 56.69472 50.28948
# Shear Modulus (GPa) = 49.14370 21.22981 35.18676
#
# Velocity S-wave (km/s) = 4.93601 3.24426 4.17669
# Velocity P-wave (km/s) = 7.36494 6.49164 6.94204
#
# Compressibility (1/GPa) = 0.02278723
#
# Stress axis : x y z
#
# Youngs Moduli (GPa) = 70.99603 80.58599 55.89093
#
# Poissons Ratio (x) = 0.27259 -0.11156
# Poissons Ratio (y) = 0.24015 0.52610
# Poissons Ratio (z) = -0.14171 0.75855
#
# Static dielectric constant tensor:
#      x y z
#    x 3.665390 0.000000 0.000000 
#    y 0.000000 3.918040 0.000000 
#    z 0.000000 0.000000 3.589820 
# 
# 
# High freq. dielectric constant tensor:
#      x y z
#    x 1.799120 0.000000 0.000000 
#    y 0.000000 1.805260 0.000000 
#    z 0.000000 0.000000 1.780950 
# 
# From -- ./inp_files/2454.got.cif
#   From: 2010.03.12/outbox.cif.g09.slc.cpg/sg28_2_cif.got.tgz:2454.got - 2010.04.14 03:39:34.
