data_PCOD8168904
_publ_section_title
;
Structure prediction by ZEFSAII (Michael W. Deem and Ramdas Pophale) SiO2 
 PCOD8168904
Probable space group: P C A 21
;
_chemical_formula_sum "Si O2"
_cell_formula_units_Z 32
_cell_length_a 18.874292
_cell_length_b 6.929391
_cell_length_c 11.666933
_cell_angle_alpha 90.000000
_cell_angle_beta 90.000000
_cell_angle_gamma 90.000000
_cell_volume 1525.887239
_symmetry_space_group_name_H-M "P C A 21"
_symmetry_group_IT_number 29
_symmetry_cell_setting 'orthorhombic'
loop_
_space_group_symop_operation_xyz
x,y,z
-x,-y,1/2+z
1/2-x,y,1/2+z
1/2+x,-y,z
loop_
_atom_site_type_symbol
_atom_site_label
_atom_site_fract_x
_atom_site_fract_y
_atom_site_fract_z
Si Si1 0.650423 0.500000 0.331210
Si Si2 0.450831 0.252743 0.977684
Si Si3 0.450831 0.747257 0.684736
Si Si4 0.356637 0.007440 0.128199
Si Si5 0.356637 0.992560 0.534221
Si Si6 0.761296 0.696597 0.649773
Si Si7 0.738704 0.303403 0.512647
Si Si8 0.954774 0.000000 0.331210
O O1 0.602239 0.584319 0.432795
O O2 0.602239 0.415681 0.229625
O O3 0.700546 0.660367 0.271908
O O4 0.700546 0.339634 0.390512
O O5 0.498196 0.181188 0.871616
O O6 0.500000 0.335266 0.081210
O O7 0.405425 0.070842 0.021841
O O8 0.405425 0.929158 0.640579
O O9 0.498196 0.818813 0.790804
O O10 0.312694 0.194090 0.173525
O O11 0.406297 0.925269 0.227898
O O12 0.307324 0.832661 0.093390
O O13 0.307324 0.167339 0.569030
O O14 0.312694 0.805910 0.488894
O O15 0.406298 0.074731 0.434523
O O16 0.750000 0.500000 0.581210
#
# Coordination Sequence:
#
# PCOD8168904 Si02
#       8
#     4   4   4   4   4   4   4   4
#     4  12  24  40  68  96 130 170 216 268 332 378
#     4  10  22  42  61  94 128 169 215 261 317 387
#     4  10  22  42  61  94 128 169 215 261 317 387
#     4  10  23  43  64  93 133 164 216 265 319 388
#     4  10  23  43  64  93 133 164 216 265 319 388
#     4  11  24  41  65  97 129 166 213 270 318 387
#     4  11  24  41  65  97 129 166 213 270 318 387
#     4  10  22  40  68  88 126 176 208 260 326 380
#
# _framework density 20.971406999999999
#
# number of rings (size 3 to 8) (size 9 to 14) (size 15 to 20)
#    0.000    1.500    2.500    1.500    3.500    2.000 
#    0.000    0.000    0.000    0.000    0.000    0.000 
#    0.000    0.000    0.000    0.000    0.000    0.000 
#
# Total GULP energy -396912.423012 kJ/mol
# GULP energy per Si atom -12403.513219 kJ/mol
# Density = 2.092368 g / cm^3
# Si number density = 20.971407 Si / 1000 Ang^3
#
#
#
# Elastic Constant Matrix: (Units=GPa)
#
#
# Indices 1 2 3 4 5 6 
#
# 1 120.4575 46.4259 56.2058 0.0000 0.0000 0.0000
# 2 46.4259 95.7765 45.9134 0.0000 0.0000 0.0000
# 3 56.2058 45.9134 112.3688 0.0000 0.0000 0.0000
# 4 0.0000 0.0000 0.0000 26.8674 0.0000 0.0000
# 5 0.0000 0.0000 0.0000 0.0000 33.4019 0.0000
# 6 0.0000 0.0000 0.0000 0.0000 0.0000 27.3167
#
#
#
# Elastic Compliance Matrix: (Units=1/GPa)
#
#
# Indices 1 2 3 4 5 6 
#
# 1 0.011737 -0.003575 -0.004410 0.000000 0.000000 0.000000
# 2 -0.003575 0.014073 -0.003962 0.000000 0.000000 0.000000
# 3 -0.004410 -0.003962 0.012724 0.000000 0.000000 0.000000
# 4 0.000000 0.000000 0.000000 0.037220 0.000000 0.000000
# 5 0.000000 0.000000 0.000000 0.000000 0.029938 0.000000
# 6 0.000000 0.000000 0.000000 0.000000 0.000000 0.036608
#
#
# Mechanical properties :
#
#
# Convention : Reuss Voigt Hill
#
# Bulk Modulus (GPa) = 68.30614 69.52143 68.91379
# Shear Modulus (GPa) = 29.22687 29.52104 29.37396
#
# Velocity S-wave (km/s) = 3.73722 3.75598 3.74661
# Velocity P-wave (km/s) = 7.15990 7.21335 7.18667
#
# Compressibility (1/GPa) = 0.01463997
#
# Stress axis : x y z
#
# Youngs Moduli (GPa) = 85.19743 71.05624 78.59198
#
# Poissons Ratio (x) = 0.25406 0.34659
# Poissons Ratio (y) = 0.30462 0.31137
# Poissons Ratio (z) = 0.37572 0.28152
#
# Static dielectric constant tensor:
#      x y z
#    x 4.218130 0.000000 0.000000 
#    y 0.000000 3.545160 0.000000 
#    z 0.000000 0.000000 3.925930 
# 
# 
# High freq. dielectric constant tensor:
#      x y z
#    x 1.847040 0.000000 0.000000 
#    y 0.000000 1.799960 0.000000 
#    z 0.000000 0.000000 1.825260 
# 
# From -- ./inp_files/3862.got.cif
#   From: 2010.03.12/outbox.cif.g09.slc.cpg/sg29_2_cif.got.tgz:3862.got - 2010.04.14 03:43:10.
