data_PCOD8168136
_publ_section_title
;
Structure prediction by ZEFSAII (Michael W. Deem and Ramdas Pophale) SiO2 
 PCOD8168136
Probable space group: P M A 2
;
_chemical_formula_sum "Si O2"
_cell_formula_units_Z 32
_cell_length_a 9.197847
_cell_length_b 17.486739
_cell_length_c 11.283286
_cell_angle_alpha 90.000000
_cell_angle_beta 90.000000
_cell_angle_gamma 90.000000
_cell_volume 1814.807668
_symmetry_space_group_name_H-M "P M A 2"
_symmetry_group_IT_number 28
_symmetry_cell_setting 'orthorhombic'
loop_
_space_group_symop_operation_xyz
x,y,z
-x,-y,z
1/2-x,y,z
1/2+x,-y,z
loop_
_atom_site_type_symbol
_atom_site_label
_atom_site_fract_x
_atom_site_fract_y
_atom_site_fract_z
Si Si1 0.921515 0.287967 0.832850
Si Si2 0.074078 0.918403 0.484943
Si Si3 0.089795 0.575858 0.673904
Si Si4 0.408300 0.802001 0.300130
Si Si5 0.414632 0.422680 0.258265
Si Si6 0.498323 0.678012 0.468536
Si Si7 0.576625 0.304726 0.104644
Si Si8 0.914073 0.802685 0.644294
O O1 0.750000 0.273894 0.812085
O O2 0.969160 0.369703 0.778636
O O3 0.011863 0.221762 0.767976
O O4 0.964722 0.288015 0.969982
O O5 0.250000 0.922746 0.491920
O O6 0.017462 0.874555 0.365005
O O7 0.012615 0.872252 0.597011
O O8 0.000000 0.000000 0.482461
O O9 0.250000 0.548539 0.706033
O O10 0.094170 0.621032 0.549830
O O11 0.000000 0.500000 0.662333
O O12 0.250000 0.829935 0.261696
O O13 0.391348 0.732768 0.394667
O O14 0.484354 0.768130 0.181750
O O15 0.500000 0.500000 0.287857
O O16 0.250000 0.441292 0.219066
O O17 0.406013 0.370907 0.376544
O O18 0.496316 0.380783 0.149623
O O19 0.596761 0.731747 0.552632
O O20 0.750000 0.315234 0.122397
O O21 0.750000 0.831468 0.668368
#
# Coordination Sequence:
#
# PCOD8168136 Si02
#       8
#     4   4   4   4   4   4   4   4
#     4   9  19  35  52  70  94 128 168 208 249 293
#     4  10  19  32  52  80 111 136 157 187 233 287
#     4  10  20  31  45  66  93 125 162 206 255 302
#     4   8  15  29  51  75  96 122 158 199 241 287
#     4  11  22  33  46  67  95 126 162 206 256 304
#     4   9  18  31  48  68  94 125 161 203 250 300
#     4   9  18  35  55  71  91 125 169 210 248 291
#     4  10  19  32  52  77 102 129 164 203 242 288
#
# _framework density 17.632722999999999
#
# number of rings (size 3 to 8) (size 9 to 14) (size 15 to 20)
#    0.000    2.500    0.000    2.250    0.000    9.000 
#    0.000    1.875    0.000    0.750    0.000    1.750 
#    0.000    0.000    0.000    0.000    0.000    0.000 
#
# Total GULP energy -396527.396113 kJ/mol
# GULP energy per Si atom -12391.481129 kJ/mol
# Density = 1.759259 g / cm^3
# Si number density = 17.632723 Si / 1000 Ang^3
#
#
#
# Elastic Constant Matrix: (Units=GPa)
#
#
# Indices 1 2 3 4 5 6 
#
# 1 79.9129 41.4520 29.4268 0.0000 0.0000 0.0000
# 2 41.4520 120.1618 55.7725 0.0000 0.0000 0.0000
# 3 29.4268 55.7725 128.9030 0.0000 0.0000 0.0000
# 4 0.0000 0.0000 0.0000 15.3371 0.0000 0.0000
# 5 0.0000 0.0000 0.0000 0.0000 17.8052 0.0000
# 6 0.0000 0.0000 0.0000 0.0000 0.0000 23.6254
#
#
#
# Elastic Compliance Matrix: (Units=1/GPa)
#
#
# Indices 1 2 3 4 5 6 
#
# 1 0.015478 -0.004629 -0.001531 0.000000 0.000000 0.000000
# 2 -0.004629 0.011798 -0.004048 0.000000 0.000000 0.000000
# 3 -0.001531 -0.004048 0.009859 0.000000 0.000000 0.000000
# 4 0.000000 0.000000 0.000000 0.065202 0.000000 0.000000
# 5 0.000000 0.000000 0.000000 0.000000 0.056163 0.000000
# 6 0.000000 0.000000 0.000000 0.000000 0.000000 0.042327
#
#
# Mechanical properties :
#
#
# Convention : Reuss Voigt Hill
#
# Bulk Modulus (GPa) = 59.80975 64.69782 62.25378
# Shear Modulus (GPa) = 22.04438 24.84197 23.44317
#
# Velocity S-wave (km/s) = 3.53965 3.75755 3.65022
# Velocity P-wave (km/s) = 7.12031 7.45635 7.29027
#
# Compressibility (1/GPa) = 0.01671968
#
# Stress axis : x y z
#
# Youngs Moduli (GPa) = 64.60592 84.76173 101.43488
#
# Poissons Ratio (x) = 0.39237 0.15526
# Poissons Ratio (y) = 0.29907 0.41059
# Poissons Ratio (z) = 0.09889 0.34310
#
# Static dielectric constant tensor:
#      x y z
#    x 3.091350 0.000000 0.000000 
#    y 0.000000 3.185290 0.000000 
#    z 0.000000 0.000000 3.296570 
# 
# 
# High freq. dielectric constant tensor:
#      x y z
#    x 1.671690 0.000000 0.000000 
#    y 0.000000 1.666360 0.000000 
#    z 0.000000 0.000000 1.674230 
# 
# From -- ./inp_files/5170.got.cif
#   From: 2010.03.12/outbox.cif.g09.slc.cpg/sg28_3_cif.got.tgz:5170.got - 2010.04.14 03:39:34.
