data_PCOD8168257
_publ_section_title
;
Structure prediction by ZEFSAII (Michael W. Deem and Ramdas Pophale) SiO2 
 PCOD8168257
Probable space group: P M A 2
;
_chemical_formula_sum "Si O2"
_cell_formula_units_Z 24
_cell_length_a 8.666312
_cell_length_b 13.954088
_cell_length_c 10.187289
_cell_angle_alpha 90.000000
_cell_angle_beta 90.000000
_cell_angle_gamma 90.000000
_cell_volume 1231.953752
_symmetry_space_group_name_H-M "P M A 2"
_symmetry_group_IT_number 28
_symmetry_cell_setting 'orthorhombic'
loop_
_space_group_symop_operation_xyz
x,y,z
-x,-y,z
1/2-x,y,z
1/2+x,-y,z
loop_
_atom_site_type_symbol
_atom_site_label
_atom_site_fract_x
_atom_site_fract_y
_atom_site_fract_z
Si Si1 0.931405 0.397245 0.574470
Si Si2 0.930359 0.098533 0.694776
Si Si3 0.931594 0.603847 0.073546
Si Si4 0.432709 0.101428 0.411694
Si Si5 0.067793 0.713289 0.316609
Si Si6 0.430061 0.707909 0.833386
O O1 0.750000 0.405961 0.579221
O O2 0.982402 0.328921 0.456596
O O3 0.992090 0.353959 0.710874
O O4 0.000000 0.500000 0.548367
O O5 0.750000 0.086263 0.664503
O O6 0.959593 0.180294 0.802775
O O7 0.010521 0.126344 0.558192
O O8 0.000000 0.000000 0.751931
O O9 0.750000 0.594182 0.088660
O O10 0.000000 0.500000 0.039355
O O11 0.001694 0.642924 0.207521
O O12 0.971552 0.678610 0.959030
O O13 0.250000 0.097522 0.408855
O O14 0.493214 0.181163 0.309171
O O15 0.500000 0.000000 0.364581
O O16 0.250000 0.721323 0.298614
O O17 0.250000 0.688438 0.860719
#
# Coordination Sequence:
#
# PCOD8168257 Si02
#       6
#     4   4   4   4   4   4
#     4  10  21  36  57  85 116 148 194 247 300 354
#     4  10  19  35  59  89 124 158 199 246 302 359
#     4  12  26  43  62  88 120 162 207 248 303 368
#     4  11  21  35  59  91 125 160 200 246 301 361
#     4  11  22  41  63  87 120 159 201 253 304 357
#     4  10  21  40  61  86 119 159 201 248 302 357
#
# _framework density 19.481251
#
# number of rings (size 3 to 8) (size 9 to 14) (size 15 to 20)
#    0.000    1.333    1.667    6.000    0.000    6.000 
#    0.000    0.833    0.000    2.000    0.000    0.000 
#    0.000    0.000    0.000    0.000    0.000    0.000 
#
# Total GULP energy -297696.039034 kJ/mol
# GULP energy per Si atom -12404.001626 kJ/mol
# Density = 1.943691 g / cm^3
# Si number density = 19.481251 Si / 1000 Ang^3
#
#
#
# Elastic Constant Matrix: (Units=GPa)
#
#
# Indices 1 2 3 4 5 6 
#
# 1 112.8572 54.0985 43.9342 0.0000 0.0000 0.0000
# 2 54.0985 122.7125 21.9352 0.0000 0.0000 0.0000
# 3 43.9342 21.9352 60.4388 0.0000 0.0000 0.0000
# 4 0.0000 0.0000 0.0000 39.0061 0.0000 0.0000
# 5 0.0000 0.0000 0.0000 0.0000 29.9487 0.0000
# 6 0.0000 0.0000 0.0000 0.0000 0.0000 32.9233
#
#
#
# Elastic Compliance Matrix: (Units=1/GPa)
#
#
# Indices 1 2 3 4 5 6 
#
# 1 0.014655 -0.004873 -0.008885 0.000000 0.000000 0.000000
# 2 -0.004873 0.010335 -0.000209 0.000000 0.000000 0.000000
# 3 -0.008885 -0.000209 0.023080 0.000000 0.000000 0.000000
# 4 0.000000 0.000000 0.000000 0.025637 0.000000 0.000000
# 5 0.000000 0.000000 0.000000 0.000000 0.033390 0.000000
# 6 0.000000 0.000000 0.000000 0.000000 0.000000 0.030374
#
#
# Mechanical properties :
#
#
# Convention : Reuss Voigt Hill
#
# Bulk Modulus (GPa) = 49.65866 59.54938 54.60402
# Shear Modulus (GPa) = 29.05026 32.11166 30.58096
#
# Velocity S-wave (km/s) = 3.86578 4.06438 3.96632
# Velocity P-wave (km/s) = 6.74326 7.25668 7.00468
#
# Compressibility (1/GPa) = 0.02013747
#
# Stress axis : x y z
#
# Youngs Moduli (GPa) = 68.23511 96.76258 43.32777
#
# Poissons Ratio (x) = 0.47149 0.38496
# Poissons Ratio (y) = 0.33249 0.00904
# Poissons Ratio (z) = 0.60625 0.02020
#
# Static dielectric constant tensor:
#      x y z
#    x 3.399920 0.000000 0.000000 
#    y 0.000000 3.676710 0.000000 
#    z 0.000000 0.000000 3.448850 
# 
# 
# High freq. dielectric constant tensor:
#      x y z
#    x 1.765660 0.000000 0.000000 
#    y 0.000000 1.776770 0.000000 
#    z 0.000000 0.000000 1.741300 
# 
# From -- ./inp_files/2451.got.cif
#   From: 2010.03.12/outbox.cif.g09.slc.cpg/sg28_2_cif.got.tgz:2451.got - 2010.04.14 03:39:34.
