data_PCOD8168010
_publ_section_title
;
Structure prediction by ZEFSAII (Michael W. Deem and Ramdas Pophale) SiO2 
 PCOD8168010
Probable space group: P M A 2
;
_chemical_formula_sum "Si O2"
_cell_formula_units_Z 24
_cell_length_a 8.830927
_cell_length_b 16.649422
_cell_length_c 9.305144
_cell_angle_alpha 90.000000
_cell_angle_beta 90.000000
_cell_angle_gamma 90.000000
_cell_volume 1368.133743
_symmetry_space_group_name_H-M "P M A 2"
_symmetry_group_IT_number 28
_symmetry_cell_setting 'orthorhombic'
loop_
_space_group_symop_operation_xyz
x,y,z
-x,-y,z
1/2-x,y,z
1/2+x,-y,z
loop_
_atom_site_type_symbol
_atom_site_label
_atom_site_fract_x
_atom_site_fract_y
_atom_site_fract_z
Si Si1 0.927104 0.171730 0.916280
Si Si2 0.077375 0.417487 0.009764
Si Si3 0.569264 0.743192 0.166058
Si Si4 0.070088 0.082696 0.669454
Si Si5 0.076553 0.312755 0.759221
Si Si6 0.425051 0.233013 0.482463
O O1 0.750000 0.153925 0.929777
O O2 0.006744 0.099050 0.830152
O O3 0.956729 0.253027 0.828981
O O4 0.999247 0.183175 0.074628
O O5 0.250000 0.430371 0.049322
O O6 0.013718 0.342663 0.102624
O O7 0.000000 0.500000 0.053018
O O8 0.055100 0.398708 0.837890
O O9 0.750000 0.748818 0.158383
O O10 0.500472 0.751055 0.327268
O O11 0.250000 0.077337 0.675259
O O12 0.013096 0.152925 0.561139
O O13 0.000000 0.000000 0.611130
O O14 0.250000 0.281837 0.789421
O O15 0.048283 0.311113 0.586934
O O16 0.250000 0.219924 0.452077
#
# Coordination Sequence:
#
# PCOD8168010 Si02
#       6
#     4   4   4   4   4   4
#     4  10  18  29  47  71  95 123 156 192 230 276
#     4   9  17  28  45  67  94 125 161 201 242 284
#     4   9  17  32  51  70  93 128 164 196 237 290
#     4  10  19  33  52  74  97 124 158 199 241 285
#     4   8  15  30  49  68  88 119 159 196 233 282
#     4   8  15  30  53  72  90 121 162 198 235 285
#
# _framework density 17.542142999999999
#
# number of rings (size 3 to 8) (size 9 to 14) (size 15 to 20)
#    0.000    3.000    0.000    4.000    0.000    2.667 
#    0.000    5.833    0.000    2.000    0.000    0.000 
#    0.000    0.000    0.000    0.000    0.000    0.000 
#
# Total GULP energy -297314.270128 kJ/mol
# GULP energy per Si atom -12388.094589 kJ/mol
# Density = 1.750222 g / cm^3
# Si number density = 17.542143 Si / 1000 Ang^3
#
#
#
# Elastic Constant Matrix: (Units=GPa)
#
#
# Indices 1 2 3 4 5 6 
#
# 1 54.8176 24.8711 25.8792 0.0000 0.0000 0.0000
# 2 24.8711 83.8525 46.7082 0.0000 0.0000 0.0000
# 3 25.8792 46.7082 149.4660 0.0000 0.0000 0.0000
# 4 0.0000 0.0000 0.0000 18.1551 0.0000 0.0000
# 5 0.0000 0.0000 0.0000 0.0000 14.1676 0.0000
# 6 0.0000 0.0000 0.0000 0.0000 0.0000 26.7864
#
#
#
# Elastic Compliance Matrix: (Units=1/GPa)
#
#
# Indices 1 2 3 4 5 6 
#
# 1 0.021613 -0.005238 -0.002105 0.000000 0.000000 0.000000
# 2 -0.005238 0.015708 -0.004002 0.000000 0.000000 0.000000
# 3 -0.002105 -0.004002 0.008306 0.000000 0.000000 0.000000
# 4 0.000000 0.000000 0.000000 0.055081 0.000000 0.000000
# 5 0.000000 0.000000 0.000000 0.000000 0.070583 0.000000
# 6 0.000000 0.000000 0.000000 0.000000 0.000000 0.037332
#
#
# Mechanical properties :
#
#
# Convention : Reuss Voigt Hill
#
# Bulk Modulus (GPa) = 43.59838 53.67258 48.63548
# Shear Modulus (GPa) = 20.92410 24.53368 22.72889
#
# Velocity S-wave (km/s) = 3.45743 3.74379 3.60345
# Velocity P-wave (km/s) = 6.39108 7.02500 6.71552
#
# Compressibility (1/GPa) = 0.02293663
#
# Stress axis : x y z
#
# Youngs Moduli (GPa) = 46.26930 63.65992 120.40000
#
# Poissons Ratio (x) = 0.33343 0.25348
# Poissons Ratio (y) = 0.24234 0.48184
# Poissons Ratio (z) = 0.09741 0.25477
#
# Static dielectric constant tensor:
#      x y z
#    x 3.005920 0.000000 0.000000 
#    y 0.000000 3.150560 0.000000 
#    z 0.000000 0.000000 3.617430 
# 
# 
# High freq. dielectric constant tensor:
#      x y z
#    x 1.658440 0.000000 0.000000 
#    y 0.000000 1.650780 0.000000 
#    z 0.000000 0.000000 1.676030 
# 
# From -- ./inp_files/2547.got.cif
#   From: 2010.03.12/outbox.cif.g09.slc.cpg/sg28_2_cif.got.tgz:2547.got - 2010.04.14 03:39:34.
