data_PCOD8168532
_publ_section_title
;
Structure prediction by ZEFSAII (Michael W. Deem and Ramdas Pophale) SiO2 
 PCOD8168532
Probable space group: P C A 21
;
_chemical_formula_sum "Si O2"
_cell_formula_units_Z 24
_cell_length_a 5.307750
_cell_length_b 7.187312
_cell_length_c 27.357615
_cell_angle_alpha 90.000000
_cell_angle_beta 90.000000
_cell_angle_gamma 90.000000
_cell_volume 1043.650752
_symmetry_space_group_name_H-M "P C A 21"
_symmetry_group_IT_number 29
_symmetry_cell_setting 'orthorhombic'
loop_
_space_group_symop_operation_xyz
x,y,z
-x,-y,1/2+z
1/2-x,y,1/2+z
1/2+x,-y,z
loop_
_atom_site_type_symbol
_atom_site_label
_atom_site_fract_x
_atom_site_fract_y
_atom_site_fract_z
Si Si1 0.727866 0.619017 0.777330
Si Si2 0.271469 0.213361 0.674931
Si Si3 0.269215 0.800204 0.519001
Si Si4 0.271444 0.800610 0.633838
Si Si5 0.268221 0.121035 0.369189
Si Si6 0.230765 0.213590 0.977878
O O1 0.450256 0.531346 0.774255
O O2 0.755265 0.763918 0.732950
O O3 0.759900 0.728360 0.827270
O O4 0.527015 0.310344 0.653993
O O5 0.028666 0.307496 0.648240
O O6 0.291074 0.997098 0.661476
O O7 0.249176 0.831951 0.576432
O O8 0.525207 0.691477 0.503687
O O9 0.024320 0.689533 0.498736
O O10 0.289164 0.997474 0.492171
O O11 0.251312 0.234236 0.419760
O O12 0.538505 0.022741 0.365044
#
# Coordination Sequence:
#
# PCOD8168532 Si02
#       6
#     4   4   4   4   4   4
#     4  12  28  46  62  88 128 176 210 260 330 382
#     4  10  20  35  57  81 122 154 209 243 305 360
#     4  10  16  28  50  88 140 142 180 242 338 352
#     4  10  19  32  57  99 122 154 191 266 306 356
#     4  12  23  40  67  97 121 160 218 272 309 366
#     4  10  16  29  49  87 125 152 180 245 312 362
#
# _framework density 22.996200999999999
#
# number of rings (size 3 to 8) (size 9 to 14) (size 15 to 20)
#    0.000    1.333    3.333    7.000    4.667    0.000 
#    0.000    0.000    0.000    0.000    0.000   39.667 
#    0.000    0.000    0.000    0.000    0.000    0.000 
#
# Total GULP energy -297490.674819 kJ/mol
# GULP energy per Si atom -12395.444784 kJ/mol
# Density = 2.294386 g / cm^3
# Si number density = 22.996201 Si / 1000 Ang^3
#
#
#
# Elastic Constant Matrix: (Units=GPa)
#
#
# Indices 1 2 3 4 5 6 
#
# 1 201.4571 -8.7107 15.8736 0.0000 0.0000 0.0000
# 2 -8.7107 28.3926 22.3480 0.0000 0.0000 0.0000
# 3 15.8736 22.3480 178.1694 0.0000 0.0000 0.0000
# 4 0.0000 0.0000 0.0000 -16.3442 0.0000 0.0000
# 5 0.0000 0.0000 0.0000 0.0000 43.0294 0.0000
# 6 0.0000 0.0000 0.0000 0.0000 0.0000 5.1177
#
#
#
# Elastic Compliance Matrix: (Units=1/GPa)
#
#
# Indices 1 2 3 4 5 6 
#
# 1 0.005113 0.002138 -0.000724 0.000000 0.000000 0.000000
# 2 0.002138 0.039973 -0.005204 0.000000 0.000000 0.000000
# 3 -0.000724 -0.005204 0.006330 0.000000 0.000000 0.000000
# 4 0.000000 0.000000 0.000000 -0.061184 0.000000 0.000000
# 5 0.000000 0.000000 0.000000 0.000000 0.023240 0.000000
# 6 0.000000 0.000000 0.000000 0.000000 0.000000 0.195399
#
#
# Mechanical properties :
#
#
# Convention : Reuss Voigt Hill
#
# Bulk Modulus (GPa) = 22.81194 51.89343 37.35269
# Shear Modulus (GPa) = 21.63916 31.59446 26.61681
#
# Velocity S-wave (km/s) = 3.07088 3.71064 3.40581
# Velocity P-wave (km/s) = 4.74501 6.40105 5.63421
#
# Compressibility (1/GPa) = 0.04383669
#
# Stress axis : x y z
#
# Youngs Moduli (GPa) = 195.56729 25.01696 157.98016
#
# Poissons Ratio (x) = -0.05350 0.11434
# Poissons Ratio (y) = -0.41821 0.82219
# Poissons Ratio (z) = 0.14155 0.13020
#
# Static dielectric constant tensor:
#      x y z
#    x 8.802990 0.000000 0.000000 
#    y 0.000000 3.411510 0.000000 
#    z 0.000000 0.000000 4.182060 
# 
# 
# High freq. dielectric constant tensor:
#      x y z
#    x 1.956610 0.000000 0.000000 
#    y 0.000000 1.854020 0.000000 
#    z 0.000000 0.000000 1.918400 
# 
# From -- ./inp_files/5628.got.cif
#   From: 2010.03.12/outbox.cif.g09.slc.cpg/sg29_3_cif.got.tgz:5628.got - 2010.04.14 03:43:10.
