data_PCOD8168830
_publ_section_title
;
Structure prediction by ZEFSAII (Michael W. Deem and Ramdas Pophale) SiO2 
 PCOD8168830
Probable space group: P C A 21
;
_chemical_formula_sum "Si O2"
_cell_formula_units_Z 24
_cell_length_a 14.087798
_cell_length_b 15.865586
_cell_length_c 5.006317
_cell_angle_alpha 90.000000
_cell_angle_beta 90.000000
_cell_angle_gamma 90.000000
_cell_volume 1118.967774
_symmetry_space_group_name_H-M "P C A 21"
_symmetry_group_IT_number 29
_symmetry_cell_setting 'orthorhombic'
loop_
_space_group_symop_operation_xyz
x,y,z
-x,-y,1/2+z
1/2-x,y,1/2+z
1/2+x,-y,z
loop_
_atom_site_type_symbol
_atom_site_label
_atom_site_fract_x
_atom_site_fract_y
_atom_site_fract_z
Si Si1 0.809691 0.356133 0.060520
Si Si2 0.684070 0.834246 0.898154
Si Si3 0.056996 0.503452 0.773568
Si Si4 0.809356 0.646636 0.315196
Si Si5 0.686358 0.161798 0.583667
Si Si6 0.999664 0.944123 0.468197
O O1 0.721709 0.375516 0.258209
O O2 0.895154 0.416284 0.136375
O O3 0.842528 0.259807 0.084203
O O4 0.761529 0.853346 0.671849
O O5 0.645641 0.738142 0.876360
O O6 0.591035 0.890963 0.872317
O O7 0.122181 0.429416 0.889644
O O8 0.995635 0.462016 0.536067
O O9 0.717181 0.637834 0.504174
O O10 0.763472 0.137767 0.360377
O O11 0.588647 0.112543 0.552148
O O12 0.967834 0.998550 0.721923
#
# Coordination Sequence:
#
# PCOD8168830 Si02
#       6
#     4   4   4   4   4   4
#     4  10  21  41  63  85 123 169 209 251 310 371
#     4  10  23  43  66  94 127 170 211 260 317 380
#     4  12  24  36  58  98 126 162 206 262 310 362
#     4  10  21  41  63  85 123 169 209 251 310 371
#     4  10  23  43  66  94 127 170 211 260 317 380
#     4  12  26  42  66 100 128 166 210 266 328 384
#
# _framework density 21.448340999999999
#
# number of rings (size 3 to 8) (size 9 to 14) (size 15 to 20)
#    0.000    1.333    0.000    5.000    2.333    4.000 
#    3.000    0.000    0.000    0.000    0.000    0.000 
#    0.000    0.000    0.000    0.000    0.000    0.000 
#
# Total GULP energy -297657.442545 kJ/mol
# GULP energy per Si atom -12402.393439 kJ/mol
# Density = 2.139952 g / cm^3
# Si number density = 21.448341 Si / 1000 Ang^3
#
#
#
# Elastic Constant Matrix: (Units=GPa)
#
#
# Indices 1 2 3 4 5 6 
#
# 1 81.0993 61.6489 7.7711 0.0000 0.0000 0.0000
# 2 61.6489 104.6443 31.5478 0.0000 0.0000 0.0000
# 3 7.7711 31.5478 96.7362 0.0000 0.0000 0.0000
# 4 0.0000 0.0000 0.0000 32.1274 0.0000 0.0000
# 5 0.0000 0.0000 0.0000 0.0000 19.6818 0.0000
# 6 0.0000 0.0000 0.0000 0.0000 0.0000 141.0952
#
#
#
# Elastic Compliance Matrix: (Units=1/GPa)
#
#
# Indices 1 2 3 4 5 6 
#
# 1 0.023021 -0.014423 0.002854 0.000000 0.000000 0.000000
# 2 -0.014423 0.019634 -0.005244 0.000000 0.000000 0.000000
# 3 0.002854 -0.005244 0.011818 0.000000 0.000000 0.000000
# 4 0.000000 0.000000 0.000000 0.031126 0.000000 0.000000
# 5 0.000000 0.000000 0.000000 0.000000 0.050808 0.000000
# 6 0.000000 0.000000 0.000000 0.000000 0.000000 0.007087
#
#
# Mechanical properties :
#
#
# Convention : Reuss Voigt Hill
#
# Bulk Modulus (GPa) = 47.96766 53.82393 50.89579
# Shear Modulus (GPa) = 27.16363 50.68169 38.92266
#
# Velocity S-wave (km/s) = 3.56261 4.86631 4.26457
# Velocity P-wave (km/s) = 6.27182 7.53152 6.93035
#
# Compressibility (1/GPa) = 0.02084738
#
# Stress axis : x y z
#
# Youngs Moduli (GPa) = 43.43939 50.93207 84.61351
#
# Poissons Ratio (x) = 0.73457 -0.24150
# Poissons Ratio (y) = 0.62651 0.44375
# Poissons Ratio (z) = -0.12398 0.26711
#
# Static dielectric constant tensor:
#      x y z
#    x 3.605690 0.000000 0.000000 
#    y 0.000000 3.979010 0.000000 
#    z 0.000000 0.000000 4.155860 
# 
# 
# High freq. dielectric constant tensor:
#      x y z
#    x 1.829360 0.000000 0.000000 
#    y 0.000000 1.850000 0.000000 
#    z 0.000000 0.000000 1.865380 
# 
# From -- ./inp_files/77.got.cif
#   From: 2010.03.12/outbox.cif.g09.slc.cpg/sg29_1_cif.got.tgz:77.got - 2010.04.14 03:43:10.
