data_PCOD8168351
_publ_section_title
;
Structure prediction by ZEFSAII (Michael W. Deem and Ramdas Pophale) SiO2 
 PCOD8168351
Probable space group: P M A 2
;
_chemical_formula_sum "Si O2"
_cell_formula_units_Z 28
_cell_length_a 8.630456
_cell_length_b 9.758188
_cell_length_c 17.400620
_cell_angle_alpha 90.000000
_cell_angle_beta 90.000000
_cell_angle_gamma 90.000000
_cell_volume 1465.438667
_symmetry_space_group_name_H-M "P M A 2"
_symmetry_group_IT_number 28
_symmetry_cell_setting 'orthorhombic'
loop_
_space_group_symop_operation_xyz
x,y,z
-x,-y,z
1/2-x,y,z
1/2+x,-y,z
loop_
_atom_site_type_symbol
_atom_site_label
_atom_site_fract_x
_atom_site_fract_y
_atom_site_fract_z
Si Si1 0.066244 0.850724 0.952390
Si Si2 0.567573 0.357471 0.824898
Si Si3 0.570396 0.355416 0.228006
Si Si4 0.566317 0.354028 0.650529
Si Si5 0.932441 0.851284 0.111361
Si Si6 0.066621 0.152314 0.527153
Si Si7 0.429700 0.645702 0.407444
O O1 0.250000 0.856357 0.956290
O O2 0.005281 0.758973 0.881995
O O3 0.000000 0.000000 0.937503
O O4 0.002902 0.789662 0.032616
O O5 0.500000 0.500000 0.854512
O O6 0.750000 0.367777 0.828609
O O7 0.513082 0.325710 0.738090
O O8 0.500000 0.500000 0.203414
O O9 0.750000 0.351108 0.205258
O O10 0.476292 0.240998 0.183261
O O11 0.544897 0.327811 0.317721
O O12 0.500000 0.500000 0.621962
O O13 0.750000 0.356647 0.641066
O O14 0.496694 0.231093 0.601387
O O15 0.750000 0.861754 0.102475
O O16 0.000000 0.000000 0.127866
O O17 0.250000 0.144230 0.531159
O O18 0.015952 0.231770 0.450509
O O19 0.000000 0.000000 0.525378
O O20 0.500000 0.500000 0.432670
O O21 0.250000 0.645743 0.430576
#
# Coordination Sequence:
#
# PCOD8168351 Si02
#       7
#     4   4   4   4   4   4   4
#     4  10  20  36  55  79 110 145 186 229 276 331
#     4   9  20  36  57  83 111 143 182 228 274 325
#     4  10  21  38  60  86 114 145 184 229 276 327
#     4  10  20  38  60  84 113 147 187 228 275 330
#     4  11  22  37  57  81 111 149 189 230 278 331
#     4  12  25  40  58  83 114 148 186 230 278 327
#     4  10  21  39  62  86 113 147 185 226 274 329
#
# _framework density 19.106907
#
# number of rings (size 3 to 8) (size 9 to 14) (size 15 to 20)
#    0.000    1.714    0.000    5.571    0.000    5.143 
#    0.000    2.857    0.000    0.000    0.000    0.000 
#    0.000    0.000    0.000    0.000    0.000    0.000 
#
# Total GULP energy -347305.510196 kJ/mol
# GULP energy per Si atom -12403.768221 kJ/mol
# Density = 1.906342 g / cm^3
# Si number density = 19.106907 Si / 1000 Ang^3
#
#
#
# Elastic Constant Matrix: (Units=GPa)
#
#
# Indices 1 2 3 4 5 6 
#
# 1 117.1872 58.4037 43.9795 0.0000 0.0000 0.0000
# 2 58.4037 137.9065 75.3125 0.0000 0.0000 0.0000
# 3 43.9795 75.3125 100.9466 0.0000 0.0000 0.0000
# 4 0.0000 0.0000 0.0000 49.1421 0.0000 0.0000
# 5 0.0000 0.0000 0.0000 0.0000 596.5479 0.0000
# 6 0.0000 0.0000 0.0000 0.0000 0.0000 37.2451
#
#
#
# Elastic Compliance Matrix: (Units=1/GPa)
#
#
# Indices 1 2 3 4 5 6 
#
# 1 0.011110 -0.003479 -0.002244 0.000000 0.000000 0.000000
# 2 -0.003479 0.013327 -0.008427 0.000000 0.000000 0.000000
# 3 -0.002244 -0.008427 0.017171 0.000000 0.000000 0.000000
# 4 0.000000 0.000000 0.000000 0.020349 0.000000 0.000000
# 5 0.000000 0.000000 0.000000 0.000000 0.001676 0.000000
# 6 0.000000 0.000000 0.000000 0.000000 0.000000 0.026849
#
#
# Mechanical properties :
#
#
# Convention : Reuss Voigt Hill
#
# Bulk Modulus (GPa) = 75.15144 79.04796 77.09970
# Shear Modulus (GPa) = 40.57839 148.47666 94.52753
#
# Velocity S-wave (km/s) = 4.61342 8.82480 7.04133
# Velocity P-wave (km/s) = 8.23381 12.05393 10.32214
#
# Compressibility (1/GPa) = 0.01330646
#
# Stress axis : x y z
#
# Youngs Moduli (GPa) = 90.01181 75.03722 58.23795
#
# Poissons Ratio (x) = 0.26107 0.13071
# Poissons Ratio (y) = 0.31317 0.49076
# Poissons Ratio (z) = 0.20202 0.63232
#
# Static dielectric constant tensor:
#      x y z
#    x 2.722800 0.000000 0.000000 
#    y 0.000000 3.510850 0.000000 
#    z 0.000000 0.000000 3.719960 
# 
# 
# High freq. dielectric constant tensor:
#      x y z
#    x 1.758950 0.000000 0.000000 
#    y 0.000000 1.742860 0.000000 
#    z 0.000000 0.000000 1.753490 
# 
# From -- ./inp_files/6708.got.cif
#   From: 2010.03.12/outbox.cif.g09.slc.cpg/sg28_4_cif.got.tgz:6708.got - 2010.04.14 03:39:34.
