data_PCOD8168815
_publ_section_title
;
Structure prediction by ZEFSAII (Michael W. Deem and Ramdas Pophale) SiO2 
 PCOD8168815
Probable space group: P C A 21
;
_chemical_formula_sum "Si O2"
_cell_formula_units_Z 28
_cell_length_a 9.747779
_cell_length_b 8.559548
_cell_length_c 16.530031
_cell_angle_alpha 90.000000
_cell_angle_beta 90.000000
_cell_angle_gamma 90.000000
_cell_volume 1379.209291
_symmetry_space_group_name_H-M "P C A 21"
_symmetry_group_IT_number 29
_symmetry_cell_setting 'orthorhombic'
loop_
_space_group_symop_operation_xyz
x,y,z
-x,-y,1/2+z
1/2-x,y,1/2+z
1/2+x,-y,z
loop_
_atom_site_type_symbol
_atom_site_label
_atom_site_fract_x
_atom_site_fract_y
_atom_site_fract_z
Si Si1 0.557912 0.328607 0.472670
Si Si2 0.716425 0.219144 0.861651
Si Si3 0.385140 0.186995 0.017147
Si Si4 0.057993 0.383681 0.370582
Si Si5 0.626607 0.970720 0.971737
Si Si6 0.691510 0.430130 0.234254
Si Si7 0.064427 0.473306 0.627434
O O1 0.712729 0.290971 0.442637
O O2 0.498242 0.469979 0.420438
O O3 0.462845 0.181041 0.454745
O O4 0.556299 0.379668 0.566344
O O5 0.575470 0.300237 0.836846
O O6 0.808582 0.260522 0.781910
O O7 0.683724 0.038899 0.885126
O O8 0.377291 0.316887 0.086386
O O9 0.359105 0.268952 0.930402
O O10 0.257597 0.067917 0.028859
O O11 0.531867 0.098760 0.017418
O O12 0.156506 0.433119 0.297849
O O13 0.840216 0.474132 0.200740
O O14 0.584702 0.427951 0.161076
#
# Coordination Sequence:
#
# PCOD8168815 Si02
#       7
#     4   4   4   4   4   4   4
#     4  10  22  36  68  91 122 166 218 264 307 373
#     4  10  21  40  62  92 125 168 209 267 309 383
#     4  10  23  39  67  91 124 167 221 256 316 372
#     4   9  21  38  64  93 120 162 219 264 302 374
#     4  11  21  40  64  92 125 164 210 266 313 374
#     4  11  22  40  64  93 130 159 208 266 326 377
#     4  11  24  39  67  96 126 168 211 269 317 381
#
# _framework density 20.301487999999999
#
# number of rings (size 3 to 8) (size 9 to 14) (size 15 to 20)
#    0.000    1.714    2.857    0.857   12.000    0.000 
#    0.000    0.000   22.000    0.000    0.000    0.000 
#    0.000    0.000    0.000    0.000    0.000    0.000 
#
# Total GULP energy -347027.992659 kJ/mol
# GULP energy per Si atom -12393.856881 kJ/mol
# Density = 2.025528 g / cm^3
# Si number density = 20.301488 Si / 1000 Ang^3
#
#
#
# Elastic Constant Matrix: (Units=GPa)
#
#
# Indices 1 2 3 4 5 6 
#
# 1 76.1466 37.4295 27.1497 0.0000 0.0000 0.0000
# 2 37.4295 114.8120 44.9069 0.0000 0.0000 0.0000
# 3 27.1497 44.9069 94.9433 0.0000 0.0000 0.0000
# 4 0.0000 0.0000 0.0000 21.7640 0.0000 0.0000
# 5 0.0000 0.0000 0.0000 0.0000 27.5081 0.0000
# 6 0.0000 0.0000 0.0000 0.0000 0.0000 36.0538
#
#
#
# Elastic Compliance Matrix: (Units=1/GPa)
#
#
# Indices 1 2 3 4 5 6 
#
# 1 0.016149 -0.004244 -0.002611 0.000000 0.000000 0.000000
# 2 -0.004244 0.011802 -0.004369 0.000000 0.000000 0.000000
# 3 -0.002611 -0.004369 0.013346 0.000000 0.000000 0.000000
# 4 0.000000 0.000000 0.000000 0.045948 0.000000 0.000000
# 5 0.000000 0.000000 0.000000 0.000000 0.036353 0.000000
# 6 0.000000 0.000000 0.000000 0.000000 0.000000 0.027736
#
#
# Mechanical properties :
#
#
# Convention : Reuss Voigt Hill
#
# Bulk Modulus (GPa) = 53.04870 56.09713 54.57292
# Shear Modulus (GPa) = 27.76794 28.82622 28.29708
#
# Velocity S-wave (km/s) = 3.70236 3.77225 3.73747
# Velocity P-wave (km/s) = 6.66812 6.83119 6.75015
#
# Compressibility (1/GPa) = 0.01885060
#
# Stress axis : x y z
#
# Youngs Moduli (GPa) = 61.92189 84.73068 74.93127
#
# Poissons Ratio (x) = 0.35956 0.19564
# Poissons Ratio (y) = 0.26277 0.32736
# Poissons Ratio (z) = 0.16167 0.37017
#
# Static dielectric constant tensor:
#      x y z
#    x 3.744020 0.000000 0.000000 
#    y 0.000000 3.840030 0.000000 
#    z 0.000000 0.000000 3.548740 
# 
# 
# High freq. dielectric constant tensor:
#      x y z
#    x 1.805500 0.000000 0.000000 
#    y 0.000000 1.788420 0.000000 
#    z 0.000000 0.000000 1.771100 
# 
# From -- ./inp_files/4984.got.cif
#   From: 2010.03.12/outbox.cif.g09.slc.cpg/sg29_3_cif.got.tgz:4984.got - 2010.04.14 03:43:10.
