data_PCOD8168757
_publ_section_title
;
Structure prediction by ZEFSAII (Michael W. Deem and Ramdas Pophale) SiO2 
 PCOD8168757
Probable space group: P C A 21
;
_chemical_formula_sum "Si O2"
_cell_formula_units_Z 20
_cell_length_a 7.674093
_cell_length_b 10.079882
_cell_length_c 13.032353
_cell_angle_alpha 90.000000
_cell_angle_beta 90.000000
_cell_angle_gamma 90.000000
_cell_volume 1008.104007
_symmetry_space_group_name_H-M "P C A 21"
_symmetry_group_IT_number 29
_symmetry_cell_setting 'orthorhombic'
loop_
_space_group_symop_operation_xyz
x,y,z
-x,-y,1/2+z
1/2-x,y,1/2+z
1/2+x,-y,z
loop_
_atom_site_type_symbol
_atom_site_label
_atom_site_fract_x
_atom_site_fract_y
_atom_site_fract_z
Si Si1 0.091368 0.720126 0.548000
Si Si2 0.820939 0.354989 0.269865
Si Si3 0.202248 0.141089 0.947763
Si Si4 0.462727 0.373092 0.347384
Si Si5 0.596814 0.150661 0.939958
O O1 0.095389 0.649659 0.657405
O O2 0.273773 0.795055 0.527421
O O3 0.928440 0.823819 0.542627
O O4 0.060619 0.609643 0.458632
O O5 0.611487 0.341646 0.263105
O O6 0.856944 0.496945 0.320284
O O7 0.901277 0.237672 0.337123
O O8 0.167585 0.246692 0.855098
O O9 0.401531 0.150081 0.985168
O O10 0.158178 0.995364 0.906122
#
# Coordination Sequence:
#
# PCOD8168757 Si02
#       5
#     4   4   4   4   4
#     4   9  23  41  63  97 125 168 218 254 329 380
#     4  11  21  42  64  97 128 172 217 262 321 397
#     4  10  20  45  62  91 128 172 202 274 327 372
#     4   9  22  40  61  90 130 166 210 270 317 372
#     4  11  20  42  68  89 135 162 211 274 320 379
#
# _framework density 19.839224000000002
#
# number of rings (size 3 to 8) (size 9 to 14) (size 15 to 20)
#    1.200    0.800    2.000    1.200    0.000    3.200 
#   14.400    0.000    0.000    0.000    0.000    0.000 
#    0.000    0.000    0.000    0.000    0.000    0.000 
#
# Total GULP energy -247862.472224 kJ/mol
# GULP energy per Si atom -12393.123611 kJ/mol
# Density = 1.979407 g / cm^3
# Si number density = 19.839224 Si / 1000 Ang^3
#
#
#
# Elastic Constant Matrix: (Units=GPa)
#
#
# Indices 1 2 3 4 5 6 
#
# 1 155.7808 33.1930 18.0361 0.0000 0.0000 0.0000
# 2 33.1930 130.3791 40.2414 0.0000 0.0000 0.0000
# 3 18.0361 40.2414 70.7292 0.0000 0.0000 0.0000
# 4 0.0000 0.0000 0.0000 15.2696 0.0000 0.0000
# 5 0.0000 0.0000 0.0000 0.0000 13.4147 0.0000
# 6 0.0000 0.0000 0.0000 0.0000 0.0000 32.4513
#
#
#
# Elastic Compliance Matrix: (Units=1/GPa)
#
#
# Indices 1 2 3 4 5 6 
#
# 1 0.006836 -0.001458 -0.000913 0.000000 0.000000 0.000000
# 2 -0.001458 0.009615 -0.005098 0.000000 0.000000 0.000000
# 3 -0.000913 -0.005098 0.017272 0.000000 0.000000 0.000000
# 4 0.000000 0.000000 0.000000 0.065490 0.000000 0.000000
# 5 0.000000 0.000000 0.000000 0.000000 0.074545 0.000000
# 6 0.000000 0.000000 0.000000 0.000000 0.000000 0.030815
#
#
# Mechanical properties :
#
#
# Convention : Reuss Voigt Hill
#
# Bulk Modulus (GPa) = 53.24177 59.98113 56.61145
# Shear Modulus (GPa) = 22.14601 29.92168 26.03385
#
# Velocity S-wave (km/s) = 3.34469 3.88778 3.62642
# Velocity P-wave (km/s) = 6.46613 7.10298 6.79202
#
# Compressibility (1/GPa) = 0.01878225
#
# Stress axis : x y z
#
# Youngs Moduli (GPa) = 146.28919 104.00553 57.89669
#
# Poissons Ratio (x) = 0.15168 0.05288
# Poissons Ratio (y) = 0.21335 0.29519
# Poissons Ratio (z) = 0.13362 0.53027
#
# Static dielectric constant tensor:
#      x y z
#    x 3.822380 0.000000 0.000000 
#    y 0.000000 3.526810 0.000000 
#    z 0.000000 0.000000 3.111330 
# 
# 
# High freq. dielectric constant tensor:
#      x y z
#    x 1.793690 0.000000 0.000000 
#    y 0.000000 1.775140 0.000000 
#    z 0.000000 0.000000 1.729010 
# 
# From -- ./inp_files/2774.got.cif
#   From: 2010.03.12/outbox.cif.g09.slc.cpg/sg29_2_cif.got.tgz:2774.got - 2010.04.14 03:43:10.
