data_PCOD8168804
_publ_section_title
;
Structure prediction by ZEFSAII (Michael W. Deem and Ramdas Pophale) SiO2 
 PCOD8168804
Probable space group: P C A 21
;
_chemical_formula_sum "Si O2"
_cell_formula_units_Z 20
_cell_length_a 13.585197
_cell_length_b 11.099420
_cell_length_c 5.158208
_cell_angle_alpha 90.000000
_cell_angle_beta 90.000000
_cell_angle_gamma 90.000000
_cell_volume 777.794874
_symmetry_space_group_name_H-M "P C A 21"
_symmetry_group_IT_number 29
_symmetry_cell_setting 'orthorhombic'
loop_
_space_group_symop_operation_xyz
x,y,z
-x,-y,1/2+z
1/2-x,y,1/2+z
1/2+x,-y,z
loop_
_atom_site_type_symbol
_atom_site_label
_atom_site_fract_x
_atom_site_fract_y
_atom_site_fract_z
Si Si1 0.182619 0.741056 0.393710
Si Si2 0.000370 0.923072 0.426131
Si Si3 0.784662 0.909285 0.553828
Si Si4 0.556547 0.495617 0.397051
Si Si5 0.202234 0.347159 0.630212
O O1 0.257588 0.763496 0.629424
O O2 0.140895 0.605310 0.397959
O O3 0.086695 0.826107 0.411055
O O4 0.896369 0.865848 0.517567
O O5 0.022780 0.024018 0.641735
O O6 0.768770 0.986128 0.821972
O O7 0.716416 0.796564 0.647564
O O8 0.470876 0.463755 0.604787
O O9 0.593434 0.618898 0.538848
O O10 0.225121 0.403644 0.910547
#
# Coordination Sequence:
#
# PCOD8168804 Si02
#       5
#     4   4   4   4   4
#     4  12  28  51  76 108 157 208 249 306 388 461
#     4  12  28  48  75 110 144 195 259 313 372 438
#     4  10  23  40  71 103 138 176 236 298 363 421
#     4  12  26  42  75 109 152 195 243 302 372 451
#     4  10  21  39  65  98 141 174 227 285 355 425
#
# _framework density 25.713721
#
# number of rings (size 3 to 8) (size 9 to 14) (size 15 to 20)
#    0.000    0.800    0.000    6.000   11.200    4.800 
#    0.000    0.000    0.000    0.000    0.000    0.000 
#    0.000    0.000    0.000    0.000    0.000    0.000 
#
# Total GULP energy -247766.408848 kJ/mol
# GULP energy per Si atom -12388.320442 kJ/mol
# Density = 2.565520 g / cm^3
# Si number density = 25.713721 Si / 1000 Ang^3
#
#
#
# Elastic Constant Matrix: (Units=GPa)
#
#
# Indices 1 2 3 4 5 6 
#
# 1 118.7886 15.9364 45.2271 0.0000 0.0000 0.0000
# 2 15.9364 43.2849 4.2694 0.0000 0.0000 0.0000
# 3 45.2271 4.2694 157.8747 0.0000 0.0000 0.0000
# 4 0.0000 0.0000 0.0000 27.8947 0.0000 0.0000
# 5 0.0000 0.0000 0.0000 0.0000 57.8336 0.0000
# 6 0.0000 0.0000 0.0000 0.0000 0.0000 46.4583
#
#
#
# Elastic Compliance Matrix: (Units=1/GPa)
#
#
# Indices 1 2 3 4 5 6 
#
# 1 0.009919 -0.003381 -0.002750 0.000000 0.000000 0.000000
# 2 -0.003381 0.024317 0.000311 0.000000 0.000000 0.000000
# 3 -0.002750 0.000311 0.007114 0.000000 0.000000 0.000000
# 4 0.000000 0.000000 0.000000 0.035849 0.000000 0.000000
# 5 0.000000 0.000000 0.000000 0.000000 0.017291 0.000000
# 6 0.000000 0.000000 0.000000 0.000000 0.000000 0.021525
#
#
# Mechanical properties :
#
#
# Convention : Reuss Voigt Hill
#
# Bulk Modulus (GPa) = 33.65925 50.09043 41.87484
# Shear Modulus (GPa) = 36.34861 43.40502 39.87681
#
# Velocity S-wave (km/s) = 3.76385 4.11300 3.94229
# Velocity P-wave (km/s) = 5.65749 6.48676 6.08626
#
# Compressibility (1/GPa) = 0.02970951
#
# Stress axis : x y z
#
# Youngs Moduli (GPa) = 100.81749 41.12390 140.57662
#
# Poissons Ratio (x) = 0.13903 0.38660
# Poissons Ratio (y) = 0.34083 -0.04370
# Poissons Ratio (z) = 0.27726 -0.01278
#
# Static dielectric constant tensor:
#      x y z
#    x 4.718560 0.000000 0.000000 
#    y 0.000000 4.527400 0.000000 
#    z 0.000000 0.000000 5.741120 
# 
# 
# High freq. dielectric constant tensor:
#      x y z
#    x 2.039020 0.000000 0.000000 
#    y 0.000000 2.004890 0.000000 
#    z 0.000000 0.000000 2.071410 
# 
# From -- ./inp_files/66.got.cif
#   From: 2010.03.12/outbox.cif.g09.slc.cpg/sg29_1_cif.got.tgz:66.got - 2010.04.14 03:43:10.
