data_PCOD8168808
_publ_section_title
;
Structure prediction by ZEFSAII (Michael W. Deem and Ramdas Pophale) SiO2 
 PCOD8168808
Probable space group: P C A 21
;
_chemical_formula_sum "Si O2"
_cell_formula_units_Z 28
_cell_length_a 12.137517
_cell_length_b 11.554955
_cell_length_c 8.560170
_cell_angle_alpha 90.000000
_cell_angle_beta 90.000000
_cell_angle_gamma 90.000000
_cell_volume 1200.550683
_symmetry_space_group_name_H-M "P C A 21"
_symmetry_group_IT_number 29
_symmetry_cell_setting 'orthorhombic'
loop_
_space_group_symop_operation_xyz
x,y,z
-x,-y,1/2+z
1/2-x,y,1/2+z
1/2+x,-y,z
loop_
_atom_site_type_symbol
_atom_site_label
_atom_site_fract_x
_atom_site_fract_y
_atom_site_fract_z
Si Si1 0.029092 0.099349 0.033550
Si Si2 0.442961 0.272253 0.274458
Si Si3 0.370532 0.339550 0.823030
Si Si4 0.681089 0.558146 0.986195
Si Si5 0.739647 0.876752 0.230147
Si Si6 0.590939 0.313136 0.983132
Si Si7 0.619239 0.081327 0.831557
O O1 0.158249 0.105063 0.084343
O O2 0.938103 0.105897 0.166286
O O3 0.003119 0.205545 0.919898
O O4 0.024213 0.979801 0.936476
O O5 0.389137 0.390428 0.340664
O O6 0.352368 0.191604 0.186862
O O7 0.539848 0.297555 0.154133
O O8 0.352888 0.381053 0.646337
O O9 0.309611 0.419066 0.950649
O O10 0.327161 0.207683 0.848087
O O11 0.499104 0.344343 0.855624
O O12 0.673743 0.419987 0.994052
O O13 0.772429 0.001045 0.305855
O O14 0.655232 0.199154 0.920325
#
# Coordination Sequence:
#
# PCOD8168808 Si02
#       7
#     4   4   4   4   4   4   4
#     4  11  22  42  64 100 136 174 239 286 347 422
#     4  10  22  38  70 100 129 184 231 287 345 409
#     4  11  22  44  74  96 138 182 237 289 342 425
#     4  11  23  41  70 105 133 183 238 291 348 416
#     4  10  21  39  69  96 131 173 237 282 337 422
#     4  12  24  43  68 104 142 178 233 292 359 417
#     4  11  24  39  69 101 135 184 221 295 358 415
#
# _framework density 23.32263
#
# number of rings (size 3 to 8) (size 9 to 14) (size 15 to 20)
#    0.000    1.143    2.857    4.286    4.000    2.286 
#    2.571    1.429    0.000    0.000    0.000    0.000 
#    0.000    0.000    0.000    0.000    0.000    0.000 
#
# Total GULP energy -347125.330423 kJ/mol
# GULP energy per Si atom -12397.333229 kJ/mol
# Density = 2.326955 g / cm^3
# Si number density = 23.322630 Si / 1000 Ang^3
#
#
#
# Elastic Constant Matrix: (Units=GPa)
#
#
# Indices 1 2 3 4 5 6 
#
# 1 43.8689 27.2710 9.9074 0.0000 0.0000 0.0000
# 2 27.2710 156.3041 31.7543 0.0000 0.0000 0.0000
# 3 9.9074 31.7543 104.0073 0.0000 0.0000 0.0000
# 4 0.0000 0.0000 0.0000 31.1490 0.0000 0.0000
# 5 0.0000 0.0000 0.0000 0.0000 28.2441 0.0000
# 6 0.0000 0.0000 0.0000 0.0000 0.0000 31.0382
#
#
#
# Elastic Compliance Matrix: (Units=1/GPa)
#
#
# Indices 1 2 3 4 5 6 
#
# 1 0.025697 -0.004250 -0.001150 0.000000 0.000000 0.000000
# 2 -0.004250 0.007524 -0.001892 0.000000 0.000000 0.000000
# 3 -0.001150 -0.001892 0.010302 0.000000 0.000000 0.000000
# 4 0.000000 0.000000 0.000000 0.032104 0.000000 0.000000
# 5 0.000000 0.000000 0.000000 0.000000 0.035406 0.000000
# 6 0.000000 0.000000 0.000000 0.000000 0.000000 0.032218
#
#
# Mechanical properties :
#
#
# Convention : Reuss Voigt Hill
#
# Bulk Modulus (GPa) = 34.55669 49.11618 41.83643
# Shear Modulus (GPa) = 29.85418 33.76944 31.81181
#
# Velocity S-wave (km/s) = 3.58166 3.80929 3.69723
# Velocity P-wave (km/s) = 5.65273 6.36025 6.01690
#
# Compressibility (1/GPa) = 0.02893796
#
# Stress axis : x y z
#
# Youngs Moduli (GPa) = 38.91532 132.91382 97.06852
#
# Poissons Ratio (x) = 0.56485 0.11166
# Poissons Ratio (y) = 0.16538 0.18368
# Poissons Ratio (z) = 0.04476 0.25150
#
# Static dielectric constant tensor:
#      x y z
#    x 3.878210 0.000000 0.000000 
#    y 0.000000 4.434770 0.000000 
#    z 0.000000 0.000000 4.182310 
# 
# 
# High freq. dielectric constant tensor:
#      x y z
#    x 1.887510 0.000000 0.000000 
#    y 0.000000 1.925700 0.000000 
#    z 0.000000 0.000000 1.935290 
# 
# From -- ./inp_files/1503.got.cif
#   From: 2010.03.12/outbox.cif.g09.slc.cpg/sg29_1_cif.got.tgz:1503.got - 2010.04.14 03:43:10.
