data_PCOD8168337
_publ_section_title
;
Structure prediction by ZEFSAII (Michael W. Deem and Ramdas Pophale) SiO2 
 PCOD8168337
Probable space group: P M A 2
;
_chemical_formula_sum "Si O2"
_cell_formula_units_Z 32
_cell_length_a 8.729869
_cell_length_b 14.580600
_cell_length_c 12.310029
_cell_angle_alpha 90.000000
_cell_angle_beta 90.000000
_cell_angle_gamma 90.000000
_cell_volume 1566.903312
_symmetry_space_group_name_H-M "P M A 2"
_symmetry_group_IT_number 28
_symmetry_cell_setting 'orthorhombic'
loop_
_space_group_symop_operation_xyz
x,y,z
-x,-y,z
1/2-x,y,z
1/2+x,-y,z
loop_
_atom_site_type_symbol
_atom_site_label
_atom_site_fract_x
_atom_site_fract_y
_atom_site_fract_z
Si Si1 0.068358 0.594034 0.786850
Si Si2 0.069024 0.226051 0.708883
Si Si3 0.429584 0.101015 0.509915
Si Si4 0.069322 0.590372 0.242691
Si Si5 0.573902 0.208510 0.316554
Si Si6 0.921762 0.183210 0.076816
Si Si7 0.576493 0.092146 0.865318
Si Si8 0.928721 0.637647 0.018279
O O1 0.250000 0.592360 0.784145
O O2 0.000000 0.500000 0.738675
O O3 0.009141 0.674433 0.707124
O O4 0.012339 0.604372 0.910147
O O5 0.250000 0.239304 0.707577
O O6 0.010085 0.163484 0.609234
O O7 0.017135 0.177975 0.819978
O O8 0.250000 0.087777 0.517603
O O9 0.468730 0.155287 0.400623
O O10 0.500000 0.000000 0.513677
O O11 0.250000 0.582315 0.235801
O O12 0.023581 0.684435 0.305241
O O13 0.000000 0.500000 0.303487
O O14 0.999711 0.587368 0.122080
O O15 0.750000 0.201393 0.354058
O O16 0.547004 0.156457 0.201592
O O17 0.750000 0.227804 0.070720
O O18 0.929794 0.095540 0.997069
O O19 0.046666 0.254274 0.033824
O O20 0.750000 0.095685 0.822203
O O21 0.500000 0.000000 0.821786
O O22 0.750000 0.615247 0.007816
#
# Coordination Sequence:
#
# PCOD8168337 Si02
#       8
#     4   4   4   4   4   4   4   4
#     4  12  24  39  60  88 123 163 204 249 301 360
#     4  11  24  43  64  90 121 155 202 255 308 364
#     4  11  25  44  68  93 119 153 202 257 306 365
#     4  10  20  35  56  86 124 164 206 251 298 356
#     4   9  20  39  62  88 122 159 201 253 304 358
#     4   9  19  36  56  84 122 162 200 246 303 359
#     4  11  22  36  58  87 122 161 199 245 304 367
#     4  11  20  32  54  84 121 165 207 248 294 353
#
# _framework density 20.422447999999999
#
# number of rings (size 3 to 8) (size 9 to 14) (size 15 to 20)
#    0.000    1.500    1.250    5.250    0.000    6.500 
#    0.000    1.875    0.000    1.500    0.000    0.000 
#    0.000    0.000    0.000    0.000    0.000    0.000 
#
# Total GULP energy -396754.810275 kJ/mol
# GULP energy per Si atom -12398.587821 kJ/mol
# Density = 2.037597 g / cm^3
# Si number density = 20.422448 Si / 1000 Ang^3
#
#
#
# Elastic Constant Matrix: (Units=GPa)
#
#
# Indices 1 2 3 4 5 6 
#
# 1 114.5089 57.4065 38.0351 0.0000 0.0000 0.0000
# 2 57.4065 145.6444 56.0305 0.0000 0.0000 0.0000
# 3 38.0351 56.0305 95.6513 0.0000 0.0000 0.0000
# 4 0.0000 0.0000 0.0000 22.3834 0.0000 0.0000
# 5 0.0000 0.0000 0.0000 0.0000 22.4707 0.0000
# 6 0.0000 0.0000 0.0000 0.0000 0.0000 36.7805
#
#
#
# Elastic Compliance Matrix: (Units=1/GPa)
#
#
# Indices 1 2 3 4 5 6 
#
# 1 0.011306 -0.003520 -0.002434 0.000000 0.000000 0.000000
# 2 -0.003520 0.009959 -0.004434 0.000000 0.000000 0.000000
# 3 -0.002434 -0.004434 0.014020 0.000000 0.000000 0.000000
# 4 0.000000 0.000000 0.000000 0.044676 0.000000 0.000000
# 5 0.000000 0.000000 0.000000 0.000000 0.044502 0.000000
# 6 0.000000 0.000000 0.000000 0.000000 0.000000 0.027188
#
#
# Mechanical properties :
#
#
# Convention : Reuss Voigt Hill
#
# Bulk Modulus (GPa) = 68.92218 73.19432 71.05825
# Shear Modulus (GPa) = 28.20641 29.94908 29.07774
#
# Velocity S-wave (km/s) = 3.72041 3.83362 3.77744
# Velocity P-wave (km/s) = 7.23027 7.45073 7.34133
#
# Compressibility (1/GPa) = 0.01450912
#
# Stress axis : x y z
#
# Youngs Moduli (GPa) = 88.44823 100.40785 71.32696
#
# Poissons Ratio (x) = 0.35344 0.17360
# Poissons Ratio (y) = 0.31134 0.31628
# Poissons Ratio (z) = 0.21527 0.44524
#
# Static dielectric constant tensor:
#      x y z
#    x 3.704200 0.000000 0.000000 
#    y 0.000000 3.822260 0.000000 
#    z 0.000000 0.000000 3.589530 
# 
# 
# High freq. dielectric constant tensor:
#      x y z
#    x 1.804930 0.000000 0.000000 
#    y 0.000000 1.803920 0.000000 
#    z 0.000000 0.000000 1.778220 
# 
# From -- ./inp_files/5114.got.cif
#   From: 2010.03.12/outbox.cif.g09.slc.cpg/sg28_3_cif.got.tgz:5114.got - 2010.04.14 03:39:34.
