data_PCOD8168358
_publ_section_title
;
Structure prediction by ZEFSAII (Michael W. Deem and Ramdas Pophale) SiO2 
 PCOD8168358
Probable space group: P M A 2
;
_chemical_formula_sum "Si O2"
_cell_formula_units_Z 24
_cell_length_a 8.675190
_cell_length_b 9.554615
_cell_length_c 15.143995
_cell_angle_alpha 90.000000
_cell_angle_beta 90.000000
_cell_angle_gamma 90.000000
_cell_volume 1255.256980
_symmetry_space_group_name_H-M "P M A 2"
_symmetry_group_IT_number 28
_symmetry_cell_setting 'orthorhombic'
loop_
_space_group_symop_operation_xyz
x,y,z
-x,-y,z
1/2-x,y,z
1/2+x,-y,z
loop_
_atom_site_type_symbol
_atom_site_label
_atom_site_fract_x
_atom_site_fract_y
_atom_site_fract_z
Si Si1 0.567174 0.147420 0.631170
Si Si2 0.067405 0.852566 0.320939
Si Si3 0.432876 0.653597 0.967360
Si Si4 0.933102 0.850218 0.820488
Si Si5 0.068909 0.853922 0.122667
Si Si6 0.568627 0.347455 0.473102
O O1 0.750000 0.134263 0.642987
O O2 0.490940 0.190823 0.723403
O O3 0.519081 0.263901 0.560461
O O4 0.500000 0.000000 0.597870
O O5 0.250000 0.863381 0.326361
O O6 0.010463 0.817133 0.221534
O O7 0.004870 0.732554 0.386389
O O8 0.000000 0.000000 0.352820
O O9 0.500000 0.500000 0.973327
O O10 0.250000 0.649906 0.955718
O O11 0.507594 0.730394 0.884649
O O12 0.483953 0.731617 0.057102
O O13 0.750000 0.858117 0.822171
O O14 0.000000 0.000000 0.850448
O O15 0.250000 0.872252 0.121809
O O16 0.000000 0.000000 0.088953
O O17 0.500000 0.500000 0.477385
O O18 0.750000 0.360396 0.467253
#
# Coordination Sequence:
#
# PCOD8168358 Si02
#       6
#     4   4   4   4   4   4
#     4  10  20  36  57  82 108 139 180 226 269 318
#     4   9  18  35  56  81 108 139 179 223 266 315
#     4  11  23  38  55  80 112 147 183 224 272 326
#     4  11  22  38  60  84 109 142 181 226 273 323
#     4   9  19  35  57  81 108 140 179 223 268 317
#     4  10  22  36  53  78 111 145 179 218 265 319
#
# _framework density 19.119589999999999
#
# number of rings (size 3 to 8) (size 9 to 14) (size 15 to 20)
#    0.000    2.000    0.000    4.500    0.000    6.000 
#    0.000    1.667    0.000    0.000    0.000    0.000 
#    0.000    0.000    0.000    0.000    0.000    0.000 
#
# Total GULP energy -297653.424472 kJ/mol
# GULP energy per Si atom -12402.226020 kJ/mol
# Density = 1.907607 g / cm^3
# Si number density = 19.119590 Si / 1000 Ang^3
#
#
#
# Elastic Constant Matrix: (Units=GPa)
#
#
# Indices 1 2 3 4 5 6 
#
# 1 74.7418 54.5546 52.4761 0.0000 0.0000 0.0000
# 2 54.5546 186.7883 114.1920 0.0000 0.0000 0.0000
# 3 52.4761 114.1920 138.1697 0.0000 0.0000 0.0000
# 4 0.0000 0.0000 0.0000 37.1633 0.0000 0.0000
# 5 0.0000 0.0000 0.0000 0.0000 18.2249 0.0000
# 6 0.0000 0.0000 0.0000 0.0000 0.0000 36.8002
#
#
#
# Elastic Compliance Matrix: (Units=1/GPa)
#
#
# Indices 1 2 3 4 5 6 
#
# 1 0.018706 -0.002264 -0.005233 0.000000 0.000000 0.000000
# 2 -0.002264 0.011095 -0.008310 0.000000 0.000000 0.000000
# 3 -0.005233 -0.008310 0.016093 0.000000 0.000000 0.000000
# 4 0.000000 0.000000 0.000000 0.026908 0.000000 0.000000
# 5 0.000000 0.000000 0.000000 0.000000 0.054870 0.000000
# 6 0.000000 0.000000 0.000000 0.000000 0.000000 0.027174
#
#
# Mechanical properties :
#
#
# Convention : Reuss Voigt Hill
#
# Bulk Modulus (GPa) = 70.02939 93.57167 81.80053
# Shear Modulus (GPa) = 26.14783 30.33615 28.24199
#
# Velocity S-wave (km/s) = 3.70211 3.98760 3.84751
# Velocity P-wave (km/s) = 7.41490 8.38139 7.91292
#
# Compressibility (1/GPa) = 0.01427972
#
# Stress axis : x y z
#
# Youngs Moduli (GPa) = 53.45792 90.13050 62.13980
#
# Poissons Ratio (x) = 0.20406 0.32520
# Poissons Ratio (y) = 0.12103 0.51636
# Poissons Ratio (z) = 0.27976 0.74896
#
# Static dielectric constant tensor:
#      x y z
#    x 3.481230 0.000000 0.000000 
#    y 0.000000 3.402900 0.000000 
#    z 0.000000 0.000000 3.860260 
# 
# 
# High freq. dielectric constant tensor:
#      x y z
#    x 1.745360 0.000000 0.000000 
#    y 0.000000 1.741330 0.000000 
#    z 0.000000 0.000000 1.759120 
# 
# From -- ./inp_files/6027.got.cif
#   From: 2010.03.12/outbox.cif.g09.slc.cpg/sg28_4_cif.got.tgz:6027.got - 2010.04.14 03:39:34.
