data_PCOD8168599
_publ_section_title
;
Structure prediction by ZEFSAII (Michael W. Deem and Ramdas Pophale) SiO2 
 PCOD8168599
Probable space group: P C A 21
;
_chemical_formula_sum "Si O2"
_cell_formula_units_Z 28
_cell_length_a 15.599023
_cell_length_b 16.985233
_cell_length_c 5.025447
_cell_angle_alpha 90.000000
_cell_angle_beta 90.000000
_cell_angle_gamma 90.000000
_cell_volume 1331.507461
_symmetry_space_group_name_H-M "P C A 21"
_symmetry_group_IT_number 29
_symmetry_cell_setting 'orthorhombic'
loop_
_space_group_symop_operation_xyz
x,y,z
-x,-y,1/2+z
1/2-x,y,1/2+z
1/2+x,-y,z
loop_
_atom_site_type_symbol
_atom_site_label
_atom_site_fract_x
_atom_site_fract_y
_atom_site_fract_z
Si Si1 0.807838 0.792134 0.503790
Si Si2 0.807687 0.534062 0.099663
Si Si3 0.804532 0.961862 0.412773
Si Si4 0.808461 0.128171 0.536965
Si Si5 0.591517 0.378570 0.476381
Si Si6 0.574262 0.668242 0.747073
Si Si7 0.588305 0.282621 0.990994
O O1 0.727720 0.781958 0.301708
O O2 0.852177 0.878895 0.472714
O O3 0.878321 0.726482 0.448768
O O4 0.771264 0.530865 0.397796
O O5 0.872153 0.463504 0.041440
O O6 0.860233 0.615249 0.076494
O O7 0.719548 0.963122 0.601365
O O8 0.854832 0.042515 0.490268
O O9 0.730008 0.136598 0.331057
O O10 0.880595 0.193431 0.499070
O O11 0.488538 0.386871 0.428396
O O12 0.634161 0.338471 0.214086
O O13 0.612918 0.318257 0.709609
O O14 0.514715 0.717602 0.541487
#
# Coordination Sequence:
#
# PCOD8168599 Si02
#       7
#     4   4   4   4   4   4   4
#     4  10  20  36  62  88 116 152 204 246 291 350
#     4  12  27  42  66  92 116 152 210 254 295 359
#     4   8  16  31  54  85 114 149 190 247 293 335
#     4  10  19  34  60  86 118 156 203 244 288 349
#     4  10  25  41  61  83 124 156 194 243 317 354
#     4  10  26  40  64  83 127 157 197 243 317 357
#     4  10  23  38  61  85 121 162 194 239 309 364
#
# _framework density 21.028794999999999
#
# number of rings (size 3 to 8) (size 9 to 14) (size 15 to 20)
#    0.857    1.143    0.000    2.571    6.000    3.429 
#    0.000    0.000    3.143    0.000    0.000    0.000 
#    0.000    0.000    0.000    0.000    0.000    0.000 
#
# Total GULP energy -346992.346045 kJ/mol
# GULP energy per Si atom -12392.583787 kJ/mol
# Density = 2.098093 g / cm^3
# Si number density = 21.028795 Si / 1000 Ang^3
#
#
#
# Elastic Constant Matrix: (Units=GPa)
#
#
# Indices 1 2 3 4 5 6 
#
# 1 65.0315 56.2302 8.2743 0.0000 0.0000 0.0000
# 2 56.2302 141.2202 6.6950 0.0000 0.0000 0.0000
# 3 8.2743 6.6950 85.2591 0.0000 0.0000 0.0000
# 4 0.0000 0.0000 0.0000 31.6020 0.0000 0.0000
# 5 0.0000 0.0000 0.0000 0.0000 16.1523 0.0000
# 6 0.0000 0.0000 0.0000 0.0000 0.0000 12.7982
#
#
#
# Elastic Compliance Matrix: (Units=1/GPa)
#
#
# Indices 1 2 3 4 5 6 
#
# 1 0.023656 -0.009345 -0.001562 0.000000 0.000000 0.000000
# 2 -0.009345 0.010799 0.000059 0.000000 0.000000 0.000000
# 3 -0.001562 0.000059 0.011876 0.000000 0.000000 0.000000
# 4 0.000000 0.000000 0.000000 0.031644 0.000000 0.000000
# 5 0.000000 0.000000 0.000000 0.000000 0.061911 0.000000
# 6 0.000000 0.000000 0.000000 0.000000 0.000000 0.078136
#
#
# Mechanical properties :
#
#
# Convention : Reuss Voigt Hill
#
# Bulk Modulus (GPa) = 40.59268 48.21221 44.40244
# Shear Modulus (GPa) = 20.16696 26.79792 23.48244
#
# Velocity S-wave (km/s) = 3.10016 3.57367 3.34530
# Velocity P-wave (km/s) = 5.67097 6.32492 6.00685
#
# Compressibility (1/GPa) = 0.02463499
#
# Stress axis : x y z
#
# Youngs Moduli (GPa) = 42.27178 92.59767 84.20406
#
# Poissons Ratio (x) = 0.86536 0.13153
# Poissons Ratio (y) = 0.39504 -0.00496
# Poissons Ratio (z) = 0.06603 -0.00546
#
# Static dielectric constant tensor:
#      x y z
#    x 3.355100 0.000000 0.000000 
#    y 0.000000 4.062860 0.000000 
#    z 0.000000 0.000000 3.895530 
# 
# 
# High freq. dielectric constant tensor:
#      x y z
#    x 1.771980 0.000000 0.000000 
#    y 0.000000 1.840750 0.000000 
#    z 0.000000 0.000000 1.841000 
# 
# From -- ./inp_files/415.got.cif
#   From: 2010.03.12/outbox.cif.g09.slc.cpg/sg29_1_cif.got.tgz:415.got - 2010.04.14 03:43:10.
