data_PCOD8168070
_publ_section_title
;
Structure prediction by ZEFSAII (Michael W. Deem and Ramdas Pophale) SiO2 
 PCOD8168070
Probable space group: P M A 2
;
_chemical_formula_sum "Si O2"
_cell_formula_units_Z 32
_cell_length_a 8.878346
_cell_length_b 15.455063
_cell_length_c 11.845883
_cell_angle_alpha 90.000000
_cell_angle_beta 90.000000
_cell_angle_gamma 90.000000
_cell_volume 1625.437536
_symmetry_space_group_name_H-M "P M A 2"
_symmetry_group_IT_number 28
_symmetry_cell_setting 'orthorhombic'
loop_
_space_group_symop_operation_xyz
x,y,z
-x,-y,z
1/2-x,y,z
1/2+x,-y,z
loop_
_atom_site_type_symbol
_atom_site_label
_atom_site_fract_x
_atom_site_fract_y
_atom_site_fract_z
Si Si1 0.928396 0.089252 0.190990
Si Si2 0.571599 0.158158 0.952205
Si Si3 0.928590 0.353756 0.960479
Si Si4 0.427324 0.245175 0.322974
Si Si5 0.572914 0.088668 0.716318
Si Si6 0.927056 0.250972 0.562793
Si Si7 0.572473 0.586321 0.184602
Si Si8 0.073467 0.587743 0.714384
O O1 0.750000 0.083829 0.200378
O O2 0.984800 0.164747 0.271375
O O3 0.981799 0.105930 0.062404
O O4 0.000000 0.000000 0.233517
O O5 0.750000 0.162378 0.942337
O O6 0.510639 0.255562 0.961572
O O7 0.506063 0.112669 0.840014
O O8 0.750000 0.357924 0.980185
O O9 0.977727 0.395959 0.842591
O O10 0.012389 0.405806 0.057657
O O11 0.250000 0.229309 0.311697
O O12 0.473036 0.255101 0.451944
O O13 0.478728 0.331522 0.257894
O O14 0.750000 0.075618 0.723733
O O15 0.531201 0.163642 0.628816
O O16 0.500000 0.000000 0.672729
O O17 0.750000 0.254277 0.533678
O O18 0.978136 0.331762 0.638656
O O19 0.500000 0.500000 0.239181
O O20 0.750000 0.575747 0.183231
O O21 0.250000 0.576849 0.707052
O O22 0.000000 0.500000 0.667585
#
# Coordination Sequence:
#
# PCOD8168070 Si02
#       8
#     4   4   4   4   4   4   4   4
#     4  11  22  38  63  91 121 158 195 238 292 352
#     4   9  17  33  60  89 119 155 190 229 287 351
#     4  10  18  35  62  89 120 156 192 234 290 355
#     4  11  25  43  61  85 117 152 200 254 296 343
#     4  10  20  37  60  88 119 152 191 234 284 344
#     4  10  22  41  62  82 112 157 200 238 290 351
#     4  11  24  40  60  88 120 154 194 244 296 353
#     4  10  21  37  60  88 119 153 192 238 290 351
#
# _framework density 19.687004999999999
#
# number of rings (size 3 to 8) (size 9 to 14) (size 15 to 20)
#    0.000    1.750    2.500    1.875    0.000    5.000 
#    0.000    5.000    0.000    0.000    0.000    0.000 
#    0.000    0.000    0.000    0.000    0.000    0.000 
#
# Total GULP energy -396922.853980 kJ/mol
# GULP energy per Si atom -12403.839187 kJ/mol
# Density = 1.964220 g / cm^3
# Si number density = 19.687005 Si / 1000 Ang^3
#
#
#
# Elastic Constant Matrix: (Units=GPa)
#
#
# Indices 1 2 3 4 5 6 
#
# 1 48.2364 47.2768 38.9795 0.0000 0.0000 0.0000
# 2 47.2768 176.3230 57.5010 0.0000 0.0000 0.0000
# 3 38.9795 57.5010 118.0428 0.0000 0.0000 0.0000
# 4 0.0000 0.0000 0.0000 5.8075 0.0000 0.0000
# 5 0.0000 0.0000 0.0000 0.0000 25.2076 0.0000
# 6 0.0000 0.0000 0.0000 0.0000 0.0000 31.8140
#
#
#
# Elastic Compliance Matrix: (Units=1/GPa)
#
#
# Indices 1 2 3 4 5 6 
#
# 1 0.033368 -0.006365 -0.007918 0.000000 0.000000 0.000000
# 2 -0.006365 0.007956 -0.001774 0.000000 0.000000 0.000000
# 3 -0.007918 -0.001774 0.011950 0.000000 0.000000 0.000000
# 4 0.000000 0.000000 0.000000 0.172190 0.000000 0.000000
# 5 0.000000 0.000000 0.000000 0.000000 0.039671 0.000000
# 6 0.000000 0.000000 0.000000 0.000000 0.000000 0.031433
#
#
# Mechanical properties :
#
#
# Convention : Reuss Voigt Hill
#
# Bulk Modulus (GPa) = 47.25685 70.01297 58.63491
# Shear Modulus (GPa) = 14.89265 25.82215 20.35740
#
# Velocity S-wave (km/s) = 2.75339 3.62558 3.21916
# Velocity P-wave (km/s) = 5.84503 7.29155 6.60799
#
# Compressibility (1/GPa) = 0.02116095
#
# Stress axis : x y z
#
# Youngs Moduli (GPa) = 29.96892 125.68407 83.67898
#
# Poissons Ratio (x) = 0.79992 0.66259
# Poissons Ratio (y) = 0.19074 0.14845
# Poissons Ratio (z) = 0.23730 0.22297
#
# Static dielectric constant tensor:
#      x y z
#    x 3.322120 0.000000 0.000000 
#    y 0.000000 3.826160 0.000000 
#    z 0.000000 0.000000 3.610440 
# 
# 
# High freq. dielectric constant tensor:
#      x y z
#    x 1.749330 0.000000 0.000000 
#    y 0.000000 1.786130 0.000000 
#    z 0.000000 0.000000 1.766060 
# 
# From -- ./inp_files/4988.got.cif
#   From: 2010.03.12/outbox.cif.g09.slc.cpg/sg28_3_cif.got.tgz:4988.got - 2010.04.14 03:39:34.
