data_PCOD8168995
_publ_section_title
;
Structure prediction by ZEFSAII (Michael W. Deem and Ramdas Pophale) SiO2 
 PCOD8168995
Probable space group: P C A 21
;
_chemical_formula_sum "Si O2"
_cell_formula_units_Z 28
_cell_length_a 12.646196
_cell_length_b 9.009873
_cell_length_c 10.579213
_cell_angle_alpha 90.000000
_cell_angle_beta 90.000000
_cell_angle_gamma 90.000000
_cell_volume 1205.402087
_symmetry_space_group_name_H-M "P C A 21"
_symmetry_group_IT_number 29
_symmetry_cell_setting 'orthorhombic'
loop_
_space_group_symop_operation_xyz
x,y,z
-x,-y,1/2+z
1/2-x,y,1/2+z
1/2+x,-y,z
loop_
_atom_site_type_symbol
_atom_site_label
_atom_site_fract_x
_atom_site_fract_y
_atom_site_fract_z
Si Si1 0.569151 0.863302 0.439500
Si Si2 0.673251 0.049226 0.644517
Si Si3 0.831250 0.525892 0.630683
Si Si4 0.026084 0.700202 0.543272
Si Si5 0.611148 0.199864 0.114438
Si Si6 0.666168 0.552469 0.418058
Si Si7 0.031488 0.109041 0.819897
O O1 0.450165 0.871248 0.497129
O O2 0.593910 0.696696 0.401704
O O3 0.657559 0.936449 0.528730
O O4 0.553852 0.972811 0.320935
O O5 0.601528 0.197761 0.629691
O O6 0.794779 0.091520 0.655940
O O7 0.643186 0.956008 0.770751
O O8 0.843878 0.359772 0.579714
O O9 0.751715 0.593749 0.526269
O O10 0.786237 0.524925 0.775880
O O11 0.943493 0.611095 0.630025
O O12 0.097344 0.588181 0.460708
O O13 0.956522 0.805717 0.451886
O O14 0.522064 0.223333 0.222065
#
# Coordination Sequence:
#
# PCOD8168995 Si02
#       7
#     4   4   4   4   4   4   4
#     4  10  24  42  66  99 143 184 236 301 357 430
#     4  10  23  42  71 100 138 187 243 298 366 440
#     4  12  27  44  76 106 145 193 242 299 359 433
#     4  11  23  45  70 103 144 190 245 299 363 436
#     4  11  22  43  69  98 137 191 238 293 371 432
#     4  12  26  46  71 109 143 189 246 295 364 435
#     4  10  23  42  67 101 140 188 238 305 358 434
#
# _framework density 23.228764000000002
#
# number of rings (size 3 to 8) (size 9 to 14) (size 15 to 20)
#    0.000    1.143    4.286    0.857    0.000   12.571 
#    0.000    0.000    0.000    0.000    0.000    0.000 
#    0.000    0.000    0.000    0.000    0.000    0.000 
#
# Total GULP energy -347058.877813 kJ/mol
# GULP energy per Si atom -12394.959922 kJ/mol
# Density = 2.317589 g / cm^3
# Si number density = 23.228764 Si / 1000 Ang^3
#
#
#
# Elastic Constant Matrix: (Units=GPa)
#
#
# Indices 1 2 3 4 5 6 
#
# 1 97.2720 20.1030 26.2781 0.0000 0.0000 0.0000
# 2 20.1030 90.4522 0.1774 0.0000 0.0000 0.0000
# 3 26.2781 0.1774 88.9062 0.0000 0.0000 0.0000
# 4 0.0000 0.0000 0.0000 22.7492 0.0000 0.0000
# 5 0.0000 0.0000 0.0000 0.0000 21.4593 0.0000
# 6 0.0000 0.0000 0.0000 0.0000 0.0000 32.7005
#
#
#
# Elastic Compliance Matrix: (Units=1/GPa)
#
#
# Indices 1 2 3 4 5 6 
#
# 1 0.011756 -0.002606 -0.003470 0.000000 0.000000 0.000000
# 2 -0.002606 0.011633 0.000747 0.000000 0.000000 0.000000
# 3 -0.003470 0.000747 0.012272 0.000000 0.000000 0.000000
# 4 0.000000 0.000000 0.000000 0.043958 0.000000 0.000000
# 5 0.000000 0.000000 0.000000 0.000000 0.046600 0.000000
# 6 0.000000 0.000000 0.000000 0.000000 0.000000 0.030581
#
#
# Mechanical properties :
#
#
# Convention : Reuss Voigt Hill
#
# Bulk Modulus (GPa) = 39.99320 41.08303 40.53812
# Shear Modulus (GPa) = 28.44277 30.71991 29.58134
#
# Velocity S-wave (km/s) = 3.50303 3.64056 3.57246
# Velocity P-wave (km/s) = 5.79794 5.94947 5.87419
#
# Compressibility (1/GPa) = 0.02500425
#
# Stress axis : x y z
#
# Youngs Moduli (GPa) = 85.06032 85.96019 81.48734
#
# Poissons Ratio (x) = 0.22402 0.28273
# Poissons Ratio (y) = 0.22167 -0.06088
# Poissons Ratio (z) = 0.29513 -0.06422
#
# Static dielectric constant tensor:
#      x y z
#    x 3.875230 0.000000 0.000000 
#    y 0.000000 4.285830 0.000000 
#    z 0.000000 0.000000 4.113800 
# 
# 
# High freq. dielectric constant tensor:
#      x y z
#    x 1.901160 0.000000 0.000000 
#    y 0.000000 1.936000 0.000000 
#    z 0.000000 0.000000 1.914720 
# 
# From -- ./inp_files/3130.got.cif
#   From: 2010.03.12/outbox.cif.g09.slc.cpg/sg29_2_cif.got.tgz:3130.got - 2010.04.14 03:43:10.
