data_PCOD8168883
_publ_section_title
;
Structure prediction by ZEFSAII (Michael W. Deem and Ramdas Pophale) SiO2 
 PCOD8168883
Probable space group: P C A 21
;
_chemical_formula_sum "Si O2"
_cell_formula_units_Z 32
_cell_length_a 29.619044
_cell_length_b 5.804635
_cell_length_c 8.559939
_cell_angle_alpha 90.000000
_cell_angle_beta 90.000000
_cell_angle_gamma 90.000000
_cell_volume 1471.690962
_symmetry_space_group_name_H-M "P C A 21"
_symmetry_group_IT_number 29
_symmetry_cell_setting 'orthorhombic'
loop_
_space_group_symop_operation_xyz
x,y,z
-x,-y,1/2+z
1/2-x,y,1/2+z
1/2+x,-y,z
loop_
_atom_site_type_symbol
_atom_site_label
_atom_site_fract_x
_atom_site_fract_y
_atom_site_fract_z
Si Si1 0.547992 0.879906 0.617670
Si Si2 0.623444 0.833041 0.043488
Si Si3 0.901123 0.499706 0.288623
Si Si4 0.203700 0.883333 0.107084
Si Si5 0.456574 0.880072 0.440637
Si Si6 0.871037 0.181600 0.032129
Si Si7 0.831192 0.514390 0.785893
Si Si8 0.209662 0.091127 0.442559
O O1 0.570102 0.634605 0.657788
O O2 0.503792 0.827199 0.519687
O O3 0.533599 0.004361 0.775540
O O4 0.581874 0.043344 0.518683
O O5 0.629031 0.672647 0.890877
O O6 0.573681 0.947645 0.047837
O O7 0.634615 0.694374 0.202933
O O8 0.658384 0.042287 0.016736
O O9 0.932409 0.364124 0.411988
O O10 0.869081 0.328761 0.191389
O O11 0.199832 0.610553 0.151204
O O12 0.205749 0.014998 0.266899
O O13 0.244857 0.978913 0.005874
O O14 0.863023 0.331211 0.875355
O O15 0.830845 0.997678 0.051068
O O16 0.797557 0.631785 0.916842
#
# Coordination Sequence:
#
# PCOD8168883 Si02
#       8
#     4   4   4   4   4   4   4   4
#     4  10  23  41  61  90 124 162 208 256 305 366
#     4  10  22  41  62  90 124 160 207 254 303 366
#     4  10  22  39  63  90 122 164 202 251 317 362
#     4  10  23  39  60  90 123 161 206 251 301 365
#     4  10  23  41  61  90 124 162 208 256 305 366
#     4  10  22  41  62  90 124 160 207 254 303 366
#     4  10  22  41  63  90 122 164 204 251 313 358
#     4  10  23  39  60  90 123 161 206 251 301 365
#
# _framework density 21.743694999999999
#
# number of rings (size 3 to 8) (size 9 to 14) (size 15 to 20)
#    0.000    2.000    0.000    1.500    0.000   19.000 
#    0.000    2.500    0.000    0.000    0.000    0.000 
#    0.000    0.000    0.000    0.000    0.000    0.000 
#
# Total GULP energy -396552.519698 kJ/mol
# GULP energy per Si atom -12392.266241 kJ/mol
# Density = 2.169421 g / cm^3
# Si number density = 21.743695 Si / 1000 Ang^3
#
#
#
# Elastic Constant Matrix: (Units=GPa)
#
#
# Indices 1 2 3 4 5 6 
#
# 1 79.7007 23.8395 26.3144 0.0000 0.0000 0.0000
# 2 23.8395 111.0609 20.8453 0.0000 0.0000 0.0000
# 3 26.3144 20.8453 47.3495 0.0000 0.0000 0.0000
# 4 0.0000 0.0000 0.0000 40.2987 0.0000 0.0000
# 5 0.0000 0.0000 0.0000 0.0000 56.4838 0.0000
# 6 0.0000 0.0000 0.0000 0.0000 0.0000 18.9170
#
#
#
# Elastic Compliance Matrix: (Units=1/GPa)
#
#
# Indices 1 2 3 4 5 6 
#
# 1 0.015723 -0.001891 -0.007905 0.000000 0.000000 0.000000
# 2 -0.001891 0.010043 -0.003370 0.000000 0.000000 0.000000
# 3 -0.007905 -0.003370 0.026997 0.000000 0.000000 0.000000
# 4 0.000000 0.000000 0.000000 0.024815 0.000000 0.000000
# 5 0.000000 0.000000 0.000000 0.000000 0.017704 0.000000
# 6 0.000000 0.000000 0.000000 0.000000 0.000000 0.052863
#
#
# Mechanical properties :
#
#
# Convention : Reuss Voigt Hill
#
# Bulk Modulus (GPa) = 37.83777 42.23439 40.03608
# Shear Modulus (GPa) = 27.27978 34.28071 30.78024
#
# Velocity S-wave (km/s) = 3.54589 3.97493 3.76652
# Velocity P-wave (km/s) = 5.84841 6.36652 6.11296
#
# Compressibility (1/GPa) = 0.02642862
#
# Stress axis : x y z
#
# Youngs Moduli (GPa) = 63.60253 99.57624 37.04175
#
# Poissons Ratio (x) = 0.18831 0.29283
# Poissons Ratio (y) = 0.12028 0.12484
# Poissons Ratio (z) = 0.50280 0.33559
#
# Static dielectric constant tensor:
#      x y z
#    x -0.962730 0.000000 0.000000 
#    y 0.000000 4.818740 0.000000 
#    z 0.000000 0.000000 4.208190 
# 
# 
# High freq. dielectric constant tensor:
#      x y z
#    x 1.837820 0.000000 0.000000 
#    y 0.000000 1.871280 0.000000 
#    z 0.000000 0.000000 1.852330 
# 
# From -- ./inp_files/2620.got.cif
#   From: 2010.03.12/outbox.cif.g09.slc.cpg/sg29_2_cif.got.tgz:2620.got - 2010.04.14 03:43:10.
