data_PCOD8168487
_publ_section_title
;
Structure prediction by ZEFSAII (Michael W. Deem and Ramdas Pophale) SiO2 
 PCOD8168487
Probable space group: P M A 2
;
_chemical_formula_sum "Si O2"
_cell_formula_units_Z 28
_cell_length_a 18.602633
_cell_length_b 6.190062
_cell_length_c 11.363280
_cell_angle_alpha 90.000000
_cell_angle_beta 90.000000
_cell_angle_gamma 90.000000
_cell_volume 1308.498187
_symmetry_space_group_name_H-M "P M A 2"
_symmetry_group_IT_number 28
_symmetry_cell_setting 'orthorhombic'
loop_
_space_group_symop_operation_xyz
x,y,z
-x,-y,z
1/2-x,y,z
1/2+x,-y,z
loop_
_atom_site_type_symbol
_atom_site_label
_atom_site_fract_x
_atom_site_fract_y
_atom_site_fract_z
Si Si1 0.832303 0.224373 0.416840
Si Si2 0.915242 0.509828 0.590732
Si Si3 0.084758 0.509828 0.854967
Si Si4 0.895250 0.500000 0.222849
Si Si5 0.332303 0.224373 0.028859
Si Si6 0.570154 0.151317 0.043596
Si Si7 0.929846 0.848683 0.402103
O O1 0.750000 0.203091 0.455919
O O2 0.880055 0.304530 0.526734
O O3 0.840158 0.390947 0.311498
O O4 0.862364 0.997343 0.369121
O O5 0.883901 0.500000 0.722850
O O6 0.901958 0.734098 0.522041
O O7 0.000000 0.500000 0.591111
O O8 0.000000 0.500000 0.854590
O O9 0.119945 0.304529 0.918965
O O10 0.098042 0.734098 0.923658
O O11 0.840158 0.609052 0.134201
O O12 0.944354 0.328206 0.147923
O O13 0.944354 0.671793 0.297776
O O14 0.250000 0.203091 0.989780
O O15 0.362364 0.997343 0.076578
O O16 0.500000 0.000000 0.027513
O O17 0.000000 0.000000 0.418185
#
# Coordination Sequence:
#
# PCOD8168487 Si02
#       7
#     4   4   4   4   4   4   4
#     4  11  24  42  65  98 133 169 214 262 321 381
#     4  10  22  44  68  93 127 170 215 268 320 377
#     4  10  22  44  68  93 127 170 215 268 320 377
#     4  10  25  41  64  94 136 172 212 262 322 378
#     4  11  24  42  65  98 133 169 214 262 321 381
#     4  11  23  42  65  97 129 170 220 263 316 381
#     4  11  23  42  65  97 129 170 220 263 316 381
#
# _framework density 21.398578000000001
#
# number of rings (size 3 to 8) (size 9 to 14) (size 15 to 20)
#    0.000    1.429    2.857    1.286    0.000   12.000 
#    0.000    1.429    0.000    0.000    0.000    0.000 
#    0.000    0.000    0.000    0.000    0.000    0.000 
#
# Total GULP energy -347007.791286 kJ/mol
# GULP energy per Si atom -12393.135403 kJ/mol
# Density = 2.134987 g / cm^3
# Si number density = 21.398578 Si / 1000 Ang^3
#
#
#
# Elastic Constant Matrix: (Units=GPa)
#
#
# Indices 1 2 3 4 5 6 
#
# 1 87.3936 45.0819 35.7816 0.0000 0.0000 0.0000
# 2 45.0819 131.4927 60.9241 0.0000 0.0000 0.0000
# 3 35.7816 60.9241 155.9401 0.0000 0.0000 0.0000
# 4 0.0000 0.0000 0.0000 18.3196 0.0000 0.0000
# 5 0.0000 0.0000 0.0000 0.0000 -15.3038 0.0000
# 6 0.0000 0.0000 0.0000 0.0000 0.0000 25.4538
#
#
#
# Elastic Compliance Matrix: (Units=1/GPa)
#
#
# Indices 1 2 3 4 5 6 
#
# 1 0.014245 -0.004114 -0.001661 0.000000 0.000000 0.000000
# 2 -0.004114 0.010474 -0.003148 0.000000 0.000000 0.000000
# 3 -0.001661 -0.003148 0.008024 0.000000 0.000000 0.000000
# 4 0.000000 0.000000 0.000000 0.054586 0.000000 0.000000
# 5 0.000000 0.000000 0.000000 0.000000 -0.065343 0.000000
# 6 0.000000 0.000000 0.000000 0.000000 0.000000 0.039287
#
#
# Mechanical properties :
#
#
# Convention : Reuss Voigt Hill
#
# Bulk Modulus (GPa) = 67.13261 73.15573 70.14417
# Shear Modulus (GPa) = 59.46370 21.22984 40.34677
#
# Velocity S-wave (km/s) = 5.27721 3.15320 4.34693
# Velocity P-wave (km/s) = 8.28085 6.89335 7.61875
#
# Compressibility (1/GPa) = 0.01489589
#
# Stress axis : x y z
#
# Youngs Moduli (GPa) = 70.20048 95.47359 124.62863
#
# Poissons Ratio (x) = 0.39279 0.20704
# Poissons Ratio (y) = 0.28881 0.39234
# Poissons Ratio (z) = 0.11662 0.30056
#
# Static dielectric constant tensor:
#      x y z
#    x 3.537790 0.000000 0.000000 
#    y 0.000000 4.277580 0.000000 
#    z 0.000000 0.000000 4.377410 
# 
# 
# High freq. dielectric constant tensor:
#      x y z
#    x 1.818740 0.000000 0.000000 
#    y 0.000000 1.852740 0.000000 
#    z 0.000000 0.000000 1.841630 
# 
# From -- ./inp_files/5794.got.cif
#   From: 2010.03.12/outbox.cif.g09.slc.cpg/sg28_3_cif.got.tgz:5794.got - 2010.04.14 03:39:34.
