data_PCOD8168289
_publ_section_title
;
Structure prediction by ZEFSAII (Michael W. Deem and Ramdas Pophale) SiO2 
 PCOD8168289
Probable space group: P M A 2
;
_chemical_formula_sum "Si O2"
_cell_formula_units_Z 28
_cell_length_a 8.695866
_cell_length_b 9.291925
_cell_length_c 18.066450
_cell_angle_alpha 90.000000
_cell_angle_beta 90.000000
_cell_angle_gamma 90.000000
_cell_volume 1459.793273
_symmetry_space_group_name_H-M "P M A 2"
_symmetry_group_IT_number 28
_symmetry_cell_setting 'orthorhombic'
loop_
_space_group_symop_operation_xyz
x,y,z
-x,-y,z
1/2-x,y,z
1/2+x,-y,z
loop_
_atom_site_type_symbol
_atom_site_label
_atom_site_fract_x
_atom_site_fract_y
_atom_site_fract_z
Si Si1 0.570266 0.846297 0.401790
Si Si2 0.572400 0.655409 0.836972
Si Si3 0.931898 0.157899 0.129188
Si Si4 0.929449 0.658567 0.001063
Si Si5 0.931355 0.341799 0.692045
Si Si6 0.567726 0.155536 0.554702
Si Si7 0.069589 0.342565 0.260339
O O1 0.750000 0.868443 0.414838
O O2 0.495176 0.784092 0.476804
O O3 0.534073 0.732827 0.338057
O O4 0.500000 0.000000 0.379442
O O5 0.500000 0.500000 0.842941
O O6 0.750000 0.642374 0.816641
O O7 0.489062 0.736778 0.768265
O O8 0.547904 0.724554 0.918148
O O9 0.750000 0.146719 0.129873
O O10 0.986280 0.228388 0.052987
O O11 0.987056 0.254815 0.196498
O O12 0.000000 0.000000 0.137923
O O13 0.750000 0.647744 0.021456
O O14 0.000000 0.500000 0.010791
O O15 0.750000 0.349122 0.692949
O O16 0.991656 0.256087 0.620857
O O17 0.000000 0.500000 0.687469
O O18 0.750000 0.147706 0.551307
O O19 0.500000 0.000000 0.570379
O O20 0.250000 0.349722 0.243268
O O21 0.000000 0.500000 0.263434
#
# Coordination Sequence:
#
# PCOD8168289 Si02
#       7
#     4   4   4   4   4   4   4
#     4  10  21  37  59  83 109 144 183 224 273 327
#     4   9  17  30  52  79 108 143 181 224 273 324
#     4  12  25  41  61  84 113 149 186 227 275 329
#     4  10  20  36  58  85 114 146 186 230 278 329
#     4  10  20  33  52  79 109 143 183 227 274 324
#     4  10  21  36  55  79 108 144 184 225 272 326
#     4  11  24  41  61  87 116 147 184 227 275 325
#
# _framework density 19.180796999999998
#
# number of rings (size 3 to 8) (size 9 to 14) (size 15 to 20)
#    0.000    1.714    0.000    6.429    0.000    8.000 
#    0.000    3.571    0.000    1.714    0.000    0.000 
#    0.000    0.000    0.000    0.000    0.000    0.000 
#
# Total GULP energy -347161.701880 kJ/mol
# GULP energy per Si atom -12398.632210 kJ/mol
# Density = 1.913714 g / cm^3
# Si number density = 19.180797 Si / 1000 Ang^3
#
#
#
# Elastic Constant Matrix: (Units=GPa)
#
#
# Indices 1 2 3 4 5 6 
#
# 1 131.5850 50.1086 75.6451 0.0000 0.0000 0.0000
# 2 50.1086 98.1033 73.9510 0.0000 0.0000 0.0000
# 3 75.6451 73.9510 161.7557 0.0000 0.0000 0.0000
# 4 0.0000 0.0000 0.0000 -106.7029 0.0000 0.0000
# 5 0.0000 0.0000 0.0000 0.0000 36.9729 0.0000
# 6 0.0000 0.0000 0.0000 0.0000 0.0000 24.8995
#
#
#
# Elastic Compliance Matrix: (Units=1/GPa)
#
#
# Indices 1 2 3 4 5 6 
#
# 1 0.010815 -0.002612 -0.003864 0.000000 0.000000 0.000000
# 2 -0.002612 0.016184 -0.006178 0.000000 0.000000 0.000000
# 3 -0.003864 -0.006178 0.010813 0.000000 0.000000 0.000000
# 4 0.000000 0.000000 0.000000 -0.009372 0.000000 0.000000
# 5 0.000000 0.000000 0.000000 0.000000 0.027047 0.000000
# 6 0.000000 0.000000 0.000000 0.000000 0.000000 0.040161
#
#
# Mechanical properties :
#
#
# Convention : Reuss Voigt Hill
#
# Bulk Modulus (GPa) = 79.95794 87.87261 83.91528
# Shear Modulus (GPa) = 39.96021 3.81651 21.88836
#
# Velocity S-wave (km/s) = 4.56932 1.41212 3.38177
# Velocity P-wave (km/s) = 8.34357 6.96929 7.68720
#
# Compressibility (1/GPa) = 0.01250657
#
# Stress axis : x y z
#
# Youngs Moduli (GPa) = 92.46059 61.78930 92.47802
#
# Poissons Ratio (x) = 0.16137 0.35732
# Poissons Ratio (y) = 0.24147 0.57130
# Poissons Ratio (z) = 0.35726 0.38171
#
# Static dielectric constant tensor:
#      x y z
#    x 3.733070 0.000000 0.000000 
#    y 0.000000 3.454900 0.000000 
#    z 0.000000 0.000000 4.290010 
# 
# 
# High freq. dielectric constant tensor:
#      x y z
#    x 1.766530 0.000000 0.000000 
#    y 0.000000 1.721380 0.000000 
#    z 0.000000 0.000000 1.772010 
# 
# From -- ./inp_files/6724.got.cif
#   From: 2010.03.12/outbox.cif.g09.slc.cpg/sg28_4_cif.got.tgz:6724.got - 2010.04.14 03:39:34.
