data_PCOD8168939
_publ_section_title
;
Structure prediction by ZEFSAII (Michael W. Deem and Ramdas Pophale) SiO2 
 PCOD8168939
Probable space group: P C A 21
;
_chemical_formula_sum "Si O2"
_cell_formula_units_Z 20
_cell_length_a 9.457202
_cell_length_b 10.404988
_cell_length_c 9.146570
_cell_angle_alpha 90.000000
_cell_angle_beta 90.000000
_cell_angle_gamma 90.000000
_cell_volume 900.041452
_symmetry_space_group_name_H-M "P C A 21"
_symmetry_group_IT_number 29
_symmetry_cell_setting 'orthorhombic'
loop_
_space_group_symop_operation_xyz
x,y,z
-x,-y,1/2+z
1/2-x,y,1/2+z
1/2+x,-y,z
loop_
_atom_site_type_symbol
_atom_site_label
_atom_site_fract_x
_atom_site_fract_y
_atom_site_fract_z
Si Si1 0.018114 0.845277 0.337110
Si Si2 0.328013 0.235381 0.577251
Si Si3 0.219881 0.076576 0.341098
Si Si4 0.843764 0.504263 0.035048
Si Si5 0.608269 0.408998 0.207692
O O1 0.050135 0.734977 0.220641
O O2 0.977352 0.769447 0.488003
O O3 0.884200 0.931895 0.287136
O O4 0.154004 0.935786 0.347854
O O5 0.216682 0.135428 0.503511
O O6 0.359525 0.181272 0.738803
O O7 0.255859 0.373547 0.572733
O O8 0.862102 0.480017 0.862517
O O9 0.752340 0.393002 0.113981
O O10 0.994403 0.509605 0.114931
#
# Coordination Sequence:
#
# PCOD8168939 Si02
#       5
#     4   4   4   4   4
#     4  10  24  42  64 102 131 176 228 274 347 399
#     4  10  22  43  68  94 132 179 214 282 335 404
#     4  10  23  41  68  92 135 173 224 277 334 406
#     4  12  24  47  72 101 143 178 236 284 360 407
#     4  12  25  45  70 105 135 186 226 295 342 428
#
# _framework density 22.221198999999999
#
# number of rings (size 3 to 8) (size 9 to 14) (size 15 to 20)
#    1.200    0.000    2.000    4.800    2.800    1.600 
#   10.800    0.000    0.000    0.000    0.000    0.000 
#    0.000    0.000    0.000    0.000    0.000    0.000 
#
# Total GULP energy -247794.431835 kJ/mol
# GULP energy per Si atom -12389.721592 kJ/mol
# Density = 2.217062 g / cm^3
# Si number density = 22.221199 Si / 1000 Ang^3
#
#
#
# Elastic Constant Matrix: (Units=GPa)
#
#
# Indices 1 2 3 4 5 6 
#
# 1 112.6730 25.1217 30.4667 0.0000 0.0000 0.0000
# 2 25.1217 50.3546 7.3476 0.0000 0.0000 0.0000
# 3 30.4667 7.3476 94.4606 0.0000 0.0000 0.0000
# 4 0.0000 0.0000 0.0000 33.7057 0.0000 0.0000
# 5 0.0000 0.0000 0.0000 0.0000 39.9445 0.0000
# 6 0.0000 0.0000 0.0000 0.0000 0.0000 48.3474
#
#
#
# Elastic Compliance Matrix: (Units=1/GPa)
#
#
# Indices 1 2 3 4 5 6 
#
# 1 0.010817 -0.004944 -0.003104 0.000000 0.000000 0.000000
# 2 -0.004944 0.022346 -0.000144 0.000000 0.000000 0.000000
# 3 -0.003104 -0.000144 0.011599 0.000000 0.000000 0.000000
# 4 0.000000 0.000000 0.000000 0.029669 0.000000 0.000000
# 5 0.000000 0.000000 0.000000 0.000000 0.025035 0.000000
# 6 0.000000 0.000000 0.000000 0.000000 0.000000 0.020684
#
#
# Mechanical properties :
#
#
# Convention : Reuss Voigt Hill
#
# Bulk Modulus (GPa) = 35.23730 42.59559 38.91644
# Shear Modulus (GPa) = 34.24849 37.36967 35.80908
#
# Velocity S-wave (km/s) = 3.93014 4.10532 4.01868
# Velocity P-wave (km/s) = 6.04041 6.45616 6.25174
#
# Compressibility (1/GPa) = 0.02837902
#
# Stress axis : x y z
#
# Youngs Moduli (GPa) = 92.44843 44.74990 86.21552
#
# Poissons Ratio (x) = 0.22122 0.26764
# Poissons Ratio (y) = 0.45702 0.01239
# Poissons Ratio (z) = 0.28698 0.00643
#
# Static dielectric constant tensor:
#      x y z
#    x 4.037250 0.000000 0.000000 
#    y 0.000000 3.712260 0.000000 
#    z 0.000000 0.000000 3.956560 
# 
# 
# High freq. dielectric constant tensor:
#      x y z
#    x 1.872260 0.000000 0.000000 
#    y 0.000000 1.866930 0.000000 
#    z 0.000000 0.000000 1.876770 
# 
# From -- ./inp_files/1086.got.cif
#   From: 2010.03.12/outbox.cif.g09.slc.cpg/sg29_1_cif.got.tgz:1086.got - 2010.04.14 03:43:10.
