data_PCOD8168033
_publ_section_title
;
Structure prediction by ZEFSAII (Michael W. Deem and Ramdas Pophale) SiO2 
 PCOD8168033
Probable space group: P M A 2
;
_chemical_formula_sum "Si O2"
_cell_formula_units_Z 32
_cell_length_a 8.533676
_cell_length_b 14.188484
_cell_length_c 15.536308
_cell_angle_alpha 90.000000
_cell_angle_beta 90.000000
_cell_angle_gamma 90.000000
_cell_volume 1881.135013
_symmetry_space_group_name_H-M "P M A 2"
_symmetry_group_IT_number 28
_symmetry_cell_setting 'orthorhombic'
loop_
_space_group_symop_operation_xyz
x,y,z
-x,-y,z
1/2-x,y,z
1/2+x,-y,z
loop_
_atom_site_type_symbol
_atom_site_label
_atom_site_fract_x
_atom_site_fract_y
_atom_site_fract_z
Si Si1 0.431772 0.215446 0.133000
Si Si2 0.067263 0.896700 0.978080
Si Si3 0.934447 0.104271 0.628299
Si Si4 0.065270 0.104904 0.803649
Si Si5 0.066546 0.103018 0.306222
Si Si6 0.434486 0.401743 0.391294
Si Si7 0.433834 0.781003 0.462093
Si Si8 0.935616 0.399239 0.203266
O O1 0.250000 0.208947 0.108462
O O2 0.468743 0.162729 0.221531
O O3 0.484507 0.323309 0.141197
O O4 0.533582 0.169636 0.058282
O O5 0.250000 0.907356 0.963095
O O6 0.993172 0.847602 0.892465
O O7 0.000000 0.000000 0.997177
O O8 0.750000 0.095764 0.633518
O O9 0.988493 0.170646 0.550438
O O10 0.998134 0.152187 0.716580
O O11 0.000000 0.000000 0.612994
O O12 0.250000 0.106376 0.799511
O O13 0.000000 0.000000 0.806156
O O14 0.250000 0.099684 0.327870
O O15 0.975700 0.149590 0.384801
O O16 0.000000 0.000000 0.289968
O O17 0.500000 0.500000 0.429402
O O18 0.250000 0.409729 0.375402
O O19 0.473508 0.317633 0.456637
O O20 0.517489 0.378244 0.301380
O O21 0.250000 0.760108 0.461014
O O22 0.750000 0.395095 0.194039
O O23 0.000000 0.500000 0.173253
#
# Coordination Sequence:
#
# PCOD8168033 Si02
#       8
#     4   4   4   4   4   4   4   4
#     4  11  22  36  52  75 103 135 175 214 255 304
#     4  11  21  34  52  75 104 138 174 214 257 305
#     4  10  20  33  50  74 103 136 172 212 254 302
#     4  10  18  31  51  73  99 132 169 213 258 302
#     4  11  23  35  49  68 100 139 176 211 249 296
#     4  11  21  35  54  75 100 131 170 215 261 305
#     4  11  22  35  52  74 102 135 174 213 255 305
#     4  11  21  35  55  76 101 132 170 214 261 305
#
# _framework density 17.011005999999998
#
# number of rings (size 3 to 8) (size 9 to 14) (size 15 to 20)
#    0.000    1.250    1.250    9.000    0.000    5.500 
#    0.000    0.000    0.000    0.000    0.000    0.875 
#    0.000    4.000    0.000    0.000    0.000    0.000 
#
# Total GULP energy -396880.908075 kJ/mol
# GULP energy per Si atom -12402.528377 kJ/mol
# Density = 1.697229 g / cm^3
# Si number density = 17.011006 Si / 1000 Ang^3
#
#
#
# Elastic Constant Matrix: (Units=GPa)
#
#
# Indices 1 2 3 4 5 6 
#
# 1 61.1209 17.8204 22.6316 0.0000 0.0000 0.0000
# 2 17.8204 94.3903 36.8615 0.0000 0.0000 0.0000
# 3 22.6316 36.8615 96.9665 0.0000 0.0000 0.0000
# 4 0.0000 0.0000 0.0000 11.3820 0.0000 0.0000
# 5 0.0000 0.0000 0.0000 0.0000 26.3711 0.0000
# 6 0.0000 0.0000 0.0000 0.0000 0.0000 28.0702
#
#
#
# Elastic Compliance Matrix: (Units=1/GPa)
#
#
# Indices 1 2 3 4 5 6 
#
# 1 0.018254 -0.002093 -0.003465 0.000000 0.000000 0.000000
# 2 -0.002093 0.012681 -0.004332 0.000000 0.000000 0.000000
# 3 -0.003465 -0.004332 0.012768 0.000000 0.000000 0.000000
# 4 0.000000 0.000000 0.000000 0.087858 0.000000 0.000000
# 5 0.000000 0.000000 0.000000 0.000000 0.037920 0.000000
# 6 0.000000 0.000000 0.000000 0.000000 0.000000 0.035625
#
#
# Mechanical properties :
#
#
# Convention : Reuss Voigt Hill
#
# Bulk Modulus (GPa) = 41.79980 45.23385 43.51683
# Shear Modulus (GPa) = 21.47193 24.84227 23.15710
#
# Velocity S-wave (km/s) = 3.55665 3.82562 3.69358
# Velocity P-wave (km/s) = 6.44142 6.79430 6.62021
#
# Compressibility (1/GPa) = 0.02392356
#
# Stress axis : x y z
#
# Youngs Moduli (GPa) = 54.78184 78.85615 78.31858
#
# Poissons Ratio (x) = 0.16507 0.27135
# Poissons Ratio (y) = 0.11467 0.33929
# Poissons Ratio (z) = 0.18980 0.34162
#
# Static dielectric constant tensor:
#      x y z
#    x 3.339600 0.000000 0.000000 
#    y 0.000000 3.185830 0.000000 
#    z 0.000000 0.000000 3.511390 
# 
# 
# High freq. dielectric constant tensor:
#      x y z
#    x 1.680730 0.000000 0.000000 
#    y 0.000000 1.635700 0.000000 
#    z 0.000000 0.000000 1.648520 
# 
# From -- ./inp_files/6393.got.cif
#   From: 2010.03.12/outbox.cif.g09.slc.cpg/sg28_4_cif.got.tgz:6393.got - 2010.04.14 03:39:34.
