data_PCOD8168352
_publ_section_title
;
Structure prediction by ZEFSAII (Michael W. Deem and Ramdas Pophale) SiO2 
 PCOD8168352
Probable space group: P M A 2
;
_chemical_formula_sum "Si O2"
_cell_formula_units_Z 32
_cell_length_a 17.633507
_cell_length_b 10.099685
_cell_length_c 9.755137
_cell_angle_alpha 90.000000
_cell_angle_beta 90.000000
_cell_angle_gamma 90.000000
_cell_volume 1737.320308
_symmetry_space_group_name_H-M "P M A 2"
_symmetry_group_IT_number 28
_symmetry_cell_setting 'orthorhombic'
loop_
_space_group_symop_operation_xyz
x,y,z
-x,-y,z
1/2-x,y,z
1/2+x,-y,z
loop_
_atom_site_type_symbol
_atom_site_label
_atom_site_fract_x
_atom_site_fract_y
_atom_site_fract_z
Si Si1 0.336390 0.775073 0.202950
Si Si2 0.838535 0.745406 0.009218
Si Si3 0.410405 0.482762 0.507285
Si Si4 0.338296 0.763890 0.519097
Si Si5 0.911546 0.014785 0.013773
Si Si6 0.160355 0.261048 0.694896
Si Si7 0.161305 0.474340 0.221693
Si Si8 0.410340 0.985723 0.701964
O O1 0.250000 0.807755 0.165094
O O2 0.352297 0.804716 0.362037
O O3 0.355551 0.622573 0.170642
O O4 0.389339 0.864079 0.109685
O O5 0.750000 0.767019 0.020746
O O6 0.875723 0.878523 0.068173
O O7 0.862553 0.717039 0.853252
O O8 0.865335 0.622298 0.100794
O O9 0.500000 0.500000 0.516881
O O10 0.368136 0.617138 0.548609
O O11 0.384558 0.370300 0.611229
O O12 0.387519 0.437946 0.354747
O O13 0.250000 0.768741 0.557130
O O14 0.384761 0.862696 0.612699
O O15 0.885113 0.042655 0.858265
O O16 0.000000 0.000000 0.021624
O O17 0.250000 0.273208 0.669317
O O18 0.131807 0.116831 0.646953
O O19 0.250000 0.459118 0.259534
O O20 0.500000 0.000000 0.687988
#
# Coordination Sequence:
#
# PCOD8168352 Si02
#       8
#     4   4   4   4   4   4   4   4
#     4   9  19  35  54  76 104 136 175 220 264 312
#     4   9  19  35  55  78 105 137 178 223 264 310
#     4  11  22  36  55  81 111 143 177 220 270 320
#     4  10  21  37  55  78 107 141 181 225 267 315
#     4  10  21  35  53  79 111 142 174 214 264 318
#     4  10  20  36  56  79 107 142 182 223 265 317
#     4   9  19  37  57  79 106 137 177 224 266 314
#     4  10  21  37  55  80 111 142 178 223 270 318
#
# _framework density 18.419170999999999
#
# number of rings (size 3 to 8) (size 9 to 14) (size 15 to 20)
#    0.000    2.250    0.000    3.375    0.000    6.000 
#    0.000    3.125    0.000    0.000    0.000    0.000 
#    0.000    0.000    0.000    0.000    0.000    0.000 
#
# Total GULP energy -396903.652012 kJ/mol
# GULP energy per Si atom -12403.239125 kJ/mol
# Density = 1.837725 g / cm^3
# Si number density = 18.419171 Si / 1000 Ang^3
#
#
#
# Elastic Constant Matrix: (Units=GPa)
#
#
# Indices 1 2 3 4 5 6 
#
# 1 44.5960 13.2584 18.6100 0.0000 0.0000 0.0000
# 2 13.2584 87.5607 51.8679 0.0000 0.0000 0.0000
# 3 18.6100 51.8679 67.5483 0.0000 0.0000 0.0000
# 4 0.0000 0.0000 0.0000 18.8612 0.0000 0.0000
# 5 0.0000 0.0000 0.0000 0.0000 65.1271 0.0000
# 6 0.0000 0.0000 0.0000 0.0000 0.0000 28.0951
#
#
#
# Elastic Compliance Matrix: (Units=1/GPa)
#
#
# Indices 1 2 3 4 5 6 
#
# 1 0.025351 0.000548 -0.007405 0.000000 0.000000 0.000000
# 2 0.000548 0.020962 -0.016247 0.000000 0.000000 0.000000
# 3 -0.007405 -0.016247 0.029320 0.000000 0.000000 0.000000
# 4 0.000000 0.000000 0.000000 0.053019 0.000000 0.000000
# 5 0.000000 0.000000 0.000000 0.000000 0.015355 0.000000
# 6 0.000000 0.000000 0.000000 0.000000 0.000000 0.035593
#
#
# Mechanical properties :
#
#
# Convention : Reuss Voigt Hill
#
# Bulk Modulus (GPa) = 33.98536 40.79752 37.39144
# Shear Modulus (GPa) = 21.22111 30.14792 25.68451
#
# Velocity S-wave (km/s) = 3.39797 4.05009 3.73828
# Velocity P-wave (km/s) = 5.82118 6.63841 6.24318
#
# Compressibility (1/GPa) = 0.02942443
#
# Stress axis : x y z
#
# Youngs Moduli (GPa) = 39.44651 47.70631 34.10698
#
# Poissons Ratio (x) = -0.02614 0.25256
# Poissons Ratio (y) = -0.02161 0.55412
# Poissons Ratio (z) = 0.29210 0.77506
#
# Static dielectric constant tensor:
#      x y z
#    x 3.396190 0.000000 0.000000 
#    y 0.000000 3.472070 0.000000 
#    z 0.000000 0.000000 3.469160 
# 
# 
# High freq. dielectric constant tensor:
#      x y z
#    x 1.719690 0.000000 0.000000 
#    y 0.000000 1.722710 0.000000 
#    z 0.000000 0.000000 1.711790 
# 
# From -- ./inp_files/5640.got.cif
#   From: 2010.03.12/outbox.cif.g09.slc.cpg/sg28_3_cif.got.tgz:5640.got - 2010.04.14 03:39:34.
