data_PCOD8168561
_publ_section_title
;
Structure prediction by ZEFSAII (Michael W. Deem and Ramdas Pophale) SiO2 
 PCOD8168561
Probable space group: P C A 21
;
_chemical_formula_sum "Si O2"
_cell_formula_units_Z 28
_cell_length_a 5.497003
_cell_length_b 15.771587
_cell_length_c 13.105826
_cell_angle_alpha 90.000000
_cell_angle_beta 90.000000
_cell_angle_gamma 90.000000
_cell_volume 1136.228733
_symmetry_space_group_name_H-M "P C A 21"
_symmetry_group_IT_number 29
_symmetry_cell_setting 'orthorhombic'
loop_
_space_group_symop_operation_xyz
x,y,z
-x,-y,1/2+z
1/2-x,y,1/2+z
1/2+x,-y,z
loop_
_atom_site_type_symbol
_atom_site_label
_atom_site_fract_x
_atom_site_fract_y
_atom_site_fract_z
Si Si1 0.688420 0.313983 0.889430
Si Si2 0.020925 0.652977 0.569104
Si Si3 0.877121 0.037735 0.202901
Si Si4 0.131825 0.210643 0.528997
Si Si5 0.314390 0.027317 0.974842
Si Si6 0.460413 0.450567 0.758672
Si Si7 0.307989 0.782477 0.705235
O O1 0.481014 0.367051 0.829545
O O2 0.870354 0.266344 0.810173
O O3 0.839033 0.375890 0.965599
O O4 0.583351 0.235012 0.952529
O O5 0.949182 0.572327 0.638051
O O6 0.193915 0.711891 0.633912
O O7 0.791150 0.705622 0.532742
O O8 0.873044 0.138730 0.221623
O O9 0.632391 0.995601 0.252272
O O10 0.876763 0.019075 0.081820
O O11 0.258535 0.126048 0.486575
O O12 0.047207 0.186122 0.644685
O O13 0.581157 0.016791 0.917807
O O14 0.204672 0.495508 0.783416
#
# Coordination Sequence:
#
# PCOD8168561 Si02
#       7
#     4   4   4   4   4   4   4
#     4  10  26  44  67 107 140 181 230 289 355 430
#     4  10  24  43  72 100 135 181 235 279 355 429
#     4  10  18  33  59  89 125 178 236 284 336 388
#     4  11  22  40  70  96 141 193 238 294 350 419
#     4  10  19  34  61  93 129 184 240 289 341 390
#     4  11  28  50  77 105 140 179 223 284 356 433
#     4  10  21  40  64  94 136 186 234 287 349 413
#
# _framework density 24.642924000000001
#
# number of rings (size 3 to 8) (size 9 to 14) (size 15 to 20)
#    0.000    1.714    2.857    1.714   10.000    2.286 
#    0.000    1.429    0.000    0.000    0.000    0.000 
#    0.000    0.000    0.000    0.000    0.000    0.000 
#
# Total GULP energy -347019.788793 kJ/mol
# GULP energy per Si atom -12393.563885 kJ/mol
# Density = 2.458684 g / cm^3
# Si number density = 24.642924 Si / 1000 Ang^3
#
#
#
# Elastic Constant Matrix: (Units=GPa)
#
#
# Indices 1 2 3 4 5 6 
#
# 1 128.9004 4.7090 22.9128 0.0000 0.0000 0.0000
# 2 4.7090 53.1834 18.5940 0.0000 0.0000 0.0000
# 3 22.9128 18.5940 80.8845 0.0000 0.0000 0.0000
# 4 0.0000 0.0000 0.0000 -5.8801 0.0000 0.0000
# 5 0.0000 0.0000 0.0000 0.0000 55.5831 0.0000
# 6 0.0000 0.0000 0.0000 0.0000 0.0000 113.3407
#
#
#
# Elastic Compliance Matrix: (Units=1/GPa)
#
#
# Indices 1 2 3 4 5 6 
#
# 1 0.008170 0.000093 -0.002336 0.000000 0.000000 0.000000
# 2 0.000093 0.020447 -0.004727 0.000000 0.000000 0.000000
# 3 -0.002336 -0.004727 0.014112 0.000000 0.000000 0.000000
# 4 0.000000 0.000000 0.000000 -0.170064 0.000000 0.000000
# 5 0.000000 0.000000 0.000000 0.000000 0.017991 0.000000
# 6 0.000000 0.000000 0.000000 0.000000 0.000000 0.008823
#
#
# Mechanical properties :
#
#
# Convention : Reuss Voigt Hill
#
# Bulk Modulus (GPa) = 34.73454 39.48887 37.11171
# Shear Modulus (GPa) = -64.94687 47.05892 -8.94398
#
# Velocity S-wave (km/s) = -5.13930 4.37467 -1.90717
# Velocity P-wave (km/s) = 4.59247 6.44796 3.20043
#
# Compressibility (1/GPa) = 0.02878978
#
# Stress axis : x y z
#
# Youngs Moduli (GPa) = 122.40333 48.90639 70.86366
#
# Poissons Ratio (x) = -0.00456 0.16552
# Poissons Ratio (y) = -0.01141 0.33497
# Poissons Ratio (z) = 0.28590 0.23118
#
# Static dielectric constant tensor:
#      x y z
#    x 4.680420 0.000000 0.000000 
#    y 0.000000 4.304310 0.000000 
#    z 0.000000 0.000000 4.763350 
# 
# 
# High freq. dielectric constant tensor:
#      x y z
#    x 1.974460 0.000000 0.000000 
#    y 0.000000 1.967070 0.000000 
#    z 0.000000 0.000000 1.988210 
# 
# From -- ./inp_files/4050.got.cif
#   From: 2010.03.12/outbox.cif.g09.slc.cpg/sg29_3_cif.got.tgz:4050.got - 2010.04.14 03:43:10.
