data_PCOD8168457
_publ_section_title
;
Structure prediction by ZEFSAII (Michael W. Deem and Ramdas Pophale) SiO2 
 PCOD8168457
Probable space group: P M A 2
;
_chemical_formula_sum "Si O2"
_cell_formula_units_Z 32
_cell_length_a 8.634030
_cell_length_b 15.461737
_cell_length_c 11.912125
_cell_angle_alpha 90.000000
_cell_angle_beta 90.000000
_cell_angle_gamma 90.000000
_cell_volume 1590.234156
_symmetry_space_group_name_H-M "P M A 2"
_symmetry_group_IT_number 28
_symmetry_cell_setting 'orthorhombic'
loop_
_space_group_symop_operation_xyz
x,y,z
-x,-y,z
1/2-x,y,z
1/2+x,-y,z
loop_
_atom_site_type_symbol
_atom_site_label
_atom_site_fract_x
_atom_site_fract_y
_atom_site_fract_z
Si Si1 0.568157 0.090082 0.274240
Si Si2 0.434380 0.409991 0.813077
Si Si3 0.566151 0.748879 0.662090
Si Si4 0.071353 0.591325 0.278709
Si Si5 0.431624 0.151691 0.048070
Si Si6 0.933088 0.909143 0.804556
Si Si7 0.067094 0.249495 0.408550
Si Si8 0.571294 0.337803 0.035787
O O1 0.750000 0.087716 0.286201
O O2 0.524358 0.102836 0.144626
O O3 0.504796 0.167052 0.349069
O O4 0.500000 0.000000 0.319428
O O5 0.500000 0.500000 0.765021
O O6 0.250000 0.412518 0.824469
O O7 0.491662 0.335774 0.728134
O O8 0.509379 0.394933 0.934158
O O9 0.750000 0.750993 0.663736
O O10 0.500100 0.834068 0.724042
O O11 0.502911 0.746261 0.535510
O O12 0.250000 0.594884 0.314517
O O13 0.050831 0.604737 0.146328
O O14 0.000000 0.500000 0.313991
O O15 0.979559 0.664117 0.345257
O O16 0.250000 0.139215 0.069248
O O17 0.467860 0.252851 0.047782
O O18 0.486804 0.110102 0.931297
O O19 0.750000 0.911747 0.796930
O O20 0.000000 0.000000 0.762692
O O21 0.250000 0.239402 0.405900
O O22 0.750000 0.311439 0.017583
#
# Coordination Sequence:
#
# PCOD8168457 Si02
#       8
#     4   4   4   4   4   4   4   4
#     4  12  25  42  63  92 128 163 207 255 305 368
#     4  11  22  40  63  90 125 161 203 252 304 366
#     4   9  21  42  63  86 120 161 204 254 308 363
#     4  11  24  41  62  91 126 161 203 253 306 367
#     4  11  21  37  64  92 125 164 199 246 310 368
#     4  10  21  39  61  90 123 158 197 243 299 359
#     4  11  23  42  67  90 120 162 209 259 313 365
#     4  11  22  37  61  93 127 160 200 250 305 368
#
# _framework density 20.122821999999999
#
# number of rings (size 3 to 8) (size 9 to 14) (size 15 to 20)
#    0.000    1.250    2.500    3.750    0.000    5.500 
#    0.000    6.250    0.000    0.000    0.000    0.000 
#    0.000    0.000    0.000    0.000    0.000    0.000 
#
# Total GULP energy -396975.081610 kJ/mol
# GULP energy per Si atom -12405.471300 kJ/mol
# Density = 2.007702 g / cm^3
# Si number density = 20.122822 Si / 1000 Ang^3
#
#
#
# Elastic Constant Matrix: (Units=GPa)
#
#
# Indices 1 2 3 4 5 6 
#
# 1 81.1621 42.1899 49.5686 0.0000 0.0000 0.0000
# 2 42.1899 174.6452 65.6157 0.0000 0.0000 0.0000
# 3 49.5686 65.6157 136.2951 0.0000 0.0000 0.0000
# 4 0.0000 0.0000 0.0000 -2.7206 0.0000 0.0000
# 5 0.0000 0.0000 0.0000 0.0000 3.2621 0.0000
# 6 0.0000 0.0000 0.0000 0.0000 0.0000 38.6164
#
#
#
# Elastic Compliance Matrix: (Units=1/GPa)
#
#
# Indices 1 2 3 4 5 6 
#
# 1 0.016451 -0.002107 -0.004968 0.000000 0.000000 0.000000
# 2 -0.002107 0.007260 -0.002729 0.000000 0.000000 0.000000
# 3 -0.004968 -0.002729 0.010458 0.000000 0.000000 0.000000
# 4 0.000000 0.000000 0.000000 -0.367564 0.000000 0.000000
# 5 0.000000 0.000000 0.000000 0.000000 0.306549 0.000000
# 6 0.000000 0.000000 0.000000 0.000000 0.000000 0.025896
#
#
# Mechanical properties :
#
#
# Convention : Reuss Voigt Hill
#
# Bulk Modulus (GPa) = 68.68360 78.53899 73.61129
# Shear Modulus (GPa) = 212.65798 23.48013 118.06905
#
# Velocity S-wave (km/s) = 10.29123 3.41961 7.66822
# Velocity P-wave (km/s) = 13.24458 7.39636 10.72672
#
# Compressibility (1/GPa) = 0.01455952
#
# Stress axis : x y z
#
# Youngs Moduli (GPa) = 60.78695 137.73656 95.62364
#
# Poissons Ratio (x) = 0.29027 0.47509
# Poissons Ratio (y) = 0.12811 0.26094
# Poissons Ratio (z) = 0.30201 0.37586
#
# Static dielectric constant tensor:
#      x y z
#    x 3.594950 0.000000 0.000000 
#    y 0.000000 3.584740 0.000000 
#    z 0.000000 0.000000 3.838030 
# 
# 
# High freq. dielectric constant tensor:
#      x y z
#    x 1.782920 0.000000 0.000000 
#    y 0.000000 1.802460 0.000000 
#    z 0.000000 0.000000 1.784770 
# 
# From -- ./inp_files/5069.got.cif
#   From: 2010.03.12/outbox.cif.g09.slc.cpg/sg28_3_cif.got.tgz:5069.got - 2010.04.14 03:39:34.
