data_PCOD8168369
_publ_section_title
;
Structure prediction by ZEFSAII (Michael W. Deem and Ramdas Pophale) SiO2 
 PCOD8168369
Probable space group: P M A 2
;
_chemical_formula_sum "Si O2"
_cell_formula_units_Z 32
_cell_length_a 15.563695
_cell_length_b 8.693399
_cell_length_c 11.851831
_cell_angle_alpha 90.000000
_cell_angle_beta 90.000000
_cell_angle_gamma 90.000000
_cell_volume 1603.569452
_symmetry_space_group_name_H-M "P M A 2"
_symmetry_group_IT_number 28
_symmetry_cell_setting 'orthorhombic'
loop_
_space_group_symop_operation_xyz
x,y,z
-x,-y,z
1/2-x,y,z
1/2+x,-y,z
loop_
_atom_site_type_symbol
_atom_site_label
_atom_site_fract_x
_atom_site_fract_y
_atom_site_fract_z
Si Si1 0.919026 0.610944 0.482710
Si Si2 0.648145 0.150515 0.674257
Si Si3 0.350299 0.820593 0.924410
Si Si4 0.346543 0.181504 0.932871
Si Si5 0.999353 0.320116 0.069013
Si Si6 0.847853 0.810026 0.672743
Si Si7 0.845317 0.309672 0.449590
Si Si8 0.494469 0.819432 0.311536
O O1 0.903281 0.689239 0.602646
O O2 0.842281 0.495824 0.446465
O O3 0.931464 0.739135 0.386309
O O4 0.000000 0.500000 0.493331
O O5 0.750000 0.135299 0.681257
O O6 0.618996 0.216541 0.795945
O O7 0.616906 0.258625 0.572253
O O8 0.611564 0.979194 0.653469
O O9 0.250000 0.776227 0.944284
O O10 0.365105 0.000792 0.947814
O O11 0.410819 0.721972 0.005928
O O12 0.250000 0.218246 0.977231
O O13 0.353358 0.233274 0.803442
O O14 0.416158 0.280871 0.998220
O O15 0.000000 0.500000 0.097572
O O16 0.006780 0.222642 0.182306
O O17 0.750000 0.802835 0.629033
O O18 0.750000 0.244147 0.432755
O O19 0.901094 0.238664 0.349805
O O20 0.500000 0.000000 0.328899
#
# Coordination Sequence:
#
# PCOD8168369 Si02
#       8
#     4   4   4   4   4   4   4   4
#     4  10  21  35  53  82 116 148 182 228 286 339
#     4   8  16  32  56  86 116 148 186 227 273 331
#     4   9  19  38  63  88 116 152 194 236 278 332
#     4   9  20  39  61  86 116 152 195 238 278 331
#     4  12  25  40  59  84 116 151 189 239 294 343
#     4   9  17  33  57  84 114 147 188 232 274 329
#     4  10  20  36  59  86 118 150 182 227 285 342
#     4  11  24  43  61  78 107 148 196 241 278 331
#
# _framework density 19.955480000000001
#
# number of rings (size 3 to 8) (size 9 to 14) (size 15 to 20)
#    0.000    2.250    0.000    4.875    0.000    4.500 
#    0.000    8.750    0.000    0.000    0.000    0.000 
#    0.000    0.000    0.000    0.000    0.000    0.000 
#
# Total GULP energy -396748.317096 kJ/mol
# GULP energy per Si atom -12398.384909 kJ/mol
# Density = 1.991006 g / cm^3
# Si number density = 19.955480 Si / 1000 Ang^3
#
#
#
# Elastic Constant Matrix: (Units=GPa)
#
#
# Indices 1 2 3 4 5 6 
#
# 1 70.8341 25.6555 32.2198 0.0000 0.0000 0.0000
# 2 25.6555 114.2180 44.9272 0.0000 0.0000 0.0000
# 3 32.2198 44.9272 93.7043 0.0000 0.0000 0.0000
# 4 0.0000 0.0000 0.0000 26.8167 0.0000 0.0000
# 5 0.0000 0.0000 0.0000 0.0000 23.9165 0.0000
# 6 0.0000 0.0000 0.0000 0.0000 0.0000 25.5937
#
#
#
# Elastic Compliance Matrix: (Units=1/GPa)
#
#
# Indices 1 2 3 4 5 6 
#
# 1 0.017056 -0.001879 -0.004964 0.000000 0.000000 0.000000
# 2 -0.001879 0.010997 -0.004627 0.000000 0.000000 0.000000
# 3 -0.004964 -0.004627 0.014597 0.000000 0.000000 0.000000
# 4 0.000000 0.000000 0.000000 0.037290 0.000000 0.000000
# 5 0.000000 0.000000 0.000000 0.000000 0.041812 0.000000
# 6 0.000000 0.000000 0.000000 0.000000 0.000000 0.039072
#
#
# Mechanical properties :
#
#
# Convention : Reuss Voigt Hill
#
# Bulk Modulus (GPa) = 50.73156 53.81795 52.27475
# Shear Modulus (GPa) = 26.26975 26.99563 26.63269
#
# Velocity S-wave (km/s) = 3.63218 3.68202 3.65719
# Velocity P-wave (km/s) = 6.56261 6.71595 6.63972
#
# Compressibility (1/GPa) = 0.01971160
#
# Stress axis : x y z
#
# Youngs Moduli (GPa) = 58.63120 90.93371 68.50735
#
# Poissons Ratio (x) = 0.17082 0.34006
# Poissons Ratio (y) = 0.11014 0.31696
# Poissons Ratio (z) = 0.29104 0.42072
#
# Static dielectric constant tensor:
#      x y z
#    x 3.672890 0.000000 0.000000 
#    y 0.000000 3.808860 0.000000 
#    z 0.000000 0.000000 3.594560 
# 
# 
# High freq. dielectric constant tensor:
#      x y z
#    x 1.776320 0.000000 0.000000 
#    y 0.000000 1.778970 0.000000 
#    z 0.000000 0.000000 1.773440 
# 
# From -- ./inp_files/5582.got.cif
#   From: 2010.03.12/outbox.cif.g09.slc.cpg/sg28_3_cif.got.tgz:5582.got - 2010.04.14 03:39:34.
