data_PCOD8168607
_publ_section_title
;
Structure prediction by ZEFSAII (Michael W. Deem and Ramdas Pophale) SiO2 
 PCOD8168607
Probable space group: P C A 21
;
_chemical_formula_sum "Si O2"
_cell_formula_units_Z 32
_cell_length_a 25.751581
_cell_length_b 10.906538
_cell_length_c 5.205882
_cell_angle_alpha 90.000000
_cell_angle_beta 90.000000
_cell_angle_gamma 90.000000
_cell_volume 1462.127125
_symmetry_space_group_name_H-M "P C A 21"
_symmetry_group_IT_number 29
_symmetry_cell_setting 'orthorhombic'
loop_
_space_group_symop_operation_xyz
x,y,z
-x,-y,1/2+z
1/2-x,y,1/2+z
1/2+x,-y,z
loop_
_atom_site_type_symbol
_atom_site_label
_atom_site_fract_x
_atom_site_fract_y
_atom_site_fract_z
Si Si1 0.607776 0.601763 0.974430
Si Si2 0.313398 0.770937 0.497981
Si Si3 0.364309 0.855876 0.997702
Si Si4 0.733255 0.998915 0.498075
Si Si5 0.780048 0.504325 0.483607
Si Si6 0.019521 0.557984 0.067530
Si Si7 0.434554 0.272148 0.974536
Si Si8 0.034942 0.005022 0.519453
O O1 0.667438 0.578764 0.022390
O O2 0.579611 0.467434 0.995653
O O3 0.598812 0.660198 0.694124
O O4 0.585544 0.692074 0.192470
O O5 0.351283 0.778245 0.744043
O O6 0.268106 0.874459 0.500684
O O7 0.285210 0.641692 0.497213
O O8 0.350667 0.778655 0.250623
O O9 0.327919 0.977104 0.996560
O O10 0.424739 0.892371 0.998607
O O11 0.749673 0.921357 0.748638
O O12 0.742551 0.546235 0.711712
O O13 0.987808 0.468308 0.871016
O O14 0.996141 0.692448 0.006723
O O15 0.430445 0.127082 0.002407
O O16 0.993517 0.999184 0.291918
#
# Coordination Sequence:
#
# PCOD8168607 Si02
#       8
#     4   4   4   4   4   4   4   4
#     4  10  21  38  63  86 115 162 200 239 300 363
#     4  10  19  35  57  86 121 153 188 247 308 358
#     4  10  20  35  56  82 116 157 197 238 297 370
#     4   8  14  27  49  73 104 139 175 222 282 335
#     4  12  23  37  60  96 132 162 196 243 301 365
#     4   8  16  32  57  85 110 146 197 241 290 353
#     4  10  21  42  61  82 119 156 198 256 300 349
#     4  12  26  42  61  90 121 159 205 256 310 357
#
# _framework density 21.885922000000001
#
# number of rings (size 3 to 8) (size 9 to 14) (size 15 to 20)
#    0.000    2.000    0.000    5.250    0.000    2.000 
#    0.000    5.000    0.000   13.500    0.000    0.000 
#    0.000    0.000    0.000    0.000    0.000    0.000 
#
# Total GULP energy -396563.036620 kJ/mol
# GULP energy per Si atom -12392.594894 kJ/mol
# Density = 2.183611 g / cm^3
# Si number density = 21.885922 Si / 1000 Ang^3
#
#
#
# Elastic Constant Matrix: (Units=GPa)
#
#
# Indices 1 2 3 4 5 6 
#
# 1 91.8665 15.4650 20.6779 0.0000 0.0000 0.0000
# 2 15.4650 38.6732 3.7562 0.0000 0.0000 0.0000
# 3 20.6779 3.7562 157.7269 0.0000 0.0000 0.0000
# 4 0.0000 0.0000 0.0000 17.3329 0.0000 0.0000
# 5 0.0000 0.0000 0.0000 0.0000 36.3178 0.0000
# 6 0.0000 0.0000 0.0000 0.0000 0.0000 23.0923
#
#
#
# Elastic Compliance Matrix: (Units=1/GPa)
#
#
# Indices 1 2 3 4 5 6 
#
# 1 0.011998 -0.004656 -0.001462 0.000000 0.000000 0.000000
# 2 -0.004656 0.027724 -0.000050 0.000000 0.000000 0.000000
# 3 -0.001462 -0.000050 0.006533 0.000000 0.000000 0.000000
# 4 0.000000 0.000000 0.000000 0.057694 0.000000 0.000000
# 5 0.000000 0.000000 0.000000 0.000000 0.027535 0.000000
# 6 0.000000 0.000000 0.000000 0.000000 0.000000 0.043304
#
#
# Mechanical properties :
#
#
# Convention : Reuss Voigt Hill
#
# Bulk Modulus (GPa) = 29.48131 40.89611 35.18871
# Shear Modulus (GPa) = 25.19769 31.90643 28.55206
#
# Velocity S-wave (km/s) = 3.39679 3.82233 3.61582
# Velocity P-wave (km/s) = 5.37438 6.18117 5.79184
#
# Compressibility (1/GPa) = 0.03391980
#
# Stress axis : x y z
#
# Youngs Moduli (GPa) = 83.34551 36.06930 153.07051
#
# Poissons Ratio (x) = 0.16794 0.22380
# Poissons Ratio (y) = 0.38805 0.00763
# Poissons Ratio (z) = 0.12186 0.00180
#
# Static dielectric constant tensor:
#      x y z
#    x 3.847030 0.000000 0.000000 
#    y 0.000000 3.431800 0.000000 
#    z 0.000000 0.000000 5.033670 
# 
# 
# High freq. dielectric constant tensor:
#      x y z
#    x 1.857540 0.000000 0.000000 
#    y 0.000000 1.807760 0.000000 
#    z 0.000000 0.000000 1.894770 
# 
# From -- ./inp_files/705.got.cif
#   From: 2010.03.12/outbox.cif.g09.slc.cpg/sg29_1_cif.got.tgz:705.got - 2010.04.14 03:43:10.
