data_PCOD8168960
_publ_section_title
;
Structure prediction by ZEFSAII (Michael W. Deem and Ramdas Pophale) SiO2 
 PCOD8168960
Probable space group: P C A 21
;
_chemical_formula_sum "Si O2"
_cell_formula_units_Z 28
_cell_length_a 12.186122
_cell_length_b 6.032155
_cell_length_c 16.001014
_cell_angle_alpha 90.000000
_cell_angle_beta 90.000000
_cell_angle_gamma 90.000000
_cell_volume 1176.211766
_symmetry_space_group_name_H-M "P C A 21"
_symmetry_group_IT_number 29
_symmetry_cell_setting 'orthorhombic'
loop_
_space_group_symop_operation_xyz
x,y,z
-x,-y,1/2+z
1/2-x,y,1/2+z
1/2+x,-y,z
loop_
_atom_site_type_symbol
_atom_site_label
_atom_site_fract_x
_atom_site_fract_y
_atom_site_fract_z
Si Si1 0.030738 0.619178 0.132640
Si Si2 0.294980 0.932871 0.555997
Si Si3 0.065925 0.856210 0.295307
Si Si4 0.771182 0.489770 0.852460
Si Si5 0.613374 0.428203 0.512607
Si Si6 0.166036 0.234752 0.199199
Si Si7 0.593543 0.745745 0.935050
O O1 0.094259 0.800563 0.077475
O O2 0.013862 0.688843 0.228201
O O3 0.102816 0.395109 0.135890
O O4 0.907569 0.587382 0.092904
O O5 0.198098 0.765806 0.533215
O O6 0.261408 0.074137 0.639075
O O7 0.316641 0.090628 0.476161
O O8 0.185032 0.757120 0.327690
O O9 0.977387 0.882595 0.367987
O O10 0.080162 0.093642 0.253845
O O11 0.764429 0.638344 0.769443
O O12 0.651667 0.525768 0.894469
O O13 0.854541 0.561840 0.928225
O O14 0.489715 0.336288 0.505163
#
# Coordination Sequence:
#
# PCOD8168960 Si02
#       7
#     4   4   4   4   4   4   4
#     4  10  22  45  67 104 139 178 236 285 344 421
#     4  11  25  43  72 100 142 181 235 290 350 419
#     4   9  23  43  70 101 136 183 230 285 351 420
#     4  10  24  43  68  99 142 177 232 287 347 418
#     4  11  24  43  72 101 138 185 230 288 356 413
#     4  10  22  46  69 102 141 180 238 288 350 428
#     4  11  24  45  68 103 138 182 231 283 354 419
#
# _framework density 23.805237000000002
#
# number of rings (size 3 to 8) (size 9 to 14) (size 15 to 20)
#    0.000    1.714    1.429    0.857    6.000    4.571 
#    2.571    0.000    0.000    0.000    0.000    0.000 
#    0.000    0.000    0.000    0.000    0.000    0.000 
#
# Total GULP energy -346885.267155 kJ/mol
# GULP energy per Si atom -12388.759541 kJ/mol
# Density = 2.375106 g / cm^3
# Si number density = 23.805237 Si / 1000 Ang^3
#
#
#
# Elastic Constant Matrix: (Units=GPa)
#
#
# Indices 1 2 3 4 5 6 
#
# 1 69.2952 13.8958 30.2947 0.0000 0.0000 0.0000
# 2 13.8958 62.8100 23.5089 0.0000 0.0000 0.0000
# 3 30.2947 23.5089 124.5741 0.0000 0.0000 0.0000
# 4 0.0000 0.0000 0.0000 27.2962 0.0000 0.0000
# 5 0.0000 0.0000 0.0000 0.0000 36.5397 0.0000
# 6 0.0000 0.0000 0.0000 0.0000 0.0000 27.0980
#
#
#
# Elastic Compliance Matrix: (Units=1/GPa)
#
#
# Indices 1 2 3 4 5 6 
#
# 1 0.016452 -0.002305 -0.003566 0.000000 0.000000 0.000000
# 2 -0.002305 0.017454 -0.002733 0.000000 0.000000 0.000000
# 3 -0.003566 -0.002733 0.009410 0.000000 0.000000 0.000000
# 4 0.000000 0.000000 0.000000 0.036635 0.000000 0.000000
# 5 0.000000 0.000000 0.000000 0.000000 0.027367 0.000000
# 6 0.000000 0.000000 0.000000 0.000000 0.000000 0.036903
#
#
# Mechanical properties :
#
#
# Convention : Reuss Voigt Hill
#
# Bulk Modulus (GPa) = 38.30250 43.56423 40.93337
# Shear Modulus (GPa) = 29.38867 30.78544 30.08706
#
# Velocity S-wave (km/s) = 3.51742 3.60004 3.55897
# Velocity P-wave (km/s) = 5.71150 5.96828 5.84130
#
# Compressibility (1/GPa) = 0.02610795
#
# Stress axis : x y z
#
# Youngs Moduli (GPa) = 60.78206 57.29340 106.26609
#
# Poissons Ratio (x) = 0.13207 0.37894
# Poissons Ratio (y) = 0.14011 0.29045
# Poissons Ratio (z) = 0.21675 0.15660
#
# Static dielectric constant tensor:
#      x y z
#    x 3.941920 0.000000 0.000000 
#    y 0.000000 4.237200 0.000000 
#    z 0.000000 0.000000 4.655580 
# 
# 
# High freq. dielectric constant tensor:
#      x y z
#    x 1.916170 0.000000 0.000000 
#    y 0.000000 1.927410 0.000000 
#    z 0.000000 0.000000 1.979740 
# 
# From -- ./inp_files/5122.got.cif
#   From: 2010.03.12/outbox.cif.g09.slc.cpg/sg29_3_cif.got.tgz:5122.got - 2010.04.14 03:43:10.
