data_PCOD8168820
_publ_section_title
;
Structure prediction by ZEFSAII (Michael W. Deem and Ramdas Pophale) SiO2 
 PCOD8168820
Probable space group: P C A 21
;
_chemical_formula_sum "Si O2"
_cell_formula_units_Z 24
_cell_length_a 13.743121
_cell_length_b 8.450698
_cell_length_c 8.976578
_cell_angle_alpha 90.000000
_cell_angle_beta 90.000000
_cell_angle_gamma 90.000000
_cell_volume 1042.530479
_symmetry_space_group_name_H-M "P C A 21"
_symmetry_group_IT_number 29
_symmetry_cell_setting 'orthorhombic'
loop_
_space_group_symop_operation_xyz
x,y,z
-x,-y,1/2+z
1/2-x,y,1/2+z
1/2+x,-y,z
loop_
_atom_site_type_symbol
_atom_site_label
_atom_site_fract_x
_atom_site_fract_y
_atom_site_fract_z
Si Si1 0.363769 0.804948 0.422750
Si Si2 0.726144 0.327470 0.206081
Si Si3 0.555674 0.142090 0.352880
Si Si4 0.361176 0.172531 0.475200
Si Si5 0.734608 0.692872 0.702780
Si Si6 0.554385 0.851516 0.554216
O O1 0.287874 0.737946 0.541901
O O2 0.330209 0.737782 0.263426
O O3 0.474771 0.752067 0.457768
O O4 0.358375 0.993051 0.422094
O O5 0.641235 0.265360 0.316941
O O6 0.729723 0.514675 0.192420
O O7 0.471819 0.232700 0.449204
O O8 0.595952 0.995221 0.452410
O O9 0.505488 0.080003 0.198066
O O10 0.284994 0.270565 0.374570
O O11 0.324665 0.198649 0.644106
O O12 0.639069 0.733054 0.604279
#
# Coordination Sequence:
#
# PCOD8168820 Si02
#       6
#     4   4   4   4   4   4
#     4  10  21  40  65  90 120 164 214 257 303 370
#     4  11  22  39  61  92 129 162 201 259 321 375
#     4   9  20  39  64  92 122 162 214 260 305 369
#     4  10  21  40  65  90 120 164 214 257 303 370
#     4  11  22  39  61  92 129 162 201 259 321 375
#     4   9  20  39  64  92 122 162 214 260 305 369
#
# _framework density 23.020910000000001
#
# number of rings (size 3 to 8) (size 9 to 14) (size 15 to 20)
#    0.000    2.000    0.000    3.000    0.000    5.333 
#    0.000   20.000    0.000    0.000    0.000    0.000 
#    0.000    0.000    0.000    0.000    0.000    0.000 
#
# Total GULP energy -297491.670555 kJ/mol
# GULP energy per Si atom -12395.486273 kJ/mol
# Density = 2.296851 g / cm^3
# Si number density = 23.020910 Si / 1000 Ang^3
#
#
#
# Elastic Constant Matrix: (Units=GPa)
#
#
# Indices 1 2 3 4 5 6 
#
# 1 76.9034 29.3044 21.6074 0.0000 0.0000 0.0000
# 2 29.3044 63.6850 28.5080 0.0000 0.0000 0.0000
# 3 21.6074 28.5080 37.5117 0.0000 0.0000 0.0000
# 4 0.0000 0.0000 0.0000 28.2965 0.0000 0.0000
# 5 0.0000 0.0000 0.0000 0.0000 46.6740 0.0000
# 6 0.0000 0.0000 0.0000 0.0000 0.0000 25.8543
#
#
#
# Elastic Compliance Matrix: (Units=1/GPa)
#
#
# Indices 1 2 3 4 5 6 
#
# 1 0.016527 -0.005067 -0.005669 0.000000 0.000000 0.000000
# 2 -0.005067 0.025352 -0.016348 0.000000 0.000000 0.000000
# 3 -0.005669 -0.016348 0.042348 0.000000 0.000000 0.000000
# 4 0.000000 0.000000 0.000000 0.035340 0.000000 0.000000
# 5 0.000000 0.000000 0.000000 0.000000 0.021425 0.000000
# 6 0.000000 0.000000 0.000000 0.000000 0.000000 0.038678
#
#
# Mechanical properties :
#
#
# Convention : Reuss Voigt Hill
#
# Bulk Modulus (GPa) = 33.26845 37.43773 35.35309
# Shear Modulus (GPa) = 20.50369 26.74364 23.62367
#
# Velocity S-wave (km/s) = 2.98762 3.41209 3.20688
# Velocity P-wave (km/s) = 5.13653 5.64100 5.39467
#
# Compressibility (1/GPa) = 0.03005851
#
# Stress axis : x y z
#
# Youngs Moduli (GPa) = 60.50718 39.44456 23.61389
#
# Poissons Ratio (x) = 0.19987 0.13386
# Poissons Ratio (y) = 0.30660 0.38604
# Poissons Ratio (z) = 0.34301 0.64485
#
# Static dielectric constant tensor:
#      x y z
#    x 4.597610 0.000000 0.000000 
#    y 0.000000 3.702010 0.000000 
#    z 0.000000 0.000000 4.480760 
# 
# 
# High freq. dielectric constant tensor:
#      x y z
#    x 1.920520 0.000000 0.000000 
#    y 0.000000 1.874410 0.000000 
#    z 0.000000 0.000000 1.922760 
# 
# From -- ./inp_files/1715.got.cif
#   From: 2010.03.12/outbox.cif.g09.slc.cpg/sg29_1_cif.got.tgz:1715.got - 2010.04.14 03:43:10.
