data_PCOD8168092
_publ_section_title
;
Structure prediction by ZEFSAII (Michael W. Deem and Ramdas Pophale) SiO2 
 PCOD8168092
Probable space group: P M A 2
;
_chemical_formula_sum "Si O2"
_cell_formula_units_Z 28
_cell_length_a 8.966075
_cell_length_b 15.222980
_cell_length_c 12.547706
_cell_angle_alpha 90.000000
_cell_angle_beta 90.000000
_cell_angle_gamma 90.000000
_cell_volume 1712.641165
_symmetry_space_group_name_H-M "P M A 2"
_symmetry_group_IT_number 28
_symmetry_cell_setting 'orthorhombic'
loop_
_space_group_symop_operation_xyz
x,y,z
-x,-y,z
1/2-x,y,z
1/2+x,-y,z
loop_
_atom_site_type_symbol
_atom_site_label
_atom_site_fract_x
_atom_site_fract_y
_atom_site_fract_z
Si Si1 0.916974 0.585401 0.786410
Si Si2 0.075946 0.094409 0.388312
Si Si3 0.074359 0.763440 0.534852
Si Si4 0.576861 0.240330 0.780217
Si Si5 0.426204 0.905203 0.947692
Si Si6 0.923275 0.906520 0.152842
Si Si7 0.918731 0.586248 0.532645
O O1 0.750000 0.583707 0.830845
O O2 0.920726 0.582497 0.659433
O O3 0.000000 0.500000 0.833335
O O4 0.993398 0.674609 0.826834
O O5 0.250000 0.083940 0.415489
O O6 0.055297 0.136791 0.269580
O O7 0.998891 0.157368 0.472033
O O8 0.000000 0.000000 0.397272
O O9 0.250000 0.762144 0.515126
O O10 0.032974 0.778436 0.658269
O O11 0.006756 0.671951 0.492529
O O12 0.750000 0.261936 0.790373
O O13 0.530646 0.155337 0.847783
O O14 0.250000 0.916046 0.959653
O O15 0.500000 0.000000 0.928434
O O16 0.492975 0.857946 0.054714
O O17 0.750000 0.916406 0.124161
O O18 0.000000 0.000000 0.159390
O O19 0.750000 0.589581 0.489034
O O20 0.000000 0.500000 0.485802
#
# Coordination Sequence:
#
# PCOD8168092 Si02
#       7
#     4   4   4   4   4   4   4
#     4   9  16  26  43  64  87 117 150 186 224 263
#     4  10  20  33  48  67  91 119 152 190 229 269
#     4  10  19  31  46  66  94 125 155 186 223 269
#     4   9  19  32  44  64  94 124 153 185 221 265
#     4  10  19  31  47  66  90 119 151 188 226 265
#     4   9  17  30  48  67  86 110 146 191 231 266
#     4   9  16  27  43  64  89 118 152 188 226 265
#
# _framework density 16.349018999999998
#
# number of rings (size 3 to 8) (size 9 to 14) (size 15 to 20)
#    0.000    2.571    0.000    3.429    0.000    7.429 
#    0.000    1.429    0.000    0.000    0.000    1.000 
#    0.000    2.286    0.000    0.000    0.000    0.000 
#
# Total GULP energy -347072.561520 kJ/mol
# GULP energy per Si atom -12395.448626 kJ/mol
# Density = 1.631181 g / cm^3
# Si number density = 16.349019 Si / 1000 Ang^3
#
#
#
# Elastic Constant Matrix: (Units=GPa)
#
#
# Indices 1 2 3 4 5 6 
#
# 1 121.2060 66.8403 48.9894 0.0000 0.0000 0.0000
# 2 66.8403 117.0384 54.7242 0.0000 0.0000 0.0000
# 3 48.9894 54.7242 69.8388 0.0000 0.0000 0.0000
# 4 0.0000 0.0000 0.0000 0.4087 0.0000 0.0000
# 5 0.0000 0.0000 0.0000 0.0000 10.5622 0.0000
# 6 0.0000 0.0000 0.0000 0.0000 0.0000 32.3909
#
#
#
# Elastic Compliance Matrix: (Units=1/GPa)
#
#
# Indices 1 2 3 4 5 6 
#
# 1 0.013171 -0.005054 -0.005279 0.000000 0.000000 0.000000
# 2 -0.005054 0.015424 -0.008541 0.000000 0.000000 0.000000
# 3 -0.005279 -0.008541 0.024714 0.000000 0.000000 0.000000
# 4 0.000000 0.000000 0.000000 2.446779 0.000000 0.000000
# 5 0.000000 0.000000 0.000000 0.000000 0.094677 0.000000
# 6 0.000000 0.000000 0.000000 0.000000 0.000000 0.030873
#
#
# Mechanical properties :
#
#
# Convention : Reuss Voigt Hill
#
# Bulk Modulus (GPa) = 64.25933 72.13234 68.19584
# Shear Modulus (GPa) = 1.87366 17.84098 9.85732
#
# Velocity S-wave (km/s) = 1.07169 3.30700 2.45813
# Velocity P-wave (km/s) = 6.39698 7.66797 7.06113
#
# Compressibility (1/GPa) = 0.01556194
#
# Stress axis : x y z
#
# Youngs Moduli (GPa) = 75.92466 64.83508 40.46254
#
# Poissons Ratio (x) = 0.32765 0.21361
# Poissons Ratio (y) = 0.38369 0.34558
# Poissons Ratio (z) = 0.40081 0.55375
#
# Static dielectric constant tensor:
#      x y z
#    x 3.288800 0.000000 0.000000 
#    y 0.000000 3.019260 0.000000 
#    z 0.000000 0.000000 3.229960 
# 
# 
# High freq. dielectric constant tensor:
#      x y z
#    x 1.650120 0.000000 0.000000 
#    y 0.000000 1.616080 0.000000 
#    z 0.000000 0.000000 1.595280 
# 
# From -- ./inp_files/4843.got.cif
#   From: 2010.03.12/outbox.cif.g09.slc.cpg/sg28_3_cif.got.tgz:4843.got - 2010.04.14 03:39:34.
