data_PCOD8168635
_publ_section_title
;
Structure prediction by ZEFSAII (Michael W. Deem and Ramdas Pophale) SiO2 
 PCOD8168635
Probable space group: P C A 21
;
_chemical_formula_sum "Si O2"
_cell_formula_units_Z 32
_cell_length_a 16.742943
_cell_length_b 16.776645
_cell_length_c 5.137439
_cell_angle_alpha 90.000000
_cell_angle_beta 90.000000
_cell_angle_gamma 90.000000
_cell_volume 1443.057352
_symmetry_space_group_name_H-M "P C A 21"
_symmetry_group_IT_number 29
_symmetry_cell_setting 'orthorhombic'
loop_
_space_group_symop_operation_xyz
x,y,z
-x,-y,1/2+z
1/2-x,y,1/2+z
1/2+x,-y,z
loop_
_atom_site_type_symbol
_atom_site_label
_atom_site_fract_x
_atom_site_fract_y
_atom_site_fract_z
Si Si1 0.220549 0.021209 0.247840
Si Si2 0.961502 0.966546 0.749148
Si Si3 0.201312 0.322280 0.558687
Si Si4 0.473362 0.800376 0.208673
Si Si5 0.973540 0.712836 0.195475
Si Si6 0.201549 0.509908 0.541182
Si Si7 0.972313 0.457112 0.891655
Si Si8 0.290536 0.846043 0.196924
O O1 0.262143 0.070367 0.482755
O O2 0.270391 0.940013 0.186430
O O3 0.128276 0.004534 0.294901
O O4 0.969312 0.872395 0.798365
O O5 0.985093 0.985402 0.453298
O O6 0.266419 0.297447 0.775395
O O7 0.184161 0.416267 0.550794
O O8 0.119443 0.277160 0.623597
O O9 0.476986 0.733248 0.433213
O O10 0.384419 0.833524 0.182932
O O11 0.502823 0.770813 0.929334
O O12 0.991430 0.623932 0.284582
O O13 0.234634 0.535907 0.822186
O O14 0.118942 0.554687 0.480856
O O15 0.977019 0.518544 0.648530
O O16 0.252202 0.804636 0.450198
#
# Coordination Sequence:
#
# PCOD8168635 Si02
#       8
#     4   4   4   4   4   4   4   4
#     4  10  20  36  61  94 122 157 213 272 320 385
#     4  12  23  42  70  98 128 169 228 286 332 393
#     4  10  21  40  67  94 126 174 227 279 336 408
#     4  12  26  43  66 100 141 180 220 285 346 418
#     4  12  26  45  65 102 143 182 226 274 354 416
#     4  10  21  38  64  99 130 166 228 292 333 386
#     4  12  24  42  70  99 133 181 232 287 333 399
#     4  10  19  38  63  90 123 171 224 259 318 405
#
# _framework density 22.175141
#
# number of rings (size 3 to 8) (size 9 to 14) (size 15 to 20)
#    0.000    1.000    1.250    7.500    3.500    0.000 
#    0.000    7.500    0.000    0.000    0.000    0.000 
#    0.000    0.000    0.000    0.000    0.000    0.000 
#
# Total GULP energy -396803.101209 kJ/mol
# GULP energy per Si atom -12400.096913 kJ/mol
# Density = 2.212467 g / cm^3
# Si number density = 22.175141 Si / 1000 Ang^3
#
#
#
# Elastic Constant Matrix: (Units=GPa)
#
#
# Indices 1 2 3 4 5 6 
#
# 1 138.6101 32.5003 42.0688 0.0000 0.0000 0.0000
# 2 32.5003 46.1624 17.7305 0.0000 0.0000 0.0000
# 3 42.0688 17.7305 158.2668 0.0000 0.0000 0.0000
# 4 0.0000 0.0000 0.0000 25.9808 0.0000 0.0000
# 5 0.0000 0.0000 0.0000 0.0000 44.3254 0.0000
# 6 0.0000 0.0000 0.0000 0.0000 0.0000 30.7639
#
#
#
# Elastic Compliance Matrix: (Units=1/GPa)
#
#
# Indices 1 2 3 4 5 6 
#
# 1 0.009095 -0.005721 -0.001777 0.000000 0.000000 0.000000
# 2 -0.005721 0.026235 -0.001418 0.000000 0.000000 0.000000
# 3 -0.001777 -0.001418 0.006950 0.000000 0.000000 0.000000
# 4 0.000000 0.000000 0.000000 0.038490 0.000000 0.000000
# 5 0.000000 0.000000 0.000000 0.000000 0.022560 0.000000
# 6 0.000000 0.000000 0.000000 0.000000 0.000000 0.032506
#
#
# Mechanical properties :
#
#
# Convention : Reuss Voigt Hill
#
# Bulk Modulus (GPa) = 40.90334 58.62651 49.76492
# Shear Modulus (GPa) = 30.89904 36.93000 33.91452
#
# Velocity S-wave (km/s) = 3.73689 4.08533 3.91499
# Velocity P-wave (km/s) = 6.09137 6.98202 6.55184
#
# Compressibility (1/GPa) = 0.02444788
#
# Stress axis : x y z
#
# Youngs Moduli (GPa) = 109.94915 38.11667 143.89316
#
# Poissons Ratio (x) = 0.21806 0.25565
# Poissons Ratio (y) = 0.62901 0.20410
# Poissons Ratio (z) = 0.19534 0.05407
#
# Static dielectric constant tensor:
#      x y z
#    x 3.948010 0.000000 0.000000 
#    y 0.000000 3.620590 0.000000 
#    z 0.000000 0.000000 5.198720 
# 
# 
# High freq. dielectric constant tensor:
#      x y z
#    x 1.882690 0.000000 0.000000 
#    y 0.000000 1.830210 0.000000 
#    z 0.000000 0.000000 1.909250 
# 
# From -- ./inp_files/289.got.cif
#   From: 2010.03.12/outbox.cif.g09.slc.cpg/sg29_1_cif.got.tgz:289.got - 2010.04.14 03:43:10.
