data_PCOD8168837
_publ_section_title
;
Structure prediction by ZEFSAII (Michael W. Deem and Ramdas Pophale) SiO2 
 PCOD8168837
Probable space group: P C A 21
;
_chemical_formula_sum "Si O2"
_cell_formula_units_Z 32
_cell_length_a 14.479256
_cell_length_b 12.002075
_cell_length_c 7.931805
_cell_angle_alpha 90.000000
_cell_angle_beta 90.000000
_cell_angle_gamma 90.000000
_cell_volume 1378.397928
_symmetry_space_group_name_H-M "P C A 21"
_symmetry_group_IT_number 29
_symmetry_cell_setting 'orthorhombic'
loop_
_space_group_symop_operation_xyz
x,y,z
-x,-y,1/2+z
1/2-x,y,1/2+z
1/2+x,-y,z
loop_
_atom_site_type_symbol
_atom_site_label
_atom_site_fract_x
_atom_site_fract_y
_atom_site_fract_z
Si Si1 0.546095 0.335486 0.077700
Si Si2 0.385509 0.898286 0.630319
Si Si3 0.385964 0.145906 0.609804
Si Si4 0.734075 0.183130 0.847535
Si Si5 0.156139 0.608592 0.405004
Si Si6 0.738982 0.761864 0.838893
Si Si7 0.658641 0.617294 0.576323
Si Si8 0.065415 0.719040 0.702533
O O1 0.540025 0.200519 0.106231
O O2 0.617541 0.391982 0.211150
O O3 0.449378 0.392676 0.113339
O O4 0.570080 0.351847 0.878552
O O5 0.305070 0.892691 0.493471
O O6 0.330256 0.876145 0.802194
O O7 0.428944 0.021088 0.617754
O O8 0.353110 0.182042 0.421508
O O9 0.291552 0.150795 0.718345
O O10 0.466001 0.223401 0.683917
O O11 0.756565 0.308544 0.912692
O O12 0.652840 0.195092 0.705665
O O13 0.193648 0.490469 0.473076
O O14 0.075863 0.642652 0.537516
O O15 0.710466 0.643487 0.751814
O O16 0.817711 0.728071 0.971232
#
# Coordination Sequence:
#
# PCOD8168837 Si02
#       8
#     4   4   4   4   4   4   4   4
#     4  10  24  45  63 104 138 168 240 289 326 437
#     4  10  21  41  68  94 137 177 227 284 358 403
#     4  11  22  45  67 100 134 195 218 294 359 410
#     4  10  21  43  63 102 131 171 235 291 331 436
#     4  11  25  43  73  96 139 181 222 293 363 396
#     4  10  24  43  66  94 144 170 244 276 340 438
#     4  11  24  44  66 101 131 186 221 287 346 411
#     4  11  23  44  68  99 140 170 235 284 339 423
#
# _framework density 23.215356
#
# number of rings (size 3 to 8) (size 9 to 14) (size 15 to 20)
#    0.000    1.500    2.500    1.500    3.500    0.000 
#   20.250    0.000    0.000    0.000    0.000    0.000 
#    0.000    0.000    0.000    0.000    0.000    0.000 
#
# Total GULP energy -396424.931349 kJ/mol
# GULP energy per Si atom -12388.279105 kJ/mol
# Density = 2.316252 g / cm^3
# Si number density = 23.215356 Si / 1000 Ang^3
#
#
#
# Elastic Constant Matrix: (Units=GPa)
#
#
# Indices 1 2 3 4 5 6 
#
# 1 65.1546 7.2977 18.4705 0.0000 0.0000 0.0000
# 2 7.2977 93.8479 21.7298 0.0000 0.0000 0.0000
# 3 18.4705 21.7298 103.7425 0.0000 0.0000 0.0000
# 4 0.0000 0.0000 0.0000 28.5035 0.0000 0.0000
# 5 0.0000 0.0000 0.0000 0.0000 27.7298 0.0000
# 6 0.0000 0.0000 0.0000 0.0000 0.0000 26.8744
#
#
#
# Elastic Compliance Matrix: (Units=1/GPa)
#
#
# Indices 1 2 3 4 5 6 
#
# 1 0.016198 -0.000622 -0.002754 0.000000 0.000000 0.000000
# 2 -0.000622 0.011223 -0.002240 0.000000 0.000000 0.000000
# 3 -0.002754 -0.002240 0.010599 0.000000 0.000000 0.000000
# 4 0.000000 0.000000 0.000000 0.035083 0.000000 0.000000
# 5 0.000000 0.000000 0.000000 0.000000 0.036062 0.000000
# 6 0.000000 0.000000 0.000000 0.000000 0.000000 0.037210
#
#
# Mechanical properties :
#
#
# Convention : Reuss Voigt Hill
#
# Bulk Modulus (GPa) = 37.32961 39.74901 38.53931
# Shear Modulus (GPa) = 30.02351 30.97135 30.49743
#
# Velocity S-wave (km/s) = 3.60009 3.65648 3.62840
# Velocity P-wave (km/s) = 5.77889 5.91485 5.84727
#
# Compressibility (1/GPa) = 0.02678839
#
# Stress axis : x y z
#
# Youngs Moduli (GPa) = 61.73440 89.10641 94.35120
#
# Poissons Ratio (x) = 0.05542 0.25982
# Poissons Ratio (y) = 0.03840 0.21134
# Poissons Ratio (z) = 0.17000 0.19959
#
# Static dielectric constant tensor:
#      x y z
#    x 3.953210 0.000000 0.000000 
#    y 0.000000 3.852320 0.000000 
#    z 0.000000 0.000000 4.456350 
# 
# 
# High freq. dielectric constant tensor:
#      x y z
#    x 1.910090 0.000000 0.000000 
#    y 0.000000 1.889480 0.000000 
#    z 0.000000 0.000000 1.932030 
# 
# From -- ./inp_files/1874.got.cif
#   From: 2010.03.12/outbox.cif.g09.slc.cpg/sg29_1_cif.got.tgz:1874.got - 2010.04.14 03:43:10.
