data_PCOD8168879
_publ_section_title
;
Structure prediction by ZEFSAII (Michael W. Deem and Ramdas Pophale) SiO2 
 PCOD8168879
Probable space group: P C A 21
;
_chemical_formula_sum "Si O2"
_cell_formula_units_Z 28
_cell_length_a 12.367356
_cell_length_b 11.128447
_cell_length_c 8.973454
_cell_angle_alpha 90.000000
_cell_angle_beta 90.000000
_cell_angle_gamma 90.000000
_cell_volume 1235.011680
_symmetry_space_group_name_H-M "P C A 21"
_symmetry_group_IT_number 29
_symmetry_cell_setting 'orthorhombic'
loop_
_space_group_symop_operation_xyz
x,y,z
-x,-y,1/2+z
1/2-x,y,1/2+z
1/2+x,-y,z
loop_
_atom_site_type_symbol
_atom_site_label
_atom_site_fract_x
_atom_site_fract_y
_atom_site_fract_z
Si Si1 0.683742 0.017992 0.181860
Si Si2 0.101104 0.348294 0.727953
Si Si3 0.471845 0.212065 0.685139
Si Si4 0.473079 0.847909 0.868943
Si Si5 0.246613 0.436239 0.477699
Si Si6 0.099910 0.480239 0.225013
Si Si7 0.622773 0.062904 0.865428
O O1 0.642012 0.120066 0.297556
O O2 0.806106 0.998543 0.236503
O O3 0.618993 0.892497 0.184135
O O4 0.687852 0.080110 0.019186
O O5 0.173828 0.347927 0.579791
O O6 0.037036 0.224393 0.740278
O O7 0.015844 0.457825 0.720357
O O8 0.176767 0.356771 0.873061
O O9 0.530081 0.226095 0.523455
O O10 0.414626 0.336174 0.727100
O O11 0.567120 0.184887 0.804347
O O12 0.526499 0.974175 0.905362
O O13 0.166233 0.516915 0.375221
O O14 0.324112 0.517253 0.584023
#
# Coordination Sequence:
#
# PCOD8168879 Si02
#       7
#     4   4   4   4   4   4   4
#     4  10  22  39  61  90 123 163 208 254 314 376
#     4  11  23  43  64  95 129 160 212 265 311 382
#     4  10  22  40  63  90 124 163 203 262 311 364
#     4  10  22  40  63  90 124 163 203 262 311 364
#     4  10  24  40  66  94 118 174 212 250 326 370
#     4  11  23  43  64  95 129 160 212 265 311 382
#     4  10  22  39  61  90 123 163 208 254 314 376
#
# _framework density 22.671849999999999
#
# number of rings (size 3 to 8) (size 9 to 14) (size 15 to 20)
#    0.000    1.714    1.429    1.714    6.000    1.143 
#    5.143    0.000    0.000    0.000    0.000    0.000 
#    0.000    0.000    0.000    0.000    0.000    0.000 
#
# Total GULP energy -347076.754373 kJ/mol
# GULP energy per Si atom -12395.598370 kJ/mol
# Density = 2.262025 g / cm^3
# Si number density = 22.671850 Si / 1000 Ang^3
#
#
#
# Elastic Constant Matrix: (Units=GPa)
#
#
# Indices 1 2 3 4 5 6 
#
# 1 76.8234 34.7458 44.2107 0.0000 0.0000 0.0000
# 2 34.7458 53.4424 20.6358 0.0000 0.0000 0.0000
# 3 44.2107 20.6358 141.4877 0.0000 0.0000 0.0000
# 4 0.0000 0.0000 0.0000 16.6470 0.0000 0.0000
# 5 0.0000 0.0000 0.0000 0.0000 41.6049 0.0000
# 6 0.0000 0.0000 0.0000 0.0000 0.0000 15.8429
#
#
#
# Elastic Compliance Matrix: (Units=1/GPa)
#
#
# Indices 1 2 3 4 5 6 
#
# 1 0.021217 -0.011905 -0.004893 0.000000 0.000000 0.000000
# 2 -0.011905 0.026508 -0.000146 0.000000 0.000000 0.000000
# 3 -0.004893 -0.000146 0.008618 0.000000 0.000000 0.000000
# 4 0.000000 0.000000 0.000000 0.060071 0.000000 0.000000
# 5 0.000000 0.000000 0.000000 0.000000 0.024036 0.000000
# 6 0.000000 0.000000 0.000000 0.000000 0.000000 0.063120
#
#
# Mechanical properties :
#
#
# Convention : Reuss Voigt Hill
#
# Bulk Modulus (GPa) = 44.53479 52.32645 48.43062
# Shear Modulus (GPa) = 20.41278 26.29637 23.35458
#
# Velocity S-wave (km/s) = 3.00385 3.40938 3.21302
# Velocity P-wave (km/s) = 5.63176 6.21518 5.93065
#
# Compressibility (1/GPa) = 0.02245436
#
# Stress axis : x y z
#
# Youngs Moduli (GPa) = 47.13095 37.72394 116.03422
#
# Poissons Ratio (x) = 0.44911 0.56781
# Poissons Ratio (y) = 0.56110 0.01696
# Poissons Ratio (z) = 0.23063 0.00552
#
# Static dielectric constant tensor:
#      x y z
#    x 4.187240 0.000000 0.000000 
#    y 0.000000 3.527680 0.000000 
#    z 0.000000 0.000000 4.527450 
# 
# 
# High freq. dielectric constant tensor:
#      x y z
#    x 1.904180 0.000000 0.000000 
#    y 0.000000 1.849210 0.000000 
#    z 0.000000 0.000000 1.913240 
# 
# From -- ./inp_files/1451.got.cif
#   From: 2010.03.12/outbox.cif.g09.slc.cpg/sg29_1_cif.got.tgz:1451.got - 2010.04.14 03:43:10.
