data_PCOD8168517
_publ_section_title
;
Structure prediction by ZEFSAII (Michael W. Deem and Ramdas Pophale) SiO2 
 PCOD8168517
Probable space group: P M A 2
;
_chemical_formula_sum "Si O2"
_cell_formula_units_Z 12
_cell_length_a 13.494614
_cell_length_b 8.412909
_cell_length_c 4.974489
_cell_angle_alpha 90.000000
_cell_angle_beta 90.000000
_cell_angle_gamma 90.000000
_cell_volume 564.748561
_symmetry_space_group_name_H-M "P M A 2"
_symmetry_group_IT_number 28
_symmetry_cell_setting 'orthorhombic'
loop_
_space_group_symop_operation_xyz
x,y,z
-x,-y,z
1/2-x,y,z
1/2+x,-y,z
loop_
_atom_site_type_symbol
_atom_site_label
_atom_site_fract_x
_atom_site_fract_y
_atom_site_fract_z
Si Si1 0.044626 0.337359 0.094870
Si Si2 0.963666 0.171405 0.589506
Si Si3 0.250000 0.705274 0.509466
Si Si4 0.250000 0.480820 0.008728
O O1 0.160058 0.359261 0.042972
O O2 0.000000 0.500000 0.212350
O O3 0.024949 0.203769 0.317555
O O4 0.989231 0.298297 0.818231
O O5 0.845730 0.181346 0.539061
O O6 0.000000 0.000000 0.692330
O O7 0.250000 0.627175 0.215498
O O8 0.250000 0.558622 0.715232
#
# Coordination Sequence:
#
# PCOD8168517 Si02
#       4
#     4   4   2   2
#     4  12  23  44  67  99 125 173 223 265 315 387
#     4  12  26  43  67  98 138 169 212 274 329 389
#     4  12  22  42  66  96 128 178 210 266 340 374
#     4  12  24  38  74  96 126 170 226 268 312 384
#
# _framework density 21.248393
#
# number of rings (size 3 to 8) (size 9 to 14) (size 15 to 20)
#    0.000    0.000    6.667    4.000    0.000    2.667 
#    0.000    0.000    0.000    0.000    0.000    0.000 
#    0.000    0.000    0.000    0.000    0.000    0.000 
#
# Total GULP energy -148893.327761 kJ/mol
# GULP energy per Si atom -12407.777313 kJ/mol
# Density = 2.120003 g / cm^3
# Si number density = 21.248393 Si / 1000 Ang^3
#
#
#
# Elastic Constant Matrix: (Units=GPa)
#
#
# Indices 1 2 3 4 5 6 
#
# 1 94.4112 39.4509 1.4935 0.0000 0.0000 0.0000
# 2 39.4509 75.0789 7.1930 0.0000 0.0000 0.0000
# 3 1.4935 7.1930 85.7915 0.0000 0.0000 0.0000
# 4 0.0000 0.0000 0.0000 19.7135 0.0000 0.0000
# 5 0.0000 0.0000 0.0000 0.0000 27.7132 0.0000
# 6 0.0000 0.0000 0.0000 0.0000 0.0000 36.9040
#
#
#
# Elastic Compliance Matrix: (Units=1/GPa)
#
#
# Indices 1 2 3 4 5 6 
#
# 1 0.013583 -0.007172 0.000365 0.000000 0.000000 0.000000
# 2 -0.007172 0.017214 -0.001318 0.000000 0.000000 0.000000
# 3 0.000365 -0.001318 0.011760 0.000000 0.000000 0.000000
# 4 0.000000 0.000000 0.000000 0.050727 0.000000 0.000000
# 5 0.000000 0.000000 0.000000 0.000000 0.036084 0.000000
# 6 0.000000 0.000000 0.000000 0.000000 0.000000 0.027097
#
#
# Mechanical properties :
#
#
# Convention : Reuss Voigt Hill
#
# Bulk Modulus (GPa) = 38.01395 39.06183 38.53789
# Shear Modulus (GPa) = 27.55022 30.67574 29.11298
#
# Velocity S-wave (km/s) = 3.60471 3.80369 3.70554
# Velocity P-wave (km/s) = 5.93754 6.14118 6.04022
#
# Compressibility (1/GPa) = 0.02630613
#
# Stress axis : x y z
#
# Youngs Moduli (GPa) = 73.61990 58.09069 85.03143
#
# Poissons Ratio (x) = 0.41665 -0.03103
# Poissons Ratio (y) = 0.52803 0.11211
# Poissons Ratio (z) = -0.02686 0.07659
#
# Static dielectric constant tensor:
#      x y z
#    x 4.209620 0.000000 0.000000 
#    y 0.000000 3.449660 0.000000 
#    z 0.000000 0.000000 3.858700 
# 
# 
# High freq. dielectric constant tensor:
#      x y z
#    x 1.850590 0.000000 0.000000 
#    y 0.000000 1.815370 0.000000 
#    z 0.000000 0.000000 1.849200 
# 
# From -- ./inp_files/276.got.cif
#   From: 2010.03.12/outbox.cif.g09.slc.cpg/sg28_1_cif.got.tgz:276.got - 2010.04.14 03:39:34.
