data_PCOD8168442
_publ_section_title
;
Structure prediction by ZEFSAII (Michael W. Deem and Ramdas Pophale) SiO2 
 PCOD8168442
Probable space group: P M A 2
;
_chemical_formula_sum "Si O2"
_cell_formula_units_Z 32
_cell_length_a 17.186303
_cell_length_b 13.785168
_cell_length_c 6.942579
_cell_angle_alpha 90.000000
_cell_angle_beta 90.000000
_cell_angle_gamma 90.000000
_cell_volume 1644.808561
_symmetry_space_group_name_H-M "P M A 2"
_symmetry_group_IT_number 28
_symmetry_cell_setting 'orthorhombic'
loop_
_space_group_symop_operation_xyz
x,y,z
-x,-y,z
1/2-x,y,z
1/2+x,-y,z
loop_
_atom_site_type_symbol
_atom_site_label
_atom_site_fract_x
_atom_site_fract_y
_atom_site_fract_z
Si Si1 0.161687 0.280976 0.292720
Si Si2 0.419047 0.288170 0.893515
Si Si3 0.660402 0.352884 0.548497
Si Si4 0.840039 0.859053 0.625283
Si Si5 0.657243 0.192746 0.262369
Si Si6 0.080285 0.948230 0.555053
Si Si7 0.087902 0.779400 0.850297
Si Si8 0.160070 0.435195 0.617238
O O1 0.250000 0.268288 0.218653
O O2 0.135572 0.188671 0.421055
O O3 0.153156 0.377343 0.419062
O O4 0.104299 0.290758 0.115387
O O5 0.385946 0.190706 0.798831
O O6 0.512014 0.285149 0.887798
O O7 0.388894 0.384175 0.785942
O O8 0.750000 0.373869 0.517023
O O9 0.629432 0.294343 0.360904
O O10 0.648643 0.286704 0.735432
O O11 0.622010 0.458835 0.577426
O O12 0.750000 0.838583 0.664090
O O13 0.857205 0.972657 0.624337
O O14 0.750000 0.179614 0.280219
O O15 0.614984 0.104225 0.368735
O O16 0.630457 0.188992 0.043876
O O17 0.065330 0.874946 0.730398
O O18 0.000000 0.000000 0.496685
O O19 0.250000 0.440115 0.686405
#
# Coordination Sequence:
#
# PCOD8168442 Si02
#       8
#     4   4   4   4   4   4   4   4
#     4   9  19  34  56  86 116 149 190 237 288 345
#     4  11  21  35  56  87 121 154 188 236 296 353
#     4   9  20  41  63  83 113 154 197 245 293 344
#     4  10  21  38  59  83 114 152 196 240 288 351
#     4  10  23  41  63  88 117 156 204 247 292 354
#     4  11  23  41  62  85 118 156 196 246 300 350
#     4  11  24  38  59  88 120 155 193 242 299 352
#     4   9  19  37  61  85 113 152 199 243 288 346
#
# _framework density 19.455151999999998
#
# number of rings (size 3 to 8) (size 9 to 14) (size 15 to 20)
#    0.000    2.000    1.250    2.625    1.750    5.500 
#    0.000    2.500    0.000    0.000    0.000    0.000 
#    0.000    0.000    0.000    0.000    0.000    0.000 
#
# Total GULP energy -396853.027756 kJ/mol
# GULP energy per Si atom -12401.657117 kJ/mol
# Density = 1.941087 g / cm^3
# Si number density = 19.455152 Si / 1000 Ang^3
#
#
#
# Elastic Constant Matrix: (Units=GPa)
#
#
# Indices 1 2 3 4 5 6 
#
# 1 53.8506 27.0206 30.8956 0.0000 0.0000 0.0000
# 2 27.0206 120.0933 30.2702 0.0000 0.0000 0.0000
# 3 30.8956 30.2702 105.9813 0.0000 0.0000 0.0000
# 4 0.0000 0.0000 0.0000 14.2381 0.0000 0.0000
# 5 0.0000 0.0000 0.0000 0.0000 22.6913 0.0000
# 6 0.0000 0.0000 0.0000 0.0000 0.0000 28.4436
#
#
#
# Elastic Compliance Matrix: (Units=1/GPa)
#
#
# Indices 1 2 3 4 5 6 
#
# 1 0.023882 -0.003899 -0.005848 0.000000 0.000000 0.000000
# 2 -0.003899 0.009609 -0.001608 0.000000 0.000000 0.000000
# 3 -0.005848 -0.001608 0.011600 0.000000 0.000000 0.000000
# 4 0.000000 0.000000 0.000000 0.070234 0.000000 0.000000
# 5 0.000000 0.000000 0.000000 0.000000 0.044070 0.000000
# 6 0.000000 0.000000 0.000000 0.000000 0.000000 0.035157
#
#
# Mechanical properties :
#
#
# Convention : Reuss Voigt Hill
#
# Bulk Modulus (GPa) = 44.68260 50.69975 47.69118
# Shear Modulus (GPa) = 22.24962 25.85719 24.05340
#
# Velocity S-wave (km/s) = 3.38544 3.64959 3.51999
# Velocity P-wave (km/s) = 6.18857 6.62388 6.40992
#
# Compressibility (1/GPa) = 0.02238008
#
# Stress axis : x y z
#
# Youngs Moduli (GPa) = 41.87300 104.06412 86.20855
#
# Poissons Ratio (x) = 0.40577 0.50417
# Poissons Ratio (y) = 0.16327 0.13862
# Poissons Ratio (z) = 0.24489 0.16733
#
# Static dielectric constant tensor:
#      x y z
#    x 3.496540 0.000000 0.000000 
#    y 0.000000 3.816240 0.000000 
#    z 0.000000 0.000000 3.421270 
# 
# 
# High freq. dielectric constant tensor:
#      x y z
#    x 1.756470 0.000000 0.000000 
#    y 0.000000 1.763930 0.000000 
#    z 0.000000 0.000000 1.753000 
# 
# From -- ./inp_files/1201.got.cif
#   From: 2010.03.12/outbox.cif.g09.slc.cpg/sg28_1_cif.got.tgz:1201.got - 2010.04.14 03:39:34.
