data_PCOD8168270
_publ_section_title
;
Structure prediction by ZEFSAII (Michael W. Deem and Ramdas Pophale) SiO2 
 PCOD8168270
Probable space group: P M A 2
;
_chemical_formula_sum "Si O2"
_cell_formula_units_Z 28
_cell_length_a 9.007887
_cell_length_b 15.212166
_cell_length_c 12.766700
_cell_angle_alpha 90.000000
_cell_angle_beta 90.000000
_cell_angle_gamma 90.000000
_cell_volume 1749.414165
_symmetry_space_group_name_H-M "P M A 2"
_symmetry_group_IT_number 28
_symmetry_cell_setting 'orthorhombic'
loop_
_space_group_symop_operation_xyz
x,y,z
-x,-y,z
1/2-x,y,z
1/2+x,-y,z
loop_
_atom_site_type_symbol
_atom_site_label
_atom_site_fract_x
_atom_site_fract_y
_atom_site_fract_z
Si Si1 0.572381 0.727428 0.276290
Si Si2 0.412232 0.081386 0.289421
Si Si3 0.583806 0.915030 0.041334
Si Si4 0.077150 0.407216 0.450726
Si Si5 0.423876 0.736200 0.058291
Si Si6 0.424000 0.594228 0.881895
Si Si7 0.576050 0.593910 0.680929
O O1 0.750000 0.728022 0.260263
O O2 0.517472 0.823537 0.316084
O O3 0.516714 0.658793 0.362827
O O4 0.496426 0.704226 0.166620
O O5 0.250000 0.075453 0.339514
O O6 0.405662 0.072622 0.165025
O O7 0.500000 0.000000 0.339950
O O8 0.750000 0.909412 0.993734
O O9 0.495718 0.825879 0.014182
O O10 0.500000 0.000000 0.992533
O O11 0.250000 0.424375 0.434974
O O12 0.047754 0.363878 0.565889
O O13 0.000000 0.500000 0.435298
O O14 0.250000 0.753174 0.074855
O O15 0.456264 0.657971 0.978223
O O16 0.500000 0.500000 0.904038
O O17 0.250000 0.579624 0.864139
O O18 0.494977 0.642051 0.778360
O O19 0.500000 0.500000 0.676814
O O20 0.750000 0.586069 0.704978
#
# Coordination Sequence:
#
# PCOD8168270 Si02
#       7
#     4   4   4   4   4   4   4
#     4   9  18  31  44  61  89 121 147 174 215 265
#     4   8  14  24  39  58  80 108 139 171 206 244
#     4   9  16  27  44  64  87 116 147 181 220 260
#     4   9  18  31  46  65  88 114 145 181 220 262
#     4  10  20  31  43  64  92 120 151 184 219 262
#     4  10  20  32  46  64  88 117 149 187 225 262
#     4   9  16  28  47  66  83 106 142 186 226 263
#
# _framework density 16.005358000000001
#
# number of rings (size 3 to 8) (size 9 to 14) (size 15 to 20)
#    0.000    2.857    0.000    3.429    0.000    7.429 
#    0.000    2.857    0.000    0.000    0.000    1.000 
#    0.000    4.571    0.000    0.000    0.000    0.000 
#
# Total GULP energy -346950.510211 kJ/mol
# GULP energy per Si atom -12391.089650 kJ/mol
# Density = 1.596893 g / cm^3
# Si number density = 16.005358 Si / 1000 Ang^3
#
#
#
# Elastic Constant Matrix: (Units=GPa)
#
#
# Indices 1 2 3 4 5 6 
#
# 1 90.3416 51.4330 49.5754 0.0000 0.0000 0.0000
# 2 51.4330 104.7060 62.8028 0.0000 0.0000 0.0000
# 3 49.5754 62.8028 93.9666 0.0000 0.0000 0.0000
# 4 0.0000 0.0000 0.0000 1.1890 0.0000 0.0000
# 5 0.0000 0.0000 0.0000 0.0000 11.9409 0.0000
# 6 0.0000 0.0000 0.0000 0.0000 0.0000 23.3623
#
#
#
# Elastic Compliance Matrix: (Units=1/GPa)
#
#
# Indices 1 2 3 4 5 6 
#
# 1 0.016993 -0.004957 -0.005652 0.000000 0.000000 0.000000
# 2 -0.004957 0.017387 -0.009005 0.000000 0.000000 0.000000
# 3 -0.005652 -0.009005 0.019643 0.000000 0.000000 0.000000
# 4 0.000000 0.000000 0.000000 0.841068 0.000000 0.000000
# 5 0.000000 0.000000 0.000000 0.000000 0.083746 0.000000
# 6 0.000000 0.000000 0.000000 0.000000 0.000000 0.042804
#
#
# Mechanical properties :
#
#
# Convention : Reuss Voigt Hill
#
# Bulk Modulus (GPa) = 67.59681 68.51520 68.05600
# Shear Modulus (GPa) = 4.69131 15.64530 10.16831
#
# Velocity S-wave (km/s) = 1.71390 3.12990 2.52326
# Velocity P-wave (km/s) = 6.80016 7.48079 7.14858
#
# Compressibility (1/GPa) = 0.01479360
#
# Stress axis : x y z
#
# Youngs Moduli (GPa) = 58.84836 57.51466 50.90907
#
# Poissons Ratio (x) = 0.28509 0.28775
# Poissons Ratio (y) = 0.29170 0.45846
# Poissons Ratio (z) = 0.33262 0.51794
#
# Static dielectric constant tensor:
#      x y z
#    x 3.243890 0.000000 0.000000 
#    y 0.000000 3.054970 0.000000 
#    z 0.000000 0.000000 3.200110 
# 
# 
# High freq. dielectric constant tensor:
#      x y z
#    x 1.627070 0.000000 0.000000 
#    y 0.000000 1.602320 0.000000 
#    z 0.000000 0.000000 1.583790 
# 
# From -- ./inp_files/5131.got.cif
#   From: 2010.03.12/outbox.cif.g09.slc.cpg/sg28_3_cif.got.tgz:5131.got - 2010.04.14 03:39:34.
