data_PCOD8168582
_publ_section_title
;
Structure prediction by ZEFSAII (Michael W. Deem and Ramdas Pophale) SiO2 
 PCOD8168582
Probable space group: P C A 21
;
_chemical_formula_sum "Si O2"
_cell_formula_units_Z 20
_cell_length_a 18.748870
_cell_length_b 10.966870
_cell_length_c 4.997793
_cell_angle_alpha 90.000000
_cell_angle_beta 90.000000
_cell_angle_gamma 90.000000
_cell_volume 1027.628304
_symmetry_space_group_name_H-M "P C A 21"
_symmetry_group_IT_number 29
_symmetry_cell_setting 'orthorhombic'
loop_
_space_group_symop_operation_xyz
x,y,z
-x,-y,1/2+z
1/2-x,y,1/2+z
1/2+x,-y,z
loop_
_atom_site_type_symbol
_atom_site_label
_atom_site_fract_x
_atom_site_fract_y
_atom_site_fract_z
Si Si1 0.498481 0.334701 0.390040
Si Si2 0.299539 0.977650 0.518546
Si Si3 0.924391 0.421143 0.389878
Si Si4 0.461324 0.058351 0.498470
Si Si5 0.208409 0.701501 0.075101
O O1 0.562009 0.372331 0.591417
O O2 0.436045 0.434322 0.425588
O O3 0.470687 0.200866 0.445921
O O4 0.526423 0.341145 0.087618
O O5 0.251625 0.013240 0.264115
O O6 0.322037 0.836022 0.518696
O O7 0.375834 0.044338 0.523615
O O8 0.843351 0.402461 0.470515
O O9 0.503452 0.021971 0.765635
O O10 0.221195 0.685490 0.391123
#
# Coordination Sequence:
#
# PCOD8168582 Si02
#       5
#     4   4   4   4   4
#     4  10  21  36  57  80 107 142 178 225 277 316
#     4  10  21  36  53  78 114 149 180 225 281 330
#     4  10  20  37  56  79 109 138 178 228 272 318
#     4  12  23  37  60  87 113 147 193 233 273 334
#     4  10  19  32  52  76 103 138 179 217 261 318
#
# _framework density 19.462288999999998
#
# number of rings (size 3 to 8) (size 9 to 14) (size 15 to 20)
#    0.000    1.600    0.000    6.000    0.000    3.200 
#    0.000    2.000    0.000    0.000    0.000    0.000 
#    0.000    0.000    0.000    0.000    0.000    0.000 
#
# Total GULP energy -247936.304599 kJ/mol
# GULP energy per Si atom -12396.815230 kJ/mol
# Density = 1.941799 g / cm^3
# Si number density = 19.462289 Si / 1000 Ang^3
#
#
#
# Elastic Constant Matrix: (Units=GPa)
#
#
# Indices 1 2 3 4 5 6 
#
# 1 92.8012 36.5607 8.3964 0.0000 0.0000 0.0000
# 2 36.5607 91.8988 2.4644 0.0000 0.0000 0.0000
# 3 8.3964 2.4644 79.4265 0.0000 0.0000 0.0000
# 4 0.0000 0.0000 0.0000 23.4465 0.0000 0.0000
# 5 0.0000 0.0000 0.0000 0.0000 13.6741 0.0000
# 6 0.0000 0.0000 0.0000 0.0000 0.0000 14.0537
#
#
#
# Elastic Compliance Matrix: (Units=1/GPa)
#
#
# Indices 1 2 3 4 5 6 
#
# 1 0.012893 -0.005097 -0.001205 0.000000 0.000000 0.000000
# 2 -0.005097 0.012906 0.000138 0.000000 0.000000 0.000000
# 3 -0.001205 0.000138 0.012713 0.000000 0.000000 0.000000
# 4 0.000000 0.000000 0.000000 0.042650 0.000000 0.000000
# 5 0.000000 0.000000 0.000000 0.000000 0.073131 0.000000
# 6 0.000000 0.000000 0.000000 0.000000 0.000000 0.071156
#
#
# Mechanical properties :
#
#
# Convention : Reuss Voigt Hill
#
# Bulk Modulus (GPa) = 38.18979 39.88552 39.03765
# Shear Modulus (GPa) = 20.28368 24.68185 22.48276
#
# Velocity S-wave (km/s) = 3.23182 3.56503 3.40251
# Velocity P-wave (km/s) = 5.79580 6.12243 5.96135
#
# Compressibility (1/GPa) = 0.02618501
#
# Stress axis : x y z
#
# Youngs Moduli (GPa) = 77.56296 77.48602 78.65766
#
# Poissons Ratio (x) = 0.39494 0.09477
# Poissons Ratio (y) = 0.39533 -0.01088
# Poissons Ratio (z) = 0.09345 -0.01072
#
# Static dielectric constant tensor:
#      x y z
#    x 3.385960 0.000000 0.000000 
#    y 0.000000 3.481050 0.000000 
#    z 0.000000 0.000000 3.931380 
# 
# 
# High freq. dielectric constant tensor:
#      x y z
#    x 1.749880 0.000000 0.000000 
#    y 0.000000 1.744710 0.000000 
#    z 0.000000 0.000000 1.782880 
# 
# From -- ./inp_files/170.got.cif
#   From: 2010.03.12/outbox.cif.g09.slc.cpg/sg29_1_cif.got.tgz:170.got - 2010.04.14 03:43:10.
