data_PCOD8168805
_publ_section_title
;
Structure prediction by ZEFSAII (Michael W. Deem and Ramdas Pophale) SiO2 
 PCOD8168805
Probable space group: P C A 21
;
_chemical_formula_sum "Si O2"
_cell_formula_units_Z 32
_cell_length_a 19.125743
_cell_length_b 15.408716
_cell_length_c 5.242409
_cell_angle_alpha 90.000000
_cell_angle_beta 90.000000
_cell_angle_gamma 90.000000
_cell_volume 1544.954405
_symmetry_space_group_name_H-M "P C A 21"
_symmetry_group_IT_number 29
_symmetry_cell_setting 'orthorhombic'
loop_
_space_group_symop_operation_xyz
x,y,z
-x,-y,1/2+z
1/2-x,y,1/2+z
1/2+x,-y,z
loop_
_atom_site_type_symbol
_atom_site_label
_atom_site_fract_x
_atom_site_fract_y
_atom_site_fract_z
Si Si1 0.210989 0.650864 0.090190
Si Si2 0.447978 0.919419 0.212992
Si Si3 0.488668 0.206523 0.327541
Si Si4 0.368246 0.821216 0.593401
Si Si5 0.084843 0.085534 0.493315
Si Si6 0.428916 0.563000 0.544810
Si Si7 0.297649 0.993643 0.759560
Si Si8 0.993609 0.614164 0.544023
O O1 0.228955 0.631090 0.383921
O O2 0.193172 0.752483 0.064405
O O3 0.150462 0.587119 0.000162
O O4 0.496413 0.878601 0.993346
O O5 0.390879 0.850283 0.311188
O O6 0.505573 0.942256 0.423868
O O7 0.398502 0.003096 0.173013
O O8 0.563636 0.229158 0.203190
O O9 0.424711 0.179385 0.132765
O O10 0.462656 0.289280 0.492543
O O11 0.343269 0.903749 0.765390
O O12 0.147831 0.077069 0.284631
O O13 0.474662 0.611388 0.327948
O O14 0.433547 0.458611 0.519040
O O15 0.449915 0.593315 0.826790
O O16 0.256989 0.998944 0.492596
#
# Coordination Sequence:
#
# PCOD8168805 Si02
#       8
#     4   4   4   4   4   4   4   4
#     4  12  25  38  61  91 133 172 196 236 298 389
#     4  11  20  36  62  86 124 160 200 280 311 364
#     4  11  22  35  65  91 123 153 202 275 319 356
#     4  11  23  37  57  90 125 157 214 248 311 374
#     4  11  22  37  57  88 119 163 213 255 321 358
#     4  10  21  41  62  90 129 155 205 241 319 364
#     4  12  26  41  58  79 120 174 213 251 297 373
#     4  10  21  39  66  93 119 158 195 274 304 362
#
# _framework density 20.712584
#
# number of rings (size 3 to 8) (size 9 to 14) (size 15 to 20)
#    0.000    1.000    3.750    3.750    5.250    0.000 
#    0.000    0.000    0.000    1.500    0.000    0.000 
#    0.000    0.000    0.000    0.000    0.000    0.000 
#
# Total GULP energy -396454.225146 kJ/mol
# GULP energy per Si atom -12389.194536 kJ/mol
# Density = 2.066544 g / cm^3
# Si number density = 20.712584 Si / 1000 Ang^3
#
#
#
# Elastic Constant Matrix: (Units=GPa)
#
#
# Indices 1 2 3 4 5 6 
#
# 1 69.2244 30.0801 17.7173 0.0000 0.0000 0.0000
# 2 30.0801 75.1836 6.8866 0.0000 0.0000 0.0000
# 3 17.7173 6.8866 78.7303 0.0000 0.0000 0.0000
# 4 0.0000 0.0000 0.0000 26.2166 0.0000 0.0000
# 5 0.0000 0.0000 0.0000 0.0000 25.1057 0.0000
# 6 0.0000 0.0000 0.0000 0.0000 0.0000 30.2184
#
#
#
# Elastic Compliance Matrix: (Units=1/GPa)
#
#
# Indices 1 2 3 4 5 6 
#
# 1 0.018408 -0.007042 -0.003527 0.000000 0.000000 0.000000
# 2 -0.007042 0.016102 0.000176 0.000000 0.000000 0.000000
# 3 -0.003527 0.000176 0.013480 0.000000 0.000000 0.000000
# 4 0.000000 0.000000 0.000000 0.038144 0.000000 0.000000
# 5 0.000000 0.000000 0.000000 0.000000 0.039832 0.000000
# 6 0.000000 0.000000 0.000000 0.000000 0.000000 0.033092
#
#
# Mechanical properties :
#
#
# Convention : Reuss Voigt Hill
#
# Bulk Modulus (GPa) = 36.75721 36.94515 36.85118
# Shear Modulus (GPa) = 26.46750 27.53844 27.00297
#
# Velocity S-wave (km/s) = 3.57858 3.65026 3.61459
# Velocity P-wave (km/s) = 5.90422 5.97006 5.93723
#
# Compressibility (1/GPa) = 0.02720555
#
# Stress axis : x y z
#
# Youngs Moduli (GPa) = 54.32335 62.10407 74.18512
#
# Poissons Ratio (x) = 0.43733 0.26162
# Poissons Ratio (y) = 0.38254 -0.01308
# Poissons Ratio (z) = 0.19158 -0.01095
#
# Static dielectric constant tensor:
#      x y z
#    x 3.682050 0.000000 0.000000 
#    y 0.000000 3.776780 0.000000 
#    z 0.000000 0.000000 3.961580 
# 
# 
# High freq. dielectric constant tensor:
#      x y z
#    x 1.785030 0.000000 0.000000 
#    y 0.000000 1.792830 0.000000 
#    z 0.000000 0.000000 1.826700 
# 
# From -- ./inp_files/450.got.cif
#   From: 2010.03.12/outbox.cif.g09.slc.cpg/sg29_1_cif.got.tgz:450.got - 2010.04.14 03:43:10.
