data_PCOD8168392
_publ_section_title
;
Structure prediction by ZEFSAII (Michael W. Deem and Ramdas Pophale) SiO2 
 PCOD8168392
Probable space group: P M A 2
;
_chemical_formula_sum "Si O2"
_cell_formula_units_Z 32
_cell_length_a 8.650954
_cell_length_b 14.929330
_cell_length_c 12.281987
_cell_angle_alpha 90.000000
_cell_angle_beta 90.000000
_cell_angle_gamma 90.000000
_cell_volume 1586.254817
_symmetry_space_group_name_H-M "P M A 2"
_symmetry_group_IT_number 28
_symmetry_cell_setting 'orthorhombic'
loop_
_space_group_symop_operation_xyz
x,y,z
-x,-y,z
1/2-x,y,z
1/2+x,-y,z
loop_
_atom_site_type_symbol
_atom_site_label
_atom_site_fract_x
_atom_site_fract_y
_atom_site_fract_z
Si Si1 0.567062 0.900368 0.572420
Si Si2 0.431644 0.748205 0.427851
Si Si3 0.068133 0.599266 0.034999
Si Si4 0.567079 0.901998 0.043921
Si Si5 0.929437 0.904714 0.807893
Si Si6 0.067531 0.258567 0.190903
Si Si7 0.569143 0.599009 0.578860
Si Si8 0.571235 0.596814 0.819630
O O1 0.750000 0.901784 0.548395
O O2 0.479993 0.839501 0.486119
O O3 0.534418 0.855305 0.692995
O O4 0.500000 0.000000 0.561733
O O5 0.250000 0.747754 0.406302
O O6 0.522243 0.744333 0.315599
O O7 0.477670 0.661860 0.497141
O O8 0.250000 0.593807 0.038040
O O9 0.000000 0.500000 0.043002
O O10 0.009605 0.655090 0.137186
O O11 0.013362 0.646373 0.920675
O O12 0.750000 0.909760 0.051874
O O13 0.504504 0.831453 0.132165
O O14 0.500000 0.000000 0.068572
O O15 0.512389 0.864423 0.923616
O O16 0.750000 0.918423 0.820715
O O17 0.000000 0.000000 0.790888
O O18 0.250000 0.267083 0.177692
O O19 0.500000 0.500000 0.569327
O O20 0.750000 0.596117 0.548570
O O21 0.547727 0.641241 0.700765
O O22 0.500000 0.500000 0.808890
O O23 0.750000 0.590837 0.850602
#
# Coordination Sequence:
#
# PCOD8168392 Si02
#       8
#     4   4   4   4   4   4   4   4
#     4  10  20  37  61  88 119 154 191 236 290 348
#     4  12  26  42  59  83 115 153 201 249 294 349
#     4  11  22  38  61  89 120 154 192 237 290 346
#     4   9  19  36  60  87 116 149 184 229 283 339
#     4   8  15  30  54  85 116 145 180 223 278 341
#     4  11  24  42  60  82 114 153 200 247 291 343
#     4  10  21  39  63  90 120 154 192 237 291 349
#     4   9  17  32  57  88 120 152 187 230 283 345
#
# _framework density 20.173304999999999
#
# number of rings (size 3 to 8) (size 9 to 14) (size 15 to 20)
#    0.000    2.000    0.000    4.500    0.000    5.000 
#    0.000    6.250    0.000    0.000    0.000    0.000 
#    0.000    0.000    0.000    0.000    0.000    0.000 
#
# Total GULP energy -396509.550933 kJ/mol
# GULP energy per Si atom -12390.923467 kJ/mol
# Density = 2.012739 g / cm^3
# Si number density = 20.173305 Si / 1000 Ang^3
#
#
#
# Elastic Constant Matrix: (Units=GPa)
#
#
# Indices 1 2 3 4 5 6 
#
# 1 91.2135 30.2550 30.0588 0.0000 0.0000 0.0000
# 2 30.2550 92.1565 52.4523 0.0000 0.0000 0.0000
# 3 30.0588 52.4523 132.3493 0.0000 0.0000 0.0000
# 4 0.0000 0.0000 0.0000 29.6269 0.0000 0.0000
# 5 0.0000 0.0000 0.0000 0.0000 31.4527 0.0000
# 6 0.0000 0.0000 0.0000 0.0000 0.0000 29.6902
#
#
#
# Elastic Compliance Matrix: (Units=1/GPa)
#
#
# Indices 1 2 3 4 5 6 
#
# 1 0.012551 -0.003226 -0.001572 0.000000 0.000000 0.000000
# 2 -0.003226 0.014841 -0.005149 0.000000 0.000000 0.000000
# 3 -0.001572 -0.005149 0.009953 0.000000 0.000000 0.000000
# 4 0.000000 0.000000 0.000000 0.033753 0.000000 0.000000
# 5 0.000000 0.000000 0.000000 0.000000 0.031794 0.000000
# 6 0.000000 0.000000 0.000000 0.000000 0.000000 0.033681
#
#
# Mechanical properties :
#
#
# Convention : Reuss Voigt Hill
#
# Bulk Modulus (GPa) = 57.30124 60.13905 58.72015
# Shear Modulus (GPa) = 30.81004 31.68420 31.24712
#
# Velocity S-wave (km/s) = 3.91227 3.96738 3.93992
# Velocity P-wave (km/s) = 6.99099 7.13181 7.06175
#
# Compressibility (1/GPa) = 0.01745163
#
# Stress axis : x y z
#
# Youngs Moduli (GPa) = 79.67257 67.38194 100.46732
#
# Poissons Ratio (x) = 0.21736 0.15795
# Poissons Ratio (y) = 0.25701 0.51731
# Poissons Ratio (z) = 0.12526 0.34695
#
# Static dielectric constant tensor:
#      x y z
#    x 3.726470 0.000000 0.000000 
#    y 0.000000 3.472360 0.000000 
#    z 0.000000 0.000000 4.265570 
# 
# 
# High freq. dielectric constant tensor:
#      x y z
#    x 1.794650 0.000000 0.000000 
#    y 0.000000 1.771960 0.000000 
#    z 0.000000 0.000000 1.803840 
# 
# From -- ./inp_files/4980.got.cif
#   From: 2010.03.12/outbox.cif.g09.slc.cpg/sg28_3_cif.got.tgz:4980.got - 2010.04.14 03:39:34.
