data_PCOD8168240
_publ_section_title
;
Structure prediction by ZEFSAII (Michael W. Deem and Ramdas Pophale) SiO2 
 PCOD8168240
Probable space group: P M A 2
;
_chemical_formula_sum "Si O2"
_cell_formula_units_Z 32
_cell_length_a 14.470816
_cell_length_b 17.705861
_cell_length_c 6.906079
_cell_angle_alpha 90.000000
_cell_angle_beta 90.000000
_cell_angle_gamma 90.000000
_cell_volume 1769.463522
_symmetry_space_group_name_H-M "P M A 2"
_symmetry_group_IT_number 28
_symmetry_cell_setting 'orthorhombic'
loop_
_space_group_symop_operation_xyz
x,y,z
-x,-y,z
1/2-x,y,z
1/2+x,-y,z
loop_
_atom_site_type_symbol
_atom_site_label
_atom_site_fract_x
_atom_site_fract_y
_atom_site_fract_z
Si Si1 0.003516 0.836384 0.859510
Si Si2 0.856401 0.908524 0.589796
Si Si3 0.854419 0.418058 0.526571
Si Si4 0.089423 0.545093 0.111548
Si Si5 0.480494 0.660300 0.803258
Si Si6 0.499655 0.086539 0.263789
Si Si7 0.147902 0.443699 0.780159
Si Si8 0.856070 0.084425 0.591096
O O1 0.011877 0.747309 0.849161
O O2 0.095003 0.872179 0.766083
O O3 0.909032 0.862857 0.757175
O O4 0.000207 0.858233 0.083227
O O5 0.750000 0.881303 0.575324
O O6 0.907149 0.894792 0.385475
O O7 0.862428 0.996417 0.643607
O O8 0.750000 0.400262 0.593110
O O9 0.856079 0.423628 0.295410
O O10 0.920226 0.351739 0.607784
O O11 0.887752 0.497269 0.618880
O O12 0.000000 0.500000 0.184784
O O13 0.066575 0.617689 0.981968
O O14 0.149270 0.485696 0.987820
O O15 0.583089 0.628750 0.771333
O O16 0.590825 0.102388 0.391841
O O17 0.500000 0.000000 0.192447
O O18 0.250000 0.414016 0.732756
O O19 0.750000 0.111127 0.570683
#
# Coordination Sequence:
#
# PCOD8168240 Si02
#       8
#     4   4   4   4   4   4   4   4
#     4  11  21  34  53  78 110 144 172 204 258 321
#     4   9  19  36  57  79 102 132 176 225 262 299
#     4  10  19  34  57  77  96 130 174 214 251 294
#     4   9  17  32  53  75 100 131 169 212 253 295
#     4  10  22  34  48  76 111 137 162 203 254 309
#     4   9  18  34  55  78 103 134 175 219 260 304
#     4   9  18  34  54  75  98 128 170 214 252 295
#     4   9  19  36  56  78 103 134 178 225 260 297
#
# _framework density 18.084576999999999
#
# number of rings (size 3 to 8) (size 9 to 14) (size 15 to 20)
#    0.000    2.500    0.000    4.125    0.000    4.500 
#    0.000    2.500    0.000    0.000    0.000    0.000 
#    0.000    0.000    0.000    0.000    0.000    0.000 
#
# Total GULP energy -396812.951944 kJ/mol
# GULP energy per Si atom -12400.404748 kJ/mol
# Density = 1.804342 g / cm^3
# Si number density = 18.084577 Si / 1000 Ang^3
#
#
#
# Elastic Constant Matrix: (Units=GPa)
#
#
# Indices 1 2 3 4 5 6 
#
# 1 127.5017 44.4720 39.6892 0.0000 0.0000 0.0000
# 2 44.4720 91.6324 38.7868 0.0000 0.0000 0.0000
# 3 39.6892 38.7868 98.0612 0.0000 0.0000 0.0000
# 4 0.0000 0.0000 0.0000 9.1585 0.0000 0.0000
# 5 0.0000 0.0000 0.0000 0.0000 17.9561 0.0000
# 6 0.0000 0.0000 0.0000 0.0000 0.0000 16.8103
#
#
#
# Elastic Compliance Matrix: (Units=1/GPa)
#
#
# Indices 1 2 3 4 5 6 
#
# 1 0.009942 -0.003750 -0.002541 0.000000 0.000000 0.000000
# 2 -0.003750 0.014522 -0.004226 0.000000 0.000000 0.000000
# 3 -0.002541 -0.004226 0.012898 0.000000 0.000000 0.000000
# 4 0.000000 0.000000 0.000000 0.109188 0.000000 0.000000
# 5 0.000000 0.000000 0.000000 0.000000 0.055691 0.000000
# 6 0.000000 0.000000 0.000000 0.000000 0.000000 0.059488
#
#
# Mechanical properties :
#
#
# Convention : Reuss Voigt Hill
#
# Bulk Modulus (GPa) = 61.24418 62.56572 61.90495
# Shear Modulus (GPa) = 17.34880 21.73479 19.54179
#
# Velocity S-wave (km/s) = 3.10064 3.47052 3.29078
# Velocity P-wave (km/s) = 6.83795 7.12254 6.98170
#
# Compressibility (1/GPa) = 0.01632808
#
# Stress axis : x y z
#
# Youngs Moduli (GPa) = 100.58580 68.86143 77.53312
#
# Poissons Ratio (x) = 0.25820 0.19699
# Poissons Ratio (y) = 0.37716 0.32768
# Poissons Ratio (z) = 0.25556 0.29103
#
# Static dielectric constant tensor:
#      x y z
#    x 3.528670 0.000000 0.000000 
#    y 0.000000 3.076750 0.000000 
#    z 0.000000 0.000000 3.237090 
# 
# 
# High freq. dielectric constant tensor:
#      x y z
#    x 1.710590 0.000000 0.000000 
#    y 0.000000 1.677890 0.000000 
#    z 0.000000 0.000000 1.698890 
# 
# From -- ./inp_files/863.got.cif
#   From: 2010.03.12/outbox.cif.g09.slc.cpg/sg28_1_cif.got.tgz:863.got - 2010.04.14 03:39:34.
