data_PCOD8168145
_publ_section_title
;
Structure prediction by ZEFSAII (Michael W. Deem and Ramdas Pophale) SiO2 
 PCOD8168145
Probable space group: P M A 2
;
_chemical_formula_sum "Si O2"
_cell_formula_units_Z 32
_cell_length_a 9.183923
_cell_length_b 14.500516
_cell_length_c 12.248219
_cell_angle_alpha 90.000000
_cell_angle_beta 90.000000
_cell_angle_gamma 90.000000
_cell_volume 1631.115196
_symmetry_space_group_name_H-M "P M A 2"
_symmetry_group_IT_number 28
_symmetry_cell_setting 'orthorhombic'
loop_
_space_group_symop_operation_xyz
x,y,z
-x,-y,z
1/2-x,y,z
1/2+x,-y,z
loop_
_atom_site_type_symbol
_atom_site_label
_atom_site_fract_x
_atom_site_fract_y
_atom_site_fract_z
Si Si1 0.077474 0.411393 0.523250
Si Si2 0.914537 0.412316 0.981830
Si Si3 0.082415 0.181555 0.823110
Si Si4 0.917972 0.356100 0.739985
Si Si5 0.920263 0.207153 0.030898
Si Si6 0.089869 0.083761 0.611700
Si Si7 0.578782 0.098962 0.251912
Si Si8 0.417460 0.218834 0.428681
O O1 0.250000 0.425374 0.536555
O O2 0.042658 0.326442 0.441945
O O3 0.000000 0.500000 0.468248
O O4 0.009957 0.402077 0.643841
O O5 0.750000 0.425548 0.019813
O O6 0.929407 0.415366 0.850741
O O7 0.000000 0.500000 0.031226
O O8 0.971977 0.314715 0.032059
O O9 0.250000 0.214314 0.836590
O O10 0.072315 0.094645 0.741871
O O11 0.984803 0.257720 0.766003
O O12 0.013666 0.153666 0.939101
O O13 0.750000 0.345313 0.703364
O O14 0.750000 0.203139 0.999888
O O15 0.955461 0.154370 0.141639
O O16 0.250000 0.052941 0.580764
O O17 0.053229 0.178298 0.549313
O O18 0.000000 0.000000 0.563502
O O19 0.750000 0.081819 0.267296
O O20 0.521997 0.166311 0.345840
O O21 0.500000 0.000000 0.252660
O O22 0.250000 0.206410 0.391112
#
# Coordination Sequence:
#
# PCOD8168145 Si02
#       8
#     4   4   4   4   4   4   4   4
#     4  11  22  37  57  85 121 158 199 246 292 349
#     4   9  18  32  51  79 114 152 191 231 278 333
#     4  10  19  34  55  82 118 156 193 238 293 349
#     4  10  19  32  52  80 117 161 201 238 287 345
#     4   9  21  40  58  82 117 152 192 243 293 350
#     4  10  21  36  54  82 116 151 187 234 291 351
#     4  11  24  43  67  90 114 148 197 252 304 361
#     4  10  22  42  62  84 119 153 194 249 296 349
#
# _framework density 19.618480000000002
#
# number of rings (size 3 to 8) (size 9 to 14) (size 15 to 20)
#    0.000    2.000    1.250    3.000    0.000    8.500 
#    0.000    3.125    0.000    3.000    0.000    0.000 
#    0.000    0.000    0.000    0.000    0.000    0.000 
#
# Total GULP energy -396663.961625 kJ/mol
# GULP energy per Si atom -12395.748801 kJ/mol
# Density = 1.957383 g / cm^3
# Si number density = 19.618480 Si / 1000 Ang^3
#
#
#
# Elastic Constant Matrix: (Units=GPa)
#
#
# Indices 1 2 3 4 5 6 
#
# 1 111.9621 68.8488 55.5449 0.0000 0.0000 0.0000
# 2 68.8488 127.7365 52.8007 0.0000 0.0000 0.0000
# 3 55.5449 52.8007 91.6308 0.0000 0.0000 0.0000
# 4 0.0000 0.0000 0.0000 -14.1163 0.0000 0.0000
# 5 0.0000 0.0000 0.0000 0.0000 44.2043 0.0000
# 6 0.0000 0.0000 0.0000 0.0000 0.0000 31.9080
#
#
#
# Elastic Compliance Matrix: (Units=1/GPa)
#
#
# Indices 1 2 3 4 5 6 
#
# 1 0.015542 -0.005884 -0.006030 0.000000 0.000000 0.000000
# 2 -0.005884 0.012504 -0.003638 0.000000 0.000000 0.000000
# 3 -0.006030 -0.003638 0.016666 0.000000 0.000000 0.000000
# 4 0.000000 0.000000 0.000000 -0.070840 0.000000 0.000000
# 5 0.000000 0.000000 0.000000 0.000000 0.022622 0.000000
# 6 0.000000 0.000000 0.000000 0.000000 0.000000 0.031340
#
#
# Mechanical properties :
#
#
# Convention : Reuss Voigt Hill
#
# Bulk Modulus (GPa) = 73.50098 76.19091 74.84595
# Shear Modulus (GPa) = 78.77186 22.67486 50.72336
#
# Velocity S-wave (km/s) = 6.34342 3.40338 5.09029
# Velocity P-wave (km/s) = 9.54979 7.37324 8.53121
#
# Compressibility (1/GPa) = 0.01360526
#
# Stress axis : x y z
#
# Youngs Moduli (GPa) = 64.34338 79.97415 60.00417
#
# Poissons Ratio (x) = 0.47057 0.36185
# Poissons Ratio (y) = 0.37860 0.21832
# Poissons Ratio (z) = 0.38802 0.29098
#
# Static dielectric constant tensor:
#      x y z
#    x 3.629430 0.000000 0.000000 
#    y 0.000000 3.618660 0.000000 
#    z 0.000000 0.000000 3.516600 
# 
# 
# High freq. dielectric constant tensor:
#      x y z
#    x 1.771110 0.000000 0.000000 
#    y 0.000000 1.766930 0.000000 
#    z 0.000000 0.000000 1.743190 
# 
# From -- ./inp_files/5088.got.cif
#   From: 2010.03.12/outbox.cif.g09.slc.cpg/sg28_3_cif.got.tgz:5088.got - 2010.04.14 03:39:34.
