data_PCOD8168354
_publ_section_title
;
Structure prediction by ZEFSAII (Michael W. Deem and Ramdas Pophale) SiO2 
 PCOD8168354
Probable space group: P M A 2
;
_chemical_formula_sum "Si O2"
_cell_formula_units_Z 24
_cell_length_a 8.728143
_cell_length_b 9.432562
_cell_length_c 15.299441
_cell_angle_alpha 90.000000
_cell_angle_beta 90.000000
_cell_angle_gamma 90.000000
_cell_volume 1259.583853
_symmetry_space_group_name_H-M "P M A 2"
_symmetry_group_IT_number 28
_symmetry_cell_setting 'orthorhombic'
loop_
_space_group_symop_operation_xyz
x,y,z
-x,-y,z
1/2-x,y,z
1/2+x,-y,z
loop_
_atom_site_type_symbol
_atom_site_label
_atom_site_fract_x
_atom_site_fract_y
_atom_site_fract_z
Si Si1 0.069441 0.844575 0.552720
Si Si2 0.568222 0.345506 0.390146
Si Si3 0.929151 0.148904 0.867519
Si Si4 0.068718 0.654852 0.713450
Si Si5 0.931731 0.653782 0.210660
Si Si6 0.568969 0.150512 0.066338
O O1 0.250000 0.860712 0.557270
O O2 0.017999 0.762911 0.465397
O O3 0.008689 0.753496 0.634707
O O4 0.000000 0.000000 0.554371
O O5 0.500000 0.500000 0.411076
O O6 0.750000 0.360063 0.382137
O O7 0.499522 0.281424 0.300360
O O8 0.750000 0.128535 0.857206
O O9 0.987943 0.273789 0.804073
O O10 0.973523 0.189573 0.966524
O O11 0.000000 0.000000 0.838420
O O12 0.250000 0.639979 0.710279
O O13 0.000000 0.500000 0.704314
O O14 0.750000 0.648676 0.216580
O O15 0.000000 0.500000 0.198014
O O16 0.984024 0.739058 0.126771
O O17 0.750000 0.151829 0.082874
O O18 0.500000 0.000000 0.091564
#
# Coordination Sequence:
#
# PCOD8168354 Si02
#       6
#     4   4   4   4   4   4
#     4  10  22  37  56  81 110 141 178 220 265 317
#     4  10  20  36  56  80 108 141 180 224 269 321
#     4   9  19  35  56  80 109 142 180 222 267 317
#     4  10  21  37  55  81 111 142 179 220 264 316
#     4  11  22  37  57  81 109 145 183 226 275 325
#     4  10  20  36  56  81 111 145 183 226 272 324
#
# _framework density 19.053910999999999
#
# number of rings (size 3 to 8) (size 9 to 14) (size 15 to 20)
#    0.000    2.000    0.000    4.500    0.000    4.667 
#    0.000    3.333    0.000    0.000    0.000    0.000 
#    0.000    0.000    0.000    0.000    0.000    0.000 
#
# Total GULP energy -297632.894371 kJ/mol
# GULP energy per Si atom -12401.370599 kJ/mol
# Density = 1.901054 g / cm^3
# Si number density = 19.053911 Si / 1000 Ang^3
#
#
#
# Elastic Constant Matrix: (Units=GPa)
#
#
# Indices 1 2 3 4 5 6 
#
# 1 75.8554 46.2940 49.7986 0.0000 0.0000 0.0000
# 2 46.2940 133.7696 94.6302 0.0000 0.0000 0.0000
# 3 49.7986 94.6302 149.7200 0.0000 0.0000 0.0000
# 4 0.0000 0.0000 0.0000 40.8709 0.0000 0.0000
# 5 0.0000 0.0000 0.0000 0.0000 10.4613 0.0000
# 6 0.0000 0.0000 0.0000 0.0000 0.0000 37.4378
#
#
#
# Elastic Compliance Matrix: (Units=1/GPa)
#
#
# Indices 1 2 3 4 5 6 
#
# 1 0.017755 -0.003557 -0.003657 0.000000 0.000000 0.000000
# 2 -0.003557 0.014234 -0.007813 0.000000 0.000000 0.000000
# 3 -0.003657 -0.007813 0.012834 0.000000 0.000000 0.000000
# 4 0.000000 0.000000 0.000000 0.024467 0.000000 0.000000
# 5 0.000000 0.000000 0.000000 0.000000 0.095590 0.000000
# 6 0.000000 0.000000 0.000000 0.000000 0.000000 0.026711
#
#
# Mechanical properties :
#
#
# Convention : Reuss Voigt Hill
#
# Bulk Modulus (GPa) = 67.71775 82.31009 75.01392
# Shear Modulus (GPa) = 22.06836 28.99549 25.53192
#
# Velocity S-wave (km/s) = 3.40694 3.90521 3.66455
# Velocity P-wave (km/s) = 7.14797 7.97662 7.57364
#
# Compressibility (1/GPa) = 0.01476718
#
# Stress axis : x y z
#
# Youngs Moduli (GPa) = 56.32257 70.25504 77.91917
#
# Poissons Ratio (x) = 0.24993 0.28495
# Poissons Ratio (y) = 0.20037 0.60880
# Poissons Ratio (z) = 0.20597 0.54892
#
# Static dielectric constant tensor:
#      x y z
#    x 3.489180 0.000000 0.000000 
#    y 0.000000 3.459170 0.000000 
#    z 0.000000 0.000000 3.926160 
# 
# 
# High freq. dielectric constant tensor:
#      x y z
#    x 1.743330 0.000000 0.000000 
#    y 0.000000 1.739840 0.000000 
#    z 0.000000 0.000000 1.758210 
# 
# From -- ./inp_files/6020.got.cif
#   From: 2010.03.12/outbox.cif.g09.slc.cpg/sg28_4_cif.got.tgz:6020.got - 2010.04.14 03:39:34.
