data_PCOD8168761
_publ_section_title
;
Structure prediction by ZEFSAII (Michael W. Deem and Ramdas Pophale) SiO2 
 PCOD8168761
Probable space group: P C A 21
;
_chemical_formula_sum "Si O2"
_cell_formula_units_Z 32
_cell_length_a 17.483938
_cell_length_b 18.656501
_cell_length_c 5.060838
_cell_angle_alpha 90.000000
_cell_angle_beta 90.000000
_cell_angle_gamma 90.000000
_cell_volume 1650.790227
_symmetry_space_group_name_H-M "P C A 21"
_symmetry_group_IT_number 29
_symmetry_cell_setting 'orthorhombic'
loop_
_space_group_symop_operation_xyz
x,y,z
-x,-y,1/2+z
1/2-x,y,1/2+z
1/2+x,-y,z
loop_
_atom_site_type_symbol
_atom_site_label
_atom_site_fract_x
_atom_site_fract_y
_atom_site_fract_z
Si Si1 0.450980 0.416172 0.758080
Si Si2 0.201828 0.331129 0.184900
Si Si3 0.089241 0.045903 0.018751
Si Si4 0.702933 0.835580 0.170647
Si Si5 0.297071 0.833543 0.915071
Si Si6 0.298494 0.667359 0.903936
Si Si7 0.910682 0.045417 0.014070
Si Si8 0.450416 0.583101 0.762449
O O1 0.372929 0.372732 0.778687
O O2 0.429881 0.499538 0.776795
O O3 0.487788 0.395910 0.480489
O O4 0.511898 0.394652 0.984189
O O5 0.268058 0.351850 0.394676
O O6 0.180875 0.247555 0.173798
O O7 0.999840 0.062481 0.029147
O O8 0.114685 0.008637 0.746352
O O9 0.129051 0.121512 0.073245
O O10 0.114258 0.991234 0.243898
O O11 0.728917 0.855323 0.466662
O O12 0.271723 0.852030 0.617440
O O13 0.320629 0.750669 0.914888
O O14 0.369298 0.878283 0.017730
O O15 0.232153 0.647021 0.694040
O O16 0.373160 0.624959 0.819088
#
# Coordination Sequence:
#
# PCOD8168761 Si02
#       8
#     4   4   4   4   4   4   4   4
#     4  10  21  37  57  83 113 145 185 229 273 327
#     4  10  21  37  56  81 112 144 182 226 272 326
#     4  10  21  36  53  76 105 136 174 218 263 315
#     4  10  21  36  54  78 106 137 176 219 263 316
#     4  10  21  36  54  78 106 137 176 219 263 316
#     4  10  21  37  56  81 112 144 182 226 272 326
#     4  10  21  36  53  76 105 136 174 218 263 315
#     4  10  21  37  57  83 113 145 185 229 273 327
#
# _framework density 19.384654999999999
#
# number of rings (size 3 to 8) (size 9 to 14) (size 15 to 20)
#    0.000    2.000    0.000    3.000    0.000    5.000 
#    0.000    3.750    0.000    0.000    0.000    0.000 
#    0.000    0.000    0.000    0.000    0.000    0.000 
#
# Total GULP energy -396799.547315 kJ/mol
# GULP energy per Si atom -12399.985854 kJ/mol
# Density = 1.934054 g / cm^3
# Si number density = 19.384655 Si / 1000 Ang^3
#
#
#
# Elastic Constant Matrix: (Units=GPa)
#
#
# Indices 1 2 3 4 5 6 
#
# 1 88.4740 66.1751 24.2137 0.0000 0.0000 0.0000
# 2 66.1751 78.5111 29.8285 0.0000 0.0000 0.0000
# 3 24.2137 29.8285 85.9508 0.0000 0.0000 0.0000
# 4 0.0000 0.0000 0.0000 20.7454 0.0000 0.0000
# 5 0.0000 0.0000 0.0000 0.0000 16.9499 0.0000
# 6 0.0000 0.0000 0.0000 0.0000 0.0000 12.6671
#
#
#
# Elastic Compliance Matrix: (Units=1/GPa)
#
#
# Indices 1 2 3 4 5 6 
#
# 1 0.030595 -0.025932 0.000381 0.000000 0.000000 0.000000
# 2 -0.025932 0.036652 -0.005414 0.000000 0.000000 0.000000
# 3 0.000381 -0.005414 0.013406 0.000000 0.000000 0.000000
# 4 0.000000 0.000000 0.000000 0.048203 0.000000 0.000000
# 5 0.000000 0.000000 0.000000 0.000000 0.058997 0.000000
# 6 0.000000 0.000000 0.000000 0.000000 0.000000 0.078945
#
#
# Mechanical properties :
#
#
# Convention : Reuss Voigt Hill
#
# Bulk Modulus (GPa) = 53.41560 54.81894 54.11727
# Shear Modulus (GPa) = 14.92669 18.92041 16.92355
#
# Velocity S-wave (km/s) = 2.77794 3.12757 2.95793
# Velocity P-wave (km/s) = 6.15668 6.43298 6.29635
#
# Compressibility (1/GPa) = 0.01872112
#
# Stress axis : x y z
#
# Youngs Moduli (GPa) = 32.68514 27.28387 74.59183
#
# Poissons Ratio (x) = 0.70753 -0.02838
# Poissons Ratio (y) = 0.84760 0.40385
# Poissons Ratio (z) = -0.01244 0.14772
#
# Static dielectric constant tensor:
#      x y z
#    x 3.335790 0.000000 0.000000 
#    y 0.000000 3.475090 0.000000 
#    z 0.000000 0.000000 3.935870 
# 
# 
# High freq. dielectric constant tensor:
#      x y z
#    x 1.746770 0.000000 0.000000 
#    y 0.000000 1.748890 0.000000 
#    z 0.000000 0.000000 1.778650 
# 
# From -- ./inp_files/269.got.cif
#   From: 2010.03.12/outbox.cif.g09.slc.cpg/sg29_1_cif.got.tgz:269.got - 2010.04.14 03:43:10.
