data_PCOD8168260
_publ_section_title
;
Structure prediction by ZEFSAII (Michael W. Deem and Ramdas Pophale) SiO2 
 PCOD8168260
Probable space group: P M A 2
;
_chemical_formula_sum "Si O2"
_cell_formula_units_Z 32
_cell_length_a 17.727131
_cell_length_b 18.877366
_cell_length_c 5.102552
_cell_angle_alpha 90.000000
_cell_angle_beta 90.000000
_cell_angle_gamma 90.000000
_cell_volume 1707.525859
_symmetry_space_group_name_H-M "P M A 2"
_symmetry_group_IT_number 28
_symmetry_cell_setting 'orthorhombic'
loop_
_space_group_symop_operation_xyz
x,y,z
-x,-y,z
1/2-x,y,z
1/2+x,-y,z
loop_
_atom_site_type_symbol
_atom_site_label
_atom_site_fract_x
_atom_site_fract_y
_atom_site_fract_z
Si Si1 0.956177 0.826210 0.004550
Si Si2 0.029844 0.332822 0.977693
Si Si3 0.445036 0.834331 0.507275
Si Si4 0.162248 0.542249 0.449424
Si Si5 0.086832 0.478785 0.949392
Si Si6 0.071478 0.675399 0.480738
Si Si7 0.662334 0.945418 0.995326
Si Si8 0.662320 0.035604 0.497521
O O1 0.931204 0.744426 0.969432
O O2 0.989439 0.839966 0.291827
O O3 0.019088 0.847019 0.791756
O O4 0.881896 0.872415 0.963431
O O5 0.093779 0.393483 0.984525
O O6 0.976126 0.340315 0.224388
O O7 0.979072 0.346617 0.725069
O O8 0.404398 0.757756 0.494769
O O9 0.381828 0.892117 0.452928
O O10 0.250000 0.529282 0.496507
O O11 0.139661 0.516541 0.160807
O O12 0.145540 0.626273 0.476756
O O13 0.114505 0.498405 0.660256
O O14 0.000000 0.500000 0.991042
O O15 0.750000 0.926156 0.973147
O O16 0.638198 0.000195 0.769996
O O17 0.641212 0.980690 0.270255
O O18 0.750000 0.055244 0.490936
#
# Coordination Sequence:
#
# PCOD8168260 Si02
#       8
#     4   4   4   4   4   4   4   4
#     4  10  21  36  55  84 108 138 183 237 268 320
#     4  10  20  35  59  82 105 139 195 226 265 336
#     4  10  21  34  56  83 112 138 181 228 272 320
#     4  12  24  37  56  89 121 146 188 241 284 333
#     4  12  21  38  64  83 108 158 196 228 280 343
#     4  10  19  36  54  81 111 145 180 221 279 335
#     4  10  21  37  55  75 106 145 184 221 275 331
#     4  10  21  36  54  78 108 146 183 217 269 341
#
# _framework density 18.740566000000001
#
# number of rings (size 3 to 8) (size 9 to 14) (size 15 to 20)
#    0.000    1.500    2.500    3.000    0.000    3.500 
#    0.000    1.250    0.000    9.000    0.000    0.000 
#    0.000    0.000    0.000    0.000    0.000    0.000 
#
# Total GULP energy -396916.258698 kJ/mol
# GULP energy per Si atom -12403.633084 kJ/mol
# Density = 1.869791 g / cm^3
# Si number density = 18.740566 Si / 1000 Ang^3
#
#
#
# Elastic Constant Matrix: (Units=GPa)
#
#
# Indices 1 2 3 4 5 6 
#
# 1 69.2431 60.8732 13.5712 0.0000 0.0000 0.0000
# 2 60.8732 128.9417 7.1739 0.0000 0.0000 0.0000
# 3 13.5712 7.1739 84.6574 0.0000 0.0000 0.0000
# 4 0.0000 0.0000 0.0000 25.1269 0.0000 0.0000
# 5 0.0000 0.0000 0.0000 0.0000 18.1508 0.0000
# 6 0.0000 0.0000 0.0000 0.0000 0.0000 25.5916
#
#
#
# Elastic Compliance Matrix: (Units=1/GPa)
#
#
# Indices 1 2 3 4 5 6 
#
# 1 0.025462 -0.011849 -0.003078 0.000000 0.000000 0.000000
# 2 -0.011849 0.013307 0.000772 0.000000 0.000000 0.000000
# 3 -0.003078 0.000772 0.012240 0.000000 0.000000 0.000000
# 4 0.000000 0.000000 0.000000 0.039798 0.000000 0.000000
# 5 0.000000 0.000000 0.000000 0.000000 0.055094 0.000000
# 6 0.000000 0.000000 0.000000 0.000000 0.000000 0.039075
#
#
# Mechanical properties :
#
#
# Convention : Reuss Voigt Hill
#
# Bulk Modulus (GPa) = 44.05522 49.56430 46.80976
# Shear Modulus (GPa) = 22.63951 27.18879 24.91415
#
# Velocity S-wave (km/s) = 3.47947 3.81307 3.65008
# Velocity P-wave (km/s) = 6.30089 6.77429 6.54187
#
# Compressibility (1/GPa) = 0.02269879
#
# Stress axis : x y z
#
# Youngs Moduli (GPa) = 39.27397 75.15071 81.69751
#
# Poissons Ratio (x) = 0.89049 0.25144
# Poissons Ratio (y) = 0.46537 -0.06307
# Poissons Ratio (z) = 0.12087 -0.05801
#
# Static dielectric constant tensor:
#      x y z
#    x 3.092570 0.000000 0.000000 
#    y 0.000000 3.690820 0.000000 
#    z 0.000000 0.000000 3.665600 
# 
# 
# High freq. dielectric constant tensor:
#      x y z
#    x 1.695830 0.000000 0.000000 
#    y 0.000000 1.741190 0.000000 
#    z 0.000000 0.000000 1.752950 
# 
# From -- ./inp_files/859.got.cif
#   From: 2010.03.12/outbox.cif.g09.slc.cpg/sg28_1_cif.got.tgz:859.got - 2010.04.14 03:39:34.
