data_PCOD8168077
_publ_section_title
;
Structure prediction by ZEFSAII (Michael W. Deem and Ramdas Pophale) SiO2 
 PCOD8168077
Probable space group: P M A 2
;
_chemical_formula_sum "Si O2"
_cell_formula_units_Z 28
_cell_length_a 9.012107
_cell_length_b 15.223048
_cell_length_c 12.754226
_cell_angle_alpha 90.000000
_cell_angle_beta 90.000000
_cell_angle_gamma 90.000000
_cell_volume 1749.774425
_symmetry_space_group_name_H-M "P M A 2"
_symmetry_group_IT_number 28
_symmetry_cell_setting 'orthorhombic'
loop_
_space_group_symop_operation_xyz
x,y,z
-x,-y,z
1/2-x,y,z
1/2+x,-y,z
loop_
_atom_site_type_symbol
_atom_site_label
_atom_site_fract_x
_atom_site_fract_y
_atom_site_fract_z
Si Si1 0.412170 0.081765 0.952410
Si Si2 0.422449 0.592810 0.357093
Si Si3 0.926377 0.263903 0.190155
Si Si4 0.584072 0.915695 0.200712
Si Si5 0.576146 0.406153 0.588591
Si Si6 0.074846 0.405714 0.788966
Si Si7 0.925366 0.727397 0.972007
O O1 0.250000 0.075487 0.902042
O O2 0.480875 0.177881 0.926885
O O3 0.500000 0.000000 0.902105
O O4 0.405644 0.072232 0.076851
O O5 0.500000 0.500000 0.338457
O O6 0.250000 0.573648 0.343015
O O7 0.479088 0.663070 0.273101
O O8 0.453157 0.634352 0.473235
O O9 0.750000 0.254524 0.184251
O O10 0.993649 0.171872 0.228764
O O11 0.988495 0.295048 0.078321
O O12 0.750000 0.909757 0.248348
O O13 0.500000 0.000000 0.249977
O O14 0.500000 0.500000 0.587911
O O15 0.750000 0.413719 0.613054
O O16 0.494929 0.356846 0.685751
O O17 0.250000 0.416548 0.774296
O O18 0.035508 0.346874 0.888864
O O19 0.000000 0.500000 0.807958
O O20 0.750000 0.733445 0.997210
#
# Coordination Sequence:
#
# PCOD8168077 Si02
#       7
#     4   4   4   4   4   4   4
#     4   8  14  25  40  58  80 107 138 171 207 246
#     4   9  19  32  46  65  89 117 148 185 224 262
#     4  10  19  30  44  65  92 120 150 182 219 264
#     4   9  16  27  43  63  87 116 148 182 220 259
#     4   9  16  29  47  65  84 107 142 186 226 260
#     4  10  19  31  46  64  87 115 147 183 221 260
#     4   9  19  32  43  60  90 122 147 175 215 263
#
# _framework density 16.002061999999999
#
# number of rings (size 3 to 8) (size 9 to 14) (size 15 to 20)
#    0.000    2.857    0.000    3.429    0.000    6.857 
#    0.000    2.857    0.000    0.000    0.000    1.000 
#    0.000    4.571    0.000    0.000    0.000    0.000 
#
# Total GULP energy -346956.424013 kJ/mol
# GULP energy per Si atom -12391.300858 kJ/mol
# Density = 1.596564 g / cm^3
# Si number density = 16.002062 Si / 1000 Ang^3
#
#
#
# Elastic Constant Matrix: (Units=GPa)
#
#
# Indices 1 2 3 4 5 6 
#
# 1 87.3496 51.3293 50.2318 0.0000 0.0000 0.0000
# 2 51.3293 109.0679 66.4335 0.0000 0.0000 0.0000
# 3 50.2318 66.4335 92.9278 0.0000 0.0000 0.0000
# 4 0.0000 0.0000 0.0000 1.2143 0.0000 0.0000
# 5 0.0000 0.0000 0.0000 0.0000 10.8368 0.0000
# 6 0.0000 0.0000 0.0000 0.0000 0.0000 23.3763
#
#
#
# Elastic Compliance Matrix: (Units=1/GPa)
#
#
# Indices 1 2 3 4 5 6 
#
# 1 0.017751 -0.004445 -0.006417 0.000000 0.000000 0.000000
# 2 -0.004445 0.017353 -0.010003 0.000000 0.000000 0.000000
# 3 -0.006417 -0.010003 0.021381 0.000000 0.000000 0.000000
# 4 0.000000 0.000000 0.000000 0.823546 0.000000 0.000000
# 5 0.000000 0.000000 0.000000 0.000000 0.092278 0.000000
# 6 0.000000 0.000000 0.000000 0.000000 0.000000 0.042778
#
#
# Mechanical properties :
#
#
# Convention : Reuss Voigt Hill
#
# Bulk Modulus (GPa) = 67.77714 69.48160 68.62937
# Shear Modulus (GPa) = 4.70927 15.17554 9.94240
#
# Velocity S-wave (km/s) = 1.71735 3.08287 2.49533
# Velocity P-wave (km/s) = 6.81026 7.49578 7.16123
#
# Compressibility (1/GPa) = 0.01475424
#
# Stress axis : x y z
#
# Youngs Moduli (GPa) = 56.33595 57.62564 46.77017
#
# Poissons Ratio (x) = 0.25614 0.30014
# Poissons Ratio (y) = 0.25041 0.46785
# Poissons Ratio (z) = 0.36153 0.57644
#
# Static dielectric constant tensor:
#      x y z
#    x 3.219120 0.000000 0.000000 
#    y 0.000000 3.053060 0.000000 
#    z 0.000000 0.000000 3.248080 
# 
# 
# High freq. dielectric constant tensor:
#      x y z
#    x 1.627410 0.000000 0.000000 
#    y 0.000000 1.602750 0.000000 
#    z 0.000000 0.000000 1.583420 
# 
# From -- ./inp_files/6360.got.cif
#   From: 2010.03.12/outbox.cif.g09.slc.cpg/sg28_4_cif.got.tgz:6360.got - 2010.04.14 03:39:34.
