data_PCOD8168987
_publ_section_title
;
Structure prediction by ZEFSAII (Michael W. Deem and Ramdas Pophale) SiO2 
 PCOD8168987
Probable space group: P C A 21
;
_chemical_formula_sum "Si O2"
_cell_formula_units_Z 32
_cell_length_a 30.732606
_cell_length_b 8.611851
_cell_length_c 5.354856
_cell_angle_alpha 90.000000
_cell_angle_beta 90.000000
_cell_angle_gamma 90.000000
_cell_volume 1417.240948
_symmetry_space_group_name_H-M "P C A 21"
_symmetry_group_IT_number 29
_symmetry_cell_setting 'orthorhombic'
loop_
_space_group_symop_operation_xyz
x,y,z
-x,-y,1/2+z
1/2-x,y,1/2+z
1/2+x,-y,z
loop_
_atom_site_type_symbol
_atom_site_label
_atom_site_fract_x
_atom_site_fract_y
_atom_site_fract_z
Si Si1 0.586173 0.438136 0.535400
Si Si2 0.997228 0.256858 0.050930
Si Si3 0.272048 0.039340 0.404948
Si Si4 0.629899 0.313178 0.037027
Si Si5 0.869193 0.953776 0.497658
Si Si6 0.228071 0.672675 0.942021
Si Si7 0.543943 0.961967 0.699361
Si Si8 0.920938 0.753343 0.830967
O O1 0.535271 0.397594 0.491151
O O2 0.613140 0.388161 0.291975
O O3 0.590337 0.626185 0.544112
O O4 0.602331 0.361744 0.792693
O O5 0.043504 0.326033 0.144281
O O6 0.970284 0.139921 0.233488
O O7 0.007092 0.149462 0.812522
O O8 0.252556 0.109888 0.662899
O O9 0.322758 0.083262 0.374207
O O10 0.265270 0.856140 0.421807
O O11 0.630262 0.130082 0.097104
O O12 0.678168 0.374293 0.981687
O O13 0.908072 0.933782 0.306171
O O14 0.877025 0.822694 0.710317
O O15 0.245047 0.602959 0.678104
O O16 0.551176 0.903784 0.417560
#
# Coordination Sequence:
#
# PCOD8168987 Si02
#       8
#     4   4   4   4   4   4   4   4
#     4  12  28  42  64  95 136 173 219 273 334 390
#     4  11  24  40  65  90 128 169 230 270 330 385
#     4   9  19  34  61  99 129 159 205 269 328 385
#     4  11  24  42  67  99 130 172 216 270 333 396
#     4  10  23  41  68  96 130 172 220 271 330 390
#     4   9  17  34  62  94 127 158 208 268 323 384
#     4  11  22  41  64  93 123 172 223 274 320 387
#     4  11  27  42  65  92 131 181 219 279 328 397
#
# _framework density 22.579080999999999
#
# number of rings (size 3 to 8) (size 9 to 14) (size 15 to 20)
#    0.000    1.500    2.500    1.500   10.500    2.000 
#    0.000    0.000    0.000    4.500    0.000    0.000 
#    0.000    0.000    0.000    0.000    0.000    0.000 
#
# Total GULP energy -396492.383469 kJ/mol
# GULP energy per Si atom -12390.386983 kJ/mol
# Density = 2.252769 g / cm^3
# Si number density = 22.579081 Si / 1000 Ang^3
#
#
#
# Elastic Constant Matrix: (Units=GPa)
#
#
# Indices 1 2 3 4 5 6 
#
# 1 123.8094 15.6826 34.0078 0.0000 0.0000 0.0000
# 2 15.6826 64.4036 7.4383 0.0000 0.0000 0.0000
# 3 34.0078 7.4383 107.0149 0.0000 0.0000 0.0000
# 4 0.0000 0.0000 0.0000 25.0631 0.0000 0.0000
# 5 0.0000 0.0000 0.0000 0.0000 30.9769 0.0000
# 6 0.0000 0.0000 0.0000 0.0000 0.0000 16.4616
#
#
#
# Elastic Compliance Matrix: (Units=1/GPa)
#
#
# Indices 1 2 3 4 5 6 
#
# 1 0.009072 -0.001891 -0.002752 0.000000 0.000000 0.000000
# 2 -0.001891 0.016047 -0.000514 0.000000 0.000000 0.000000
# 3 -0.002752 -0.000514 0.010255 0.000000 0.000000 0.000000
# 4 0.000000 0.000000 0.000000 0.039899 0.000000 0.000000
# 5 0.000000 0.000000 0.000000 0.000000 0.032282 0.000000
# 6 0.000000 0.000000 0.000000 0.000000 0.000000 0.060747
#
#
# Mechanical properties :
#
#
# Convention : Reuss Voigt Hill
#
# Bulk Modulus (GPa) = 39.90511 45.49837 42.70174
# Shear Modulus (GPa) = 26.74218 30.37360 28.55789
#
# Velocity S-wave (km/s) = 3.44521 3.67169 3.56025
# Velocity P-wave (km/s) = 5.79119 6.17815 5.98779
#
# Compressibility (1/GPa) = 0.02505945
#
# Stress axis : x y z
#
# Youngs Moduli (GPa) = 110.22559 62.31675 97.51660
#
# Poissons Ratio (x) = 0.11786 0.26833
# Poissons Ratio (y) = 0.20848 0.05016
# Poissons Ratio (z) = 0.30330 0.03205
#
# Static dielectric constant tensor:
#      x y z
#    x 4.147540 0.000000 0.000000 
#    y 0.000000 3.876170 0.000000 
#    z 0.000000 0.000000 4.166300 
# 
# 
# High freq. dielectric constant tensor:
#      x y z
#    x 1.899930 0.000000 0.000000 
#    y 0.000000 1.858550 0.000000 
#    z 0.000000 0.000000 1.890060 
# 
# From -- ./inp_files/887.got.cif
#   From: 2010.03.12/outbox.cif.g09.slc.cpg/sg29_1_cif.got.tgz:887.got - 2010.04.14 03:43:10.
