data_PCOD8168849
_publ_section_title
;
Structure prediction by ZEFSAII (Michael W. Deem and Ramdas Pophale) SiO2 
 PCOD8168849
Probable space group: P C A 21
;
_chemical_formula_sum "Si O2"
_cell_formula_units_Z 28
_cell_length_a 18.725838
_cell_length_b 7.415112
_cell_length_c 9.169493
_cell_angle_alpha 90.000000
_cell_angle_beta 90.000000
_cell_angle_gamma 90.000000
_cell_volume 1273.222487
_symmetry_space_group_name_H-M "P C A 21"
_symmetry_group_IT_number 29
_symmetry_cell_setting 'orthorhombic'
loop_
_space_group_symop_operation_xyz
x,y,z
-x,-y,1/2+z
1/2-x,y,1/2+z
1/2+x,-y,z
loop_
_atom_site_type_symbol
_atom_site_label
_atom_site_fract_x
_atom_site_fract_y
_atom_site_fract_z
Si Si1 0.128202 0.827558 0.235330
Si Si2 0.964555 0.455240 0.583022
Si Si3 0.328603 0.220420 0.415732
Si Si4 0.244560 0.055674 0.654655
Si Si5 0.913103 0.473905 0.274272
Si Si6 0.953245 0.872988 0.588538
Si Si7 0.113009 0.846014 0.560498
O O1 0.100427 0.663221 0.139679
O O2 0.128779 0.759863 0.402301
O O3 0.206030 0.878556 0.172635
O O4 0.076636 0.002581 0.218482
O O5 0.966913 0.424560 0.408083
O O6 0.949869 0.661896 0.630081
O O7 0.040881 0.406414 0.657942
O O8 0.285227 0.219110 0.569699
O O9 0.273023 0.118699 0.315594
O O10 0.347408 0.414532 0.345747
O O11 0.402591 0.108289 0.443763
O O12 0.169917 0.004542 0.579736
O O13 0.880973 0.300869 0.190641
O O14 0.033964 0.932838 0.555459
#
# Coordination Sequence:
#
# PCOD8168849 Si02
#       7
#     4   4   4   4   4   4   4
#     4  11  23  43  69  95 139 188 221 292 349 414
#     4  10  21  42  69 102 136 172 235 285 345 411
#     4  10  22  47  63  94 135 179 224 291 339 417
#     4  11  24  44  65  95 139 179 238 275 347 430
#     4  10  23  43  69 102 140 175 232 299 346 416
#     4   9  23  40  71  99 135 173 233 286 345 411
#     4  11  24  43  64 105 132 178 241 282 353 411
#
# _framework density 21.991444000000001
#
# number of rings (size 3 to 8) (size 9 to 14) (size 15 to 20)
#    0.000    1.714    1.429    2.571    8.000    1.143 
#   12.857    0.000    0.000    0.000    0.000    0.000 
#    0.000    0.000    0.000    0.000    0.000    0.000 
#
# Total GULP energy -346958.733316 kJ/mol
# GULP energy per Si atom -12391.383333 kJ/mol
# Density = 2.194139 g / cm^3
# Si number density = 21.991444 Si / 1000 Ang^3
#
#
#
# Elastic Constant Matrix: (Units=GPa)
#
#
# Indices 1 2 3 4 5 6 
#
# 1 137.6376 31.7982 38.7818 0.0000 0.0000 0.0000
# 2 31.7982 67.6027 35.0155 0.0000 0.0000 0.0000
# 3 38.7818 35.0155 121.9194 0.0000 0.0000 0.0000
# 4 0.0000 0.0000 0.0000 31.4233 0.0000 0.0000
# 5 0.0000 0.0000 0.0000 0.0000 40.3973 0.0000
# 6 0.0000 0.0000 0.0000 0.0000 0.0000 34.6075
#
#
#
# Elastic Compliance Matrix: (Units=1/GPa)
#
#
# Indices 1 2 3 4 5 6 
#
# 1 0.008483 -0.003046 -0.001824 0.000000 0.000000 0.000000
# 2 -0.003046 0.018471 -0.004336 0.000000 0.000000 0.000000
# 3 -0.001824 -0.004336 0.010028 0.000000 0.000000 0.000000
# 4 0.000000 0.000000 0.000000 0.031824 0.000000 0.000000
# 5 0.000000 0.000000 0.000000 0.000000 0.024754 0.000000
# 6 0.000000 0.000000 0.000000 0.000000 0.000000 0.028895
#
#
# Mechanical properties :
#
#
# Convention : Reuss Voigt Hill
#
# Bulk Modulus (GPa) = 53.84829 59.81675 56.83252
# Shear Modulus (GPa) = 34.00086 36.05656 35.02871
#
# Velocity S-wave (km/s) = 3.93631 4.05356 3.99536
# Velocity P-wave (km/s) = 6.72298 7.01195 6.86899
#
# Compressibility (1/GPa) = 0.01857069
#
# Stress axis : x y z
#
# Youngs Moduli (GPa) = 117.88400 54.13970 99.72508
#
# Poissons Ratio (x) = 0.16488 0.18187
# Poissons Ratio (y) = 0.35902 0.43241
# Poissons Ratio (z) = 0.21498 0.23475
#
# Static dielectric constant tensor:
#      x y z
#    x 4.217550 0.000000 0.000000 
#    y 0.000000 3.617660 0.000000 
#    z 0.000000 0.000000 4.236080 
# 
# 
# High freq. dielectric constant tensor:
#      x y z
#    x 1.871930 0.000000 0.000000 
#    y 0.000000 1.833340 0.000000 
#    z 0.000000 0.000000 1.875630 
# 
# From -- ./inp_files/2221.got.cif
#   From: 2010.03.12/outbox.cif.g09.slc.cpg/sg29_2_cif.got.tgz:2221.got - 2010.04.14 03:43:10.
