data_PCOD8168835
_publ_section_title
;
Structure prediction by ZEFSAII (Michael W. Deem and Ramdas Pophale) SiO2 
 PCOD8168835
Probable space group: P C A 21
;
_chemical_formula_sum "Si O2"
_cell_formula_units_Z 28
_cell_length_a 10.963838
_cell_length_b 12.201944
_cell_length_c 8.733430
_cell_angle_alpha 90.000000
_cell_angle_beta 90.000000
_cell_angle_gamma 90.000000
_cell_volume 1168.359465
_symmetry_space_group_name_H-M "P C A 21"
_symmetry_group_IT_number 29
_symmetry_cell_setting 'orthorhombic'
loop_
_space_group_symop_operation_xyz
x,y,z
-x,-y,1/2+z
1/2-x,y,1/2+z
1/2+x,-y,z
loop_
_atom_site_type_symbol
_atom_site_label
_atom_site_fract_x
_atom_site_fract_y
_atom_site_fract_z
Si Si1 0.490326 0.598334 0.524110
Si Si2 0.083502 0.018501 0.509016
Si Si3 0.600777 0.819761 0.052169
Si Si4 0.942406 0.624440 0.358836
Si Si5 0.238671 0.931255 0.244743
Si Si6 0.697611 0.725674 0.363638
Si Si7 0.608916 0.186437 0.989768
O O1 0.478110 0.603985 0.708299
O O2 0.455544 0.478631 0.470374
O O3 0.619753 0.642188 0.466370
O O4 0.389910 0.684181 0.459935
O O5 0.133506 0.990549 0.340652
O O6 0.190914 0.016882 0.635367
O O7 0.968390 0.936976 0.548034
O O8 0.031357 0.142443 0.509048
O O9 0.619648 0.780082 0.226934
O O10 0.516155 0.730611 0.960829
O O11 0.734006 0.822588 0.964965
O O12 0.803529 0.644159 0.302160
O O13 0.339735 0.875741 0.346142
O O14 0.182165 0.835290 0.143967
#
# Coordination Sequence:
#
# PCOD8168835 Si02
#       7
#     4   4   4   4   4   4   4
#     4  12  23  45  68  95 140 176 228 293 342 415
#     4  11  23  44  70 100 143 178 226 276 335 413
#     4  10  21  41  67 101 137 177 231 278 334 413
#     4  10  23  42  64 100 130 176 232 282 345 398
#     4  10  24  44  62 103 138 181 224 268 349 401
#     4  10  21  42  65 105 128 180 233 279 344 401
#     4  11  25  44  66 102 134 182 222 282 343 405
#
# _framework density 23.965226000000001
#
# number of rings (size 3 to 8) (size 9 to 14) (size 15 to 20)
#    0.857    0.571    1.429    3.429    0.000    3.429 
#   15.429    0.000    0.000    0.000    0.000    0.000 
#    0.000    0.000    0.000    0.000    0.000    0.000 
#
# Total GULP energy -347107.048324 kJ/mol
# GULP energy per Si atom -12396.680297 kJ/mol
# Density = 2.391068 g / cm^3
# Si number density = 23.965226 Si / 1000 Ang^3
#
#
#
# Elastic Constant Matrix: (Units=GPa)
#
#
# Indices 1 2 3 4 5 6 
#
# 1 60.7128 -10.5900 4.6015 0.0000 0.0000 0.0000
# 2 -10.5900 91.5707 13.4332 0.0000 0.0000 0.0000
# 3 4.6015 13.4332 113.4058 0.0000 0.0000 0.0000
# 4 0.0000 0.0000 0.0000 20.6910 0.0000 0.0000
# 5 0.0000 0.0000 0.0000 0.0000 27.2637 0.0000
# 6 0.0000 0.0000 0.0000 0.0000 0.0000 -36.7517
#
#
#
# Elastic Compliance Matrix: (Units=1/GPa)
#
#
# Indices 1 2 3 4 5 6 
#
# 1 0.016907 0.002092 -0.000934 0.000000 0.000000 0.000000
# 2 0.002092 0.011373 -0.001432 0.000000 0.000000 0.000000
# 3 -0.000934 -0.001432 0.009025 0.000000 0.000000 0.000000
# 4 0.000000 0.000000 0.000000 0.048330 0.000000 0.000000
# 5 0.000000 0.000000 0.000000 0.000000 0.036679 0.000000
# 6 0.000000 0.000000 0.000000 0.000000 0.000000 -0.027210
#
#
# Mechanical properties :
#
#
# Convention : Reuss Voigt Hill
#
# Bulk Modulus (GPa) = 27.20538 31.17543 29.19041
# Shear Modulus (GPa) = 46.33765 19.45691 32.89728
#
# Velocity S-wave (km/s) = 4.40197 2.85244 3.70903
# Velocity P-wave (km/s) = 6.10026 4.88727 5.52714
#
# Compressibility (1/GPa) = 0.03675743
#
# Stress axis : x y z
#
# Youngs Moduli (GPa) = 59.14810 87.93101 110.79833
#
# Poissons Ratio (x) = -0.18397 0.10347
# Poissons Ratio (y) = -0.12375 0.15866
# Poissons Ratio (z) = 0.05523 0.12592
#
# Static dielectric constant tensor:
#      x y z
#    x 4.366290 0.000000 0.000000 
#    y 0.000000 4.262400 0.000000 
#    z 0.000000 0.000000 4.444740 
# 
# 
# High freq. dielectric constant tensor:
#      x y z
#    x 1.946470 0.000000 0.000000 
#    y 0.000000 1.946250 0.000000 
#    z 0.000000 0.000000 1.970020 
# 
# From -- ./inp_files/1466.got.cif
#   From: 2010.03.12/outbox.cif.g09.slc.cpg/sg29_1_cif.got.tgz:1466.got - 2010.04.14 03:43:10.
