data_PCOD8168585
_publ_section_title
;
Structure prediction by ZEFSAII (Michael W. Deem and Ramdas Pophale) SiO2 
 PCOD8168585
Probable space group: P C A 21
;
_chemical_formula_sum "Si O2"
_cell_formula_units_Z 28
_cell_length_a 30.131065
_cell_length_b 5.244863
_cell_length_c 7.379499
_cell_angle_alpha 90.000000
_cell_angle_beta 90.000000
_cell_angle_gamma 90.000000
_cell_volume 1166.206638
_symmetry_space_group_name_H-M "P C A 21"
_symmetry_group_IT_number 29
_symmetry_cell_setting 'orthorhombic'
loop_
_space_group_symop_operation_xyz
x,y,z
-x,-y,1/2+z
1/2-x,y,1/2+z
1/2+x,-y,z
loop_
_atom_site_type_symbol
_atom_site_label
_atom_site_fract_x
_atom_site_fract_y
_atom_site_fract_z
Si Si1 0.862868 0.333656 0.230230
Si Si2 0.820570 0.311273 0.624045
Si Si3 0.549985 0.353227 0.923212
Si Si4 0.911834 0.154892 0.758599
Si Si5 0.318679 0.172842 0.150516
Si Si6 0.276466 0.182751 0.545563
Si Si7 0.454091 0.351846 0.772210
O O1 0.839001 0.327161 0.422294
O O2 0.915536 0.375425 0.257096
O O3 0.846936 0.574050 0.112496
O O4 0.850312 0.074911 0.120319
O O5 0.860869 0.246599 0.760039
O O6 0.794985 0.576979 0.664071
O O7 0.786434 0.079776 0.651071
O O8 0.502885 0.280705 0.839080
O O9 0.567950 0.127729 0.054095
O O10 0.547552 0.606836 0.052141
O O11 0.938006 0.381465 0.865285
O O12 0.920628 0.873411 0.838324
O O13 0.299822 0.177015 0.353110
O O14 0.276560 0.186807 0.016344
#
# Coordination Sequence:
#
# PCOD8168585 Si02
#       7
#     4   4   4   4   4   4   4
#     4   9  19  32  56  76 102 141 177 214 253 330
#     4   9  17  32  53  79  98 136 176 217 247 316
#     4   9  22  35  59  80 111 140 192 221 278 317
#     4   9  20  32  56  79 108 139 184 216 273 320
#     4  10  20  34  55  77 103 136 177 214 267 306
#     4  10  19  32  56  77 103 132 176 216 262 313
#     4  10  21  33  59  80 111 142 184 232 266 324
#
# _framework density 24.009467000000001
#
# number of rings (size 3 to 8) (size 9 to 14) (size 15 to 20)
#    0.857    1.714    0.000    1.714    8.000    0.000 
#    0.000    0.000    9.429    0.000    0.000    0.000 
#    0.000    0.000    0.000    0.000    0.000    0.000 
#
# Total GULP energy -346884.042670 kJ/mol
# GULP energy per Si atom -12388.715810 kJ/mol
# Density = 2.395482 g / cm^3
# Si number density = 24.009467 Si / 1000 Ang^3
#
#
#
# Elastic Constant Matrix: (Units=GPa)
#
#
# Indices 1 2 3 4 5 6 
#
# 1 -159.2609 -68.6048 20.5982 0.0000 0.0000 0.0000
# 2 -68.6048 134.7800 20.2445 0.0000 0.0000 0.0000
# 3 20.5982 20.2445 19.7361 0.0000 0.0000 0.0000
# 4 0.0000 0.0000 0.0000 11.4432 0.0000 0.0000
# 5 0.0000 0.0000 0.0000 0.0000 20.6015 0.0000
# 6 0.0000 0.0000 0.0000 0.0000 0.0000 36.4155
#
#
#
# Elastic Compliance Matrix: (Units=1/GPa)
#
#
# Indices 1 2 3 4 5 6 
#
# 1 -0.003978 -0.003131 0.007363 0.000000 0.000000 0.000000
# 2 -0.003131 0.006307 -0.003202 0.000000 0.000000 0.000000
# 3 0.007363 -0.003202 0.046268 0.000000 0.000000 0.000000
# 4 0.000000 0.000000 0.000000 0.087388 0.000000 0.000000
# 5 0.000000 0.000000 0.000000 0.000000 0.048540 0.000000
# 6 0.000000 0.000000 0.000000 0.000000 0.000000 0.027461
#
#
# Mechanical properties :
#
#
# Convention : Reuss Voigt Hill
#
# Bulk Modulus (GPa) = 19.74018 -6.69655 6.52181
# Shear Modulus (GPa) = 22.04489 15.22655 18.63572
#
# Velocity S-wave (km/s) = 3.03343 2.52104 2.78903
# Velocity P-wave (km/s) = 4.52864 2.38307 3.61854
#
# Compressibility (1/GPa) = 0.05065811
#
# Stress axis : x y z
#
# Youngs Moduli (GPa) = -251.38263 158.56019 21.61332
#
# Poissons Ratio (x) = 0.49643 -0.15914
# Poissons Ratio (y) = -0.78704 0.06920
# Poissons Ratio (z) = 1.85099 0.50765
#
# Static dielectric constant tensor:
#      x y z
#    x 4.282720 0.000000 0.000000 
#    y 0.000000 4.490770 0.000000 
#    z 0.000000 0.000000 3.742450 
# 
# 
# High freq. dielectric constant tensor:
#      x y z
#    x 1.953200 0.000000 0.000000 
#    y 0.000000 1.954890 0.000000 
#    z 0.000000 0.000000 1.917020 
# 
# From -- ./inp_files/2542.got.cif
#   From: 2010.03.12/outbox.cif.g09.slc.cpg/sg29_2_cif.got.tgz:2542.got - 2010.04.14 03:43:10.
