data_PCOD8168027
_publ_section_title
;
Structure prediction by ZEFSAII (Michael W. Deem and Ramdas Pophale) SiO2 
 PCOD8168027
Probable space group: P M A 2
;
_chemical_formula_sum "Si O2"
_cell_formula_units_Z 32
_cell_length_a 8.764546
_cell_length_b 14.324829
_cell_length_c 15.749873
_cell_angle_alpha 90.000000
_cell_angle_beta 90.000000
_cell_angle_gamma 90.000000
_cell_volume 1977.406363
_symmetry_space_group_name_H-M "P M A 2"
_symmetry_group_IT_number 28
_symmetry_cell_setting 'orthorhombic'
loop_
_space_group_symop_operation_xyz
x,y,z
-x,-y,z
1/2-x,y,z
1/2+x,-y,z
loop_
_atom_site_type_symbol
_atom_site_label
_atom_site_fract_x
_atom_site_fract_y
_atom_site_fract_z
Si Si1 0.573284 0.708717 0.583940
Si Si2 0.069279 0.904631 0.334569
Si Si3 0.069304 0.603192 0.736927
Si Si4 0.069441 0.602242 0.104324
Si Si5 0.573009 0.400713 0.921499
Si Si6 0.073325 0.092751 0.517277
Si Si7 0.431091 0.711336 0.265363
Si Si8 0.930605 0.398641 0.429036
O O1 0.750000 0.680772 0.575346
O O2 0.508149 0.674844 0.673191
O O3 0.550948 0.820455 0.580590
O O4 0.479897 0.662338 0.508662
O O5 0.250000 0.912668 0.337082
O O6 0.014522 0.818405 0.275851
O O7 0.010554 0.885796 0.429161
O O8 0.000000 0.000000 0.296326
O O9 0.250000 0.597339 0.720450
O O10 0.030780 0.646891 0.831138
O O11 0.000000 0.500000 0.725004
O O12 0.250000 0.592405 0.114467
O O13 0.003233 0.670635 0.176973
O O14 0.000000 0.500000 0.116269
O O15 0.025521 0.647818 0.011405
O O16 0.500000 0.500000 0.921293
O O17 0.750000 0.419021 0.923410
O O18 0.250000 0.074182 0.497527
O O19 0.000000 0.000000 0.559728
O O20 0.250000 0.707628 0.266404
O O21 0.493809 0.649230 0.343283
O O22 0.750000 0.406386 0.428414
O O23 0.000000 0.500000 0.437926
#
# Coordination Sequence:
#
# PCOD8168027 Si02
#       8
#     4   4   4   4   4   4   4   4
#     4  11  22  34  47  67  91 121 155 188 226 271
#     4  10  18  31  48  67  89 117 152 189 231 270
#     4  10  19  31  47  68  93 123 155 191 230 272
#     4   9  16  29  46  67  93 121 152 187 223 267
#     4   8  15  27  45  66  89 116 150 188 228 267
#     4  10  20  33  50  69  89 114 149 190 233 273
#     4   9  18  30  46  66  91 122 153 184 225 269
#     4  11  21  33  45  62  91 127 159 188 219 262
#
# _framework density 16.182815000000002
#
# number of rings (size 3 to 8) (size 9 to 14) (size 15 to 20)
#    0.000    2.250    1.250    3.375    0.000    2.000 
#    0.000    1.875    0.000    0.000    0.000    0.875 
#    0.000    4.000    0.000    0.000    0.000    0.000 
#
# Total GULP energy -396526.612684 kJ/mol
# GULP energy per Si atom -12391.456646 kJ/mol
# Density = 1.614598 g / cm^3
# Si number density = 16.182815 Si / 1000 Ang^3
#
#
#
# Elastic Constant Matrix: (Units=GPa)
#
#
# Indices 1 2 3 4 5 6 
#
# 1 57.7874 33.8036 29.7556 0.0000 0.0000 0.0000
# 2 33.8036 103.4810 57.6141 0.0000 0.0000 0.0000
# 3 29.7556 57.6141 128.7903 0.0000 0.0000 0.0000
# 4 0.0000 0.0000 0.0000 12.3733 0.0000 0.0000
# 5 0.0000 0.0000 0.0000 0.0000 16.5292 0.0000
# 6 0.0000 0.0000 0.0000 0.0000 0.0000 22.3702
#
#
#
# Elastic Compliance Matrix: (Units=1/GPa)
#
#
# Indices 1 2 3 4 5 6 
#
# 1 0.021974 -0.005795 -0.002485 0.000000 0.000000 0.000000
# 2 -0.005795 0.014397 -0.005102 0.000000 0.000000 0.000000
# 3 -0.002485 -0.005102 0.010621 0.000000 0.000000 0.000000
# 4 0.000000 0.000000 0.000000 0.080819 0.000000 0.000000
# 5 0.000000 0.000000 0.000000 0.000000 0.060499 0.000000
# 6 0.000000 0.000000 0.000000 0.000000 0.000000 0.044702
#
#
# Mechanical properties :
#
#
# Convention : Reuss Voigt Hill
#
# Bulk Modulus (GPa) = 49.43225 59.15614 54.29420
# Shear Modulus (GPa) = 18.76051 21.51357 20.13704
#
# Velocity S-wave (km/s) = 3.40852 3.65006 3.53136
# Velocity P-wave (km/s) = 6.78993 7.37551 7.08877
#
# Compressibility (1/GPa) = 0.02022971
#
# Stress axis : x y z
#
# Youngs Moduli (GPa) = 45.50849 69.45920 94.15500
#
# Poissons Ratio (x) = 0.40250 0.23393
# Poissons Ratio (y) = 0.26371 0.48034
# Poissons Ratio (z) = 0.11307 0.35435
#
# Static dielectric constant tensor:
#      x y z
#    x 3.060310 0.000000 0.000000 
#    y 0.000000 2.751680 0.000000 
#    z 0.000000 0.000000 3.580540 
# 
# 
# High freq. dielectric constant tensor:
#      x y z
#    x 1.627200 0.000000 0.000000 
#    y 0.000000 1.602300 0.000000 
#    z 0.000000 0.000000 1.617750 
# 
# From -- ./inp_files/6422.got.cif
#   From: 2010.03.12/outbox.cif.g09.slc.cpg/sg28_4_cif.got.tgz:6422.got - 2010.04.14 03:39:34.
