data_PCOD8168725
_publ_section_title
;
Structure prediction by ZEFSAII (Michael W. Deem and Ramdas Pophale) SiO2 
 PCOD8168725
Probable space group: P C A 21
;
_chemical_formula_sum "Si O2"
_cell_formula_units_Z 28
_cell_length_a 13.068686
_cell_length_b 10.034331
_cell_length_c 9.123819
_cell_angle_alpha 90.000000
_cell_angle_beta 90.000000
_cell_angle_gamma 90.000000
_cell_volume 1196.456759
_symmetry_space_group_name_H-M "P C A 21"
_symmetry_group_IT_number 29
_symmetry_cell_setting 'orthorhombic'
loop_
_space_group_symop_operation_xyz
x,y,z
-x,-y,1/2+z
1/2-x,y,1/2+z
1/2+x,-y,z
loop_
_atom_site_type_symbol
_atom_site_label
_atom_site_fract_x
_atom_site_fract_y
_atom_site_fract_z
Si Si1 0.381762 0.800404 0.174690
Si Si2 0.512288 0.927649 0.599053
Si Si3 0.317978 0.130035 0.885151
Si Si4 0.274931 0.304652 0.630797
Si Si5 0.199527 0.876914 0.969172
Si Si6 0.022265 0.426555 0.047177
Si Si7 0.061222 0.348112 0.725171
O O1 0.342825 0.779469 0.341768
O O2 0.450053 0.674180 0.135103
O O3 0.449703 0.934196 0.167169
O O4 0.284964 0.803596 0.065422
O O5 0.568985 0.904760 0.443537
O O6 0.390878 0.927548 0.575887
O O7 0.541064 0.810141 0.713101
O O8 0.325582 0.181951 0.719688
O O9 0.245756 0.002269 0.883551
O O10 0.268741 0.247443 0.980457
O O11 0.360546 0.413263 0.597061
O O12 0.183271 0.373566 0.722206
O O13 0.989965 0.576853 0.086892
O O14 0.011449 0.402875 0.874009
#
# Coordination Sequence:
#
# PCOD8168725 Si02
#       7
#     4   4   4   4   4   4   4
#     4  11  27  43  73 106 144 191 236 297 363 422
#     4  10  24  42  73 100 143 184 241 296 353 420
#     4  10  20  39  68 104 135 184 238 282 351 421
#     4  11  22  44  71  97 139 185 239 287 340 431
#     4  11  23  42  66 108 145 184 233 298 364 415
#     4  12  28  49  73 105 145 185 242 294 356 426
#     4  11  28  47  72 106 137 191 237 290 359 419
#
# _framework density 23.402434
#
# number of rings (size 3 to 8) (size 9 to 14) (size 15 to 20)
#    0.000    1.143    1.429    4.286   10.000    2.286 
#    0.000    0.000    0.000    0.000    0.000    0.000 
#    0.000    0.000    0.000    0.000    0.000    0.000 
#
# Total GULP energy -347356.274655 kJ/mol
# GULP energy per Si atom -12405.581238 kJ/mol
# Density = 2.334917 g / cm^3
# Si number density = 23.402434 Si / 1000 Ang^3
#
#
#
# Elastic Constant Matrix: (Units=GPa)
#
#
# Indices 1 2 3 4 5 6 
#
# 1 93.6025 14.1606 10.6052 0.0000 0.0000 0.0000
# 2 14.1606 54.9284 3.4303 0.0000 0.0000 0.0000
# 3 10.6052 3.4303 83.1297 0.0000 0.0000 0.0000
# 4 0.0000 0.0000 0.0000 31.0418 0.0000 0.0000
# 5 0.0000 0.0000 0.0000 0.0000 35.0609 0.0000
# 6 0.0000 0.0000 0.0000 0.0000 0.0000 26.8570
#
#
#
# Elastic Compliance Matrix: (Units=1/GPa)
#
#
# Indices 1 2 3 4 5 6 
#
# 1 0.011260 -0.002820 -0.001320 0.000000 0.000000 0.000000
# 2 -0.002820 0.018959 -0.000423 0.000000 0.000000 0.000000
# 3 -0.001320 -0.000423 0.012215 0.000000 0.000000 0.000000
# 4 0.000000 0.000000 0.000000 0.032215 0.000000 0.000000
# 5 0.000000 0.000000 0.000000 0.000000 0.028522 0.000000
# 6 0.000000 0.000000 0.000000 0.000000 0.000000 0.037234
#
#
# Mechanical properties :
#
#
# Convention : Reuss Voigt Hill
#
# Bulk Modulus (GPa) = 30.02276 32.00588 31.01432
# Shear Modulus (GPa) = 31.12683 32.15624 31.64154
#
# Velocity S-wave (km/s) = 3.65097 3.71085 3.68103
# Velocity P-wave (km/s) = 5.53439 5.66273 5.59893
#
# Compressibility (1/GPa) = 0.03330806
#
# Stress axis : x y z
#
# Youngs Moduli (GPa) = 88.81223 52.74547 81.86493
#
# Poissons Ratio (x) = 0.14876 0.10807
# Poissons Ratio (y) = 0.25048 0.03459
# Poissons Ratio (z) = 0.11724 0.02229
#
# Static dielectric constant tensor:
#      x y z
#    x 4.445360 0.000000 0.000000 
#    y 0.000000 3.880020 0.000000 
#    z 0.000000 0.000000 4.137880 
# 
# 
# High freq. dielectric constant tensor:
#      x y z
#    x 1.942640 0.000000 0.000000 
#    y 0.000000 1.902510 0.000000 
#    z 0.000000 0.000000 1.932500 
# 
# From -- ./inp_files/1472.got.cif
#   From: 2010.03.12/outbox.cif.g09.slc.cpg/sg29_1_cif.got.tgz:1472.got - 2010.04.14 03:43:10.
