data_PCOD8168971
_publ_section_title
;
Structure prediction by ZEFSAII (Michael W. Deem and Ramdas Pophale) SiO2 
 PCOD8168971
Probable space group: P C A 21
;
_chemical_formula_sum "Si O2"
_cell_formula_units_Z 24
_cell_length_a 14.227153
_cell_length_b 6.856153
_cell_length_c 11.598878
_cell_angle_alpha 90.000000
_cell_angle_beta 90.000000
_cell_angle_gamma 90.000000
_cell_volume 1131.395594
_symmetry_space_group_name_H-M "P C A 21"
_symmetry_group_IT_number 29
_symmetry_cell_setting 'orthorhombic'
loop_
_space_group_symop_operation_xyz
x,y,z
-x,-y,1/2+z
1/2-x,y,1/2+z
1/2+x,-y,z
loop_
_atom_site_type_symbol
_atom_site_label
_atom_site_fract_x
_atom_site_fract_y
_atom_site_fract_z
Si Si1 0.179005 0.775334 0.022010
Si Si2 0.844545 0.004680 0.747456
Si Si3 0.030751 0.820382 0.699055
Si Si4 0.383975 0.730693 0.957911
Si Si5 0.552601 0.495826 0.884333
Si Si6 0.153176 0.103873 0.841139
O O1 0.176610 0.819406 0.157928
O O2 0.277118 0.669243 0.987522
O O3 0.093221 0.634170 0.988775
O O4 0.169731 0.980851 0.956816
O O5 0.885606 0.099936 0.863105
O O6 0.750402 0.882477 0.771008
O O7 0.918806 0.850508 0.697534
O O8 0.065046 0.817812 0.568915
O O9 0.057872 0.621345 0.764442
O O10 0.075933 0.006309 0.760140
O O11 0.444160 0.545436 0.913682
O O12 0.617959 0.683548 0.873864
#
# Coordination Sequence:
#
# PCOD8168971 Si02
#       6
#     4   4   4   4   4   4
#     4  10  24  45  69  97 140 175 228 289 340 411
#     4  11  23  44  74  94 139 185 221 284 348 406
#     4  11  24  44  67  99 138 176 227 287 339 409
#     4  11  24  45  68 101 135 179 229 278 342 413
#     4  11  25  43  69 101 136 178 234 284 343 406
#     4  10  22  47  65 100 132 179 227 280 346 407
#
# _framework density 21.212738999999999
#
# number of rings (size 3 to 8) (size 9 to 14) (size 15 to 20)
#    0.000    1.333    3.333    1.000    7.000    0.000 
#    6.000    0.000    0.000    0.000    0.000    0.000 
#    0.000    0.000    0.000    0.000    0.000    0.000 
#
# Total GULP energy -297708.638553 kJ/mol
# GULP energy per Si atom -12404.526606 kJ/mol
# Density = 2.116446 g / cm^3
# Si number density = 21.212739 Si / 1000 Ang^3
#
#
#
# Elastic Constant Matrix: (Units=GPa)
#
#
# Indices 1 2 3 4 5 6 
#
# 1 131.2612 48.0612 31.0132 0.0000 0.0000 0.0000
# 2 48.0612 100.2228 34.8328 0.0000 0.0000 0.0000
# 3 31.0132 34.8328 120.8352 0.0000 0.0000 0.0000
# 4 0.0000 0.0000 0.0000 15.7221 0.0000 0.0000
# 5 0.0000 0.0000 0.0000 0.0000 35.7477 0.0000
# 6 0.0000 0.0000 0.0000 0.0000 0.0000 37.8401
#
#
#
# Elastic Compliance Matrix: (Units=1/GPa)
#
#
# Indices 1 2 3 4 5 6 
#
# 1 0.009405 -0.004080 -0.001238 0.000000 0.000000 0.000000
# 2 -0.004080 0.012859 -0.002660 0.000000 0.000000 0.000000
# 3 -0.001238 -0.002660 0.009360 0.000000 0.000000 0.000000
# 4 0.000000 0.000000 0.000000 0.063605 0.000000 0.000000
# 5 0.000000 0.000000 0.000000 0.000000 0.027974 0.000000
# 6 0.000000 0.000000 0.000000 0.000000 0.000000 0.026427
#
#
# Mechanical properties :
#
#
# Convention : Reuss Voigt Hill
#
# Bulk Modulus (GPa) = 63.81975 64.45928 64.13951
# Shear Modulus (GPa) = 29.27299 33.75613 31.51456
#
# Velocity S-wave (km/s) = 3.71883 3.99346 3.85859
# Velocity P-wave (km/s) = 6.97069 7.19143 7.08192
#
# Compressibility (1/GPa) = 0.01566913
#
# Stress axis : x y z
#
# Youngs Moduli (GPa) = 106.33058 77.76938 106.83677
#
# Poissons Ratio (x) = 0.31728 0.13223
# Poissons Ratio (y) = 0.43380 0.28414
# Poissons Ratio (z) = 0.13161 0.20683
#
# Static dielectric constant tensor:
#      x y z
#    x 4.170860 0.000000 0.000000 
#    y 0.000000 3.530390 0.000000 
#    z 0.000000 0.000000 3.900320 
# 
# 
# High freq. dielectric constant tensor:
#      x y z
#    x 1.852910 0.000000 0.000000 
#    y 0.000000 1.809170 0.000000 
#    z 0.000000 0.000000 1.841340 
# 
# From -- ./inp_files/3339.got.cif
#   From: 2010.03.12/outbox.cif.g09.slc.cpg/sg29_2_cif.got.tgz:3339.got - 2010.04.14 03:43:10.
