data_PCOD8168299
_publ_section_title
;
Structure prediction by ZEFSAII (Michael W. Deem and Ramdas Pophale) SiO2 
 PCOD8168299
Probable space group: P M A 2
;
_chemical_formula_sum "Si O2"
_cell_formula_units_Z 28
_cell_length_a 8.899359
_cell_length_b 9.432321
_cell_length_c 17.884846
_cell_angle_alpha 90.000000
_cell_angle_beta 90.000000
_cell_angle_gamma 90.000000
_cell_volume 1501.282782
_symmetry_space_group_name_H-M "P M A 2"
_symmetry_group_IT_number 28
_symmetry_cell_setting 'orthorhombic'
loop_
_space_group_symop_operation_xyz
x,y,z
-x,-y,z
1/2-x,y,z
1/2+x,-y,z
loop_
_atom_site_type_symbol
_atom_site_label
_atom_site_fract_x
_atom_site_fract_y
_atom_site_fract_z
Si Si1 0.072889 0.651850 0.481890
Si Si2 0.926331 0.153189 0.622122
Si Si3 0.072455 0.348127 0.064055
Si Si4 0.074134 0.152616 0.766902
Si Si5 0.574619 0.848243 0.931247
Si Si6 0.074705 0.144192 0.193389
Si Si7 0.572304 0.851737 0.364517
O O1 0.250000 0.636261 0.469091
O O2 0.033589 0.747017 0.553171
O O3 0.000000 0.500000 0.495028
O O4 0.999081 0.722686 0.409480
O O5 0.750000 0.132627 0.632178
O O6 0.994174 0.230709 0.696761
O O7 0.000000 0.000000 0.607920
O O8 0.250000 0.365071 0.060464
O O9 0.020074 0.271505 0.140356
O O10 0.000000 0.500000 0.061873
O O11 0.011641 0.259767 0.992953
O O12 0.250000 0.141370 0.750253
O O13 0.043078 0.220436 0.848760
O O14 0.000000 0.000000 0.768690
O O15 0.750000 0.874110 0.942763
O O16 0.500000 0.000000 0.941779
O O17 0.250000 0.120011 0.185084
O O18 0.029998 0.179114 0.278454
O O19 0.000000 0.000000 0.165116
O O20 0.750000 0.859464 0.378028
O O21 0.500000 0.000000 0.391135
#
# Coordination Sequence:
#
# PCOD8168299 Si02
#       7
#     4   4   4   4   4   4   4
#     4  11  24  39  55  77 106 141 178 216 262 314
#     4  10  20  34  54  79 104 133 171 213 258 308
#     4  10  21  36  51  73 106 140 175 212 253 303
#     4   9  16  28  49  76 103 131 166 211 259 303
#     4   9  18  32  52  77 103 132 170 214 257 304
#     4   9  19  35  56  81 106 134 171 214 257 304
#     4  10  20  36  58  83 109 137 173 216 261 310
#
# _framework density 18.650717
#
# number of rings (size 3 to 8) (size 9 to 14) (size 15 to 20)
#    0.000    2.286    0.000    3.429    0.000    6.286 
#    0.000    2.143    0.000    3.429    0.000    0.000 
#    0.000    0.000    0.000    0.000    0.000    0.000 
#
# Total GULP energy -347134.005431 kJ/mol
# GULP energy per Si atom -12397.643051 kJ/mol
# Density = 1.860827 g / cm^3
# Si number density = 18.650717 Si / 1000 Ang^3
#
#
#
# Elastic Constant Matrix: (Units=GPa)
#
#
# Indices 1 2 3 4 5 6 
#
# 1 75.9247 51.0280 56.1809 0.0000 0.0000 0.0000
# 2 51.0280 125.1313 79.9121 0.0000 0.0000 0.0000
# 3 56.1809 79.9121 141.9054 0.0000 0.0000 0.0000
# 4 0.0000 0.0000 0.0000 8.0589 0.0000 0.0000
# 5 0.0000 0.0000 0.0000 0.0000 25.5327 0.0000
# 6 0.0000 0.0000 0.0000 0.0000 0.0000 32.2055
#
#
#
# Elastic Compliance Matrix: (Units=1/GPa)
#
#
# Indices 1 2 3 4 5 6 
#
# 1 0.020412 -0.004940 -0.005300 0.000000 0.000000 0.000000
# 2 -0.004940 0.013675 -0.005745 0.000000 0.000000 0.000000
# 3 -0.005300 -0.005745 0.012381 0.000000 0.000000 0.000000
# 4 0.000000 0.000000 0.000000 0.124086 0.000000 0.000000
# 5 0.000000 0.000000 0.000000 0.000000 0.039165 0.000000
# 6 0.000000 0.000000 0.000000 0.000000 0.000000 0.031051
#
#
# Mechanical properties :
#
#
# Convention : Reuss Voigt Hill
#
# Bulk Modulus (GPa) = 68.97142 79.68927 74.33034
# Shear Modulus (GPa) = 18.01333 23.54878 20.78105
#
# Velocity S-wave (km/s) = 3.11114 3.55719 3.34162
# Velocity P-wave (km/s) = 7.06870 7.72602 7.40466
#
# Compressibility (1/GPa) = 0.01449876
#
# Stress axis : x y z
#
# Youngs Moduli (GPa) = 48.99016 73.12594 80.77209
#
# Poissons Ratio (x) = 0.36121 0.42807
# Poissons Ratio (y) = 0.24199 0.46406
# Poissons Ratio (z) = 0.25963 0.42013
#
# Static dielectric constant tensor:
#      x y z
#    x 3.468020 0.000000 0.000000 
#    y 0.000000 3.239910 0.000000 
#    z 0.000000 0.000000 4.160090 
# 
# 
# High freq. dielectric constant tensor:
#      x y z
#    x 1.730140 0.000000 0.000000 
#    y 0.000000 1.696380 0.000000 
#    z 0.000000 0.000000 1.747200 
# 
# From -- ./inp_files/6725.got.cif
#   From: 2010.03.12/outbox.cif.g09.slc.cpg/sg28_4_cif.got.tgz:6725.got - 2010.04.14 03:39:34.
