data_PCOD8168848
_publ_section_title
;
Structure prediction by ZEFSAII (Michael W. Deem and Ramdas Pophale) SiO2 
 PCOD8168848
Probable space group: P C A 21
;
_chemical_formula_sum "Si O2"
_cell_formula_units_Z 32
_cell_length_a 22.216574
_cell_length_b 6.504923
_cell_length_c 10.106537
_cell_angle_alpha 90.000000
_cell_angle_beta 90.000000
_cell_angle_gamma 90.000000
_cell_volume 1460.567451
_symmetry_space_group_name_H-M "P C A 21"
_symmetry_group_IT_number 29
_symmetry_cell_setting 'orthorhombic'
loop_
_space_group_symop_operation_xyz
x,y,z
-x,-y,1/2+z
1/2-x,y,1/2+z
1/2+x,-y,z
loop_
_atom_site_type_symbol
_atom_site_label
_atom_site_fract_x
_atom_site_fract_y
_atom_site_fract_z
Si Si1 0.634878 0.676682 0.407300
Si Si2 0.502382 0.649178 0.316798
Si Si3 0.589483 0.021417 0.886060
Si Si4 0.162537 0.679734 0.056320
Si Si5 0.206814 0.705849 0.482079
Si Si6 0.058210 0.376730 0.035369
Si Si7 0.702732 0.994599 0.256000
Si Si8 0.670307 0.949351 0.649982
O O1 0.564387 0.658029 0.394378
O O2 0.665479 0.453785 0.405179
O O3 0.649661 0.785590 0.543640
O O4 0.659103 0.803951 0.282686
O O5 0.465641 0.475314 0.397812
O O6 0.470613 0.870786 0.330090
O O7 0.511454 0.602230 0.159362
O O8 0.571947 0.861181 0.001910
O O9 0.624868 0.906566 0.769565
O O10 0.634643 0.197421 0.934175
O O11 0.164186 0.836847 0.177936
O O12 0.230555 0.600976 0.027613
O O13 0.119860 0.485031 0.085680
O O14 0.225321 0.898374 0.390458
O O15 0.168645 0.810513 0.602167
O O16 0.760357 0.900801 0.182920
#
# Coordination Sequence:
#
# PCOD8168848 Si02
#       8
#     4   4   4   4   4   4   4   4
#     4  11  25  40  68 100 136 180 227 281 346 420
#     4  11  28  46  67 103 134 187 232 290 347 408
#     4  11  25  44  70  92 137 179 234 284 343 410
#     4  10  22  42  66  99 133 178 221 281 344 409
#     4  10  22  39  65  98 135 167 216 283 338 415
#     4  11  27  45  73  98 137 183 238 289 346 419
#     4  10  21  42  66  98 136 171 221 275 349 410
#     4  10  24  40  65  98 132 177 223 281 341 413
#
# _framework density 21.909293999999999
#
# number of rings (size 3 to 8) (size 9 to 14) (size 15 to 20)
#    0.000    1.500    1.250    1.500    7.000    7.000 
#    0.000    0.000    0.000    0.000    0.000    0.000 
#    0.000    0.000    0.000    0.000    0.000    0.000 
#
# Total GULP energy -396781.022431 kJ/mol
# GULP energy per Si atom -12399.406951 kJ/mol
# Density = 2.185943 g / cm^3
# Si number density = 21.909294 Si / 1000 Ang^3
#
#
#
# Elastic Constant Matrix: (Units=GPa)
#
#
# Indices 1 2 3 4 5 6 
#
# 1 90.6557 31.8172 21.0013 0.0000 0.0000 0.0000
# 2 31.8172 67.7055 14.4931 0.0000 0.0000 0.0000
# 3 21.0013 14.4931 92.9636 0.0000 0.0000 0.0000
# 4 0.0000 0.0000 0.0000 39.4736 0.0000 0.0000
# 5 0.0000 0.0000 0.0000 0.0000 39.9549 0.0000
# 6 0.0000 0.0000 0.0000 0.0000 0.0000 23.7343
#
#
#
# Elastic Compliance Matrix: (Units=1/GPa)
#
#
# Indices 1 2 3 4 5 6 
#
# 1 0.013612 -0.005937 -0.002150 0.000000 0.000000 0.000000
# 2 -0.005937 0.017869 -0.001445 0.000000 0.000000 0.000000
# 3 -0.002150 -0.001445 0.011468 0.000000 0.000000 0.000000
# 4 0.000000 0.000000 0.000000 0.025333 0.000000 0.000000
# 5 0.000000 0.000000 0.000000 0.000000 0.025028 0.000000
# 6 0.000000 0.000000 0.000000 0.000000 0.000000 0.042133
#
#
# Mechanical properties :
#
#
# Convention : Reuss Voigt Hill
#
# Bulk Modulus (GPa) = 41.86364 42.88310 42.37337
# Shear Modulus (GPa) = 30.77527 32.90009 31.83768
#
# Velocity S-wave (km/s) = 3.75196 3.87932 3.81617
# Velocity P-wave (km/s) = 6.15782 6.29928 6.22895
#
# Compressibility (1/GPa) = 0.02388707
#
# Stress axis : x y z
#
# Youngs Moduli (GPa) = 73.46285 55.96290 87.20121
#
# Poissons Ratio (x) = 0.33224 0.18745
# Poissons Ratio (y) = 0.43613 0.12597
# Poissons Ratio (z) = 0.15792 0.08085
#
# Static dielectric constant tensor:
#      x y z
#    x 3.905550 0.000000 0.000000 
#    y 0.000000 3.819650 0.000000 
#    z 0.000000 0.000000 4.045690 
# 
# 
# High freq. dielectric constant tensor:
#      x y z
#    x 1.863710 0.000000 0.000000 
#    y 0.000000 1.855040 0.000000 
#    z 0.000000 0.000000 1.873310 
# 
# From -- ./inp_files/3856.got.cif
#   From: 2010.03.12/outbox.cif.g09.slc.cpg/sg29_2_cif.got.tgz:3856.got - 2010.04.14 03:43:10.
