data_PCOD8168256
_publ_section_title
;
Structure prediction by ZEFSAII (Michael W. Deem and Ramdas Pophale) SiO2 
 PCOD8168256
Probable space group: P M A 2
;
_chemical_formula_sum "Si O2"
_cell_formula_units_Z 24
_cell_length_a 8.989192
_cell_length_b 13.990988
_cell_length_c 9.920502
_cell_angle_alpha 90.000000
_cell_angle_beta 90.000000
_cell_angle_gamma 90.000000
_cell_volume 1247.678495
_symmetry_space_group_name_H-M "P M A 2"
_symmetry_group_IT_number 28
_symmetry_cell_setting 'orthorhombic'
loop_
_space_group_symop_operation_xyz
x,y,z
-x,-y,z
1/2-x,y,z
1/2+x,-y,z
loop_
_atom_site_type_symbol
_atom_site_label
_atom_site_fract_x
_atom_site_fract_y
_atom_site_fract_z
Si Si1 0.076495 0.715805 0.944570
Si Si2 0.420300 0.403487 0.718203
Si Si3 0.426618 0.097396 0.848827
Si Si4 0.581583 0.704410 0.442886
Si Si5 0.575753 0.905079 0.539531
Si Si6 0.921245 0.401268 0.209284
O O1 0.250000 0.729467 0.911216
O O2 0.007154 0.639085 0.844134
O O3 0.992031 0.816255 0.936211
O O4 0.050643 0.676751 0.094464
O O5 0.500000 0.500000 0.671868
O O6 0.250000 0.423548 0.760503
O O7 0.427518 0.330256 0.595869
O O8 0.250000 0.093676 0.867565
O O9 0.474452 0.112976 0.693602
O O10 0.500000 0.000000 0.903853
O O11 0.750000 0.695957 0.388552
O O12 0.528839 0.815069 0.446975
O O13 0.476672 0.641709 0.349836
O O14 0.750000 0.921293 0.534819
O O15 0.500000 0.000000 0.479693
O O16 0.750000 0.426246 0.227307
O O17 0.000000 0.500000 0.171796
#
# Coordination Sequence:
#
# PCOD8168256 Si02
#       6
#     4   4   4   4   4   4
#     4  11  23  39  59  86 117 154 199 242 290 349
#     4  11  22  37  57  85 116 147 192 245 295 351
#     4  10  19  35  59  89 122 154 192 240 293 348
#     4  10  21  39  60  85 117 152 194 239 290 349
#     4   9  18  34  56  87 119 150 187 233 286 343
#     4  11  25  42  60  84 115 155 200 241 292 352
#
# _framework density 19.235726
#
# number of rings (size 3 to 8) (size 9 to 14) (size 15 to 20)
#    0.000    1.667    1.667    3.000    0.000    8.000 
#    0.000    0.833    0.000    2.000    0.000    0.000 
#    0.000    0.000    0.000    0.000    0.000    0.000 
#
# Total GULP energy -297695.814580 kJ/mol
# GULP energy per Si atom -12403.992274 kJ/mol
# Density = 1.919194 g / cm^3
# Si number density = 19.235726 Si / 1000 Ang^3
#
#
#
# Elastic Constant Matrix: (Units=GPa)
#
#
# Indices 1 2 3 4 5 6 
#
# 1 105.9163 54.3718 31.5460 0.0000 0.0000 0.0000
# 2 54.3718 130.7339 13.7453 0.0000 0.0000 0.0000
# 3 31.5460 13.7453 47.3665 0.0000 0.0000 0.0000
# 4 0.0000 0.0000 0.0000 23.6273 0.0000 0.0000
# 5 0.0000 0.0000 0.0000 0.0000 20.7797 0.0000
# 6 0.0000 0.0000 0.0000 0.0000 0.0000 41.6959
#
#
#
# Elastic Compliance Matrix: (Units=1/GPa)
#
#
# Indices 1 2 3 4 5 6 
#
# 1 0.014540 -0.005187 -0.008178 0.000000 0.000000 0.000000
# 2 -0.005187 0.009740 0.000628 0.000000 0.000000 0.000000
# 3 -0.008178 0.000628 0.026376 0.000000 0.000000 0.000000
# 4 0.000000 0.000000 0.000000 0.042324 0.000000 0.000000
# 5 0.000000 0.000000 0.000000 0.000000 0.048124 0.000000
# 6 0.000000 0.000000 0.000000 0.000000 0.000000 0.023983
#
#
# Mechanical properties :
#
#
# Convention : Reuss Voigt Hill
#
# Bulk Modulus (GPa) = 39.71097 53.70477 46.70787
# Shear Modulus (GPa) = 25.13101 29.51081 27.32091
#
# Velocity S-wave (km/s) = 3.61844 3.92109 3.77280
# Velocity P-wave (km/s) = 6.17630 6.96275 6.58128
#
# Compressibility (1/GPa) = 0.02518196
#
# Stress axis : x y z
#
# Youngs Moduli (GPa) = 68.77497 102.66439 37.91254
#
# Poissons Ratio (x) = 0.53255 0.31006
# Poissons Ratio (y) = 0.35676 -0.02382
# Poissons Ratio (z) = 0.56247 -0.06449
#
# Static dielectric constant tensor:
#      x y z
#    x 3.634360 0.000000 0.000000 
#    y 0.000000 3.767070 0.000000 
#    z 0.000000 0.000000 3.248880 
# 
# 
# High freq. dielectric constant tensor:
#      x y z
#    x 1.757540 0.000000 0.000000 
#    y 0.000000 1.766320 0.000000 
#    z 0.000000 0.000000 1.724880 
# 
# From -- ./inp_files/2432.got.cif
#   From: 2010.03.12/outbox.cif.g09.slc.cpg/sg28_2_cif.got.tgz:2432.got - 2010.04.14 03:39:34.
