data_PCOD8168591
_publ_section_title
;
Structure prediction by ZEFSAII (Michael W. Deem and Ramdas Pophale) SiO2 
 PCOD8168591
Probable space group: P C A 21
;
_chemical_formula_sum "Si O2"
_cell_formula_units_Z 32
_cell_length_a 14.152837
_cell_length_b 21.477338
_cell_length_c 4.963318
_cell_angle_alpha 90.000000
_cell_angle_beta 90.000000
_cell_angle_gamma 90.000000
_cell_volume 1508.676266
_symmetry_space_group_name_H-M "P C A 21"
_symmetry_group_IT_number 29
_symmetry_cell_setting 'orthorhombic'
loop_
_space_group_symop_operation_xyz
x,y,z
-x,-y,1/2+z
1/2-x,y,1/2+z
1/2+x,-y,z
loop_
_atom_site_type_symbol
_atom_site_label
_atom_site_fract_x
_atom_site_fract_y
_atom_site_fract_z
Si Si1 0.307914 0.741639 0.628250
Si Si2 0.185813 0.120288 0.393654
Si Si3 0.561101 0.370807 0.205589
Si Si4 0.808746 0.736682 0.915531
Si Si5 0.439508 0.370187 0.709749
Si Si6 0.814839 0.117205 0.662721
Si Si7 0.437315 0.499540 0.840367
Si Si8 0.999993 0.958727 0.013145
O O1 0.285257 0.732904 0.313426
O O2 0.379485 0.691174 0.741650
O O3 0.348509 0.811000 0.665724
O O4 0.265642 0.103008 0.611703
O O5 0.156016 0.192664 0.388978
O O6 0.088951 0.083941 0.437291
O O7 0.469342 0.363101 0.399479
O O8 0.617915 0.434660 0.289535
O O9 0.532463 0.377481 0.894421
O O10 0.717733 0.724159 0.725601
O O11 0.888771 0.690675 0.817247
O O12 0.381205 0.435826 0.754460
O O13 0.734549 0.101057 0.444625
O O14 0.910175 0.078720 0.623878
O O15 0.531389 0.504084 0.650907
O O16 0.033179 0.994470 0.746105
#
# Coordination Sequence:
#
# PCOD8168591 Si02
#       8
#     4   4   4   4   4   4   4   4
#     4  10  21  38  56  82 117 149 189 237 294 347
#     4  10  23  43  63  89 127 162 193 250 302 347
#     4  10  19  33  55  82 107 151 194 239 285 342
#     4  10  21  38  56  82 117 149 189 237 294 347
#     4  10  19  33  55  82 107 151 194 239 285 342
#     4  10  23  43  63  89 127 162 193 250 302 347
#     4   8  16  30  48  74 112 142 188 236 286 340
#     4  12  26  42  66  98 120 158 210 242 288 372
#
# _framework density 21.210646000000001
#
# number of rings (size 3 to 8) (size 9 to 14) (size 15 to 20)
#    0.000    2.000    0.000    3.000    1.750    3.000 
#    2.250    1.250    0.000    0.000    0.000    0.000 
#    0.000    0.000    0.000    0.000    0.000    0.000 
#
# Total GULP energy -396549.300424 kJ/mol
# GULP energy per Si atom -12392.165638 kJ/mol
# Density = 2.116237 g / cm^3
# Si number density = 21.210646 Si / 1000 Ang^3
#
#
#
# Elastic Constant Matrix: (Units=GPa)
#
#
# Indices 1 2 3 4 5 6 
#
# 1 63.6124 60.7346 7.5842 0.0000 0.0000 0.0000
# 2 60.7346 130.8811 28.2163 0.0000 0.0000 0.0000
# 3 7.5842 28.2163 89.3734 0.0000 0.0000 0.0000
# 4 0.0000 0.0000 0.0000 32.5820 0.0000 0.0000
# 5 0.0000 0.0000 0.0000 0.0000 14.9690 0.0000
# 6 0.0000 0.0000 0.0000 0.0000 0.0000 112.7691
#
#
#
# Elastic Compliance Matrix: (Units=1/GPa)
#
#
# Indices 1 2 3 4 5 6 
#
# 1 0.028519 -0.013641 0.001886 0.000000 0.000000 0.000000
# 2 -0.013641 0.014723 -0.003491 0.000000 0.000000 0.000000
# 3 0.001886 -0.003491 0.012131 0.000000 0.000000 0.000000
# 4 0.000000 0.000000 0.000000 0.030692 0.000000 0.000000
# 5 0.000000 0.000000 0.000000 0.000000 0.066805 0.000000
# 6 0.000000 0.000000 0.000000 0.000000 0.000000 0.008868
#
#
# Mechanical properties :
#
#
# Convention : Reuss Voigt Hill
#
# Bulk Modulus (GPa) = 40.18822 52.99302 46.59062
# Shear Modulus (GPa) = 24.93503 44.55281 34.74392
#
# Velocity S-wave (km/s) = 3.43241 4.58809 4.05166
# Velocity P-wave (km/s) = 5.89041 7.28737 6.62581
#
# Compressibility (1/GPa) = 0.02488292
#
# Stress axis : x y z
#
# Youngs Moduli (GPa) = 35.06448 67.92114 82.43363
#
# Poissons Ratio (x) = 0.92649 -0.15551
# Poissons Ratio (y) = 0.47830 0.28775
# Poissons Ratio (z) = -0.06615 0.23709
#
# Static dielectric constant tensor:
#      x y z
#    x 3.191630 0.000000 0.000000 
#    y 0.000000 4.287150 0.000000 
#    z 0.000000 0.000000 4.102070 
# 
# 
# High freq. dielectric constant tensor:
#      x y z
#    x 1.773500 0.000000 0.000000 
#    y 0.000000 1.858180 0.000000 
#    z 0.000000 0.000000 1.857900 
# 
# From -- ./inp_files/125.got.cif
#   From: 2010.03.12/outbox.cif.g09.slc.cpg/sg29_1_cif.got.tgz:125.got - 2010.04.14 03:43:10.
