data_PCOD8168044
_publ_section_title
;
Structure prediction by ZEFSAII (Michael W. Deem and Ramdas Pophale) SiO2 
 PCOD8168044
Probable space group: P M A 2
;
_chemical_formula_sum "Si O2"
_cell_formula_units_Z 28
_cell_length_a 8.597569
_cell_length_b 9.299631
_cell_length_c 18.185367
_cell_angle_alpha 90.000000
_cell_angle_beta 90.000000
_cell_angle_gamma 90.000000
_cell_volume 1453.996819
_symmetry_space_group_name_H-M "P M A 2"
_symmetry_group_IT_number 28
_symmetry_cell_setting 'orthorhombic'
loop_
_space_group_symop_operation_xyz
x,y,z
-x,-y,z
1/2-x,y,z
1/2+x,-y,z
loop_
_atom_site_type_symbol
_atom_site_label
_atom_site_fract_x
_atom_site_fract_y
_atom_site_fract_z
Si Si1 0.565899 0.840340 0.439020
Si Si2 0.565662 0.342356 0.029597
Si Si3 0.066557 0.344447 0.876384
Si Si4 0.433602 0.157718 0.737691
Si Si5 0.065609 0.840272 0.589867
Si Si6 0.066651 0.841938 0.166371
Si Si7 0.934611 0.341081 0.306579
O O1 0.750000 0.850568 0.439487
O O2 0.506070 0.771263 0.516036
O O3 0.509108 0.733169 0.376938
O O4 0.500000 0.000000 0.425680
O O5 0.500000 0.500000 0.045871
O O6 0.750000 0.352379 0.028694
O O7 0.504712 0.234410 0.092409
O O8 0.505412 0.281808 0.951651
O O9 0.250000 0.353492 0.885782
O O10 0.015232 0.244907 0.809266
O O11 0.000000 0.500000 0.859191
O O12 0.250000 0.151447 0.727400
O O13 0.507670 0.235652 0.665255
O O14 0.500000 0.000000 0.748999
O O15 0.250000 0.838338 0.584506
O O16 0.000000 0.000000 0.594868
O O17 0.250000 0.853672 0.164664
O O18 0.011181 0.748302 0.235566
O O19 0.000000 0.000000 0.173385
O O20 0.750000 0.345201 0.315079
O O21 0.000000 0.500000 0.298024
#
# Coordination Sequence:
#
# PCOD8168044 Si02
#       7
#     4   4   4   4   4   4   4
#     4  11  21  36  58  84 113 146 185 230 277 327
#     4  10  20  36  57  81 108 142 182 223 270 324
#     4  10  21  36  55  79 108 144 183 223 270 324
#     4  10  20  34  53  79 109 142 182 226 274 325
#     4  10  18  31  53  80 109 143 182 225 275 327
#     4  10  23  39  58  84 113 144 181 225 272 323
#     4  11  23  40  59  83 113 147 186 226 275 330
#
# _framework density 19.257262999999998
#
# number of rings (size 3 to 8) (size 9 to 14) (size 15 to 20)
#    0.000    1.714    0.000    7.714    0.000    6.286 
#    0.000    3.571    0.000    1.714    0.000    0.000 
#    0.000    0.000    0.000    0.000    0.000    0.000 
#
# Total GULP energy -347206.108221 kJ/mol
# GULP energy per Si atom -12400.218151 kJ/mol
# Density = 1.921343 g / cm^3
# Si number density = 19.257263 Si / 1000 Ang^3
#
#
#
# Elastic Constant Matrix: (Units=GPa)
#
#
# Indices 1 2 3 4 5 6 
#
# 1 114.4028 43.8623 73.1790 0.0000 0.0000 0.0000
# 2 43.8623 106.2119 95.7832 0.0000 0.0000 0.0000
# 3 73.1790 95.7832 209.7913 0.0000 0.0000 0.0000
# 4 0.0000 0.0000 0.0000 30.9887 0.0000 0.0000
# 5 0.0000 0.0000 0.0000 0.0000 20.1947 0.0000
# 6 0.0000 0.0000 0.0000 0.0000 0.0000 27.6115
#
#
#
# Elastic Compliance Matrix: (Units=1/GPa)
#
#
# Indices 1 2 3 4 5 6 
#
# 1 0.011477 -0.001920 -0.003127 0.000000 0.000000 0.000000
# 2 -0.001920 0.016326 -0.006784 0.000000 0.000000 0.000000
# 3 -0.003127 -0.006784 0.008955 0.000000 0.000000 0.000000
# 4 0.000000 0.000000 0.000000 0.032270 0.000000 0.000000
# 5 0.000000 0.000000 0.000000 0.000000 0.049518 0.000000
# 6 0.000000 0.000000 0.000000 0.000000 0.000000 0.036217
#
#
# Mechanical properties :
#
#
# Convention : Reuss Voigt Hill
#
# Bulk Modulus (GPa) = 76.35837 95.11721 85.73779
# Shear Modulus (GPa) = 27.35376 30.26440 28.80908
#
# Velocity S-wave (km/s) = 3.77296 3.96862 3.87203
# Velocity P-wave (km/s) = 7.66277 8.39643 8.03798
#
# Compressibility (1/GPa) = 0.01309614
#
# Stress axis : x y z
#
# Youngs Moduli (GPa) = 87.12837 61.25168 111.67174
#
# Poissons Ratio (x) = 0.11759 0.34919
# Poissons Ratio (y) = 0.16727 0.75761
# Poissons Ratio (z) = 0.27245 0.41555
#
# Static dielectric constant tensor:
#      x y z
#    x 3.613390 0.000000 0.000000 
#    y 0.000000 3.278320 0.000000 
#    z 0.000000 0.000000 4.328580 
# 
# 
# High freq. dielectric constant tensor:
#      x y z
#    x 1.764470 0.000000 0.000000 
#    y 0.000000 1.725020 0.000000 
#    z 0.000000 0.000000 1.776350 
# 
# From -- ./inp_files/6846.got.cif
#   From: 2010.03.12/outbox.cif.g09.slc.cpg/sg28_4_cif.got.tgz:6846.got - 2010.04.14 03:39:34.
