data_PCOD8168105
_publ_section_title
;
Structure prediction by ZEFSAII (Michael W. Deem and Ramdas Pophale) SiO2 
 PCOD8168105
Probable space group: P M A 2
;
_chemical_formula_sum "Si O2"
_cell_formula_units_Z 28
_cell_length_a 8.858486
_cell_length_b 9.100715
_cell_length_c 18.408217
_cell_angle_alpha 90.000000
_cell_angle_beta 90.000000
_cell_angle_gamma 90.000000
_cell_volume 1484.043881
_symmetry_space_group_name_H-M "P M A 2"
_symmetry_group_IT_number 28
_symmetry_cell_setting 'orthorhombic'
loop_
_space_group_symop_operation_xyz
x,y,z
-x,-y,z
1/2-x,y,z
1/2+x,-y,z
loop_
_atom_site_type_symbol
_atom_site_label
_atom_site_fract_x
_atom_site_fract_y
_atom_site_fract_z
Si Si1 0.428483 0.842697 0.552290
Si Si2 0.928595 0.339942 0.970036
Si Si3 0.076018 0.345120 0.267372
Si Si4 0.571603 0.660821 0.112494
Si Si5 0.071847 0.338956 0.425584
Si Si6 0.927500 0.341768 0.692601
Si Si7 0.428108 0.841589 0.829940
O O1 0.250000 0.858465 0.544287
O O2 0.495637 0.774398 0.479527
O O3 0.475404 0.740660 0.619376
O O4 0.500000 0.000000 0.566666
O O5 0.750000 0.355706 0.975065
O O6 0.979672 0.240170 0.902960
O O7 0.000000 0.500000 0.959381
O O8 0.992335 0.260509 0.043563
O O9 0.250000 0.382234 0.263631
O O10 0.033933 0.260540 0.191233
O O11 0.038947 0.268600 0.344790
O O12 0.000000 0.500000 0.268745
O O13 0.500000 0.500000 0.115714
O O14 0.750000 0.652606 0.098186
O O15 0.250000 0.351505 0.441151
O O16 0.000000 0.500000 0.434808
O O17 0.750000 0.361926 0.697906
O O18 0.988888 0.250602 0.761330
O O19 0.000000 0.500000 0.692459
O O20 0.250000 0.859599 0.826036
O O21 0.500000 0.000000 0.827788
#
# Coordination Sequence:
#
# PCOD8168105 Si02
#       7
#     4   4   4   4   4   4   4
#     4  11  23  38  56  79 107 140 177 215 261 313
#     4  10  19  31  49  75 104 134 172 214 257 305
#     4   8  15  26  43  69 100 133 169 211 257 305
#     4   9  15  25  43  69 100 133 169 210 258 305
#     4  10  19  33  53  78 108 140 177 220 264 311
#     4  10  22  39  59  83 108 135 170 211 255 305
#     4  10  22  38  55  77 105 137 173 211 253 304
#
# _framework density 18.867367000000002
#
# number of rings (size 3 to 8) (size 9 to 14) (size 15 to 20)
#    0.000    2.286    0.000    3.857    0.000    5.143 
#    0.000    0.000    0.000    0.857    0.000    2.000 
#    0.000    0.000    0.000    0.000    0.000    0.000 
#
# Total GULP energy -346936.950049 kJ/mol
# GULP energy per Si atom -12390.605359 kJ/mol
# Density = 1.882442 g / cm^3
# Si number density = 18.867367 Si / 1000 Ang^3
#
#
#
# Elastic Constant Matrix: (Units=GPa)
#
#
# Indices 1 2 3 4 5 6 
#
# 1 65.1106 39.7469 62.0521 0.0000 0.0000 0.0000
# 2 39.7469 106.3427 75.4904 0.0000 0.0000 0.0000
# 3 62.0521 75.4904 206.5741 0.0000 0.0000 0.0000
# 4 0.0000 0.0000 0.0000 -5.2064 0.0000 0.0000
# 5 0.0000 0.0000 0.0000 0.0000 30.1843 0.0000
# 6 0.0000 0.0000 0.0000 0.0000 0.0000 28.6898
#
#
#
# Elastic Compliance Matrix: (Units=1/GPa)
#
#
# Indices 1 2 3 4 5 6 
#
# 1 0.023380 -0.005068 -0.005171 0.000000 0.000000 0.000000
# 2 -0.005068 0.013796 -0.003519 0.000000 0.000000 0.000000
# 3 -0.005171 -0.003519 0.007680 0.000000 0.000000 0.000000
# 4 0.000000 0.000000 0.000000 -0.192071 0.000000 0.000000
# 5 0.000000 0.000000 0.000000 0.000000 0.033130 0.000000
# 6 0.000000 0.000000 0.000000 0.000000 0.000000 0.034856
#
#
# Mechanical properties :
#
#
# Convention : Reuss Voigt Hill
#
# Bulk Modulus (GPa) = 57.66968 81.40069 69.53519
# Shear Modulus (GPa) = -108.85633 24.11607 -42.37013
#
# Velocity S-wave (km/s) = -7.60400 3.57906 -4.74401
# Velocity P-wave (km/s) = 6.81632 7.76639 2.63198
#
# Compressibility (1/GPa) = 0.01734013
#
# Stress axis : x y z
#
# Youngs Moduli (GPa) = 42.77084 72.48479 130.20276
#
# Poissons Ratio (x) = 0.36734 0.67330
# Poissons Ratio (y) = 0.21675 0.45822
# Poissons Ratio (z) = 0.22118 0.25510
#
# Static dielectric constant tensor:
#      x y z
#    x 3.517810 0.000000 0.000000 
#    y 0.000000 3.053530 0.000000 
#    z 0.000000 0.000000 4.555940 
# 
# 
# High freq. dielectric constant tensor:
#      x y z
#    x 1.740060 0.000000 0.000000 
#    y 0.000000 1.688020 0.000000 
#    z 0.000000 0.000000 1.769410 
# 
# From -- ./inp_files/6721.got.cif
#   From: 2010.03.12/outbox.cif.g09.slc.cpg/sg28_4_cif.got.tgz:6721.got - 2010.04.14 03:39:34.
