data_PCOD8168790
_publ_section_title
;
Structure prediction by ZEFSAII (Michael W. Deem and Ramdas Pophale) SiO2 
 PCOD8168790
Probable space group: P C A 21
;
_chemical_formula_sum "Si O2"
_cell_formula_units_Z 32
_cell_length_a 13.215014
_cell_length_b 8.901070
_cell_length_c 13.731981
_cell_angle_alpha 90.000000
_cell_angle_beta 90.000000
_cell_angle_gamma 90.000000
_cell_volume 1615.262229
_symmetry_space_group_name_H-M "P C A 21"
_symmetry_group_IT_number 29
_symmetry_cell_setting 'orthorhombic'
loop_
_space_group_symop_operation_xyz
x,y,z
-x,-y,1/2+z
1/2-x,y,1/2+z
1/2+x,-y,z
loop_
_atom_site_type_symbol
_atom_site_label
_atom_site_fract_x
_atom_site_fract_y
_atom_site_fract_z
Si Si1 0.601225 0.819048 0.290390
Si Si2 0.123414 0.894286 0.823281
Si Si3 0.620004 0.635566 0.702615
Si Si4 0.724886 0.937907 0.668197
Si Si5 0.599152 0.483677 0.217139
Si Si6 0.769790 0.565237 0.540559
Si Si7 0.224476 0.586234 0.844794
Si Si8 0.259199 0.118953 0.457183
O O1 0.496058 0.906139 0.304864
O O2 0.661005 0.891711 0.199281
O O3 0.581769 0.643087 0.270571
O O4 0.664916 0.842170 0.388572
O O5 0.150945 0.727280 0.855667
O O6 0.185724 0.914281 0.722755
O O7 0.156819 0.018052 0.903290
O O8 0.647654 0.810350 0.708017
O O9 0.501043 0.613092 0.704829
O O10 0.666378 0.572640 0.602338
O O11 0.668231 0.555134 0.796172
O O12 0.719155 0.969560 0.553017
O O13 0.640261 0.507046 0.108578
O O14 0.674353 0.381788 0.282457
O O15 0.745632 0.451038 0.454762
O O16 0.805621 0.725986 0.497883
#
# Coordination Sequence:
#
# PCOD8168790 Si02
#       8
#     4   4   4   4   4   4   4   4
#     4  11  20  40  63  88 122 163 202 256 314 360
#     4  11  25  37  63  94 124 166 205 254 310 376
#     4  10  21  38  64  90 114 166 207 250 314 366
#     4  10  22  44  64  84 129 168 201 254 311 376
#     4  11  21  38  66  90 119 160 212 258 313 360
#     4  10  21  40  63  87 122 161 207 257 308 368
#     4  11  21  38  60  90 126 150 205 269 297 362
#     4  10  21  41  63  87 124 168 203 246 319 376
#
# _framework density 19.811024
#
# number of rings (size 3 to 8) (size 9 to 14) (size 15 to 20)
#    0.000    1.500    6.250    0.750    0.000    8.000 
#    0.000    1.250    0.000    0.000    0.000    0.000 
#    0.000    0.000    0.000    0.000    0.000    0.000 
#
# Total GULP energy -396770.620555 kJ/mol
# GULP energy per Si atom -12399.081892 kJ/mol
# Density = 1.976593 g / cm^3
# Si number density = 19.811024 Si / 1000 Ang^3
#
#
#
# Elastic Constant Matrix: (Units=GPa)
#
#
# Indices 1 2 3 4 5 6 
#
# 1 123.5883 22.0510 30.5873 0.0000 0.0000 0.0000
# 2 22.0510 35.4087 24.9364 0.0000 0.0000 0.0000
# 3 30.5873 24.9364 127.9745 0.0000 0.0000 0.0000
# 4 0.0000 0.0000 0.0000 23.7219 0.0000 0.0000
# 5 0.0000 0.0000 0.0000 0.0000 15.0638 0.0000
# 6 0.0000 0.0000 0.0000 0.0000 0.0000 28.9789
#
#
#
# Elastic Compliance Matrix: (Units=1/GPa)
#
#
# Indices 1 2 3 4 5 6 
#
# 1 0.009276 -0.004886 -0.001265 0.000000 0.000000 0.000000
# 2 -0.004886 0.035307 -0.005712 0.000000 0.000000 0.000000
# 3 -0.001265 -0.005712 0.009229 0.000000 0.000000 0.000000
# 4 0.000000 0.000000 0.000000 0.042155 0.000000 0.000000
# 5 0.000000 0.000000 0.000000 0.000000 0.066384 0.000000
# 6 0.000000 0.000000 0.000000 0.000000 0.000000 0.034508
#
#
# Mechanical properties :
#
#
# Convention : Reuss Voigt Hill
#
# Bulk Modulus (GPa) = 33.23718 49.12455 41.18087
# Shear Modulus (GPa) = 21.68116 27.51269 24.59692
#
# Velocity S-wave (km/s) = 3.31176 3.73065 3.52743
# Velocity P-wave (km/s) = 5.60689 6.58843 6.11737
#
# Compressibility (1/GPa) = 0.03008679
#
# Stress axis : x y z
#
# Youngs Moduli (GPa) = 107.80230 28.32301 108.34918
#
# Poissons Ratio (x) = 0.13838 0.13707
# Poissons Ratio (y) = 0.52671 0.61888
# Poissons Ratio (z) = 0.13638 0.16178
#
# Static dielectric constant tensor:
#      x y z
#    x 3.495290 0.000000 0.000000 
#    y 0.000000 3.512290 0.000000 
#    z 0.000000 0.000000 3.850940 
# 
# 
# High freq. dielectric constant tensor:
#      x y z
#    x 1.760510 0.000000 0.000000 
#    y 0.000000 1.762830 0.000000 
#    z 0.000000 0.000000 1.787370 
# 
# From -- ./inp_files/4546.got.cif
#   From: 2010.03.12/outbox.cif.g09.slc.cpg/sg29_3_cif.got.tgz:4546.got - 2010.04.14 03:43:10.
