data_PCOD8168772
_publ_section_title
;
Structure prediction by ZEFSAII (Michael W. Deem and Ramdas Pophale) SiO2 
 PCOD8168772
Probable space group: P C A 21
;
_chemical_formula_sum "Si O2"
_cell_formula_units_Z 28
_cell_length_a 31.408986
_cell_length_b 7.906308
_cell_length_c 5.067582
_cell_angle_alpha 90.000000
_cell_angle_beta 90.000000
_cell_angle_gamma 90.000000
_cell_volume 1258.428165
_symmetry_space_group_name_H-M "P C A 21"
_symmetry_group_IT_number 29
_symmetry_cell_setting 'orthorhombic'
loop_
_space_group_symop_operation_xyz
x,y,z
-x,-y,1/2+z
1/2-x,y,1/2+z
1/2+x,-y,z
loop_
_atom_site_type_symbol
_atom_site_label
_atom_site_fract_x
_atom_site_fract_y
_atom_site_fract_z
Si Si1 1.000000 0.103675 0.008990
Si Si2 0.275122 0.701721 0.269607
Si Si3 0.870231 0.700670 0.247817
Si Si4 0.370231 0.700668 0.270162
Si Si5 0.224878 0.298279 0.748373
Si Si6 0.578801 0.699960 0.242767
Si Si7 0.078801 0.699960 0.275211
O O1 0.034572 0.217071 0.160129
O O2 0.980244 0.999999 0.258990
O O3 0.965427 0.217070 0.857853
O O4 0.244707 0.771044 0.499432
O O5 0.322788 0.773169 0.314910
O O6 0.276286 0.500000 0.258989
O O7 0.868673 0.500001 0.258993
O O8 0.822788 0.773170 0.203069
O O9 0.886503 0.761062 0.530998
O O10 0.902966 0.765360 0.022693
O O11 0.402966 0.765361 0.495284
O O12 0.386502 0.761059 0.986979
O O13 0.255293 0.228956 0.518547
O O14 0.571510 0.500000 0.258989
#
# Coordination Sequence:
#
# PCOD8168772 Si02
#       7
#     4   4   4   4   4   4   4
#     4  12  26  42  60  86 118 146 188 246 300 348
#     4   9  15  23  39  67 107 146 174 212 272 328
#     4   9  17  30  49  76 108 145 187 226 269 331
#     4   9  17  30  49  76 108 145 187 226 269 331
#     4   9  15  23  39  67 107 146 174 212 272 328
#     4  10  21  37  58  80 109 149 190 230 279 341
#     4  10  21  37  58  80 109 149 190 230 279 341
#
# _framework density 22.249979
#
# number of rings (size 3 to 8) (size 9 to 14) (size 15 to 20)
#    0.000    2.286    0.000    3.429    0.000   11.429 
#    0.000    0.000    0.000    0.000    0.000    0.000 
#    0.000   80.000    0.000    0.000    0.000    0.000 
#
# Total GULP energy -346990.450850 kJ/mol
# GULP energy per Si atom -12392.516102 kJ/mol
# Density = 2.219934 g / cm^3
# Si number density = 22.249979 Si / 1000 Ang^3
#
#
#
# Elastic Constant Matrix: (Units=GPa)
#
#
# Indices 1 2 3 4 5 6 
#
# 1 176.9613 31.3419 71.6719 0.0000 0.0000 0.0000
# 2 31.3419 31.8569 29.2546 0.0000 0.0000 0.0000
# 3 71.6719 29.2546 179.7998 0.0000 0.0000 0.0000
# 4 0.0000 0.0000 0.0000 16.0638 0.0000 0.0000
# 5 0.0000 0.0000 0.0000 0.0000 42.7034 0.0000
# 6 0.0000 0.0000 0.0000 0.0000 0.0000 -13.7905
#
#
#
# Elastic Compliance Matrix: (Units=1/GPa)
#
#
# Indices 1 2 3 4 5 6 
#
# 1 0.007457 -0.005416 -0.002091 0.000000 0.000000 0.000000
# 2 -0.005416 0.040838 -0.004486 0.000000 0.000000 0.000000
# 3 -0.002091 -0.004486 0.007125 0.000000 0.000000 0.000000
# 4 0.000000 0.000000 0.000000 0.062252 0.000000 0.000000
# 5 0.000000 0.000000 0.000000 0.000000 0.023417 0.000000
# 6 0.000000 0.000000 0.000000 0.000000 0.000000 -0.072514
#
#
# Mechanical properties :
#
#
# Convention : Reuss Voigt Hill
#
# Bulk Modulus (GPa) = 31.81237 72.57276 52.19257
# Shear Modulus (GPa) = 48.52446 26.08530 37.30488
#
# Velocity S-wave (km/s) = 4.67505 3.42771 4.09910
# Velocity P-wave (km/s) = 6.59320 6.95366 6.77583
#
# Compressibility (1/GPa) = 0.03143431
#
# Stress axis : x y z
#
# Youngs Moduli (GPa) = 134.09769 24.48692 140.34600
#
# Poissons Ratio (x) = 0.13262 0.29352
# Poissons Ratio (y) = 0.72629 0.62954
# Poissons Ratio (z) = 0.28045 0.10984
#
# Static dielectric constant tensor:
#      x y z
#    x 4.066430 0.000000 0.000000 
#    y 0.000000 3.577680 0.000000 
#    z 0.000000 0.000000 4.470890 
# 
# 
# High freq. dielectric constant tensor:
#      x y z
#    x 1.883430 0.000000 0.000000 
#    y 0.000000 1.822990 0.000000 
#    z 0.000000 0.000000 1.897530 
# 
# From -- ./inp_files/779.got.cif
#   From: 2010.03.12/outbox.cif.g09.slc.cpg/sg29_1_cif.got.tgz:779.got - 2010.04.14 03:43:10.
