data_PCOD8168313
_publ_section_title
;
Structure prediction by ZEFSAII (Michael W. Deem and Ramdas Pophale) SiO2 
 PCOD8168313
Probable space group: P M A 2
;
_chemical_formula_sum "Si O2"
_cell_formula_units_Z 32
_cell_length_a 8.824856
_cell_length_b 14.181842
_cell_length_c 12.899460
_cell_angle_alpha 90.000000
_cell_angle_beta 90.000000
_cell_angle_gamma 90.000000
_cell_volume 1614.402421
_symmetry_space_group_name_H-M "P M A 2"
_symmetry_group_IT_number 28
_symmetry_cell_setting 'orthorhombic'
loop_
_space_group_symop_operation_xyz
x,y,z
-x,-y,z
1/2-x,y,z
1/2+x,-y,z
loop_
_atom_site_type_symbol
_atom_site_label
_atom_site_fract_x
_atom_site_fract_y
_atom_site_fract_z
Si Si1 0.424752 0.711545 0.287130
Si Si2 0.072197 0.099161 0.819992
Si Si3 0.571289 0.898362 0.589292
Si Si4 0.424913 0.399992 0.701928
Si Si5 0.927388 0.602696 0.471095
Si Si6 0.575241 0.099859 0.388483
Si Si7 0.070364 0.397098 0.101559
Si Si8 0.069940 0.291469 0.898580
O O1 0.250000 0.683586 0.269034
O O2 0.481316 0.668081 0.394125
O O3 0.443902 0.825168 0.294351
O O4 0.525135 0.671472 0.194402
O O5 0.250000 0.082089 0.822396
O O6 0.025304 0.136197 0.704442
O O7 0.020174 0.180931 0.900116
O O8 0.000000 0.000000 0.851752
O O9 0.750000 0.897703 0.575819
O O10 0.498413 0.846528 0.489624
O O11 0.500000 0.000000 0.574006
O O12 0.500000 0.500000 0.708801
O O13 0.250000 0.415474 0.725133
O O14 0.447696 0.354706 0.587661
O O15 0.495592 0.334874 0.791904
O O16 0.750000 0.597246 0.441098
O O17 0.000000 0.500000 0.465839
O O18 0.750000 0.080027 0.412356
O O19 0.500000 0.000000 0.356619
O O20 0.250000 0.407762 0.098536
O O21 0.000000 0.500000 0.116274
O O22 0.005670 0.348759 0.996668
O O23 0.250000 0.295693 0.899089
#
# Coordination Sequence:
#
# PCOD8168313 Si02
#       8
#     4   4   4   4   4   4   4   4
#     4  11  24  40  58  82 114 148 190 238 285 336
#     4   9  18  33  53  79 114 151 189 229 273 328
#     4   9  16  27  49  76 109 149 187 226 269 324
#     4   9  18  33  54  80 112 145 178 222 277 336
#     4  10  20  34  56  83 114 149 185 226 282 344
#     4  10  21  36  55  80 113 150 188 235 282 333
#     4  11  23  41  65  87 111 145 189 239 289 343
#     4   9  19  36  58  83 111 147 188 229 279 336
#
# _framework density 19.821577000000001
#
# number of rings (size 3 to 8) (size 9 to 14) (size 15 to 20)
#    0.000    2.250    0.000    3.375    1.750    3.000 
#    0.000    3.125    0.000    3.000    0.000    0.000 
#    0.000    0.000    0.000    0.000    0.000    0.000 
#
# Total GULP energy -396550.872425 kJ/mol
# GULP energy per Si atom -12392.214763 kJ/mol
# Density = 1.977646 g / cm^3
# Si number density = 19.821577 Si / 1000 Ang^3
#
#
#
# Elastic Constant Matrix: (Units=GPa)
#
#
# Indices 1 2 3 4 5 6 
#
# 1 62.4756 29.1075 25.5883 0.0000 0.0000 0.0000
# 2 29.1075 91.8861 56.6996 0.0000 0.0000 0.0000
# 3 25.5883 56.6996 101.3463 0.0000 0.0000 0.0000
# 4 0.0000 0.0000 0.0000 34.1235 0.0000 0.0000
# 5 0.0000 0.0000 0.0000 0.0000 412.2595 0.0000
# 6 0.0000 0.0000 0.0000 0.0000 0.0000 22.5273
#
#
#
# Elastic Compliance Matrix: (Units=1/GPa)
#
#
# Indices 1 2 3 4 5 6 
#
# 1 0.019092 -0.004694 -0.002194 0.000000 0.000000 0.000000
# 2 -0.004694 0.017775 -0.008759 0.000000 0.000000 0.000000
# 3 -0.002194 -0.008759 0.015322 0.000000 0.000000 0.000000
# 4 0.000000 0.000000 0.000000 0.029305 0.000000 0.000000
# 5 0.000000 0.000000 0.000000 0.000000 0.002426 0.000000
# 6 0.000000 0.000000 0.000000 0.000000 0.000000 0.044391
#
#
# Mechanical properties :
#
#
# Convention : Reuss Voigt Hill
#
# Bulk Modulus (GPa) = 47.86172 53.16653 50.51412
# Shear Modulus (GPa) = 30.01743 103.40291 66.71017
#
# Velocity S-wave (km/s) = 3.89573 7.23050 5.80761
# Velocity P-wave (km/s) = 6.66590 9.82790 8.39708
#
# Compressibility (1/GPa) = 0.02089353
#
# Stress axis : x y z
#
# Youngs Moduli (GPa) = 52.37841 56.25869 65.26664
#
# Poissons Ratio (x) = 0.26407 0.14322
# Poissons Ratio (y) = 0.24585 0.57170
# Poissons Ratio (z) = 0.11494 0.49279
#
# Static dielectric constant tensor:
#      x y z
#    x 3.522800 0.000000 0.000000 
#    y 0.000000 3.501560 0.000000 
#    z 0.000000 0.000000 3.924730 
# 
# 
# High freq. dielectric constant tensor:
#      x y z
#    x 1.764040 0.000000 0.000000 
#    y 0.000000 1.777330 0.000000 
#    z 0.000000 0.000000 1.763940 
# 
# From -- ./inp_files/5043.got.cif
#   From: 2010.03.12/outbox.cif.g09.slc.cpg/sg28_3_cif.got.tgz:5043.got - 2010.04.14 03:39:34.
