data_PCOD8168859
_publ_section_title
;
Structure prediction by ZEFSAII (Michael W. Deem and Ramdas Pophale) SiO2 
 PCOD8168859
Probable space group: P C A 21
;
_chemical_formula_sum "Si O2"
_cell_formula_units_Z 32
_cell_length_a 18.151025
_cell_length_b 6.313227
_cell_length_c 12.441639
_cell_angle_alpha 90.000000
_cell_angle_beta 90.000000
_cell_angle_gamma 90.000000
_cell_volume 1425.706587
_symmetry_space_group_name_H-M "P C A 21"
_symmetry_group_IT_number 29
_symmetry_cell_setting 'orthorhombic'
loop_
_space_group_symop_operation_xyz
x,y,z
-x,-y,1/2+z
1/2-x,y,1/2+z
1/2+x,-y,z
loop_
_atom_site_type_symbol
_atom_site_label
_atom_site_fract_x
_atom_site_fract_y
_atom_site_fract_z
Si Si1 0.411177 0.023818 0.165240
Si Si2 0.295063 0.017292 0.989995
Si Si3 0.370488 0.648703 0.295295
Si Si4 0.051445 0.216789 0.115151
Si Si5 0.870597 0.104466 0.777712
Si Si6 0.494670 0.596179 0.741652
Si Si7 0.824829 0.638827 0.484152
Si Si8 0.754181 0.339535 0.635826
O O1 0.382344 0.903033 0.275064
O O2 0.469171 0.875731 0.099048
O O3 0.342687 0.091092 0.091989
O O4 0.448259 0.242065 0.191441
O O5 0.235620 0.189103 0.950260
O O6 0.258451 0.796591 0.026860
O O7 0.348853 0.995436 0.889773
O O8 0.453476 0.559655 0.309521
O O9 0.329119 0.557114 0.399856
O O10 0.322525 0.582015 0.190057
O O11 0.098107 0.233659 0.003956
O O12 0.046354 0.460711 0.151024
O O13 0.094531 0.072428 0.200923
O O14 0.798783 0.204056 0.723019
O O15 0.931474 0.282805 0.807392
O O16 0.800058 0.543982 0.599225
#
# Coordination Sequence:
#
# PCOD8168859 Si02
#       8
#     4   4   4   4   4   4   4   4
#     4   9  22  46  64  96 135 174 220 281 333 402
#     4  11  25  41  69  99 130 178 223 275 339 406
#     4  10  24  40  67  98 130 174 229 275 340 400
#     4  10  22  42  64  93 132 174 223 279 335 401
#     4  11  23  41  65  95 134 173 224 277 339 399
#     4  10  21  45  67  91 135 175 215 282 332 398
#     4  12  24  39  67 100 129 180 226 275 343 405
#     4  11  23  44  63  94 137 174 220 282 335 407
#
# _framework density 22.44501
#
# number of rings (size 3 to 8) (size 9 to 14) (size 15 to 20)
#    0.000    1.500    2.500    1.500    3.500    4.000 
#    6.750    0.000    0.000    0.000    0.000    0.000 
#    0.000    0.000    0.000    0.000    0.000    0.000 
#
# Total GULP energy -396488.751420 kJ/mol
# GULP energy per Si atom -12390.273482 kJ/mol
# Density = 2.239392 g / cm^3
# Si number density = 22.445010 Si / 1000 Ang^3
#
#
#
# Elastic Constant Matrix: (Units=GPa)
#
#
# Indices 1 2 3 4 5 6 
#
# 1 104.1347 21.5007 22.8711 0.0000 0.0000 0.0000
# 2 21.5007 58.8418 23.4801 0.0000 0.0000 0.0000
# 3 22.8711 23.4801 69.0044 0.0000 0.0000 0.0000
# 4 0.0000 0.0000 0.0000 24.4092 0.0000 0.0000
# 5 0.0000 0.0000 0.0000 0.0000 31.2525 0.0000
# 6 0.0000 0.0000 0.0000 0.0000 0.0000 41.8877
#
#
#
# Elastic Compliance Matrix: (Units=1/GPa)
#
#
# Indices 1 2 3 4 5 6 
#
# 1 0.010770 -0.002905 -0.002581 0.000000 0.000000 0.000000
# 2 -0.002905 0.020449 -0.005995 0.000000 0.000000 0.000000
# 3 -0.002581 -0.005995 0.017387 0.000000 0.000000 0.000000
# 4 0.000000 0.000000 0.000000 0.040968 0.000000 0.000000
# 5 0.000000 0.000000 0.000000 0.000000 0.031997 0.000000
# 6 0.000000 0.000000 0.000000 0.000000 0.000000 0.023873
#
#
# Mechanical properties :
#
#
# Convention : Reuss Voigt Hill
#
# Bulk Modulus (GPa) = 38.99736 40.85385 39.92561
# Shear Modulus (GPa) = 28.25583 30.45182 29.35382
#
# Velocity S-wave (km/s) = 3.55193 3.68738 3.62029
# Velocity P-wave (km/s) = 5.85098 6.03078 5.94156
#
# Compressibility (1/GPa) = 0.02564276
#
# Stress axis : x y z
#
# Youngs Moduli (GPa) = 92.85348 48.90314 57.51356
#
# Poissons Ratio (x) = 0.14208 0.14844
# Poissons Ratio (y) = 0.26977 0.34480
# Poissons Ratio (z) = 0.23965 0.29318
#
# Static dielectric constant tensor:
#      x y z
#    x 4.477430 0.000000 0.000000 
#    y 0.000000 4.217160 0.000000 
#    z 0.000000 0.000000 3.586750 
# 
# 
# High freq. dielectric constant tensor:
#      x y z
#    x 1.912650 0.000000 0.000000 
#    y 0.000000 1.888510 0.000000 
#    z 0.000000 0.000000 1.849560 
# 
# From -- ./inp_files/3808.got.cif
#   From: 2010.03.12/outbox.cif.g09.slc.cpg/sg29_2_cif.got.tgz:3808.got - 2010.04.14 03:43:10.
