data_PCOD8168333
_publ_section_title
;
Structure prediction by ZEFSAII (Michael W. Deem and Ramdas Pophale) SiO2 
 PCOD8168333
Probable space group: P M A 2
;
_chemical_formula_sum "Si O2"
_cell_formula_units_Z 28
_cell_length_a 8.769958
_cell_length_b 9.087583
_cell_length_c 18.000220
_cell_angle_alpha 90.000000
_cell_angle_beta 90.000000
_cell_angle_gamma 90.000000
_cell_volume 1434.576516
_symmetry_space_group_name_H-M "P M A 2"
_symmetry_group_IT_number 28
_symmetry_cell_setting 'orthorhombic'
loop_
_space_group_symop_operation_xyz
x,y,z
-x,-y,z
1/2-x,y,z
1/2+x,-y,z
loop_
_atom_site_type_symbol
_atom_site_label
_atom_site_fract_x
_atom_site_fract_y
_atom_site_fract_z
Si Si1 0.430401 0.659978 0.473370
Si Si2 0.570328 0.340936 0.188315
Si Si3 0.428976 0.341561 0.750803
Si Si4 0.430668 0.842466 0.046084
Si Si5 0.070818 0.841021 0.328277
Si Si6 0.430621 0.160740 0.607703
Si Si7 0.068801 0.158372 0.891832
O O1 0.500000 0.500000 0.465595
O O2 0.250000 0.649967 0.484143
O O3 0.477015 0.747847 0.399806
O O4 0.503556 0.739164 0.543207
O O5 0.500000 0.500000 0.195626
O O6 0.750000 0.356253 0.194746
O O7 0.521414 0.270410 0.110132
O O8 0.506623 0.239839 0.254939
O O9 0.500000 0.500000 0.738396
O O10 0.250000 0.362387 0.749524
O O11 0.481382 0.232508 0.685501
O O12 0.483315 0.272537 0.828728
O O13 0.250000 0.858164 0.037826
O O14 0.500000 0.000000 0.066683
O O15 0.501616 0.782252 0.969430
O O16 0.250000 0.860211 0.322525
O O17 0.000000 0.000000 0.335405
O O18 0.250000 0.150148 0.599723
O O19 0.500000 0.000000 0.602039
O O20 0.250000 0.143924 0.897194
O O21 0.000000 0.000000 0.872114
#
# Coordination Sequence:
#
# PCOD8168333 Si02
#       7
#     4   4   4   4   4   4   4
#     4  11  23  39  60  87 118 151 188 231 281 334
#     4  10  22  38  56  81 112 146 185 228 276 329
#     4  10  23  39  57  82 112 147 186 229 278 332
#     4  10  20  35  56  82 110 143 184 227 274 328
#     4  10  22  39  59  84 113 147 188 231 276 329
#     4  11  23  40  61  86 115 149 190 233 280 333
#     4  10  20  36  57  82 110 143 184 227 275 329
#
# _framework density 19.517956000000002
#
# number of rings (size 3 to 8) (size 9 to 14) (size 15 to 20)
#    0.000    1.714    0.000    4.714    0.000    8.000 
#    0.000    2.857    0.000    0.000    0.000    0.000 
#    0.000    0.000    0.000    0.000    0.000    0.000 
#
# Total GULP energy -347312.871738 kJ/mol
# GULP energy per Si atom -12404.031133 kJ/mol
# Density = 1.947353 g / cm^3
# Si number density = 19.517956 Si / 1000 Ang^3
#
#
#
# Elastic Constant Matrix: (Units=GPa)
#
#
# Indices 1 2 3 4 5 6 
#
# 1 64.0791 49.8640 57.8130 0.0000 0.0000 0.0000
# 2 49.8640 162.3007 87.4301 0.0000 0.0000 0.0000
# 3 57.8130 87.4301 155.4601 0.0000 0.0000 0.0000
# 4 0.0000 0.0000 0.0000 91.3324 0.0000 0.0000
# 5 0.0000 0.0000 0.0000 0.0000 25.6370 0.0000
# 6 0.0000 0.0000 0.0000 0.0000 0.0000 38.5136
#
#
#
# Elastic Compliance Matrix: (Units=1/GPa)
#
#
# Indices 1 2 3 4 5 6 
#
# 1 0.025051 -0.003842 -0.007155 0.000000 0.000000 0.000000
# 2 -0.003842 0.009429 -0.003874 0.000000 0.000000 0.000000
# 3 -0.007155 -0.003874 0.011272 0.000000 0.000000 0.000000
# 4 0.000000 0.000000 0.000000 0.010949 0.000000 0.000000
# 5 0.000000 0.000000 0.000000 0.000000 0.039006 0.000000
# 6 0.000000 0.000000 0.000000 0.000000 0.000000 0.025965
#
#
# Mechanical properties :
#
#
# Convention : Reuss Voigt Hill
#
# Bulk Modulus (GPa) = 62.46318 85.78380 74.12349
# Shear Modulus (GPa) = 31.89782 43.54544 37.72163
#
# Velocity S-wave (km/s) = 4.04701 4.72852 4.40098
# Velocity P-wave (km/s) = 7.34235 8.59410 7.99277
#
# Compressibility (1/GPa) = 0.01600943
#
# Stress axis : x y z
#
# Youngs Moduli (GPa) = 39.91845 106.06053 88.71446
#
# Poissons Ratio (x) = 0.40748 0.63479
# Poissons Ratio (y) = 0.15336 0.34367
# Poissons Ratio (z) = 0.28563 0.41086
#
# Static dielectric constant tensor:
#      x y z
#    x 3.594890 0.000000 0.000000 
#    y 0.000000 3.449080 0.000000 
#    z 0.000000 0.000000 3.978910 
# 
# 
# High freq. dielectric constant tensor:
#      x y z
#    x 1.763530 0.000000 0.000000 
#    y 0.000000 1.768490 0.000000 
#    z 0.000000 0.000000 1.781490 
# 
# From -- ./inp_files/6805.got.cif
#   From: 2010.03.12/outbox.cif.g09.slc.cpg/sg28_4_cif.got.tgz:6805.got - 2010.04.14 03:39:34.
