data_PCOD8168991
_publ_section_title
;
Structure prediction by ZEFSAII (Michael W. Deem and Ramdas Pophale) SiO2 
 PCOD8168991
Probable space group: P C A 21
;
_chemical_formula_sum "Si O2"
_cell_formula_units_Z 24
_cell_length_a 13.963913
_cell_length_b 7.948255
_cell_length_c 9.205992
_cell_angle_alpha 90.000000
_cell_angle_beta 90.000000
_cell_angle_gamma 90.000000
_cell_volume 1021.761465
_symmetry_space_group_name_H-M "P C A 21"
_symmetry_group_IT_number 29
_symmetry_cell_setting 'orthorhombic'
loop_
_space_group_symop_operation_xyz
x,y,z
-x,-y,1/2+z
1/2-x,y,1/2+z
1/2+x,-y,z
loop_
_atom_site_type_symbol
_atom_site_label
_atom_site_fract_x
_atom_site_fract_y
_atom_site_fract_z
Si Si1 0.133322 0.435425 0.184370
Si Si2 0.219052 0.945619 0.882422
Si Si3 0.946529 0.633632 0.252050
Si Si4 0.446529 0.133632 0.526377
Si Si5 0.280948 0.554381 0.396005
Si Si6 0.633321 0.935425 0.594057
O O1 0.103301 0.243582 0.152887
O O2 0.190486 0.448207 0.335506
O O3 0.040465 0.553128 0.184285
O O4 0.206065 0.500121 0.061494
O O5 0.243241 0.750000 0.889213
O O6 0.206065 0.999880 0.716933
O O7 0.309514 0.051792 0.942921
O O8 0.124196 0.985576 0.975802
O O9 0.973143 0.750001 0.389213
O O10 0.875804 0.485576 0.302625
O O11 0.896700 0.743581 0.125540
O O12 0.540465 0.053128 0.594142
#
# Coordination Sequence:
#
# PCOD8168991 Si02
#       6
#     4   4   4   4   4   4
#     4  11  23  42  65  94 130 172 220 274 332 394
#     4  11  23  40  65  95 128 171 219 275 334 391
#     4  10  23  42  64  97 134 175 224 275 330 395
#     4  10  23  42  64  97 134 175 224 275 330 395
#     4  11  23  40  65  95 128 171 219 275 334 391
#     4  11  23  42  65  94 130 172 220 274 332 394
#
# _framework density 23.488847
#
# number of rings (size 3 to 8) (size 9 to 14) (size 15 to 20)
#    0.000    1.333    0.000    5.000    0.000    5.333 
#    0.000   11.667    0.000    0.000    0.000    0.000 
#    0.000    0.000    0.000    0.000    0.000    0.000 
#
# Total GULP energy -297763.407472 kJ/mol
# GULP energy per Si atom -12406.808645 kJ/mol
# Density = 2.343539 g / cm^3
# Si number density = 23.488847 Si / 1000 Ang^3
#
#
#
# Elastic Constant Matrix: (Units=GPa)
#
#
# Indices 1 2 3 4 5 6 
#
# 1 74.2466 11.2136 38.8112 0.0000 0.0000 0.0000
# 2 11.2136 61.4776 27.9273 0.0000 0.0000 0.0000
# 3 38.8112 27.9273 68.4363 0.0000 0.0000 0.0000
# 4 0.0000 0.0000 0.0000 25.7951 0.0000 0.0000
# 5 0.0000 0.0000 0.0000 0.0000 71.0319 0.0000
# 6 0.0000 0.0000 0.0000 0.0000 0.0000 28.7960
#
#
#
# Elastic Compliance Matrix: (Units=1/GPa)
#
#
# Indices 1 2 3 4 5 6 
#
# 1 0.019302 0.001782 -0.011674 0.000000 0.000000 0.000000
# 2 0.001782 0.020132 -0.009226 0.000000 0.000000 0.000000
# 3 -0.011674 -0.009226 0.024997 0.000000 0.000000 0.000000
# 4 0.000000 0.000000 0.000000 0.038767 0.000000 0.000000
# 5 0.000000 0.000000 0.000000 0.000000 0.014078 0.000000
# 6 0.000000 0.000000 0.000000 0.000000 0.000000 0.034727
#
#
# Mechanical properties :
#
#
# Convention : Reuss Voigt Hill
#
# Bulk Modulus (GPa) = 38.17352 40.00720 39.09036
# Shear Modulus (GPa) = 25.12935 33.53848 29.33392
#
# Velocity S-wave (km/s) = 3.27439 3.78279 3.53773
# Velocity P-wave (km/s) = 5.53015 6.01238 5.77630
#
# Compressibility (1/GPa) = 0.02619617
#
# Stress axis : x y z
#
# Youngs Moduli (GPa) = 51.80920 49.67170 40.00419
#
# Poissons Ratio (x) = -0.08853 0.46699
# Poissons Ratio (y) = -0.09234 0.36909
# Poissons Ratio (z) = 0.60480 0.45828
#
# Static dielectric constant tensor:
#      x y z
#    x 4.160720 0.000000 0.000000 
#    y 0.000000 4.206540 0.000000 
#    z 0.000000 0.000000 4.299630 
# 
# 
# High freq. dielectric constant tensor:
#      x y z
#    x 1.935740 0.000000 0.000000 
#    y 0.000000 1.932580 0.000000 
#    z 0.000000 0.000000 1.932040 
# 
# From -- ./inp_files/1395.got.cif
#   From: 2010.03.12/outbox.cif.g09.slc.cpg/sg29_1_cif.got.tgz:1395.got - 2010.04.14 03:43:10.
