data_PCOD8168789
_publ_section_title
;
Structure prediction by ZEFSAII (Michael W. Deem and Ramdas Pophale) SiO2 
 PCOD8168789
Probable space group: P C A 21
;
_chemical_formula_sum "Si O2"
_cell_formula_units_Z 28
_cell_length_a 13.552062
_cell_length_b 5.024254
_cell_length_c 17.737786
_cell_angle_alpha 90.000000
_cell_angle_beta 90.000000
_cell_angle_gamma 90.000000
_cell_volume 1207.748141
_symmetry_space_group_name_H-M "P C A 21"
_symmetry_group_IT_number 29
_symmetry_cell_setting 'orthorhombic'
loop_
_space_group_symop_operation_xyz
x,y,z
-x,-y,1/2+z
1/2-x,y,1/2+z
1/2+x,-y,z
loop_
_atom_site_type_symbol
_atom_site_label
_atom_site_fract_x
_atom_site_fract_y
_atom_site_fract_z
Si Si1 0.643334 0.332960 0.828510
Si Si2 0.164002 0.284921 0.168432
Si Si3 0.571504 0.208241 0.236836
Si Si4 0.330618 0.164635 0.503210
Si Si5 0.782473 0.325663 0.956182
Si Si6 0.362378 0.174642 0.228386
Si Si7 0.995940 0.331920 0.903030
O O1 0.741856 0.246950 0.873106
O O2 0.665059 0.625409 0.795680
O O3 0.547818 0.379349 0.884655
O O4 0.626370 0.122783 0.762159
O O5 0.148045 0.577214 0.203787
O O6 0.122946 0.248043 0.084029
O O7 0.280030 0.209193 0.164361
O O8 0.112948 0.084703 0.225931
O O9 0.468213 0.247997 0.191517
O O10 0.543846 0.215276 0.324697
O O11 0.252821 0.384078 0.478260
O O12 0.420961 0.144641 0.443131
O O13 0.268058 0.891381 0.511612
O O14 0.901393 0.342083 0.958366
#
# Coordination Sequence:
#
# PCOD8168789 Si02
#       7
#     4   4   4   4   4   4   4
#     4  10  21  38  63  97 125 155 210 272 318 386
#     4  12  25  43  63  93 133 175 219 268 328 398
#     4  11  24  40  67  95 123 169 220 271 326 382
#     4  11  27  42  61  96 134 171 221 270 323 403
#     4  11  22  40  64  88 125 172 207 261 337 384
#     4  11  22  39  63  92 128 162 208 266 325 386
#     4  10  23  42  69  99 130 168 223 278 327 387
#
# _framework density 23.18364
#
# number of rings (size 3 to 8) (size 9 to 14) (size 15 to 20)
#    0.000    1.143    0.000    7.714    0.000    9.143 
#    0.000    0.000    0.000    0.000    0.000    0.000 
#    0.000    0.000    0.000    0.000    0.000    0.000 
#
# Total GULP energy -347043.385178 kJ/mol
# GULP energy per Si atom -12394.406614 kJ/mol
# Density = 2.313087 g / cm^3
# Si number density = 23.183640 Si / 1000 Ang^3
#
#
#
# Elastic Constant Matrix: (Units=GPa)
#
#
# Indices 1 2 3 4 5 6 
#
# 1 148.1244 16.8297 12.9485 0.0000 0.0000 0.0000
# 2 16.8297 74.2155 14.0071 0.0000 0.0000 0.0000
# 3 12.9485 14.0071 66.5911 0.0000 0.0000 0.0000
# 4 0.0000 0.0000 0.0000 15.3919 0.0000 0.0000
# 5 0.0000 0.0000 0.0000 0.0000 27.2479 0.0000
# 6 0.0000 0.0000 0.0000 0.0000 0.0000 31.6284
#
#
#
# Elastic Compliance Matrix: (Units=1/GPa)
#
#
# Indices 1 2 3 4 5 6 
#
# 1 0.007002 -0.001386 -0.001070 0.000000 0.000000 0.000000
# 2 -0.001386 0.014306 -0.002740 0.000000 0.000000 0.000000
# 3 -0.001070 -0.002740 0.015801 0.000000 0.000000 0.000000
# 4 0.000000 0.000000 0.000000 0.064969 0.000000 0.000000
# 5 0.000000 0.000000 0.000000 0.000000 0.036700 0.000000
# 6 0.000000 0.000000 0.000000 0.000000 0.000000 0.031617
#
#
# Mechanical properties :
#
#
# Convention : Reuss Voigt Hill
#
# Bulk Modulus (GPa) = 37.42800 41.83351 39.63075
# Shear Modulus (GPa) = 26.35841 31.19668 28.77755
#
# Velocity S-wave (km/s) = 3.37551 3.67227 3.52701
# Velocity P-wave (km/s) = 5.60101 6.00536 5.80670
#
# Compressibility (1/GPa) = 0.02671796
#
# Stress axis : x y z
#
# Youngs Moduli (GPa) = 142.81465 69.90262 63.28569
#
# Poissons Ratio (x) = 0.09688 0.06772
# Poissons Ratio (y) = 0.19793 0.17338
# Poissons Ratio (z) = 0.15282 0.19151
#
# Static dielectric constant tensor:
#      x y z
#    x 4.677020 0.000000 0.000000 
#    y 0.000000 4.072520 0.000000 
#    z 0.000000 0.000000 3.922630 
# 
# 
# High freq. dielectric constant tensor:
#      x y z
#    x 1.927760 0.000000 0.000000 
#    y 0.000000 1.920200 0.000000 
#    z 0.000000 0.000000 1.888710 
# 
# From -- ./inp_files/5189.got.cif
#   From: 2010.03.12/outbox.cif.g09.slc.cpg/sg29_3_cif.got.tgz:5189.got - 2010.04.14 03:43:10.
