data_PCOD8168736
_publ_section_title
;
Structure prediction by ZEFSAII (Michael W. Deem and Ramdas Pophale) SiO2 
 PCOD8168736
Probable space group: P C A 21
;
_chemical_formula_sum "Si O2"
_cell_formula_units_Z 28
_cell_length_a 16.498167
_cell_length_b 9.526221
_cell_length_c 8.426871
_cell_angle_alpha 90.000000
_cell_angle_beta 90.000000
_cell_angle_gamma 90.000000
_cell_volume 1324.410739
_symmetry_space_group_name_H-M "P C A 21"
_symmetry_group_IT_number 29
_symmetry_cell_setting 'orthorhombic'
loop_
_space_group_symop_operation_xyz
x,y,z
-x,-y,1/2+z
1/2-x,y,1/2+z
1/2+x,-y,z
loop_
_atom_site_type_symbol
_atom_site_label
_atom_site_fract_x
_atom_site_fract_y
_atom_site_fract_z
Si Si1 0.999796 0.194346 0.657360
Si Si2 0.342221 0.288115 0.757207
Si Si3 0.640941 0.408986 0.151736
Si Si4 0.513889 0.906603 0.294427
Si Si5 0.826094 0.790558 0.106205
Si Si6 0.752713 0.274073 0.401476
Si Si7 0.341678 0.889618 0.153097
O O1 0.000562 0.135474 0.477008
O O2 0.091375 0.240929 0.705288
O O3 0.942530 0.327205 0.679941
O O4 0.969667 0.073454 0.778222
O O5 0.376867 0.426671 0.671714
O O6 0.407864 0.168337 0.717628
O O7 0.253005 0.254565 0.697576
O O8 0.332801 0.300106 0.946203
O O9 0.709140 0.375381 0.279705
O O10 0.675572 0.366204 0.979935
O O11 0.436150 0.867451 0.188817
O O12 0.822872 0.958277 0.079135
O O13 0.685787 0.225110 0.526490
O O14 0.791277 0.137442 0.315314
#
# Coordination Sequence:
#
# PCOD8168736 Si02
#       7
#     4   4   4   4   4   4   4
#     4  10  23  42  65  92 130 164 219 271 317 385
#     4  11  24  43  62  93 129 173 206 265 322 396
#     4  11  23  43  62  94 131 168 211 262 328 398
#     4  10  23  42  63  93 127 163 220 268 321 374
#     4  10  23  41  65  90 128 164 217 261 323 378
#     4  10  22  37  67  90 126 165 213 263 326 387
#     4  10  20  40  64  98 119 165 214 276 315 374
#
# _framework density 21.141476999999998
#
# number of rings (size 3 to 8) (size 9 to 14) (size 15 to 20)
#    0.000    1.714    1.429    1.714   10.000    2.286 
#   10.286    0.000    0.000    0.000    0.000    0.000 
#    0.000    0.000    0.000    0.000    0.000    0.000 
#
# Total GULP energy -347163.497715 kJ/mol
# GULP energy per Si atom -12398.696347 kJ/mol
# Density = 2.109336 g / cm^3
# Si number density = 21.141477 Si / 1000 Ang^3
#
#
#
# Elastic Constant Matrix: (Units=GPa)
#
#
# Indices 1 2 3 4 5 6 
#
# 1 148.0040 59.4309 19.9893 0.0000 0.0000 0.0000
# 2 59.4309 92.5830 20.2307 0.0000 0.0000 0.0000
# 3 19.9893 20.2307 54.6670 0.0000 0.0000 0.0000
# 4 0.0000 0.0000 0.0000 30.2019 0.0000 0.0000
# 5 0.0000 0.0000 0.0000 0.0000 29.3879 0.0000
# 6 0.0000 0.0000 0.0000 0.0000 0.0000 26.1466
#
#
#
# Elastic Compliance Matrix: (Units=1/GPa)
#
#
# Indices 1 2 3 4 5 6 
#
# 1 0.009185 -0.005616 -0.001280 0.000000 0.000000 0.000000
# 2 -0.005616 0.015185 -0.003566 0.000000 0.000000 0.000000
# 3 -0.001280 -0.003566 0.020080 0.000000 0.000000 0.000000
# 4 0.000000 0.000000 0.000000 0.033110 0.000000 0.000000
# 5 0.000000 0.000000 0.000000 0.000000 0.034028 0.000000
# 6 0.000000 0.000000 0.000000 0.000000 0.000000 0.038246
#
#
# Mechanical properties :
#
#
# Convention : Reuss Voigt Hill
#
# Bulk Modulus (GPa) = 42.50643 54.95064 48.72854
# Shear Modulus (GPa) = 27.99539 30.18749 29.09144
#
# Velocity S-wave (km/s) = 3.64289 3.78283 3.71352
# Velocity P-wave (km/s) = 6.15171 6.71774 6.44095
#
# Compressibility (1/GPa) = 0.02352585
#
# Stress axis : x y z
#
# Youngs Moduli (GPa) = 108.87806 65.85251 49.79987
#
# Poissons Ratio (x) = 0.36983 0.06375
# Poissons Ratio (y) = 0.61147 0.17759
# Poissons Ratio (z) = 0.13937 0.23484
#
# Static dielectric constant tensor:
#      x y z
#    x 4.123630 0.000000 0.000000 
#    y 0.000000 3.755490 0.000000 
#    z 0.000000 0.000000 3.837940 
# 
# 
# High freq. dielectric constant tensor:
#      x y z
#    x 1.847070 0.000000 0.000000 
#    y 0.000000 1.813890 0.000000 
#    z 0.000000 0.000000 1.824940 
# 
# From -- ./inp_files/2073.got.cif
#   From: 2010.03.12/outbox.cif.g09.slc.cpg/sg29_2_cif.got.tgz:2073.got - 2010.04.14 03:43:10.
