data_PCOD8168733
_publ_section_title
;
Structure prediction by ZEFSAII (Michael W. Deem and Ramdas Pophale) SiO2 
 PCOD8168733
Probable space group: P C A 21
;
_chemical_formula_sum "Si O2"
_cell_formula_units_Z 32
_cell_length_a 13.858897
_cell_length_b 11.750883
_cell_length_c 8.672288
_cell_angle_alpha 90.000000
_cell_angle_beta 90.000000
_cell_angle_gamma 90.000000
_cell_volume 1412.319194
_symmetry_space_group_name_H-M "P C A 21"
_symmetry_group_IT_number 29
_symmetry_cell_setting 'orthorhombic'
loop_
_space_group_symop_operation_xyz
x,y,z
-x,-y,1/2+z
1/2-x,y,1/2+z
1/2+x,-y,z
loop_
_atom_site_type_symbol
_atom_site_label
_atom_site_fract_x
_atom_site_fract_y
_atom_site_fract_z
Si Si1 0.946346 0.373852 0.833710
Si Si2 0.928837 0.479267 0.536142
Si Si3 0.314073 0.836205 0.141829
Si Si4 0.635790 0.702888 0.197754
Si Si5 0.699495 0.789256 0.501593
Si Si6 0.725021 0.317981 0.906610
Si Si7 0.986991 0.844278 0.489072
Si Si8 0.337588 0.067725 0.280292
O O1 0.965840 0.380696 0.650847
O O2 0.833591 0.358160 0.870659
O O3 0.010739 0.268466 0.885034
O O4 0.988554 0.486800 0.916334
O O5 0.907634 0.582260 0.653134
O O6 0.832572 0.430652 0.455425
O O7 0.332646 0.731573 0.259317
O O8 0.285886 0.947118 0.241462
O O9 0.230351 0.786724 0.030121
O O10 0.406710 0.877326 0.044124
O O11 0.636916 0.711491 0.384785
O O12 0.739061 0.707377 0.112734
O O13 0.575175 0.812746 0.139735
O O14 0.638828 0.869915 0.617233
O O15 0.763225 0.865266 0.386211
O O16 0.936913 0.941778 0.381855
#
# Coordination Sequence:
#
# PCOD8168733 Si02
#       8
#     4   4   4   4   4   4   4   4
#     4  10  24  43  63  97 133 177 229 277 342 415
#     4  11  24  40  66  95 133 183 226 277 344 415
#     4  11  23  42  65  91 129 177 226 284 344 411
#     4   9  20  36  58  91 124 163 208 274 327 401
#     4   9  19  37  61  91 125 158 211 274 338 398
#     4  11  24  44  65  98 140 181 234 289 338 416
#     4   9  22  42  56  89 133 158 225 285 325 412
#     4  10  20  40  64  92 123 171 221 276 346 410
#
# _framework density 22.657765999999999
#
# number of rings (size 3 to 8) (size 9 to 14) (size 15 to 20)
#    0.000    2.000    1.250    0.750    7.000    2.000 
#    6.750    2.500    0.000    0.000    0.000    0.000 
#    0.000    0.000    0.000    0.000    0.000    0.000 
#
# Total GULP energy -396508.622991 kJ/mol
# GULP energy per Si atom -12390.894468 kJ/mol
# Density = 2.260620 g / cm^3
# Si number density = 22.657766 Si / 1000 Ang^3
#
#
#
# Elastic Constant Matrix: (Units=GPa)
#
#
# Indices 1 2 3 4 5 6 
#
# 1 61.0206 18.0347 24.2934 0.0000 0.0000 0.0000
# 2 18.0347 53.6080 19.9635 0.0000 0.0000 0.0000
# 3 24.2934 19.9635 115.3561 0.0000 0.0000 0.0000
# 4 0.0000 0.0000 0.0000 33.8342 0.0000 0.0000
# 5 0.0000 0.0000 0.0000 0.0000 34.5295 0.0000
# 6 0.0000 0.0000 0.0000 0.0000 0.0000 17.7919
#
#
#
# Elastic Compliance Matrix: (Units=1/GPa)
#
#
# Indices 1 2 3 4 5 6 
#
# 1 0.019197 -0.005294 -0.003127 0.000000 0.000000 0.000000
# 2 -0.005294 0.021399 -0.002588 0.000000 0.000000 0.000000
# 3 -0.003127 -0.002588 0.009775 0.000000 0.000000 0.000000
# 4 0.000000 0.000000 0.000000 0.029556 0.000000 0.000000
# 5 0.000000 0.000000 0.000000 0.000000 0.028961 0.000000
# 6 0.000000 0.000000 0.000000 0.000000 0.000000 0.056205
#
#
# Mechanical properties :
#
#
# Convention : Reuss Voigt Hill
#
# Bulk Modulus (GPa) = 35.26928 39.39646 37.33287
# Shear Modulus (GPa) = 25.43719 28.41066 26.92393
#
# Velocity S-wave (km/s) = 3.35426 3.54489 3.45089
# Velocity P-wave (km/s) = 5.53185 5.84640 5.69130
#
# Compressibility (1/GPa) = 0.02835328
#
# Stress axis : x y z
#
# Youngs Moduli (GPa) = 52.09059 46.73151 102.29943
#
# Poissons Ratio (x) = 0.24739 0.31986
# Poissons Ratio (y) = 0.27577 0.26479
# Poissons Ratio (z) = 0.16287 0.12096
#
# Static dielectric constant tensor:
#      x y z
#    x 3.774660 0.000000 0.000000 
#    y 0.000000 3.939510 0.000000 
#    z 0.000000 0.000000 4.504360 
# 
# 
# High freq. dielectric constant tensor:
#      x y z
#    x 1.868180 0.000000 0.000000 
#    y 0.000000 1.880930 0.000000 
#    z 0.000000 0.000000 1.914840 
# 
# From -- ./inp_files/1891.got.cif
#   From: 2010.03.12/outbox.cif.g09.slc.cpg/sg29_1_cif.got.tgz:1891.got - 2010.04.14 03:43:10.
