data_PCOD8168873
_publ_section_title
;
Structure prediction by ZEFSAII (Michael W. Deem and Ramdas Pophale) SiO2 
 PCOD8168873
Probable space group: P C A 21
;
_chemical_formula_sum "Si O2"
_cell_formula_units_Z 32
_cell_length_a 9.213983
_cell_length_b 9.352197
_cell_length_c 17.270018
_cell_angle_alpha 90.000000
_cell_angle_beta 90.000000
_cell_angle_gamma 90.000000
_cell_volume 1488.174448
_symmetry_space_group_name_H-M "P C A 21"
_symmetry_group_IT_number 29
_symmetry_cell_setting 'orthorhombic'
loop_
_space_group_symop_operation_xyz
x,y,z
-x,-y,1/2+z
1/2-x,y,1/2+z
1/2+x,-y,z
loop_
_atom_site_type_symbol
_atom_site_label
_atom_site_fract_x
_atom_site_fract_y
_atom_site_fract_z
Si Si1 0.916071 0.974867 0.902530
Si Si2 0.500000 0.671193 0.239310
Si Si3 0.583930 0.025134 0.576090
Si Si4 0.365200 0.500000 0.489310
Si Si5 0.321719 0.082944 0.669700
Si Si6 0.821718 0.082944 0.308920
Si Si7 0.387347 0.356744 0.896026
Si Si8 0.887347 0.356745 0.082594
O O1 0.860345 0.812625 0.891587
O O2 0.042543 0.006437 0.841306
O O3 0.791432 0.089903 0.880633
O O4 0.970179 1.000000 0.989310
O O5 0.626505 0.762450 0.197140
O O6 0.373496 0.762451 0.281479
O O7 0.576895 0.582246 0.308843
O O8 0.423104 0.582245 0.169776
O O9 0.457460 0.993564 0.637315
O O10 0.639656 0.187376 0.587032
O O11 0.708569 0.910099 0.597986
O O12 0.472056 0.615738 0.450116
O O13 0.261193 0.427921 0.425372
O O14 0.261193 0.572077 0.553248
O O15 0.472057 0.384262 0.528503
O O16 0.250001 0.000001 0.739310
#
# Coordination Sequence:
#
# PCOD8168873 Si02
#       8
#     4   4   4   4   4   4   4   4
#     4  11  24  35  63  95 125 157 199 249 319 374
#     4  10  22  38  66  88 126 154 202 254 310 372
#     4  11  24  35  63  95 125 157 199 249 319 374
#     4  10  24  44  62  84 120 166 212 254 294 348
#     4  11  19  38  56  92 125 156 187 244 311 373
#     4  11  19  38  56  92 125 156 187 244 311 373
#     4  10  23  42  63  86 121 160 207 256 298 362
#     4  10  23  42  63  86 121 160 207 256 298 362
#
# _framework density 21.502856999999999
#
# number of rings (size 3 to 8) (size 9 to 14) (size 15 to 20)
#    0.000    1.500    5.000    0.750   10.500    1.000 
#    0.000    0.000    0.000    0.000    0.000    0.000 
#    0.000    0.000    0.000    0.000    0.000    0.000 
#
# Total GULP energy -396556.265501 kJ/mol
# GULP energy per Si atom -12392.383297 kJ/mol
# Density = 2.145392 g / cm^3
# Si number density = 21.502857 Si / 1000 Ang^3
#
#
#
# Elastic Constant Matrix: (Units=GPa)
#
#
# Indices 1 2 3 4 5 6 
#
# 1 132.4058 28.2237 38.7346 0.0000 0.0000 0.0000
# 2 28.2237 30.8711 23.2002 0.0000 0.0000 0.0000
# 3 38.7346 23.2002 119.5627 0.0000 0.0000 0.0000
# 4 0.0000 0.0000 0.0000 33.6736 0.0000 0.0000
# 5 0.0000 0.0000 0.0000 0.0000 40.1575 0.0000
# 6 0.0000 0.0000 0.0000 0.0000 0.0000 14.2887
#
#
#
# Elastic Compliance Matrix: (Units=1/GPa)
#
#
# Indices 1 2 3 4 5 6 
#
# 1 0.009653 -0.007580 -0.001656 0.000000 0.000000 0.000000
# 2 -0.007580 0.043876 -0.006058 0.000000 0.000000 0.000000
# 3 -0.001656 -0.006058 0.010076 0.000000 0.000000 0.000000
# 4 0.000000 0.000000 0.000000 0.029697 0.000000 0.000000
# 5 0.000000 0.000000 0.000000 0.000000 0.024902 0.000000
# 6 0.000000 0.000000 0.000000 0.000000 0.000000 0.069986
#
#
# Mechanical properties :
#
#
# Convention : Reuss Voigt Hill
#
# Bulk Modulus (GPa) = 30.28899 51.46183 40.87541
# Shear Modulus (GPa) = 21.75964 30.46937 26.11450
#
# Velocity S-wave (km/s) = 3.18455 3.76838 3.48870
# Velocity P-wave (km/s) = 5.25723 6.55124 5.93958
#
# Compressibility (1/GPa) = 0.03301530
#
# Stress axis : x y z
#
# Youngs Moduli (GPa) = 103.59552 22.79164 99.24664
#
# Poissons Ratio (x) = 0.17277 0.16439
# Poissons Ratio (y) = 0.78529 0.60123
# Poissons Ratio (z) = 0.17159 0.13807
#
# Static dielectric constant tensor:
#      x y z
#    x 4.439860 0.000000 0.000000 
#    y 0.000000 3.464610 0.000000 
#    z 0.000000 0.000000 4.473210 
# 
# 
# High freq. dielectric constant tensor:
#      x y z
#    x 1.856980 0.000000 0.000000 
#    y 0.000000 1.792210 0.000000 
#    z 0.000000 0.000000 1.872780 
# 
# From -- ./inp_files/5043.got.cif
#   From: 2010.03.12/outbox.cif.g09.slc.cpg/sg29_3_cif.got.tgz:5043.got - 2010.04.14 03:43:10.
