data_PCOD8168486
_publ_section_title
;
Structure prediction by ZEFSAII (Michael W. Deem and Ramdas Pophale) SiO2 
 PCOD8168486
Probable space group: P M A 2
;
_chemical_formula_sum "Si O2"
_cell_formula_units_Z 14
_cell_length_a 14.112696
_cell_length_b 5.448731
_cell_length_c 7.868587
_cell_angle_alpha 90.000000
_cell_angle_beta 90.000000
_cell_angle_gamma 90.000000
_cell_volume 605.065102
_symmetry_space_group_name_H-M "P M A 2"
_symmetry_group_IT_number 28
_symmetry_cell_setting 'orthorhombic'
loop_
_space_group_symop_operation_xyz
x,y,z
-x,-y,z
1/2-x,y,z
1/2+x,-y,z
loop_
_atom_site_type_symbol
_atom_site_label
_atom_site_fract_x
_atom_site_fract_y
_atom_site_fract_z
Si Si1 0.750000 0.113754 0.039210
Si Si2 0.052834 0.756192 0.515904
Si Si3 0.750000 0.082238 0.415622
Si Si4 0.750000 0.739510 0.734688
Si Si5 0.094506 0.609440 0.866722
O O1 0.750000 0.980366 0.221116
O O2 0.844460 0.278898 0.019795
O O3 0.750000 0.935043 0.882806
O O4 0.158342 0.745894 0.437786
O O5 0.061215 0.797789 0.720088
O O6 0.000000 0.500000 0.469748
O O7 0.000000 0.000000 0.443580
O O8 0.750000 0.857753 0.547695
O O9 0.845430 0.585425 0.756084
O O10 0.000000 0.500000 0.954307
#
# Coordination Sequence:
#
# PCOD8168486 Si02
#       5
#     2   4   2   2   4
#     4  11  25  41  66 106 130 187 230 282 362 413
#     4  11  24  44  74 106 133 191 237 281 356 416
#     4  12  23  46  70  99 148 178 232 302 342 422
#     4  11  22  47  66  99 138 187 230 282 366 405
#     4  10  22  43  71  95 139 185 231 291 343 424
#
# _framework density 23.138005
#
# number of rings (size 3 to 8) (size 9 to 14) (size 15 to 20)
#    0.000    1.143    2.857    4.286    0.000    2.286 
#   25.714    0.000    0.000    0.000    0.000    0.000 
#    0.000    0.000    0.000    0.000    0.000    0.000 
#
# Total GULP energy -173529.592800 kJ/mol
# GULP energy per Si atom -12394.970914 kJ/mol
# Density = 2.308534 g / cm^3
# Si number density = 23.138005 Si / 1000 Ang^3
#
#
#
# Elastic Constant Matrix: (Units=GPa)
#
#
# Indices 1 2 3 4 5 6 
#
# 1 179.8876 61.1270 28.0886 0.0000 0.0000 0.0000
# 2 61.1270 121.8850 39.2984 0.0000 0.0000 0.0000
# 3 28.0886 39.2984 120.6102 0.0000 0.0000 0.0000
# 4 0.0000 0.0000 0.0000 0.0872 0.0000 0.0000
# 5 0.0000 0.0000 0.0000 0.0000 11.1215 0.0000
# 6 0.0000 0.0000 0.0000 0.0000 0.0000 17.1853
#
#
#
# Elastic Compliance Matrix: (Units=1/GPa)
#
#
# Indices 1 2 3 4 5 6 
#
# 1 0.006730 -0.003207 -0.000523 0.000000 0.000000 0.000000
# 2 -0.003207 0.010696 -0.002738 0.000000 0.000000 0.000000
# 3 -0.000523 -0.002738 0.009305 0.000000 0.000000 0.000000
# 4 0.000000 0.000000 0.000000 11.468909 0.000000 0.000000
# 5 0.000000 0.000000 0.000000 0.000000 0.089916 0.000000
# 6 0.000000 0.000000 0.000000 0.000000 0.000000 0.058189
#
#
# Mechanical properties :
#
#
# Convention : Reuss Voigt Hill
#
# Bulk Modulus (GPa) = 72.48508 75.49007 73.98758
# Shear Modulus (GPa) = 0.42877 25.27006 12.84942
#
# Velocity S-wave (km/s) = 0.43094 3.30835 2.35912
# Velocity P-wave (km/s) = 5.62520 6.87680 6.28225
#
# Compressibility (1/GPa) = 0.01379594
#
# Stress axis : x y z
#
# Youngs Moduli (GPa) = 148.58108 93.49669 107.46896
#
# Poissons Ratio (x) = 0.29983 0.05615
# Poissons Ratio (y) = 0.47648 0.29426
# Poissons Ratio (z) = 0.07764 0.25600
#
# Static dielectric constant tensor:
#      x y z
#    x 5.116130 0.000000 0.000000 
#    y 0.000000 4.319420 0.000000 
#    z 0.000000 0.000000 3.699890 
# 
# 
# High freq. dielectric constant tensor:
#      x y z
#    x 1.946690 0.000000 0.000000 
#    y 0.000000 1.902680 0.000000 
#    z 0.000000 0.000000 1.878860 
# 
# From -- ./inp_files/3187.got.cif
#   From: 2010.03.12/outbox.cif.g09.slc.cpg/sg28_2_cif.got.tgz:3187.got - 2010.04.14 03:39:34.
