data_PCOD8168989
_publ_section_title
;
Structure prediction by ZEFSAII (Michael W. Deem and Ramdas Pophale) SiO2 
 PCOD8168989
Probable space group: P C A 21
;
_chemical_formula_sum "Si O2"
_cell_formula_units_Z 20
_cell_length_a 9.458762
_cell_length_b 9.836445
_cell_length_c 9.210587
_cell_angle_alpha 90.000000
_cell_angle_beta 90.000000
_cell_angle_gamma 90.000000
_cell_volume 856.958469
_symmetry_space_group_name_H-M "P C A 21"
_symmetry_group_IT_number 29
_symmetry_cell_setting 'orthorhombic'
loop_
_space_group_symop_operation_xyz
x,y,z
-x,-y,1/2+z
1/2-x,y,1/2+z
1/2+x,-y,z
loop_
_atom_site_type_symbol
_atom_site_label
_atom_site_fract_x
_atom_site_fract_y
_atom_site_fract_z
Si Si1 0.910020 0.181998 0.570800
Si Si2 0.612887 0.615568 0.129435
Si Si3 0.597257 0.572177 0.468736
Si Si4 0.237600 0.885769 0.328549
Si Si5 0.543562 0.912958 0.197811
O O1 0.857496 0.221319 0.734356
O O2 0.754323 0.168478 0.492114
O O3 0.981118 0.030617 0.575845
O O4 0.015794 0.288094 0.502555
O O5 0.613394 0.560311 0.295003
O O6 0.753789 0.570548 0.048119
O O7 0.486067 0.554006 0.035451
O O8 0.600323 0.777719 0.121405
O O9 0.167095 0.034826 0.309882
O O10 0.402623 0.885563 0.285693
#
# Coordination Sequence:
#
# PCOD8168989 Si02
#       5
#     4   4   4   4   4
#     4  10  25  44  73 108 147 187 249 306 383 445
#     4  12  28  50  77 107 158 199 263 313 385 457
#     4  12  28  53  73 113 147 208 255 319 385 459
#     4  10  23  41  72 103 149 182 246 300 378 444
#     4  10  24  42  73 107 143 192 241 316 371 453
#
# _framework density 23.338356000000001
#
# number of rings (size 3 to 8) (size 9 to 14) (size 15 to 20)
#    1.200    0.000    2.000    2.400    8.400    1.600 
#    7.200    0.000    0.000    0.000    0.000    0.000 
#    0.000    0.000    0.000    0.000    0.000    0.000 
#
# Total GULP energy -247778.139414 kJ/mol
# GULP energy per Si atom -12388.906971 kJ/mol
# Density = 2.328524 g / cm^3
# Si number density = 23.338356 Si / 1000 Ang^3
#
#
#
# Elastic Constant Matrix: (Units=GPa)
#
#
# Indices 1 2 3 4 5 6 
#
# 1 78.4652 5.7603 -14.0810 0.0000 0.0000 0.0000
# 2 5.7603 50.5925 10.3461 0.0000 0.0000 0.0000
# 3 -14.0810 10.3461 85.8239 0.0000 0.0000 0.0000
# 4 0.0000 0.0000 0.0000 26.0266 0.0000 0.0000
# 5 0.0000 0.0000 0.0000 0.0000 40.7321 0.0000
# 6 0.0000 0.0000 0.0000 0.0000 0.0000 36.1458
#
#
#
# Elastic Compliance Matrix: (Units=1/GPa)
#
#
# Indices 1 2 3 4 5 6 
#
# 1 0.013328 -0.002014 0.002430 0.000000 0.000000 0.000000
# 2 -0.002014 0.020570 -0.002810 0.000000 0.000000 0.000000
# 3 0.002430 -0.002810 0.012389 0.000000 0.000000 0.000000
# 4 0.000000 0.000000 0.000000 0.038422 0.000000 0.000000
# 5 0.000000 0.000000 0.000000 0.000000 0.024551 0.000000
# 6 0.000000 0.000000 0.000000 0.000000 0.000000 0.027666
#
#
# Mechanical properties :
#
#
# Convention : Reuss Voigt Hill
#
# Bulk Modulus (GPa) = 24.09789 24.32582 24.21185
# Shear Modulus (GPa) = 32.14435 34.77131 33.45783
#
# Velocity S-wave (km/s) = 3.71525 3.86408 3.79040
# Velocity P-wave (km/s) = 5.36209 5.50944 5.43626
#
# Compressibility (1/GPa) = 0.04149741
#
# Stress axis : x y z
#
# Youngs Moduli (GPa) = 75.02784 48.61496 80.71575
#
# Poissons Ratio (x) = 0.09793 -0.19611
# Poissons Ratio (y) = 0.15113 0.22683
# Poissons Ratio (z) = -0.18229 0.13662
#
# Static dielectric constant tensor:
#      x y z
#    x 4.234300 0.000000 0.000000 
#    y 0.000000 4.089590 0.000000 
#    z 0.000000 0.000000 4.538620 
# 
# 
# High freq. dielectric constant tensor:
#      x y z
#    x 1.929830 0.000000 0.000000 
#    y 0.000000 1.911270 0.000000 
#    z 0.000000 0.000000 1.937220 
# 
# From -- ./inp_files/2765.got.cif
#   From: 2010.03.12/outbox.cif.g09.slc.cpg/sg29_2_cif.got.tgz:2765.got - 2010.04.14 03:43:10.
