data_PCOD8168404
_publ_section_title
;
Structure prediction by ZEFSAII (Michael W. Deem and Ramdas Pophale) SiO2 
 PCOD8168404
Probable space group: P M A 2
;
_chemical_formula_sum "Si O2"
_cell_formula_units_Z 20
_cell_length_a 10.048853
_cell_length_b 8.959657
_cell_length_c 11.436510
_cell_angle_alpha 90.000000
_cell_angle_beta 90.000000
_cell_angle_gamma 90.000000
_cell_volume 1029.677899
_symmetry_space_group_name_H-M "P M A 2"
_symmetry_group_IT_number 28
_symmetry_cell_setting 'orthorhombic'
loop_
_space_group_symop_operation_xyz
x,y,z
-x,-y,z
1/2-x,y,z
1/2+x,-y,z
loop_
_atom_site_type_symbol
_atom_site_label
_atom_site_fract_x
_atom_site_fract_y
_atom_site_fract_z
Si Si1 0.250000 0.832847 0.010520
Si Si2 0.750000 0.812364 0.739924
Si Si3 0.006465 0.672269 0.125301
Si Si4 0.006416 0.823222 0.603771
Si Si5 0.250000 0.188575 0.011622
Si Si6 0.088003 0.639722 0.388795
Si Si7 0.250000 0.833091 0.749559
O O1 0.121167 0.765027 0.066788
O O2 0.250000 0.010662 0.018634
O O3 0.250000 0.774140 0.879586
O O4 0.625187 0.754562 0.663821
O O5 0.750000 0.989357 0.745128
O O6 0.750000 0.755465 0.875449
O O7 0.033023 0.685622 0.262731
O O8 0.000000 0.500000 0.085952
O O9 0.872688 0.750207 0.084739
O O10 0.042578 0.771612 0.473845
O O11 0.121971 0.765181 0.687758
O O12 0.000000 0.000000 0.598006
O O13 0.250000 0.612599 0.388391
O O14 0.000000 0.500000 0.432252
#
# Coordination Sequence:
#
# PCOD8168404 Si02
#       7
#     2   2   4   4   2   4   2
#     4  11  21  40  67  94 124 165 212 263 306 371
#     4   9  20  36  59  96 126 159 200 247 316 375
#     4  11  24  42  63  89 129 170 205 256 321 377
#     4  10  20  38  65  91 123 160 205 255 307 365
#     4  11  23  40  67  96 126 161 216 257 306 373
#     4  11  25  44  64  88 123 167 208 253 312 370
#     4   9  18  36  61  88 126 165 196 255 318 359
#
# _framework density 19.423549000000001
#
# number of rings (size 3 to 8) (size 9 to 14) (size 15 to 20)
#    0.000    1.600    2.000    2.400    5.600    4.800 
#    0.000    6.000    0.000    0.000    0.000    0.000 
#    0.000    0.000    0.000    0.000    0.000    0.000 
#
# Total GULP energy -247868.527764 kJ/mol
# GULP energy per Si atom -12393.426388 kJ/mol
# Density = 1.937934 g / cm^3
# Si number density = 19.423549 Si / 1000 Ang^3
#
#
#
# Elastic Constant Matrix: (Units=GPa)
#
#
# Indices 1 2 3 4 5 6 
#
# 1 194.4694 49.6661 65.0996 0.0000 0.0000 0.0000
# 2 49.6661 76.2506 47.3369 0.0000 0.0000 0.0000
# 3 65.0996 47.3369 107.0118 0.0000 0.0000 0.0000
# 4 0.0000 0.0000 0.0000 3.2309 0.0000 0.0000
# 5 0.0000 0.0000 0.0000 0.0000 50.5270 0.0000
# 6 0.0000 0.0000 0.0000 0.0000 0.0000 31.1474
#
#
#
# Elastic Compliance Matrix: (Units=1/GPa)
#
#
# Indices 1 2 3 4 5 6 
#
# 1 0.006803 -0.002567 -0.003003 0.000000 0.000000 0.000000
# 2 -0.002567 0.019048 -0.006864 0.000000 0.000000 0.000000
# 3 -0.003003 -0.006864 0.014208 0.000000 0.000000 0.000000
# 4 0.000000 0.000000 0.000000 0.309515 0.000000 0.000000
# 5 0.000000 0.000000 0.000000 0.000000 0.019791 0.000000
# 6 0.000000 0.000000 0.000000 0.000000 0.000000 0.032105
#
#
# Mechanical properties :
#
#
# Convention : Reuss Voigt Hill
#
# Bulk Modulus (GPa) = 65.83063 77.99299 71.91181
# Shear Modulus (GPa) = 11.59009 31.35635 21.47322
#
# Velocity S-wave (km/s) = 2.44540 4.02225 3.32855
# Velocity P-wave (km/s) = 6.47604 7.86208 7.20248
#
# Compressibility (1/GPa) = 0.01519050
#
# Stress axis : x y z
#
# Youngs Moduli (GPa) = 146.99267 52.49883 70.38200
#
# Poissons Ratio (x) = 0.13476 0.21137
# Poissons Ratio (y) = 0.37731 0.48313
# Poissons Ratio (z) = 0.44144 0.36037
#
# Static dielectric constant tensor:
#      x y z
#    x 3.764220 0.000000 0.000000 
#    y 0.000000 3.446690 0.000000 
#    z 0.000000 0.000000 3.779140 
# 
# 
# High freq. dielectric constant tensor:
#      x y z
#    x 1.780930 0.000000 0.000000 
#    y 0.000000 1.737480 0.000000 
#    z 0.000000 0.000000 1.772510 
# 
# From -- ./inp_files/4624.got.cif
#   From: 2010.03.12/outbox.cif.g09.slc.cpg/sg28_3_cif.got.tgz:4624.got - 2010.04.14 03:39:34.
