data_PCOD8168190
_publ_section_title
;
Structure prediction by ZEFSAII (Michael W. Deem and Ramdas Pophale) SiO2 
 PCOD8168190
Probable space group: P M A 2
;
_chemical_formula_sum "Si O2"
_cell_formula_units_Z 24
_cell_length_a 15.155845
_cell_length_b 9.355629
_cell_length_c 9.348900
_cell_angle_alpha 90.000000
_cell_angle_beta 90.000000
_cell_angle_gamma 90.000000
_cell_volume 1325.603557
_symmetry_space_group_name_H-M "P M A 2"
_symmetry_group_IT_number 28
_symmetry_cell_setting 'orthorhombic'
loop_
_space_group_symop_operation_xyz
x,y,z
-x,-y,z
1/2-x,y,z
1/2+x,-y,z
loop_
_atom_site_type_symbol
_atom_site_label
_atom_site_fract_x
_atom_site_fract_y
_atom_site_fract_z
Si Si1 0.353294 0.648624 0.194840
Si Si2 0.987490 0.161268 0.027778
Si Si3 0.150855 0.365248 0.026125
Si Si4 0.090579 0.421173 0.722444
Si Si5 0.482430 0.839552 0.696063
Si Si6 0.149753 0.658378 0.521375
O O1 0.250000 0.684576 0.176523
O O2 0.409066 0.770865 0.118223
O O3 0.383393 0.643666 0.359425
O O4 0.376240 0.495586 0.127845
O O5 0.957131 0.165516 0.863011
O O6 0.000000 0.000000 0.081322
O O7 0.080846 0.239855 0.051215
O O8 0.250000 0.310720 0.062000
O O9 0.151268 0.419123 0.862322
O O10 0.139054 0.503682 0.595168
O O11 0.000000 0.500000 0.765755
O O12 0.068604 0.259914 0.669584
O O13 0.401798 0.781690 0.603692
O O14 0.500000 0.000000 0.643891
O O15 0.250000 0.707350 0.525556
#
# Coordination Sequence:
#
# PCOD8168190 Si02
#       6
#     4   4   4   4   4   4
#     4  10  21  35  53  77 105 137 175 214 257 306
#     4  10  21  36  54  77 106 139 173 212 259 309
#     4  10  19  33  54  78 102 132 172 218 260 306
#     4   9  17  31  53  76 100 134 171 210 257 306
#     4   9  19  35  52  75 104 135 172 208 254 310
#     4  10  20  34  52  77 104 133 171 214 256 303
#
# _framework density 18.104959999999998
#
# number of rings (size 3 to 8) (size 9 to 14) (size 15 to 20)
#    0.000    2.333    0.000    4.000    0.000    7.333 
#    0.000    7.500    0.000    4.000    0.000    0.000 
#    0.000    0.000    0.000    0.000    0.000    0.000 
#
# Total GULP energy -297624.437136 kJ/mol
# GULP energy per Si atom -12401.018214 kJ/mol
# Density = 1.806375 g / cm^3
# Si number density = 18.104960 Si / 1000 Ang^3
#
#
#
# Elastic Constant Matrix: (Units=GPa)
#
#
# Indices 1 2 3 4 5 6 
#
# 1 81.4628 56.6137 50.4796 0.0000 0.0000 0.0000
# 2 56.6137 154.6622 67.8891 0.0000 0.0000 0.0000
# 3 50.4796 67.8891 109.3418 0.0000 0.0000 0.0000
# 4 0.0000 0.0000 0.0000 6.9643 0.0000 0.0000
# 5 0.0000 0.0000 0.0000 0.0000 30.4327 0.0000
# 6 0.0000 0.0000 0.0000 0.0000 0.0000 18.2764
#
#
#
# Elastic Compliance Matrix: (Units=1/GPa)
#
#
# Indices 1 2 3 4 5 6 
#
# 1 0.019054 -0.004280 -0.006139 0.000000 0.000000 0.000000
# 2 -0.004280 0.009849 -0.004139 0.000000 0.000000 0.000000
# 3 -0.006139 -0.004139 0.014550 0.000000 0.000000 0.000000
# 4 0.000000 0.000000 0.000000 0.143589 0.000000 0.000000
# 5 0.000000 0.000000 0.000000 0.000000 0.032859 0.000000
# 6 0.000000 0.000000 0.000000 0.000000 0.000000 0.054715
#
#
# Mechanical properties :
#
#
# Convention : Reuss Voigt Hill
#
# Bulk Modulus (GPa) = 69.75320 77.27019 73.51170
# Shear Modulus (GPa) = 16.20674 22.50030 19.35352
#
# Velocity S-wave (km/s) = 2.99516 3.52912 3.27305
# Velocity P-wave (km/s) = 7.11140 7.70571 7.41451
#
# Compressibility (1/GPa) = 0.01433626
#
# Stress axis : x y z
#
# Youngs Moduli (GPa) = 52.48163 101.52939 68.72773
#
# Poissons Ratio (x) = 0.43453 0.42195
# Poissons Ratio (y) = 0.22461 0.28450
# Poissons Ratio (z) = 0.32221 0.42028
#
# Static dielectric constant tensor:
#      x y z
#    x 3.292390 0.000000 0.000000 
#    y 0.000000 3.440870 0.000000 
#    z 0.000000 0.000000 3.374290 
# 
# 
# High freq. dielectric constant tensor:
#      x y z
#    x 1.699760 0.000000 0.000000 
#    y 0.000000 1.697340 0.000000 
#    z 0.000000 0.000000 1.700490 
# 
# From -- ./inp_files/3378.got.cif
#   From: 2010.03.12/outbox.cif.g09.slc.cpg/sg28_2_cif.got.tgz:3378.got - 2010.04.14 03:39:34.
