data_PCOD8168930
_publ_section_title
;
Structure prediction by ZEFSAII (Michael W. Deem and Ramdas Pophale) SiO2 
 PCOD8168930
Probable space group: P C A 21
;
_chemical_formula_sum "Si O2"
_cell_formula_units_Z 28
_cell_length_a 9.644596
_cell_length_b 15.407342
_cell_length_c 8.805991
_cell_angle_alpha 90.000000
_cell_angle_beta 90.000000
_cell_angle_gamma 90.000000
_cell_volume 1308.549032
_symmetry_space_group_name_H-M "P C A 21"
_symmetry_group_IT_number 29
_symmetry_cell_setting 'orthorhombic'
loop_
_space_group_symop_operation_xyz
x,y,z
-x,-y,1/2+z
1/2-x,y,1/2+z
1/2+x,-y,z
loop_
_atom_site_type_symbol
_atom_site_label
_atom_site_fract_x
_atom_site_fract_y
_atom_site_fract_z
Si Si1 0.658490 0.154426 0.373100
Si Si2 0.388070 0.141919 0.563285
Si Si3 0.574086 0.473857 0.755175
Si Si4 0.326553 0.529902 0.571216
Si Si5 0.399604 0.172268 0.909557
Si Si6 0.127720 0.695016 0.908524
Si Si7 0.884662 0.061834 0.556471
O O1 0.520110 0.173685 0.468062
O O2 0.747921 0.242203 0.354578
O O3 0.748784 0.082037 0.458413
O O4 0.616562 0.117657 0.209881
O O5 0.393686 0.182919 0.729001
O O6 0.252920 0.177420 0.478173
O O7 0.385124 0.039331 0.588132
O O8 0.422268 0.506978 0.715252
O O9 0.674735 0.503747 0.617981
O O10 0.582343 0.368846 0.770416
O O11 0.621706 0.517022 0.916288
O O12 0.323882 0.634467 0.549156
O O13 0.495447 0.251102 0.968478
O O14 0.475774 0.083599 0.961984
#
# Coordination Sequence:
#
# PCOD8168930 Si02
#       7
#     4   4   4   4   4   4   4
#     4  11  23  39  66  94 125 170 216 266 325 369
#     4  12  23  40  61  92 126 175 215 264 314 376
#     4  10  22  42  69  97 127 160 210 255 322 390
#     4  10  22  42  69  95 127 160 210 255 322 390
#     4  11  25  41  58  92 130 163 214 263 318 368
#     4   9  25  41  67  93 131 161 216 257 323 381
#     4  11  22  39  64  89 128 169 221 262 316 380
#
# _framework density 21.397746999999999
#
# number of rings (size 3 to 8) (size 9 to 14) (size 15 to 20)
#    0.857    0.571    0.000    6.000    6.000    0.000 
#    2.571    0.000    0.000    0.000    0.000    0.000 
#    0.000    0.000    0.000    0.000    0.000    0.000 
#
# Total GULP energy -347135.187417 kJ/mol
# GULP energy per Si atom -12397.685265 kJ/mol
# Density = 2.134904 g / cm^3
# Si number density = 21.397747 Si / 1000 Ang^3
#
#
#
# Elastic Constant Matrix: (Units=GPa)
#
#
# Indices 1 2 3 4 5 6 
#
# 1 112.1028 10.9138 19.3427 0.0000 0.0000 0.0000
# 2 10.9138 39.4049 14.7871 0.0000 0.0000 0.0000
# 3 19.3427 14.7871 96.5659 0.0000 0.0000 0.0000
# 4 0.0000 0.0000 0.0000 33.6497 0.0000 0.0000
# 5 0.0000 0.0000 0.0000 0.0000 39.1401 0.0000
# 6 0.0000 0.0000 0.0000 0.0000 0.0000 11.7480
#
#
#
# Elastic Compliance Matrix: (Units=1/GPa)
#
#
# Indices 1 2 3 4 5 6 
#
# 1 0.009387 -0.002010 -0.001573 0.000000 0.000000 0.000000
# 2 -0.002010 0.027355 -0.003786 0.000000 0.000000 0.000000
# 3 -0.001573 -0.003786 0.011250 0.000000 0.000000 0.000000
# 4 0.000000 0.000000 0.000000 0.029718 0.000000 0.000000
# 5 0.000000 0.000000 0.000000 0.000000 0.025549 0.000000
# 6 0.000000 0.000000 0.000000 0.000000 0.000000 0.085121
#
#
# Mechanical properties :
#
#
# Convention : Reuss Voigt Hill
#
# Bulk Modulus (GPa) = 30.07030 37.57343 33.82186
# Shear Modulus (GPa) = 23.34233 30.44292 26.89263
#
# Velocity S-wave (km/s) = 3.30643 3.77598 3.54898
# Velocity P-wave (km/s) = 5.35352 6.05049 5.71264
#
# Compressibility (1/GPa) = 0.03325541
#
# Stress axis : x y z
#
# Youngs Moduli (GPa) = 106.52584 36.55634 88.88562
#
# Poissons Ratio (x) = 0.07347 0.13978
# Poissons Ratio (y) = 0.21410 0.33655
# Poissons Ratio (z) = 0.16752 0.13841
#
# Static dielectric constant tensor:
#      x y z
#    x 3.893140 0.000000 0.000000 
#    y 0.000000 3.594950 0.000000 
#    z 0.000000 0.000000 3.835650 
# 
# 
# High freq. dielectric constant tensor:
#      x y z
#    x 1.849290 0.000000 0.000000 
#    y 0.000000 1.817000 0.000000 
#    z 0.000000 0.000000 1.847310 
# 
# From -- ./inp_files/1229.got.cif
#   From: 2010.03.12/outbox.cif.g09.slc.cpg/sg29_1_cif.got.tgz:1229.got - 2010.04.14 03:43:10.
