data_PCOD8168322
_publ_section_title
;
Structure prediction by ZEFSAII (Michael W. Deem and Ramdas Pophale) SiO2 
 PCOD8168322
Probable space group: P M A 2
;
_chemical_formula_sum "Si O2"
_cell_formula_units_Z 32
_cell_length_a 8.975069
_cell_length_b 10.262438
_cell_length_c 19.071929
_cell_angle_alpha 90.000000
_cell_angle_beta 90.000000
_cell_angle_gamma 90.000000
_cell_volume 1756.640793
_symmetry_space_group_name_H-M "P M A 2"
_symmetry_group_IT_number 28
_symmetry_cell_setting 'orthorhombic'
loop_
_space_group_symop_operation_xyz
x,y,z
-x,-y,z
1/2-x,y,z
1/2+x,-y,z
loop_
_atom_site_type_symbol
_atom_site_label
_atom_site_fract_x
_atom_site_fract_y
_atom_site_fract_z
Si Si1 0.574804 0.632555 0.998350
Si Si2 0.925367 0.865519 0.581737
Si Si3 0.921699 0.367239 0.500835
Si Si4 0.925368 0.865517 0.254612
Si Si5 0.575936 0.867685 0.743288
Si Si6 0.574804 0.632555 0.837998
Si Si7 0.924064 0.867684 0.093062
Si Si8 0.421699 0.632761 0.335515
O O1 0.500000 0.500000 0.025125
O O2 0.750000 0.616005 0.007337
O O3 0.529969 0.662178 0.918174
O O4 0.513258 0.749708 0.046144
O O5 0.750000 0.874234 0.567940
O O6 0.963125 0.837651 0.662761
O O7 0.994191 0.751170 0.536497
O O8 0.000000 0.000000 0.557140
O O9 0.750000 0.370675 0.524618
O O10 0.936949 0.348962 0.418175
O O11 0.000000 0.500000 0.525759
O O12 0.750000 0.874233 0.268406
O O13 0.963128 0.837646 0.173588
O O14 0.994190 0.751170 0.299854
O O15 0.000000 0.000000 0.279207
O O16 0.750000 0.885645 0.755006
O O17 0.513257 0.749707 0.790204
O O18 0.500000 0.000000 0.769298
O O19 0.500000 0.500000 0.811223
O O20 0.750000 0.616005 0.829011
O O21 0.750000 0.885645 0.081346
O O22 0.000000 0.000000 0.067054
O O23 0.500000 0.500000 0.310591
O O24 0.250000 0.629326 0.311733
#
# Coordination Sequence:
#
# PCOD8168322 Si02
#       8
#     4   4   4   4   4   4   4   4
#     4   9  18  33  51  72 100 132 167 207 249 295
#     4  10  20  35  54  76 104 136 171 211 254 302
#     4  10  21  37  56  78 104 134 169 209 253 302
#     4  10  20  35  54  76 104 136 171 211 254 302
#     4   9  19  34  51  74 102 132 167 207 250 296
#     4   9  18  33  51  72 100 132 167 207 249 295
#     4   9  19  34  51  74 102 132 167 207 250 296
#     4  10  21  37  56  78 104 134 169 209 253 302
#
# _framework density 18.216588000000002
#
# number of rings (size 3 to 8) (size 9 to 14) (size 15 to 20)
#    0.000    2.500    0.000    1.500    0.000    5.500 
#    0.000    2.500    0.000    0.000    0.000    0.000 
#    0.000    0.000    0.000    0.000    0.000    0.000 
#
# Total GULP energy -396903.702189 kJ/mol
# GULP energy per Si atom -12403.240693 kJ/mol
# Density = 1.817513 g / cm^3
# Si number density = 18.216588 Si / 1000 Ang^3
#
#
#
# Elastic Constant Matrix: (Units=GPa)
#
#
# Indices 1 2 3 4 5 6 
#
# 1 82.0830 69.8108 36.2844 0.0000 0.0000 0.0000
# 2 69.8108 181.9456 65.8208 0.0000 0.0000 0.0000
# 3 36.2844 65.8208 47.3963 0.0000 0.0000 0.0000
# 4 0.0000 0.0000 0.0000 -688.4938 0.0000 0.0000
# 5 0.0000 0.0000 0.0000 0.0000 31.6457 0.0000
# 6 0.0000 0.0000 0.0000 0.0000 0.0000 41.0258
#
#
#
# Elastic Compliance Matrix: (Units=1/GPa)
#
#
# Indices 1 2 3 4 5 6 
#
# 1 0.019944 -0.004278 -0.009327 0.000000 0.000000 0.000000
# 2 -0.004278 0.011963 -0.013338 0.000000 0.000000 0.000000
# 3 -0.009327 -0.013338 0.046762 0.000000 0.000000 0.000000
# 4 0.000000 0.000000 0.000000 -0.001452 0.000000 0.000000
# 5 0.000000 0.000000 0.000000 0.000000 0.031600 0.000000
# 6 0.000000 0.000000 0.000000 0.000000 0.000000 0.024375
#
#
# Mechanical properties :
#
#
# Convention : Reuss Voigt Hill
#
# Bulk Modulus (GPa) = 40.35097 72.80632 56.57864
# Shear Modulus (GPa) = 25.59652 -113.86385 -44.13367
#
# Velocity S-wave (km/s) = 3.75256 -7.91462 -4.92745
# Velocity P-wave (km/s) = 6.40112 6.59302 1.11658
#
# Compressibility (1/GPa) = 0.02478255
#
# Stress axis : x y z
#
# Youngs Moduli (GPa) = 50.13922 83.59216 21.38491
#
# Poissons Ratio (x) = 0.35763 0.19946
# Poissons Ratio (y) = 0.21451 0.28523
# Poissons Ratio (z) = 0.46765 1.11495
#
# Static dielectric constant tensor:
#      x y z
#    x 3.302210 0.000000 0.000000 
#    y 0.000000 3.442800 0.000000 
#    z 0.000000 0.000000 3.359630 
# 
# 
# High freq. dielectric constant tensor:
#      x y z
#    x 1.710760 0.000000 0.000000 
#    y 0.000000 1.717600 0.000000 
#    z 0.000000 0.000000 1.698840 
# 
# From -- ./inp_files/7093.got.cif
#   From: 2010.03.12/outbox.cif.g09.slc.cpg/sg28_4_cif.got.tgz:7093.got - 2010.04.14 03:39:34.
