data_PCOD8168078
_publ_section_title
;
Structure prediction by ZEFSAII (Michael W. Deem and Ramdas Pophale) SiO2 
 PCOD8168078
Probable space group: P M A 2
;
_chemical_formula_sum "Si O2"
_cell_formula_units_Z 24
_cell_length_a 8.627147
_cell_length_b 13.306631
_cell_length_c 11.478499
_cell_angle_alpha 90.000000
_cell_angle_beta 90.000000
_cell_angle_gamma 90.000000
_cell_volume 1317.711732
_symmetry_space_group_name_H-M "P M A 2"
_symmetry_group_IT_number 28
_symmetry_cell_setting 'orthorhombic'
loop_
_space_group_symop_operation_xyz
x,y,z
-x,-y,z
1/2-x,y,z
1/2+x,-y,z
loop_
_atom_site_type_symbol
_atom_site_label
_atom_site_fract_x
_atom_site_fract_y
_atom_site_fract_z
Si Si1 0.566198 0.392991 0.320630
Si Si2 0.932658 0.605141 0.066636
Si Si3 0.918113 0.405110 0.692852
Si Si4 0.934416 0.110232 0.692110
Si Si5 0.419162 0.751521 0.892011
Si Si6 0.430636 0.269437 0.518283
O O1 0.500000 0.500000 0.366879
O O2 0.750000 0.397277 0.325537
O O3 0.511002 0.373747 0.189745
O O4 0.505404 0.296731 0.393586
O O5 0.750000 0.593054 0.080986
O O6 0.000000 0.500000 0.014413
O O7 0.966627 0.703320 0.987103
O O8 0.750000 0.429348 0.635070
O O9 0.887503 0.328496 0.793591
O O10 0.000000 0.500000 0.751309
O O11 0.038078 0.366865 0.596507
O O12 0.750000 0.110533 0.689395
O O13 0.990845 0.153954 0.819046
O O14 0.992208 0.173305 0.580421
O O15 0.000000 0.000000 0.678265
O O16 0.250000 0.778061 0.948293
O O17 0.250000 0.248201 0.502897
#
# Coordination Sequence:
#
# PCOD8168078 Si02
#       6
#     4   4   4   4   4   4
#     4  11  21  35  53  75 107 144 181 217 257 306
#     4  11  21  33  51  76 107 143 181 216 255 304
#     4  10  19  30  45  69 101 135 170 208 254 307
#     4  10  21  38  59  82 106 134 171 216 268 319
#     4   9  19  34  51  73 102 135 171 211 256 307
#     4  11  21  34  52  75 103 135 173 214 260 311
#
# _framework density 18.213393
#
# number of rings (size 3 to 8) (size 9 to 14) (size 15 to 20)
#    0.000    1.667    0.000    8.500    0.000    5.333 
#    0.000    0.000    0.000    1.000    0.000    4.667 
#    0.000    0.000    0.000    0.000    0.000    0.000 
#
# Total GULP energy -297400.127373 kJ/mol
# GULP energy per Si atom -12391.671974 kJ/mol
# Density = 1.817194 g / cm^3
# Si number density = 18.213393 Si / 1000 Ang^3
#
#
#
# Elastic Constant Matrix: (Units=GPa)
#
#
# Indices 1 2 3 4 5 6 
#
# 1 133.5427 49.0831 40.0050 0.0000 0.0000 0.0000
# 2 49.0831 95.6027 44.4204 0.0000 0.0000 0.0000
# 3 40.0050 44.4204 82.9295 0.0000 0.0000 0.0000
# 4 0.0000 0.0000 0.0000 29.9614 0.0000 0.0000
# 5 0.0000 0.0000 0.0000 0.0000 28.7547 0.0000
# 6 0.0000 0.0000 0.0000 0.0000 0.0000 25.1771
#
#
#
# Elastic Compliance Matrix: (Units=1/GPa)
#
#
# Indices 1 2 3 4 5 6 
#
# 1 0.009653 -0.003718 -0.002665 0.000000 0.000000 0.000000
# 2 -0.003718 0.015357 -0.006433 0.000000 0.000000 0.000000
# 3 -0.002665 -0.006433 0.016790 0.000000 0.000000 0.000000
# 4 0.000000 0.000000 0.000000 0.033376 0.000000 0.000000
# 5 0.000000 0.000000 0.000000 0.000000 0.034777 0.000000
# 6 0.000000 0.000000 0.000000 0.000000 0.000000 0.039719
#
#
# Mechanical properties :
#
#
# Convention : Reuss Voigt Hill
#
# Bulk Modulus (GPa) = 61.84643 64.34355 63.09499
# Shear Modulus (GPa) = 27.67121 28.68305 28.17713
#
# Velocity S-wave (km/s) = 3.90202 3.97272 3.93753
# Velocity P-wave (km/s) = 7.37098 7.51317 7.44241
#
# Compressibility (1/GPa) = 0.01616908
#
# Stress axis : x y z
#
# Youngs Moduli (GPa) = 103.59413 65.11500 59.55979
#
# Poissons Ratio (x) = 0.24207 0.15875
# Poissons Ratio (y) = 0.38511 0.38313
# Poissons Ratio (z) = 0.27612 0.41887
#
# Static dielectric constant tensor:
#      x y z
#    x 3.458360 0.000000 0.000000 
#    y 0.000000 2.631570 0.000000 
#    z 0.000000 0.000000 3.522910 
# 
# 
# High freq. dielectric constant tensor:
#      x y z
#    x 1.723460 0.000000 0.000000 
#    y 0.000000 1.680320 0.000000 
#    z 0.000000 0.000000 1.696150 
# 
# From -- ./inp_files/4685.got.cif
#   From: 2010.03.12/outbox.cif.g09.slc.cpg/sg28_3_cif.got.tgz:4685.got - 2010.04.14 03:39:34.
