data_PCOD8168266
_publ_section_title
;
Structure prediction by ZEFSAII (Michael W. Deem and Ramdas Pophale) SiO2 
 PCOD8168266
Probable space group: P M A 2
;
_chemical_formula_sum "Si O2"
_cell_formula_units_Z 32
_cell_length_a 8.810791
_cell_length_b 15.432289
_cell_length_c 11.725848
_cell_angle_alpha 90.000000
_cell_angle_beta 90.000000
_cell_angle_gamma 90.000000
_cell_volume 1594.371444
_symmetry_space_group_name_H-M "P M A 2"
_symmetry_group_IT_number 28
_symmetry_cell_setting 'orthorhombic'
loop_
_space_group_symop_operation_xyz
x,y,z
-x,-y,z
1/2-x,y,z
1/2+x,-y,z
loop_
_atom_site_type_symbol
_atom_site_label
_atom_site_fract_x
_atom_site_fract_y
_atom_site_fract_z
Si Si1 0.074240 0.410910 0.041440
Si Si2 0.425986 0.751923 0.921391
Si Si3 0.430125 0.090376 0.047308
Si Si4 0.075033 0.356110 0.295557
Si Si5 0.070579 0.090311 0.526599
Si Si6 0.070001 0.160377 0.286571
Si Si7 0.571757 0.412992 0.520034
Si Si8 0.925737 0.245161 0.655471
O O1 0.250000 0.407784 0.005677
O O2 0.054878 0.405178 0.176945
O O3 0.000000 0.500000 0.997963
O O4 0.987687 0.332247 0.983766
O O5 0.250000 0.764337 0.951538
O O6 0.452788 0.739249 0.787985
O O7 0.517353 0.836017 0.960663
O O8 0.250000 0.084779 0.044177
O O9 0.491745 0.111250 0.174718
O O10 0.500000 0.000000 0.006001
O O11 0.250000 0.355280 0.335300
O O12 0.010391 0.258704 0.284088
O O13 0.976124 0.406059 0.388377
O O14 0.250000 0.082382 0.526915
O O15 0.008461 0.113393 0.400055
O O16 0.022039 0.163039 0.615948
O O17 0.000000 0.000000 0.566805
O O18 0.250000 0.161245 0.283915
O O19 0.500000 0.500000 0.573590
O O20 0.750000 0.421579 0.529861
O O21 0.512534 0.329857 0.589787
O O22 0.750000 0.228042 0.626648
#
# Coordination Sequence:
#
# PCOD8168266 Si02
#       8
#     4   4   4   4   4   4   4   4
#     4  11  23  40  63  91 125 160 198 246 298 358
#     4  11  24  43  64  87 118 158 205 255 302 353
#     4  11  22  40  63  92 125 159 199 245 299 359
#     4  10  19  37  62  90 123 157 194 240 294 356
#     4  11  22  38  63  91 122 158 196 241 296 356
#     4   9  18  35  60  90 123 156 192 238 295 356
#     4  11  23  39  61  90 121 156 196 244 297 356
#     4  10  24  44  62  85 118 155 203 254 297 348
#
# _framework density 20.070605
#
# number of rings (size 3 to 8) (size 9 to 14) (size 15 to 20)
#    0.000    1.500    2.500    2.625    0.000    4.500 
#    0.000    3.125    0.000    0.000    0.000    0.000 
#    0.000    0.000    0.000    0.000    0.000    0.000 
#
# Total GULP energy -396970.697294 kJ/mol
# GULP energy per Si atom -12405.334290 kJ/mol
# Density = 2.002492 g / cm^3
# Si number density = 20.070605 Si / 1000 Ang^3
#
#
#
# Elastic Constant Matrix: (Units=GPa)
#
#
# Indices 1 2 3 4 5 6 
#
# 1 73.9100 41.9692 30.8596 0.0000 0.0000 0.0000
# 2 41.9692 155.5450 27.5056 0.0000 0.0000 0.0000
# 3 30.8596 27.5056 74.3931 0.0000 0.0000 0.0000
# 4 0.0000 0.0000 0.0000 20.0929 0.0000 0.0000
# 5 0.0000 0.0000 0.0000 0.0000 25.7727 0.0000
# 6 0.0000 0.0000 0.0000 0.0000 0.0000 35.7852
#
#
#
# Elastic Compliance Matrix: (Units=1/GPa)
#
#
# Indices 1 2 3 4 5 6 
#
# 1 0.018287 -0.003844 -0.006164 0.000000 0.000000 0.000000
# 2 -0.003844 0.007687 -0.001247 0.000000 0.000000 0.000000
# 3 -0.006164 -0.001247 0.016460 0.000000 0.000000 0.000000
# 4 0.000000 0.000000 0.000000 0.049769 0.000000 0.000000
# 5 0.000000 0.000000 0.000000 0.000000 0.038801 0.000000
# 6 0.000000 0.000000 0.000000 0.000000 0.000000 0.027945
#
#
# Mechanical properties :
#
#
# Convention : Reuss Voigt Hill
#
# Bulk Modulus (GPa) = 50.19556 56.05744 53.12650
# Shear Modulus (GPa) = 26.58158 29.89775 28.23967
#
# Velocity S-wave (km/s) = 3.64318 3.86376 3.75509
# Velocity P-wave (km/s) = 6.53918 6.92066 6.73262
#
# Compressibility (1/GPa) = 0.01992208
#
# Stress axis : x y z
#
# Youngs Moduli (GPa) = 54.68500 130.09311 60.75176
#
# Poissons Ratio (x) = 0.50008 0.37449
# Poissons Ratio (y) = 0.21021 0.07579
# Poissons Ratio (z) = 0.33710 0.16229
#
# Static dielectric constant tensor:
#      x y z
#    x 3.546220 0.000000 0.000000 
#    y 0.000000 3.765820 0.000000 
#    z 0.000000 0.000000 3.637260 
# 
# 
# High freq. dielectric constant tensor:
#      x y z
#    x 1.776840 0.000000 0.000000 
#    y 0.000000 1.800800 0.000000 
#    z 0.000000 0.000000 1.778000 
# 
# From -- ./inp_files/5021.got.cif
#   From: 2010.03.12/outbox.cif.g09.slc.cpg/sg28_3_cif.got.tgz:5021.got - 2010.04.14 03:39:34.
