data_PCOD8168685
_publ_section_title
;
Structure prediction by ZEFSAII (Michael W. Deem and Ramdas Pophale) SiO2 
 PCOD8168685
Probable space group: P C A 21
;
_chemical_formula_sum "Si O2"
_cell_formula_units_Z 24
_cell_length_a 8.205217
_cell_length_b 9.234843
_cell_length_c 16.062694
_cell_angle_alpha 90.000000
_cell_angle_beta 90.000000
_cell_angle_gamma 90.000000
_cell_volume 1217.132821
_symmetry_space_group_name_H-M "P C A 21"
_symmetry_group_IT_number 29
_symmetry_cell_setting 'orthorhombic'
loop_
_space_group_symop_operation_xyz
x,y,z
-x,-y,1/2+z
1/2-x,y,1/2+z
1/2+x,-y,z
loop_
_atom_site_type_symbol
_atom_site_label
_atom_site_fract_x
_atom_site_fract_y
_atom_site_fract_z
Si Si1 0.864671 0.375214 0.511860
Si Si2 0.567835 0.822063 0.936453
Si Si3 0.040556 0.671291 0.775144
Si Si4 0.532887 0.351124 0.585972
Si Si5 0.943934 0.860882 0.913398
Si Si6 0.652851 0.413278 0.354367
O O1 0.727723 0.328646 0.578768
O O2 0.986996 0.489143 0.553374
O O3 0.769166 0.445659 0.433519
O O4 0.967489 0.235524 0.483895
O O5 0.752593 0.834547 0.909546
O O6 0.476424 0.711976 0.874601
O O7 0.474701 0.973111 0.932872
O O8 0.560633 0.768129 0.031678
O O9 0.232922 0.633665 0.777068
O O10 0.977661 0.672321 0.680937
O O11 0.013472 0.824786 0.821079
O O12 0.940210 0.558487 0.831518
#
# Coordination Sequence:
#
# PCOD8168685 Si02
#       6
#     4   4   4   4   4   4
#     4  10  20  36  59  83 115 152 188 225 276 339
#     4  11  22  40  61  81 111 153 192 227 278 344
#     4  11  21  36  58  88 116 145 187 238 280 323
#     4  11  21  36  58  88 116 145 187 238 280 323
#     4  11  22  40  61  81 111 153 192 227 278 344
#     4  10  20  36  59  83 115 152 188 225 276 339
#
# _framework density 19.718471000000001
#
# number of rings (size 3 to 8) (size 9 to 14) (size 15 to 20)
#    0.000    1.333    0.000   11.000    0.000    0.000 
#    0.000   10.000    0.000    0.000    0.000    0.000 
#    0.000    0.000    0.000    0.000    0.000    0.000 
#
# Total GULP energy -297627.868564 kJ/mol
# GULP energy per Si atom -12401.161190 kJ/mol
# Density = 1.967359 g / cm^3
# Si number density = 19.718471 Si / 1000 Ang^3
#
#
#
# Elastic Constant Matrix: (Units=GPa)
#
#
# Indices 1 2 3 4 5 6 
#
# 1 87.3795 -8.2817 3.1838 0.0000 0.0000 0.0000
# 2 -8.2817 65.4540 28.6855 0.0000 0.0000 0.0000
# 3 3.1838 28.6855 92.0395 0.0000 0.0000 0.0000
# 4 0.0000 0.0000 0.0000 12.2825 0.0000 0.0000
# 5 0.0000 0.0000 0.0000 0.0000 22.6618 0.0000
# 6 0.0000 0.0000 0.0000 0.0000 0.0000 35.1163
#
#
#
# Elastic Compliance Matrix: (Units=1/GPa)
#
#
# Indices 1 2 3 4 5 6 
#
# 1 0.011662 0.001914 -0.001000 0.000000 0.000000 0.000000
# 2 0.001914 0.018009 -0.005679 0.000000 0.000000 0.000000
# 3 -0.001000 -0.005679 0.012669 0.000000 0.000000 0.000000
# 4 0.000000 0.000000 0.000000 0.081416 0.000000 0.000000
# 5 0.000000 0.000000 0.000000 0.000000 0.044127 0.000000
# 6 0.000000 0.000000 0.000000 0.000000 0.000000 0.028477
#
#
# Mechanical properties :
#
#
# Convention : Reuss Voigt Hill
#
# Bulk Modulus (GPa) = 30.47819 32.44980 31.46399
# Shear Modulus (GPa) = 23.05981 28.76450 25.91216
#
# Velocity S-wave (km/s) = 3.42344 3.82351 3.62899
# Velocity P-wave (km/s) = 5.57824 5.99872 5.79230
#
# Compressibility (1/GPa) = 0.03281035
#
# Stress axis : x y z
#
# Youngs Moduli (GPa) = 85.74750 55.52827 78.93025
#
# Poissons Ratio (x) = -0.10627 0.07892
# Poissons Ratio (y) = -0.16410 0.44824
# Poissons Ratio (z) = 0.08574 0.31534
#
# Static dielectric constant tensor:
#      x y z
#    x 3.921900 0.000000 0.000000 
#    y 0.000000 3.562660 0.000000 
#    z 0.000000 0.000000 3.496790 
# 
# 
# High freq. dielectric constant tensor:
#      x y z
#    x 1.791440 0.000000 0.000000 
#    y 0.000000 1.760290 0.000000 
#    z 0.000000 0.000000 1.750880 
# 
# From -- ./inp_files/4194.got.cif
#   From: 2010.03.12/outbox.cif.g09.slc.cpg/sg29_3_cif.got.tgz:4194.got - 2010.04.14 03:43:10.
