data_PCOD8168000
_publ_section_title
;
Structure prediction by ZEFSAII (Michael W. Deem and Ramdas Pophale) SiO2 
 PCOD8168000
Probable space group: P M A 2
;
_chemical_formula_sum "Si O2"
_cell_formula_units_Z 32
_cell_length_a 8.968437
_cell_length_b 19.328460
_cell_length_c 10.349652
_cell_angle_alpha 90.000000
_cell_angle_beta 90.000000
_cell_angle_gamma 90.000000
_cell_volume 1794.071560
_symmetry_space_group_name_H-M "P M A 2"
_symmetry_group_IT_number 28
_symmetry_cell_setting 'orthorhombic'
loop_
_space_group_symop_operation_xyz
x,y,z
-x,-y,z
1/2-x,y,z
1/2+x,-y,z
loop_
_atom_site_type_symbol
_atom_site_label
_atom_site_fract_x
_atom_site_fract_y
_atom_site_fract_z
Si Si1 0.925708 0.927656 0.289730
Si Si2 0.424726 0.071037 0.587977
Si Si3 0.927409 0.200713 0.692377
Si Si4 0.427800 0.791711 0.199073
Si Si5 0.425329 0.569826 0.849027
Si Si6 0.573151 0.288065 0.450124
Si Si7 0.573115 0.283712 0.940710
Si Si8 0.425019 0.568847 0.550948
O O1 0.750000 0.932411 0.264608
O O2 0.963008 0.911234 0.439092
O O3 0.996474 0.866933 0.203225
O O4 0.000000 0.000000 0.247699
O O5 0.250000 0.065514 0.610730
O O6 0.494580 0.126768 0.684285
O O7 0.500000 0.000000 0.629006
O O8 0.750000 0.191489 0.690966
O O9 0.986252 0.244645 0.571113
O O10 0.985199 0.238055 0.821429
O O11 0.250000 0.801404 0.201509
O O12 0.486530 0.745384 0.318256
O O13 0.483839 0.751419 0.072085
O O14 0.500000 0.500000 0.904540
O O15 0.250000 0.561080 0.864712
O O16 0.484389 0.636943 0.928124
O O17 0.470333 0.581352 0.699796
O O18 0.750000 0.287727 0.452180
O O19 0.516013 0.366840 0.465441
O O20 0.750000 0.285500 0.936149
O O21 0.500000 0.500000 0.494770
O O22 0.250000 0.560047 0.537859
#
# Coordination Sequence:
#
# PCOD8168000 Si02
#       8
#     4   4   4   4   4   4   4   4
#     4  10  20  34  53  77 104 133 166 207 251 298
#     4  10  20  33  51  78 106 132 165 208 253 299
#     4  10  17  31  53  75  99 130 165 206 252 296
#     4  10  19  33  53  77 101 132 172 209 249 300
#     4   9  16  29  48  70  96 128 167 207 248 297
#     4   9  16  28  50  73  96 127 165 204 247 298
#     4   9  18  32  52  76 103 134 170 209 250 301
#     4   9  16  28  46  70  97 128 166 208 252 297
#
# _framework density 17.836525000000002
#
# number of rings (size 3 to 8) (size 9 to 14) (size 15 to 20)
#    0.000    2.500    2.500    0.750    0.000    1.000 
#    0.000    4.375    0.000    0.000    0.000    0.000 
#    0.000    0.000    0.000    0.000    0.000    0.000 
#
# Total GULP energy -396766.267718 kJ/mol
# GULP energy per Si atom -12398.945866 kJ/mol
# Density = 1.779593 g / cm^3
# Si number density = 17.836525 Si / 1000 Ang^3
#
#
#
# Elastic Constant Matrix: (Units=GPa)
#
#
# Indices 1 2 3 4 5 6 
#
# 1 38.7381 44.7643 25.4490 0.0000 0.0000 0.0000
# 2 44.7643 189.6941 79.6233 0.0000 0.0000 0.0000
# 3 25.4490 79.6233 111.6109 0.0000 0.0000 0.0000
# 4 0.0000 0.0000 0.0000 30.2996 0.0000 0.0000
# 5 0.0000 0.0000 0.0000 0.0000 41.7297 0.0000
# 6 0.0000 0.0000 0.0000 0.0000 0.0000 33.0691
#
#
#
# Elastic Compliance Matrix: (Units=1/GPa)
#
#
# Indices 1 2 3 4 5 6 
#
# 1 0.036222 -0.007253 -0.003085 0.000000 0.000000 0.000000
# 2 -0.007253 0.008977 -0.004751 0.000000 0.000000 0.000000
# 3 -0.003085 -0.004751 0.013052 0.000000 0.000000 0.000000
# 4 0.000000 0.000000 0.000000 0.033004 0.000000 0.000000
# 5 0.000000 0.000000 0.000000 0.000000 0.023964 0.000000
# 6 0.000000 0.000000 0.000000 0.000000 0.000000 0.030240
#
#
# Mechanical properties :
#
#
# Convention : Reuss Voigt Hill
#
# Bulk Modulus (GPa) = 35.61926 71.07957 53.34942
# Shear Modulus (GPa) = 27.02790 33.70012 30.36401
#
# Velocity S-wave (km/s) = 3.89692 4.35143 4.13043
# Velocity P-wave (km/s) = 6.34517 8.07364 7.26102
#
# Compressibility (1/GPa) = 0.02807470
#
# Stress axis : x y z
#
# Youngs Moduli (GPa) = 27.60736 111.39310 76.61537
#
# Poissons Ratio (x) = 0.80791 0.23636
# Poissons Ratio (y) = 0.20023 0.36397
# Poissons Ratio (z) = 0.08517 0.52918
#
# Static dielectric constant tensor:
#      x y z
#    x 2.941640 0.000000 0.000000 
#    y 0.000000 3.529120 0.000000 
#    z 0.000000 0.000000 3.242410 
# 
# 
# High freq. dielectric constant tensor:
#      x y z
#    x 1.661360 0.000000 0.000000 
#    y 0.000000 1.708490 0.000000 
#    z 0.000000 0.000000 1.662940 
# 
# From -- ./inp_files/5211.got.cif
#   From: 2010.03.12/outbox.cif.g09.slc.cpg/sg28_3_cif.got.tgz:5211.got - 2010.04.14 03:39:34.
