data_PCOD8168258
_publ_section_title
;
Structure prediction by ZEFSAII (Michael W. Deem and Ramdas Pophale) SiO2 
 PCOD8168258
Probable space group: P M A 2
;
_chemical_formula_sum "Si O2"
_cell_formula_units_Z 20
_cell_length_a 8.788150
_cell_length_b 14.385816
_cell_length_c 7.747183
_cell_angle_alpha 90.000000
_cell_angle_beta 90.000000
_cell_angle_gamma 90.000000
_cell_volume 979.435355
_symmetry_space_group_name_H-M "P M A 2"
_symmetry_group_IT_number 28
_symmetry_cell_setting 'orthorhombic'
loop_
_space_group_symop_operation_xyz
x,y,z
-x,-y,z
1/2-x,y,z
1/2+x,-y,z
loop_
_atom_site_type_symbol
_atom_site_label
_atom_site_fract_x
_atom_site_fract_y
_atom_site_fract_z
Si Si1 0.070024 0.899984 0.416790
Si Si2 0.071903 0.405979 0.604638
Si Si3 0.430591 0.207546 0.734858
Si Si4 0.070489 0.779376 0.086285
Si Si5 0.929968 0.594999 0.208857
O O1 0.250000 0.907030 0.438193
O O2 0.022615 0.837903 0.253333
O O3 0.999633 0.856870 0.588027
O O4 0.000000 0.000000 0.383512
O O5 0.250000 0.418819 0.617180
O O6 0.017934 0.314747 0.707232
O O7 0.019701 0.392386 0.407182
O O8 0.000000 0.500000 0.683808
O O9 0.250000 0.196978 0.730786
O O10 0.497316 0.172805 0.917229
O O11 0.250000 0.773877 0.064435
O O12 0.000982 0.677093 0.098151
O O13 0.750000 0.595003 0.184043
O O14 0.000000 0.500000 0.134952
#
# Coordination Sequence:
#
# PCOD8168258 Si02
#       5
#     4   4   4   4   4
#     4  11  25  45  69  93 122 159 204 258 317 376
#     4   9  19  34  57  88 122 163 207 251 302 359
#     4  11  23  41  65  94 128 166 208 257 311 368
#     4  11  24  41  63  94 128 166 210 256 309 371
#     4  10  19  35  59  89 125 166 212 256 307 366
#
# _framework density 20.419929
#
# number of rings (size 3 to 8) (size 9 to 14) (size 15 to 20)
#    0.000    1.600    2.000    2.400    0.000    6.400 
#    0.000    4.000    0.000    0.000    0.000    0.000 
#    0.000    0.000    0.000    0.000    0.000    0.000 
#
# Total GULP energy -248086.439769 kJ/mol
# GULP energy per Si atom -12404.321988 kJ/mol
# Density = 2.037345 g / cm^3
# Si number density = 20.419929 Si / 1000 Ang^3
#
#
#
# Elastic Constant Matrix: (Units=GPa)
#
#
# Indices 1 2 3 4 5 6 
#
# 1 80.9336 48.4056 47.7909 0.0000 0.0000 0.0000
# 2 48.4056 119.4079 51.0309 0.0000 0.0000 0.0000
# 3 47.7909 51.0309 129.6386 0.0000 0.0000 0.0000
# 4 0.0000 0.0000 0.0000 7.6893 0.0000 0.0000
# 5 0.0000 0.0000 0.0000 0.0000 30.5445 0.0000
# 6 0.0000 0.0000 0.0000 0.0000 0.0000 37.6858
#
#
#
# Elastic Compliance Matrix: (Units=1/GPa)
#
#
# Indices 1 2 3 4 5 6 
#
# 1 0.018349 -0.005467 -0.004612 0.000000 0.000000 0.000000
# 2 -0.005467 0.011697 -0.002589 0.000000 0.000000 0.000000
# 3 -0.004612 -0.002589 0.010433 0.000000 0.000000 0.000000
# 4 0.000000 0.000000 0.000000 0.130051 0.000000 0.000000
# 5 0.000000 0.000000 0.000000 0.000000 0.032739 0.000000
# 6 0.000000 0.000000 0.000000 0.000000 0.000000 0.026535
#
#
# Mechanical properties :
#
#
# Convention : Reuss Voigt Hill
#
# Bulk Modulus (GPa) = 66.03856 69.38164 67.71010
# Shear Modulus (GPa) = 19.21669 27.36744 23.29206
#
# Velocity S-wave (km/s) = 3.07102 3.66489 3.38102
# Velocity P-wave (km/s) = 6.70711 7.20831 6.96222
#
# Compressibility (1/GPa) = 0.01514267
#
# Stress axis : x y z
#
# Youngs Moduli (GPa) = 54.49805 85.48852 95.84767
#
# Poissons Ratio (x) = 0.46739 0.44208
# Poissons Ratio (y) = 0.29796 0.24816
# Poissons Ratio (z) = 0.25136 0.22134
#
# Static dielectric constant tensor:
#      x y z
#    x 3.712120 0.000000 0.000000 
#    y 0.000000 3.634380 0.000000 
#    z 0.000000 0.000000 3.773750 
# 
# 
# High freq. dielectric constant tensor:
#      x y z
#    x 1.804630 0.000000 0.000000 
#    y 0.000000 1.798550 0.000000 
#    z 0.000000 0.000000 1.803210 
# 
# From -- ./inp_files/2329.got.cif
#   From: 2010.03.12/outbox.cif.g09.slc.cpg/sg28_2_cif.got.tgz:2329.got - 2010.04.14 03:39:34.
