data_PCOD8168110
_publ_section_title
;
Structure prediction by ZEFSAII (Michael W. Deem and Ramdas Pophale) SiO2 
 PCOD8168110
Probable space group: P M A 2
;
_chemical_formula_sum "Si O2"
_cell_formula_units_Z 32
_cell_length_a 9.033585
_cell_length_b 14.723036
_cell_length_c 12.408073
_cell_angle_alpha 90.000000
_cell_angle_beta 90.000000
_cell_angle_gamma 90.000000
_cell_volume 1650.296008
_symmetry_space_group_name_H-M "P M A 2"
_symmetry_group_IT_number 28
_symmetry_cell_setting 'orthorhombic'
loop_
_space_group_symop_operation_xyz
x,y,z
-x,-y,z
1/2-x,y,z
1/2+x,-y,z
loop_
_atom_site_type_symbol
_atom_site_label
_atom_site_fract_x
_atom_site_fract_y
_atom_site_fract_z
Si Si1 0.084169 0.413545 0.675920
Si Si2 0.076451 0.909372 0.050301
Si Si3 0.421135 0.863111 0.807635
Si Si4 0.079181 0.273593 0.110875
Si Si5 0.073592 0.400460 0.305626
Si Si6 0.583467 0.692816 0.872769
Si Si7 0.075859 0.277505 0.502023
Si Si8 0.073659 0.089388 0.589394
O O1 0.250000 0.432006 0.639751
O O2 0.068168 0.400114 0.804738
O O3 0.026411 0.325070 0.613158
O O4 0.000000 0.500000 0.633550
O O5 0.250000 0.911916 0.074479
O O6 0.010920 0.820723 0.110368
O O7 0.042837 0.909361 0.922466
O O8 0.000000 0.000000 0.098329
O O9 0.250000 0.873289 0.775478
O O10 0.460902 0.758147 0.822904
O O11 0.520980 0.905143 0.713655
O O12 0.250000 0.248050 0.131218
O O13 0.023012 0.345282 0.199389
O O14 0.055394 0.326332 0.998044
O O15 0.250000 0.414054 0.310239
O O16 0.012574 0.336394 0.402567
O O17 0.000000 0.500000 0.309028
O O18 0.750000 0.733433 0.855611
O O19 0.250000 0.272083 0.487547
O O20 0.017444 0.174017 0.515431
O O21 0.250000 0.081800 0.589901
O O22 0.000000 0.000000 0.536928
#
# Coordination Sequence:
#
# PCOD8168110 Si02
#       8
#     4   4   4   4   4   4   4   4
#     4  10  19  32  50  75 104 141 177 215 269 326
#     4  10  20  33  52  80 114 150 186 225 269 322
#     4  10  19  31  50  79 111 146 186 224 265 317
#     4   9  19  35  56  80 108 144 184 226 272 326
#     4  10  21  39  62  85 107 140 185 231 280 329
#     4   9  17  32  51  73 108 149 181 215 270 325
#     4   9  19  37  57  76 107 145 180 222 274 325
#     4  11  21  35  54  78 109 147 184 224 271 326
#
# _framework density 19.390460000000001
#
# number of rings (size 3 to 8) (size 9 to 14) (size 15 to 20)
#    0.000    2.250    1.250    1.875    0.000    4.000 
#    0.000    1.875    0.000    1.500    0.000    0.000 
#    0.000    0.000    0.000    0.000    0.000    0.000 
#
# Total GULP energy -396577.406766 kJ/mol
# GULP energy per Si atom -12393.043961 kJ/mol
# Density = 1.934633 g / cm^3
# Si number density = 19.390460 Si / 1000 Ang^3
#
#
#
# Elastic Constant Matrix: (Units=GPa)
#
#
# Indices 1 2 3 4 5 6 
#
# 1 65.5623 56.7759 31.8018 0.0000 0.0000 0.0000
# 2 56.7759 166.2301 69.2806 0.0000 0.0000 0.0000
# 3 31.8018 69.2806 100.8387 0.0000 0.0000 0.0000
# 4 0.0000 0.0000 0.0000 40.7855 0.0000 0.0000
# 5 0.0000 0.0000 0.0000 0.0000 14.6034 0.0000
# 6 0.0000 0.0000 0.0000 0.0000 0.0000 35.1258
#
#
#
# Elastic Compliance Matrix: (Units=1/GPa)
#
#
# Indices 1 2 3 4 5 6 
#
# 1 0.022099 -0.006506 -0.002499 0.000000 0.000000 0.000000
# 2 -0.006506 0.010345 -0.005056 0.000000 0.000000 0.000000
# 3 -0.002499 -0.005056 0.014178 0.000000 0.000000 0.000000
# 4 0.000000 0.000000 0.000000 0.024519 0.000000 0.000000
# 5 0.000000 0.000000 0.000000 0.000000 0.068477 0.000000
# 6 0.000000 0.000000 0.000000 0.000000 0.000000 0.028469
#
#
# Mechanical properties :
#
#
# Convention : Reuss Voigt Hill
#
# Bulk Modulus (GPa) = 54.05326 72.03864 63.04595
# Shear Modulus (GPa) = 24.70632 29.75445 27.23039
#
# Velocity S-wave (km/s) = 3.57339 3.92151 3.75149
# Velocity P-wave (km/s) = 6.70539 7.59845 7.16585
#
# Compressibility (1/GPa) = 0.01850027
#
# Stress axis : x y z
#
# Youngs Moduli (GPa) = 45.24996 96.66458 70.52953
#
# Poissons Ratio (x) = 0.62894 0.17628
# Poissons Ratio (y) = 0.29441 0.35657
# Poissons Ratio (z) = 0.11310 0.48869
#
# Static dielectric constant tensor:
#      x y z
#    x 3.407890 0.000000 0.000000 
#    y 0.000000 3.588980 0.000000 
#    z 0.000000 0.000000 3.543850 
# 
# 
# High freq. dielectric constant tensor:
#      x y z
#    x 1.738480 0.000000 0.000000 
#    y 0.000000 1.756850 0.000000 
#    z 0.000000 0.000000 1.740070 
# 
# From -- ./inp_files/5055.got.cif
#   From: 2010.03.12/outbox.cif.g09.slc.cpg/sg28_3_cif.got.tgz:5055.got - 2010.04.14 03:39:34.
