data_PCOD8168747
_publ_section_title
;
Structure prediction by ZEFSAII (Michael W. Deem and Ramdas Pophale) SiO2 
 PCOD8168747
Probable space group: P C A 21
;
_chemical_formula_sum "Si O2"
_cell_formula_units_Z 28
_cell_length_a 13.923537
_cell_length_b 5.620856
_cell_length_c 17.479424
_cell_angle_alpha 90.000000
_cell_angle_beta 90.000000
_cell_angle_gamma 90.000000
_cell_volume 1367.978116
_symmetry_space_group_name_H-M "P C A 21"
_symmetry_group_IT_number 29
_symmetry_cell_setting 'orthorhombic'
loop_
_space_group_symop_operation_xyz
x,y,z
-x,-y,1/2+z
1/2-x,y,1/2+z
1/2+x,-y,z
loop_
_atom_site_type_symbol
_atom_site_label
_atom_site_fract_x
_atom_site_fract_y
_atom_site_fract_z
Si Si1 0.609608 0.780366 0.694960
Si Si2 0.107917 0.193673 0.515863
Si Si3 0.764674 0.541422 0.784462
Si Si4 0.133854 0.846418 0.815886
Si Si5 0.806469 0.782166 0.434731
Si Si6 0.515771 0.302698 0.458472
Si Si7 0.479331 0.515465 0.800347
O O1 0.599402 0.825402 0.606441
O O2 0.716706 0.694091 0.716945
O O3 0.529289 0.591396 0.721379
O O4 0.587120 0.007683 0.746538
O O5 0.220153 0.183741 0.494195
O O6 0.064179 0.449687 0.488905
O O7 0.059071 0.948466 0.487448
O O8 0.729639 0.269877 0.777803
O O9 0.725738 0.604517 0.868441
O O10 0.876787 0.587496 0.777001
O O11 0.048031 0.674136 0.841935
O O12 0.165572 0.973055 0.893436
O O13 0.901797 0.687524 0.478631
O O14 0.531201 0.283257 0.366198
#
# Coordination Sequence:
#
# PCOD8168747 Si02
#       7
#     4   4   4   4   4   4   4
#     4  10  25  43  62 100 137 179 228 293 344 419
#     4  12  29  45  69 104 148 182 228 299 359 401
#     4  10  21  39  70  94 128 179 232 282 343 415
#     4  10  20  41  68  95 136 173 240 285 337 419
#     4  11  23  41  69 102 134 180 235 286 346 413
#     4  12  25  44  72 102 137 186 236 286 347 421
#     4  11  21  41  74  97 132 183 241 281 342 418
#
# _framework density 20.468163000000001
#
# number of rings (size 3 to 8) (size 9 to 14) (size 15 to 20)
#    0.000    1.143    5.714    1.714    4.000    3.429 
#    2.571    0.000    0.000    0.000    0.000    0.000 
#    0.000    0.000    0.000    0.000    0.000    0.000 
#
# Total GULP energy -346899.062038 kJ/mol
# GULP energy per Si atom -12389.252216 kJ/mol
# Density = 2.042158 g / cm^3
# Si number density = 20.468163 Si / 1000 Ang^3
#
#
#
# Elastic Constant Matrix: (Units=GPa)
#
#
# Indices 1 2 3 4 5 6 
#
# 1 173.9775 51.5156 46.8335 0.0000 0.0000 0.0000
# 2 51.5156 111.5241 38.7329 0.0000 0.0000 0.0000
# 3 46.8335 38.7329 117.1122 0.0000 0.0000 0.0000
# 4 0.0000 0.0000 0.0000 12.0314 0.0000 0.0000
# 5 0.0000 0.0000 0.0000 0.0000 24.0059 0.0000
# 6 0.0000 0.0000 0.0000 0.0000 0.0000 7.5115
#
#
#
# Elastic Compliance Matrix: (Units=1/GPa)
#
#
# Indices 1 2 3 4 5 6 
#
# 1 0.007037 -0.002568 -0.001965 0.000000 0.000000 0.000000
# 2 -0.002568 0.011068 -0.002633 0.000000 0.000000 0.000000
# 3 -0.001965 -0.002633 0.010195 0.000000 0.000000 0.000000
# 4 0.000000 0.000000 0.000000 0.083116 0.000000 0.000000
# 5 0.000000 0.000000 0.000000 0.000000 0.041657 0.000000
# 6 0.000000 0.000000 0.000000 0.000000 0.000000 0.133129
#
#
# Mechanical properties :
#
#
# Convention : Reuss Voigt Hill
#
# Bulk Modulus (GPa) = 71.59501 75.19754 73.39628
# Shear Modulus (GPa) = 16.38321 26.41188 21.39755
#
# Velocity S-wave (km/s) = 2.83225 3.59609 3.23678
# Velocity P-wave (km/s) = 6.76389 7.35262 7.06439
#
# Compressibility (1/GPa) = 0.01396745
#
# Stress axis : x y z
#
# Youngs Moduli (GPa) = 142.10065 90.35384 98.08265
#
# Poissons Ratio (x) = 0.23206 0.19271
# Poissons Ratio (y) = 0.36496 0.25829
# Poissons Ratio (z) = 0.27920 0.23793
#
# Static dielectric constant tensor:
#      x y z
#    x 4.168710 0.000000 0.000000 
#    y 0.000000 3.960800 0.000000 
#    z 0.000000 0.000000 3.457140 
# 
# 
# High freq. dielectric constant tensor:
#      x y z
#    x 1.812880 0.000000 0.000000 
#    y 0.000000 1.810650 0.000000 
#    z 0.000000 0.000000 1.775370 
# 
# From -- ./inp_files/5182.got.cif
#   From: 2010.03.12/outbox.cif.g09.slc.cpg/sg29_3_cif.got.tgz:5182.got - 2010.04.14 03:43:10.
