data_PCOD8168598
_publ_section_title
;
Structure prediction by ZEFSAII (Michael W. Deem and Ramdas Pophale) SiO2 
 PCOD8168598
Probable space group: P C A 21
;
_chemical_formula_sum "Si O2"
_cell_formula_units_Z 32
_cell_length_a 19.018421
_cell_length_b 9.923246
_cell_length_c 8.919569
_cell_angle_alpha 90.000000
_cell_angle_beta 90.000000
_cell_angle_gamma 90.000000
_cell_volume 1683.340933
_symmetry_space_group_name_H-M "P C A 21"
_symmetry_group_IT_number 29
_symmetry_cell_setting 'orthorhombic'
loop_
_space_group_symop_operation_xyz
x,y,z
-x,-y,1/2+z
1/2-x,y,1/2+z
1/2+x,-y,z
loop_
_atom_site_type_symbol
_atom_site_label
_atom_site_fract_x
_atom_site_fract_y
_atom_site_fract_z
Si Si1 0.980667 0.584785 0.513030
Si Si2 0.312497 0.785586 0.209100
Si Si3 0.552466 0.642662 0.679439
Si Si4 0.831751 0.204605 0.561951
Si Si5 0.332092 0.487441 0.570976
Si Si6 0.968579 0.092959 0.706084
Si Si7 0.695785 0.524475 0.730144
Si Si8 0.949625 0.137877 0.053805
O O1 0.973644 0.579909 0.334974
O O2 0.903721 0.596269 0.589468
O O3 0.017826 0.443891 0.548094
O O4 0.025577 0.708809 0.571834
O O5 0.237698 0.841356 0.151692
O O6 0.320316 0.814193 0.385094
O O7 0.319580 0.626726 0.170134
O O8 0.370866 0.868788 0.117506
O O9 0.528215 0.796733 0.665510
O O10 0.637064 0.628419 0.668569
O O11 0.849826 0.357469 0.607747
O O12 0.897110 0.114915 0.614195
O O13 0.300121 0.475736 0.407097
O O14 0.272845 0.426412 0.679422
O O15 0.951847 0.089344 0.882403
O O16 0.999297 0.950327 0.656796
#
# Coordination Sequence:
#
# PCOD8168598 Si02
#       8
#     4   4   4   4   4   4   4   4
#     4  10  20  35  56  82 110 142 183 231 281 333
#     4  10  19  34  57  83 113 145 185 232 280 338
#     4  10  20  35  56  82 110 142 183 231 281 333
#     4  10  19  34  57  83 113 145 185 232 280 338
#     4   9  18  32  52  81 112 141 177 226 279 331
#     4  11  23  38  57  82 115 153 193 235 284 337
#     4   9  18  32  52  81 112 141 177 226 279 331
#     4  11  23  38  57  82 115 153 193 235 284 337
#
# _framework density 19.009815
#
# number of rings (size 3 to 8) (size 9 to 14) (size 15 to 20)
#    0.000    2.000    2.500    1.500    0.000    3.000 
#    0.000    1.250    0.000    3.000    0.000    0.000 
#    0.000    0.000    0.000    0.000    0.000    0.000 
#
# Total GULP energy -396859.569404 kJ/mol
# GULP energy per Si atom -12401.861544 kJ/mol
# Density = 1.896655 g / cm^3
# Si number density = 19.009815 Si / 1000 Ang^3
#
#
#
# Elastic Constant Matrix: (Units=GPa)
#
#
# Indices 1 2 3 4 5 6 
#
# 1 86.0770 5.7212 20.5941 0.0000 0.0000 0.0000
# 2 5.7212 22.6758 15.0045 0.0000 0.0000 0.0000
# 3 20.5941 15.0045 58.3109 0.0000 0.0000 0.0000
# 4 0.0000 0.0000 0.0000 20.9641 0.0000 0.0000
# 5 0.0000 0.0000 0.0000 0.0000 37.7662 0.0000
# 6 0.0000 0.0000 0.0000 0.0000 0.0000 28.1347
#
#
#
# Elastic Compliance Matrix: (Units=1/GPa)
#
#
# Indices 1 2 3 4 5 6 
#
# 1 0.012691 -0.000285 -0.004409 0.000000 0.000000 0.000000
# 2 -0.000285 0.053156 -0.013577 0.000000 0.000000 0.000000
# 3 -0.004409 -0.013577 0.022200 0.000000 0.000000 0.000000
# 4 0.000000 0.000000 0.000000 0.047701 0.000000 0.000000
# 5 0.000000 0.000000 0.000000 0.000000 0.026479 0.000000
# 6 0.000000 0.000000 0.000000 0.000000 0.000000 0.035543
#
#
# Mechanical properties :
#
#
# Convention : Reuss Voigt Hill
#
# Bulk Modulus (GPa) = 19.41554 27.74482 23.58018
# Shear Modulus (GPa) = 19.88224 25.75591 22.81908
#
# Velocity S-wave (km/s) = 3.23754 3.68486 3.46841
# Velocity P-wave (km/s) = 4.92048 5.72109 5.33582
#
# Compressibility (1/GPa) = 0.05150513
#
# Stress axis : x y z
#
# Youngs Moduli (GPa) = 78.79413 18.81265 45.04434
#
# Poissons Ratio (x) = 0.00535 0.19860
# Poissons Ratio (y) = 0.02243 0.61159
# Poissons Ratio (z) = 0.34741 0.25543
#
# Static dielectric constant tensor:
#      x y z
#    x 3.644460 0.000000 0.000000 
#    y 0.000000 3.178120 0.000000 
#    z 0.000000 0.000000 3.461880 
# 
# 
# High freq. dielectric constant tensor:
#      x y z
#    x 1.753940 0.000000 0.000000 
#    y 0.000000 1.701130 0.000000 
#    z 0.000000 0.000000 1.744210 
# 
# From -- ./inp_files/2188.got.cif
#   From: 2010.03.12/outbox.cif.g09.slc.cpg/sg29_2_cif.got.tgz:2188.got - 2010.04.14 03:43:10.
