data_PCOD8168856
_publ_section_title
;
Structure prediction by ZEFSAII (Michael W. Deem and Ramdas Pophale) SiO2 
 PCOD8168856
Probable space group: P C A 21
;
_chemical_formula_sum "Si O2"
_cell_formula_units_Z 28
_cell_length_a 13.682676
_cell_length_b 8.366033
_cell_length_c 10.370824
_cell_angle_alpha 90.000000
_cell_angle_beta 90.000000
_cell_angle_gamma 90.000000
_cell_volume 1187.145309
_symmetry_space_group_name_H-M "P C A 21"
_symmetry_group_IT_number 29
_symmetry_cell_setting 'orthorhombic'
loop_
_space_group_symop_operation_xyz
x,y,z
-x,-y,1/2+z
1/2-x,y,1/2+z
1/2+x,-y,z
loop_
_atom_site_type_symbol
_atom_site_label
_atom_site_fract_x
_atom_site_fract_y
_atom_site_fract_z
Si Si1 0.090581 0.680124 0.754340
Si Si2 0.144965 0.926315 0.575177
Si Si3 0.486572 0.659143 0.751008
Si Si4 0.810690 0.809409 0.262372
Si Si5 0.287401 0.351074 0.000144
Si Si6 0.984917 0.785792 0.991913
Si Si7 0.716074 0.317279 0.392324
O O1 0.078139 0.777638 0.622258
O O2 0.031078 0.518219 0.742202
O O3 0.207608 0.667248 0.775268
O O4 0.052778 0.793113 0.868810
O O5 0.222675 0.849573 0.473278
O O6 0.197959 0.011807 0.699373
O O7 0.071364 0.047034 0.506164
O O8 0.575950 0.773158 0.794307
O O9 0.449956 0.729852 0.613830
O O10 0.395212 0.665203 0.845107
O O11 0.754951 0.779633 0.396932
O O12 0.765154 0.696653 0.148687
O O13 0.403359 0.351815 0.977593
O O14 0.251959 0.531633 0.981409
#
# Coordination Sequence:
#
# PCOD8168856 Si02
#       7
#     4   4   4   4   4   4   4
#     4  12  25  44  72 103 137 183 237 287 356 419
#     4  10  26  44  66 101 144 179 240 284 357 427
#     4  10  23  46  69  97 140 181 232 291 354 416
#     4  10  23  46  69 102 145 183 235 294 364 430
#     4  10  21  44  71 100 140 184 236 292 356 421
#     4  10  25  47  67  98 144 181 231 289 363 427
#     4  12  25  43  74 103 138 183 243 297 342 430
#
# _framework density 23.585991
#
# number of rings (size 3 to 8) (size 9 to 14) (size 15 to 20)
#    0.000    1.714    2.857    1.714   10.000    0.000 
#    5.143    0.000    0.000    0.000    0.000    0.000 
#    0.000    0.000    0.000    0.000    0.000    0.000 
#
# Total GULP energy -346886.022936 kJ/mol
# GULP energy per Si atom -12388.786533 kJ/mol
# Density = 2.353231 g / cm^3
# Si number density = 23.585991 Si / 1000 Ang^3
#
#
#
# Elastic Constant Matrix: (Units=GPa)
#
#
# Indices 1 2 3 4 5 6 
#
# 1 46.4617 7.0555 13.1559 0.0000 0.0000 0.0000
# 2 7.0555 115.5750 -1.7859 0.0000 0.0000 0.0000
# 3 13.1559 -1.7859 59.6378 0.0000 0.0000 0.0000
# 4 0.0000 0.0000 0.0000 37.0323 0.0000 0.0000
# 5 0.0000 0.0000 0.0000 0.0000 21.6598 0.0000
# 6 0.0000 0.0000 0.0000 0.0000 0.0000 20.7296
#
#
#
# Elastic Compliance Matrix: (Units=1/GPa)
#
#
# Indices 1 2 3 4 5 6 
#
# 1 0.023213 -0.001497 -0.005166 0.000000 0.000000 0.000000
# 2 -0.001497 0.008753 0.000592 0.000000 0.000000 0.000000
# 3 -0.005166 0.000592 0.017925 0.000000 0.000000 0.000000
# 4 0.000000 0.000000 0.000000 0.027003 0.000000 0.000000
# 5 0.000000 0.000000 0.000000 0.000000 0.046169 0.000000
# 6 0.000000 0.000000 0.000000 0.000000 0.000000 0.048240
#
#
# Mechanical properties :
#
#
# Convention : Reuss Voigt Hill
#
# Bulk Modulus (GPa) = 26.48947 28.72506 27.60726
# Shear Modulus (GPa) = 25.50666 29.43427 27.47047
#
# Velocity S-wave (km/s) = 3.29208 3.53647 3.41646
# Velocity P-wave (km/s) = 5.07009 5.37409 5.22430
#
# Compressibility (1/GPa) = 0.03775085
#
# Stress axis : x y z
#
# Youngs Moduli (GPa) = 43.07910 114.24752 55.78756
#
# Poissons Ratio (x) = 0.17102 0.28818
# Poissons Ratio (y) = 0.06449 -0.03304
# Poissons Ratio (z) = 0.22253 -0.06767
#
# Static dielectric constant tensor:
#      x y z
#    x 4.014440 0.000000 0.000000 
#    y 0.000000 4.377260 0.000000 
#    z 0.000000 0.000000 4.381950 
# 
# 
# High freq. dielectric constant tensor:
#      x y z
#    x 1.907360 0.000000 0.000000 
#    y 0.000000 1.946260 0.000000 
#    z 0.000000 0.000000 1.938970 
# 
# From -- ./inp_files/3438.got.cif
#   From: 2010.03.12/outbox.cif.g09.slc.cpg/sg29_2_cif.got.tgz:3438.got - 2010.04.14 03:43:10.
