data_PCOD8168057
_publ_section_title
;
Structure prediction by ZEFSAII (Michael W. Deem and Ramdas Pophale) SiO2 
 PCOD8168057
Probable space group: P M A 2
;
_chemical_formula_sum "Si O2"
_cell_formula_units_Z 32
_cell_length_a 8.795782
_cell_length_b 14.516844
_cell_length_c 12.218890
_cell_angle_alpha 90.000000
_cell_angle_beta 90.000000
_cell_angle_gamma 90.000000
_cell_volume 1560.193348
_symmetry_space_group_name_H-M "P M A 2"
_symmetry_group_IT_number 28
_symmetry_cell_setting 'orthorhombic'
loop_
_space_group_symop_operation_xyz
x,y,z
-x,-y,z
1/2-x,y,z
1/2+x,-y,z
loop_
_atom_site_type_symbol
_atom_site_label
_atom_site_fract_x
_atom_site_fract_y
_atom_site_fract_z
Si Si1 0.427124 0.207511 0.269740
Si Si2 0.422200 0.632075 0.978774
Si Si3 0.426780 0.214085 0.662394
Si Si4 0.427617 0.409038 0.748071
Si Si5 0.428921 0.409065 0.203280
Si Si6 0.081695 0.834860 0.055966
Si Si7 0.429073 0.898824 0.468268
Si Si8 0.926919 0.092207 0.831729
O O1 0.250000 0.199422 0.297807
O O2 0.481033 0.314683 0.264333
O O3 0.457737 0.160203 0.151977
O O4 0.522209 0.152319 0.358087
O O5 0.250000 0.594459 0.984661
O O6 0.517107 0.589613 0.078234
O O7 0.425427 0.741442 0.987143
O O8 0.495716 0.602569 0.865635
O O9 0.250000 0.193082 0.642916
O O10 0.458688 0.323620 0.666210
O O11 0.522554 0.165910 0.567881
O O12 0.480986 0.176354 0.779311
O O13 0.500000 0.500000 0.691949
O O14 0.250000 0.422148 0.767026
O O15 0.500000 0.500000 0.262026
O O16 0.250000 0.416288 0.207699
O O17 0.250000 0.847615 0.107943
O O18 0.048909 0.910792 0.963121
O O19 0.250000 0.911284 0.469146
O O20 0.500000 0.000000 0.477031
O O21 0.750000 0.098714 0.799654
O O22 0.000000 0.000000 0.781762
#
# Coordination Sequence:
#
# PCOD8168057 Si02
#       8
#     4   4   4   4   4   4   4   4
#     4  10  22  40  63  91 124 159 203 256 307 360
#     4  10  18  32  54  81 119 164 209 252 295 354
#     4  11  24  43  65  90 122 158 202 255 306 360
#     4  11  23  37  58  87 122 162 204 250 301 360
#     4  10  20  34  55  86 124 166 208 251 299 356
#     4   9  19  35  56  84 122 165 203 247 302 361
#     4  12  26  46  72  95 119 154 201 254 309 368
#     4  11  22  37  58  88 123 161 202 246 303 367
#
# _framework density 20.510279000000001
#
# number of rings (size 3 to 8) (size 9 to 14) (size 15 to 20)
#    0.000    1.500    1.250    4.125    0.000    5.000 
#    0.000    1.875    0.000    0.000    0.000    0.000 
#    0.000    0.000    0.000    0.000    0.000    0.000 
#
# Total GULP energy -396787.385389 kJ/mol
# GULP energy per Si atom -12399.605793 kJ/mol
# Density = 2.046360 g / cm^3
# Si number density = 20.510279 Si / 1000 Ang^3
#
#
#
# Elastic Constant Matrix: (Units=GPa)
#
#
# Indices 1 2 3 4 5 6 
#
# 1 113.9646 58.8275 43.8582 0.0000 0.0000 0.0000
# 2 58.8275 121.5134 48.3655 0.0000 0.0000 0.0000
# 3 43.8582 48.3655 84.4619 0.0000 0.0000 0.0000
# 4 0.0000 0.0000 0.0000 22.5778 0.0000 0.0000
# 5 0.0000 0.0000 0.0000 0.0000 32.0139 0.0000
# 6 0.0000 0.0000 0.0000 0.0000 0.0000 34.9716
#
#
#
# Elastic Compliance Matrix: (Units=1/GPa)
#
#
# Indices 1 2 3 4 5 6 
#
# 1 0.012646 -0.004544 -0.003964 0.000000 0.000000 0.000000
# 2 -0.004544 0.012292 -0.004679 0.000000 0.000000 0.000000
# 3 -0.003964 -0.004679 0.016578 0.000000 0.000000 0.000000
# 4 0.000000 0.000000 0.000000 0.044291 0.000000 0.000000
# 5 0.000000 0.000000 0.000000 0.000000 0.031236 0.000000
# 6 0.000000 0.000000 0.000000 0.000000 0.000000 0.028595
#
#
# Mechanical properties :
#
#
# Convention : Reuss Voigt Hill
#
# Bulk Modulus (GPa) = 66.05014 69.11583 67.58298
# Shear Modulus (GPa) = 28.23897 29.17190 28.70544
#
# Velocity S-wave (km/s) = 3.71458 3.77544 3.74513
# Velocity P-wave (km/s) = 7.11834 7.26475 7.19192
#
# Compressibility (1/GPa) = 0.01514001
#
# Stress axis : x y z
#
# Youngs Moduli (GPa) = 79.07596 81.35418 60.32226
#
# Poissons Ratio (x) = 0.36970 0.23915
# Poissons Ratio (y) = 0.35935 0.28225
# Poissons Ratio (z) = 0.31349 0.38066
#
# Static dielectric constant tensor:
#      x y z
#    x 3.792430 0.000000 0.000000 
#    y 0.000000 4.117660 0.000000 
#    z 0.000000 0.000000 3.458170 
# 
# 
# High freq. dielectric constant tensor:
#      x y z
#    x 1.812780 0.000000 0.000000 
#    y 0.000000 1.816660 0.000000 
#    z 0.000000 0.000000 1.776900 
# 
# From -- ./inp_files/5011.got.cif
#   From: 2010.03.12/outbox.cif.g09.slc.cpg/sg28_3_cif.got.tgz:5011.got - 2010.04.14 03:39:34.
