data_PCOD8168288
_publ_section_title
;
Structure prediction by ZEFSAII (Michael W. Deem and Ramdas Pophale) SiO2 
 PCOD8168288
Probable space group: P M A 2
;
_chemical_formula_sum "Si O2"
_cell_formula_units_Z 28
_cell_length_a 8.597005
_cell_length_b 9.349217
_cell_length_c 18.130604
_cell_angle_alpha 90.000000
_cell_angle_beta 90.000000
_cell_angle_gamma 90.000000
_cell_volume 1457.252106
_symmetry_space_group_name_H-M "P M A 2"
_symmetry_group_IT_number 28
_symmetry_cell_setting 'orthorhombic'
loop_
_space_group_symop_operation_xyz
x,y,z
-x,-y,z
1/2-x,y,z
1/2+x,-y,z
loop_
_atom_site_type_symbol
_atom_site_label
_atom_site_fract_x
_atom_site_fract_y
_atom_site_fract_z
Si Si1 0.067302 0.843607 0.274010
Si Si2 0.065404 0.347809 0.830005
Si Si3 0.564968 0.341573 0.410786
Si Si4 0.432730 0.842528 0.112544
Si Si5 0.934636 0.841919 0.543934
Si Si6 0.432573 0.157232 0.966351
Si Si7 0.934612 0.343639 0.672693
O O1 0.250000 0.862729 0.279080
O O2 0.007574 0.732951 0.335209
O O3 0.020867 0.779245 0.193070
O O4 0.000000 0.000000 0.289108
O O5 0.250000 0.354755 0.818442
O O6 0.012811 0.241767 0.894375
O O7 0.000000 0.500000 0.854096
O O8 0.985295 0.297309 0.754484
O O9 0.500000 0.500000 0.411555
O O10 0.750000 0.343494 0.418315
O O11 0.492706 0.255982 0.477903
O O12 0.250000 0.845667 0.101808
O O13 0.500000 0.000000 0.110611
O O14 0.506373 0.762619 0.041309
O O15 0.750000 0.847188 0.544910
O O16 0.996494 0.776456 0.619761
O O17 0.000000 0.000000 0.533057
O O18 0.250000 0.149391 0.971207
O O19 0.500000 0.000000 0.959065
O O20 0.750000 0.347979 0.665793
O O21 0.000000 0.500000 0.651815
#
# Coordination Sequence:
#
# PCOD8168288 Si02
#       7
#     4   4   4   4   4   4   4
#     4   9  19  34  55  81 109 141 181 228 276 327
#     4  10  21  37  56  80 110 145 186 228 273 327
#     4  11  23  40  59  83 114 149 188 228 275 329
#     4   9  16  29  50  76 106 141 180 224 274 326
#     4  12  25  42  62  87 116 146 183 227 275 326
#     4  10  20  33  52  79 109 142 182 227 274 326
#     4  11  22  39  62  86 113 148 186 226 275 329
#
# _framework density 19.214245999999999
#
# number of rings (size 3 to 8) (size 9 to 14) (size 15 to 20)
#    0.000    1.714    0.000    6.857    0.000    5.714 
#    0.000    2.143    0.000    3.429    0.000    0.000 
#    0.000    0.000    0.000    0.000    0.000    0.000 
#
# Total GULP energy -347129.893812 kJ/mol
# GULP energy per Si atom -12397.496208 kJ/mol
# Density = 1.917051 g / cm^3
# Si number density = 19.214246 Si / 1000 Ang^3
#
#
#
# Elastic Constant Matrix: (Units=GPa)
#
#
# Indices 1 2 3 4 5 6 
#
# 1 107.7853 46.0698 62.3652 0.0000 0.0000 0.0000
# 2 46.0698 114.4153 91.9029 0.0000 0.0000 0.0000
# 3 62.3652 91.9029 169.7767 0.0000 0.0000 0.0000
# 4 0.0000 0.0000 0.0000 54.1078 0.0000 0.0000
# 5 0.0000 0.0000 0.0000 0.0000 38.7596 0.0000
# 6 0.0000 0.0000 0.0000 0.0000 0.0000 26.9546
#
#
#
# Elastic Compliance Matrix: (Units=1/GPa)
#
#
# Indices 1 2 3 4 5 6 
#
# 1 0.012116 -0.002307 -0.003202 0.000000 0.000000 0.000000
# 2 -0.002307 0.015903 -0.007761 0.000000 0.000000 0.000000
# 3 -0.003202 -0.007761 0.011268 0.000000 0.000000 0.000000
# 4 0.000000 0.000000 0.000000 0.018482 0.000000 0.000000
# 5 0.000000 0.000000 0.000000 0.000000 0.025800 0.000000
# 6 0.000000 0.000000 0.000000 0.000000 0.000000 0.037099
#
#
# Mechanical properties :
#
#
# Convention : Reuss Voigt Hill
#
# Bulk Modulus (GPa) = 78.44998 88.07256 83.26127
# Shear Modulus (GPa) = 33.01262 36.74037 34.87650
#
# Velocity S-wave (km/s) = 4.14953 4.37755 4.26506
# Velocity P-wave (km/s) = 7.99224 8.45501 8.22688
#
# Compressibility (1/GPa) = 0.01274698
#
# Stress axis : x y z
#
# Youngs Moduli (GPa) = 82.53278 62.88123 88.74953
#
# Poissons Ratio (x) = 0.14504 0.28419
# Poissons Ratio (y) = 0.19037 0.68881
# Poissons Ratio (z) = 0.26429 0.48804
#
# Static dielectric constant tensor:
#      x y z
#    x 3.842020 0.000000 0.000000 
#    y 0.000000 3.029510 0.000000 
#    z 0.000000 0.000000 4.393970 
# 
# 
# High freq. dielectric constant tensor:
#      x y z
#    x 1.763500 0.000000 0.000000 
#    y 0.000000 1.724110 0.000000 
#    z 0.000000 0.000000 1.774660 
# 
# From -- ./inp_files/7020.got.cif
#   From: 2010.03.12/outbox.cif.g09.slc.cpg/sg28_4_cif.got.tgz:7020.got - 2010.04.14 03:39:34.
