data_PCOD8168663
_publ_section_title
;
Structure prediction by ZEFSAII (Michael W. Deem and Ramdas Pophale) SiO2 
 PCOD8168663
Probable space group: P C A 21
;
_chemical_formula_sum "Si O2"
_cell_formula_units_Z 32
_cell_length_a 14.907244
_cell_length_b 7.547495
_cell_length_c 14.040401
_cell_angle_alpha 90.000000
_cell_angle_beta 90.000000
_cell_angle_gamma 90.000000
_cell_volume 1579.718505
_symmetry_space_group_name_H-M "P C A 21"
_symmetry_group_IT_number 29
_symmetry_cell_setting 'orthorhombic'
loop_
_space_group_symop_operation_xyz
x,y,z
-x,-y,1/2+z
1/2-x,y,1/2+z
1/2+x,-y,z
loop_
_atom_site_type_symbol
_atom_site_label
_atom_site_fract_x
_atom_site_fract_y
_atom_site_fract_z
Si Si1 0.414504 0.314164 0.779970
Si Si2 0.585497 0.685838 0.061193
Si Si3 0.109860 0.759000 0.562706
Si Si4 0.195769 0.650134 0.281842
Si Si5 0.349195 0.989271 0.443788
Si Si6 0.650805 0.010728 0.397373
Si Si7 0.109861 0.759001 0.778455
Si Si8 0.195770 0.650132 0.059319
O O1 0.387986 0.269932 0.670581
O O2 0.354075 0.474347 0.819811
O O3 0.520603 0.361951 0.787163
O O4 0.402009 0.144105 0.845806
O O5 0.479397 0.638049 0.053999
O O6 0.645927 0.525657 0.021351
O O7 0.597991 0.855899 0.995358
O O8 0.102656 0.933321 0.496162
O O9 0.121143 0.829451 0.670581
O O10 0.197762 0.642595 0.533738
O O11 0.150658 0.818242 0.330065
O O12 0.302237 0.642597 0.307424
O O13 0.178705 0.668085 0.170580
O O14 0.250000 0.058486 0.420581
O O15 0.397344 0.933322 0.344999
O O16 0.349341 0.818238 0.511095
#
# Coordination Sequence:
#
# PCOD8168663 Si02
#       8
#     4   4   4   4   4   4   4   4
#     4  10  20  36  59  83 109 143 183 223 269 328
#     4  10  20  36  59  83 109 143 183 223 269 328
#     4   9  19  36  56  81 113 146 181 226 273 317
#     4   9  19  36  55  79 112 143 177 225 272 317
#     4  10  20  34  56  80 109 145 180 221 271 325
#     4  10  20  34  56  80 109 145 180 221 271 325
#     4   9  19  36  56  81 113 146 181 226 273 317
#     4   9  19  36  55  79 112 143 177 225 272 317
#
# _framework density 20.256772999999999
#
# number of rings (size 3 to 8) (size 9 to 14) (size 15 to 20)
#    0.000    2.500    0.000    1.500    0.000    5.000 
#    0.000    5.000    0.000   16.500    0.000    0.000 
#    0.000    0.000    0.000    0.000    0.000    0.000 
#
# Total GULP energy -396712.486580 kJ/mol
# GULP energy per Si atom -12397.265206 kJ/mol
# Density = 2.021067 g / cm^3
# Si number density = 20.256773 Si / 1000 Ang^3
#
#
#
# Elastic Constant Matrix: (Units=GPa)
#
#
# Indices 1 2 3 4 5 6 
#
# 1 114.8128 72.8849 39.4159 0.0000 0.0000 0.0000
# 2 72.8849 120.6293 48.5918 0.0000 0.0000 0.0000
# 3 39.4159 48.5918 55.8209 0.0000 0.0000 0.0000
# 4 0.0000 0.0000 0.0000 14.7322 0.0000 0.0000
# 5 0.0000 0.0000 0.0000 0.0000 21.1773 0.0000
# 6 0.0000 0.0000 0.0000 0.0000 0.0000 16.5344
#
#
#
# Elastic Compliance Matrix: (Units=1/GPa)
#
#
# Indices 1 2 3 4 5 6 
#
# 1 0.014709 -0.007243 -0.004081 0.000000 0.000000 0.000000
# 2 -0.007243 0.016333 -0.009104 0.000000 0.000000 0.000000
# 3 -0.004081 -0.009104 0.028721 0.000000 0.000000 0.000000
# 4 0.000000 0.000000 0.000000 0.067879 0.000000 0.000000
# 5 0.000000 0.000000 0.000000 0.000000 0.047220 0.000000
# 6 0.000000 0.000000 0.000000 0.000000 0.000000 0.060480
#
#
# Mechanical properties :
#
#
# Convention : Reuss Voigt Hill
#
# Bulk Modulus (GPa) = 52.88926 68.11647 60.50286
# Shear Modulus (GPa) = 17.69911 19.18014 18.43963
#
# Velocity S-wave (km/s) = 2.95911 3.08043 3.02038
# Velocity P-wave (km/s) = 6.15152 6.80820 6.48818
#
# Compressibility (1/GPa) = 0.01890743
#
# Stress axis : x y z
#
# Youngs Moduli (GPa) = 67.98522 61.22392 34.81823
#
# Poissons Ratio (x) = 0.44347 0.14209
# Poissons Ratio (y) = 0.49245 0.31697
# Poissons Ratio (z) = 0.27744 0.55735
#
# Static dielectric constant tensor:
#      x y z
#    x 3.872150 0.000000 0.000000 
#    y 0.000000 3.319170 0.000000 
#    z 0.000000 0.000000 3.907460 
# 
# 
# High freq. dielectric constant tensor:
#      x y z
#    x 1.801400 0.000000 0.000000 
#    y 0.000000 1.753310 0.000000 
#    z 0.000000 0.000000 1.808710 
# 
# From -- ./inp_files/4729.got.cif
#   From: 2010.03.12/outbox.cif.g09.slc.cpg/sg29_3_cif.got.tgz:4729.got - 2010.04.14 03:43:10.
