data_PCOD8168433
_publ_section_title
;
Structure prediction by ZEFSAII (Michael W. Deem and Ramdas Pophale) SiO2 
 PCOD8168433
Probable space group: P M A 2
;
_chemical_formula_sum "Si O2"
_cell_formula_units_Z 24
_cell_length_a 8.619114
_cell_length_b 9.453576
_cell_length_c 14.987631
_cell_angle_alpha 90.000000
_cell_angle_beta 90.000000
_cell_angle_gamma 90.000000
_cell_volume 1221.213895
_symmetry_space_group_name_H-M "P M A 2"
_symmetry_group_IT_number 28
_symmetry_cell_setting 'orthorhombic'
loop_
_space_group_symop_operation_xyz
x,y,z
-x,-y,z
1/2-x,y,z
1/2+x,-y,z
loop_
_atom_site_type_symbol
_atom_site_label
_atom_site_fract_x
_atom_site_fract_y
_atom_site_fract_z
Si Si1 0.070808 0.344581 0.180470
Si Si2 0.566498 0.157031 0.030860
Si Si3 0.069277 0.855315 0.522709
Si Si4 0.927262 0.651740 0.382283
Si Si5 0.933941 0.656296 0.872322
Si Si6 0.565678 0.150709 0.724286
O O1 0.250000 0.349945 0.149711
O O2 0.057341 0.288586 0.281999
O O3 0.000000 0.500000 0.167639
O O4 0.975228 0.231881 0.123614
O O5 0.750000 0.151401 0.017841
O O6 0.500000 0.000000 0.030459
O O7 0.491075 0.245145 0.951685
O O8 0.250000 0.873824 0.526051
O O9 0.009803 0.821808 0.622683
O O10 0.024808 0.736765 0.453426
O O11 0.000000 0.000000 0.485808
O O12 0.750000 0.647610 0.413616
O O13 0.000000 0.500000 0.382707
O O14 0.750000 0.648659 0.872228
O O15 0.000000 0.500000 0.885516
O O16 0.993400 0.721130 0.779704
O O17 0.750000 0.150411 0.735520
O O18 0.500000 0.000000 0.758449
#
# Coordination Sequence:
#
# PCOD8168433 Si02
#       6
#     4   4   4   4   4   4
#     4  10  21  39  61  87 117 153 194 239 289 343
#     4  12  25  42  63  88 118 153 192 237 286 342
#     4  10  21  37  59  85 117 154 195 240 289 343
#     4  10  21  37  59  85 117 154 195 240 289 343
#     4  12  25  42  63  88 118 153 192 237 286 342
#     4  10  21  39  61  87 117 153 194 239 289 343
#
# _framework density 19.652577000000001
#
# number of rings (size 3 to 8) (size 9 to 14) (size 15 to 20)
#    0.000    1.333    0.000    6.000    0.000    5.333 
#    0.000    0.000    0.000    0.000    0.000    0.000 
#    0.000    0.000    0.000    0.000    0.000    0.000 
#
# Total GULP energy -297682.338074 kJ/mol
# GULP energy per Si atom -12403.430753 kJ/mol
# Density = 1.960785 g / cm^3
# Si number density = 19.652577 Si / 1000 Ang^3
#
#
#
# Elastic Constant Matrix: (Units=GPa)
#
#
# Indices 1 2 3 4 5 6 
#
# 1 111.5921 35.3172 30.8887 0.0000 0.0000 0.0000
# 2 35.3172 101.9217 49.9270 0.0000 0.0000 0.0000
# 3 30.8887 49.9270 94.0356 0.0000 0.0000 0.0000
# 4 0.0000 0.0000 0.0000 33.0699 0.0000 0.0000
# 5 0.0000 0.0000 0.0000 0.0000 35.5234 0.0000
# 6 0.0000 0.0000 0.0000 0.0000 0.0000 40.8697
#
#
#
# Elastic Compliance Matrix: (Units=1/GPa)
#
#
# Indices 1 2 3 4 5 6 
#
# 1 0.010341 -0.002594 -0.002020 0.000000 0.000000 0.000000
# 2 -0.002594 0.013911 -0.006534 0.000000 0.000000 0.000000
# 3 -0.002020 -0.006534 0.014767 0.000000 0.000000 0.000000
# 4 0.000000 0.000000 0.000000 0.030239 0.000000 0.000000
# 5 0.000000 0.000000 0.000000 0.000000 0.028150 0.000000
# 6 0.000000 0.000000 0.000000 0.000000 0.000000 0.024468
#
#
# Mechanical properties :
#
#
# Convention : Reuss Voigt Hill
#
# Bulk Modulus (GPa) = 59.79416 59.97947 59.88681
# Shear Modulus (GPa) = 33.38995 34.65370 34.02182
#
# Velocity S-wave (km/s) = 4.12638 4.20374 4.16524
# Velocity P-wave (km/s) = 7.29344 7.35854 7.32606
#
# Compressibility (1/GPa) = 0.01672404
#
# Stress axis : x y z
#
# Youngs Moduli (GPa) = 96.70044 71.88600 67.72012
#
# Poissons Ratio (x) = 0.18648 0.13677
# Poissons Ratio (y) = 0.25085 0.44246
# Poissons Ratio (z) = 0.19529 0.46968
#
# Static dielectric constant tensor:
#      x y z
#    x 3.811480 0.000000 0.000000 
#    y 0.000000 3.909220 0.000000 
#    z 0.000000 0.000000 3.903280 
# 
# 
# High freq. dielectric constant tensor:
#      x y z
#    x 1.786860 0.000000 0.000000 
#    y 0.000000 1.767460 0.000000 
#    z 0.000000 0.000000 1.778380 
# 
# From -- ./inp_files/6057.got.cif
#   From: 2010.03.12/outbox.cif.g09.slc.cpg/sg28_4_cif.got.tgz:6057.got - 2010.04.14 03:39:34.
