data_PCOD8168314
_publ_section_title
;
Structure prediction by ZEFSAII (Michael W. Deem and Ramdas Pophale) SiO2 
 PCOD8168314
Probable space group: P M A 2
;
_chemical_formula_sum "Si O2"
_cell_formula_units_Z 32
_cell_length_a 9.240583
_cell_length_b 23.847448
_cell_length_c 7.667442
_cell_angle_alpha 90.000000
_cell_angle_beta 90.000000
_cell_angle_gamma 90.000000
_cell_volume 1689.630662
_symmetry_space_group_name_H-M "P M A 2"
_symmetry_group_IT_number 28
_symmetry_cell_setting 'orthorhombic'
loop_
_space_group_symop_operation_xyz
x,y,z
-x,-y,z
1/2-x,y,z
1/2+x,-y,z
loop_
_atom_site_type_symbol
_atom_site_label
_atom_site_fract_x
_atom_site_fract_y
_atom_site_fract_z
Si Si1 0.082929 0.944943 0.088050
Si Si2 0.419958 0.639313 0.293015
Si Si3 0.085552 0.162501 0.598223
Si Si4 0.580245 0.756033 0.293015
Si Si5 0.081311 0.556396 0.595017
Si Si6 0.585552 0.837499 0.987807
Si Si7 0.081311 0.556396 0.991013
Si Si8 0.082929 0.944943 0.497980
O O1 0.250000 0.950598 0.035329
O O2 0.061531 0.937150 0.293015
O O3 0.000000 0.000000 0.020854
O O4 0.015954 0.891472 0.993975
O O5 0.250000 0.650633 0.293015
O O6 0.499087 0.697900 0.293015
O O7 0.468278 0.605691 0.465878
O O8 0.468278 0.605691 0.120152
O O9 0.250000 0.144569 0.550715
O O10 0.031250 0.209606 0.464038
O O11 0.076988 0.187898 0.793015
O O12 0.984046 0.108528 0.592055
O O13 0.750000 0.743982 0.293015
O O14 0.531250 0.790394 0.121992
O O15 0.250000 0.543823 0.573017
O O16 0.042749 0.574432 0.793015
O O17 0.000000 0.500000 0.540828
O O18 0.750000 0.855431 0.035316
O O19 0.250000 0.543823 0.013012
O O20 0.000000 0.500000 0.045202
O O21 0.250000 0.950598 0.550701
O O22 0.000000 0.000000 0.565176
#
# Coordination Sequence:
#
# PCOD8168314 Si02
#       8
#     4   4   4   4   4   4   4   4
#     4  10  20  34  56  84 112 142 176 217 269 327
#     4  10  21  35  53  77 107 142 179 218 262 314
#     4  10  21  38  59  80 105 140 180 224 274 323
#     4  10  22  39  56  77 107 140 180 228 269 312
#     4   9  18  33  53  79 110 141 174 215 262 311
#     4  10  21  38  59  80 105 140 180 224 274 323
#     4   9  18  33  53  79 110 141 174 215 262 311
#     4  10  20  34  56  84 112 142 176 217 269 327
#
# _framework density 18.939050999999999
#
# number of rings (size 3 to 8) (size 9 to 14) (size 15 to 20)
#    0.000    2.250    1.250    1.125    0.000    5.000 
#    0.000    0.000    0.000    0.000    0.000    0.000 
#    0.000    0.000    0.000    0.000    0.000    0.000 
#
# Total GULP energy -396896.793646 kJ/mol
# GULP energy per Si atom -12403.024801 kJ/mol
# Density = 1.889594 g / cm^3
# Si number density = 18.939051 Si / 1000 Ang^3
#
#
#
# Elastic Constant Matrix: (Units=GPa)
#
#
# Indices 1 2 3 4 5 6 
#
# 1 73.0986 63.6051 44.7761 0.0000 0.0000 0.0000
# 2 63.6051 163.6642 83.6574 0.0000 0.0000 0.0000
# 3 44.7761 83.6574 124.7466 0.0000 0.0000 0.0000
# 4 0.0000 0.0000 0.0000 3.4271 0.0000 0.0000
# 5 0.0000 0.0000 0.0000 0.0000 18.0806 0.0000
# 6 0.0000 0.0000 0.0000 0.0000 0.0000 41.5826
#
#
#
# Elastic Compliance Matrix: (Units=1/GPa)
#
#
# Indices 1 2 3 4 5 6 
#
# 1 0.021485 -0.006707 -0.003214 0.000000 0.000000 0.000000
# 2 -0.006707 0.011391 -0.005231 0.000000 0.000000 0.000000
# 3 -0.003214 -0.005231 0.012678 0.000000 0.000000 0.000000
# 4 0.000000 0.000000 0.000000 0.291793 0.000000 0.000000
# 5 0.000000 0.000000 0.000000 0.000000 0.055308 0.000000
# 6 0.000000 0.000000 0.000000 0.000000 0.000000 0.024049
#
#
# Mechanical properties :
#
#
# Convention : Reuss Voigt Hill
#
# Bulk Modulus (GPa) = 65.57782 82.84294 74.21038
# Shear Modulus (GPa) = 11.05974 23.91612 17.48793
#
# Velocity S-wave (km/s) = 2.41916 3.55744 3.04201
# Velocity P-wave (km/s) = 6.51951 7.79170 7.18382
#
# Compressibility (1/GPa) = 0.01524906
#
# Stress axis : x y z
#
# Youngs Moduli (GPa) = 46.54507 87.79162 78.87598
#
# Poissons Ratio (x) = 0.58880 0.25350
# Poissons Ratio (y) = 0.31217 0.41264
# Poissons Ratio (z) = 0.14959 0.45928
#
# Static dielectric constant tensor:
#      x y z
#    x 3.419270 0.000000 0.000000 
#    y 0.000000 3.297340 0.000000 
#    z 0.000000 0.000000 3.690510 
# 
# 
# High freq. dielectric constant tensor:
#      x y z
#    x 1.732460 0.000000 0.000000 
#    y 0.000000 1.723880 0.000000 
#    z 0.000000 0.000000 1.748870 
# 
# From -- ./inp_files/2747.got.cif
#   From: 2010.03.12/outbox.cif.g09.slc.cpg/sg28_2_cif.got.tgz:2747.got - 2010.04.14 03:39:34.
