data_PCOD8168868
_publ_section_title
;
Structure prediction by ZEFSAII (Michael W. Deem and Ramdas Pophale) SiO2 
 PCOD8168868
Probable space group: P C A 21
;
_chemical_formula_sum "Si O2"
_cell_formula_units_Z 28
_cell_length_a 28.287623
_cell_length_b 5.050706
_cell_length_c 9.011643
_cell_angle_alpha 90.000000
_cell_angle_beta 90.000000
_cell_angle_gamma 90.000000
_cell_volume 1287.515669
_symmetry_space_group_name_H-M "P C A 21"
_symmetry_group_IT_number 29
_symmetry_cell_setting 'orthorhombic'
loop_
_space_group_symop_operation_xyz
x,y,z
-x,-y,1/2+z
1/2-x,y,1/2+z
1/2+x,-y,z
loop_
_atom_site_type_symbol
_atom_site_label
_atom_site_fract_x
_atom_site_fract_y
_atom_site_fract_z
Si Si1 0.380599 0.984857 0.151440
Si Si2 0.475502 0.196575 0.050852
Si Si3 0.985594 0.689921 0.395794
Si Si4 0.284353 0.017244 0.020929
Si Si5 0.761487 0.677241 0.755895
Si Si6 0.204552 0.621096 0.004125
Si Si7 0.886592 0.507892 0.339033
O O1 0.334100 0.880221 0.061934
O O2 0.402225 0.718388 0.222445
O O3 0.420764 0.104388 0.044044
O O4 0.366783 0.219260 0.267616
O O5 0.491321 0.258172 0.219807
O O6 0.478761 0.462044 0.951623
O O7 0.507651 0.963760 0.983679
O O8 0.932793 0.585313 0.433202
O O9 0.233188 0.882349 0.051911
O O10 0.280841 0.252994 0.141807
O O11 0.286980 0.089706 0.847554
O O12 0.801945 0.544464 0.655277
O O13 0.739307 0.489395 0.878814
O O14 0.152232 0.646184 0.938931
#
# Coordination Sequence:
#
# PCOD8168868 Si02
#       7
#     4   4   4   4   4   4   4
#     4  11  23  42  70  97 131 180 227 269 340 420
#     4  11  23  45  71 101 137 179 226 287 350 414
#     4  11  23  45  71 101 137 179 226 287 350 414
#     4  11  22  40  62  93 129 176 221 272 331 393
#     4  10  22  38  60  86 132 166 218 272 328 380
#     4  11  22  40  62  93 129 176 221 272 331 393
#     4  11  23  42  70  97 131 180 227 269 340 420
#
# _framework density 21.747308
#
# number of rings (size 3 to 8) (size 9 to 14) (size 15 to 20)
#    0.000    1.143    1.429    6.857    4.000    0.000 
#    5.143    0.000    0.000    0.000    0.000    0.000 
#    0.000    0.000    0.000    0.000    0.000    0.000 
#
# Total GULP energy -346865.417675 kJ/mol
# GULP energy per Si atom -12388.050631 kJ/mol
# Density = 2.169781 g / cm^3
# Si number density = 21.747308 Si / 1000 Ang^3
#
#
#
# Elastic Constant Matrix: (Units=GPa)
#
#
# Indices 1 2 3 4 5 6 
#
# 1 76.6793 11.3638 26.9041 0.0000 0.0000 0.0000
# 2 11.3638 99.5038 31.9461 0.0000 0.0000 0.0000
# 3 26.9041 31.9461 111.8941 0.0000 0.0000 0.0000
# 4 0.0000 0.0000 0.0000 43.7865 0.0000 0.0000
# 5 0.0000 0.0000 0.0000 0.0000 35.0800 0.0000
# 6 0.0000 0.0000 0.0000 0.0000 0.0000 32.6525
#
#
#
# Elastic Compliance Matrix: (Units=1/GPa)
#
#
# Indices 1 2 3 4 5 6 
#
# 1 0.014273 -0.000582 -0.003266 0.000000 0.000000 0.000000
# 2 -0.000582 0.011088 -0.003026 0.000000 0.000000 0.000000
# 3 -0.003266 -0.003026 0.010586 0.000000 0.000000 0.000000
# 4 0.000000 0.000000 0.000000 0.022838 0.000000 0.000000
# 5 0.000000 0.000000 0.000000 0.000000 0.028506 0.000000
# 6 0.000000 0.000000 0.000000 0.000000 0.000000 0.030626
#
#
# Mechanical properties :
#
#
# Convention : Reuss Voigt Hill
#
# Bulk Modulus (GPa) = 45.04329 47.61168 46.32749
# Shear Modulus (GPa) = 35.95472 36.82802 36.39137
#
# Velocity S-wave (km/s) = 4.07048 4.11962 4.09513
# Velocity P-wave (km/s) = 6.54591 6.67601 6.61128
#
# Compressibility (1/GPa) = 0.02220086
#
# Stress axis : x y z
#
# Youngs Moduli (GPa) = 70.06038 90.18992 94.46315
#
# Poissons Ratio (x) = 0.05245 0.30851
# Poissons Ratio (y) = 0.04074 0.28582
# Poissons Ratio (z) = 0.22881 0.27289
#
# Static dielectric constant tensor:
#      x y z
#    x 3.839520 0.000000 0.000000 
#    y 0.000000 4.077790 0.000000 
#    z 0.000000 0.000000 4.028170 
# 
# 
# High freq. dielectric constant tensor:
#      x y z
#    x 1.840200 0.000000 0.000000 
#    y 0.000000 1.864950 0.000000 
#    z 0.000000 0.000000 1.852300 
# 
# From -- ./inp_files/2535.got.cif
#   From: 2010.03.12/outbox.cif.g09.slc.cpg/sg29_2_cif.got.tgz:2535.got - 2010.04.14 03:43:10.
