data_PCOD8168726
_publ_section_title
;
Structure prediction by ZEFSAII (Michael W. Deem and Ramdas Pophale) SiO2 
 PCOD8168726
Probable space group: P C A 21
;
_chemical_formula_sum "Si O2"
_cell_formula_units_Z 28
_cell_length_a 31.635249
_cell_length_b 5.147570
_cell_length_c 8.569557
_cell_angle_alpha 90.000000
_cell_angle_beta 90.000000
_cell_angle_gamma 90.000000
_cell_volume 1395.506585
_symmetry_space_group_name_H-M "P C A 21"
_symmetry_group_IT_number 29
_symmetry_cell_setting 'orthorhombic'
loop_
_space_group_symop_operation_xyz
x,y,z
-x,-y,1/2+z
1/2-x,y,1/2+z
1/2+x,-y,z
loop_
_atom_site_type_symbol
_atom_site_label
_atom_site_fract_x
_atom_site_fract_y
_atom_site_fract_z
Si Si1 0.233760 0.654920 0.208890
Si Si2 0.593960 0.248044 0.623199
Si Si3 0.994160 0.314676 0.233521
Si Si4 0.851315 0.746831 0.165099
Si Si5 0.719415 0.021959 0.489458
Si Si6 0.710304 0.660528 0.931956
Si Si7 0.977272 0.189804 0.902372
O O1 0.251960 0.431444 0.318743
O O2 0.276905 0.766241 0.128294
O O3 0.208384 0.858104 0.319481
O O4 0.202372 0.536427 0.076855
O O5 0.557150 0.312703 0.749650
O O6 0.627104 0.481186 0.610469
O O7 0.572114 0.210155 0.452803
O O8 0.615784 0.981536 0.674338
O O9 0.011946 0.600304 0.270024
O O10 0.014492 0.102076 0.346661
O O11 0.006504 0.249214 0.054249
O O12 0.815312 0.808662 0.036366
O O13 0.832883 0.710400 0.339578
O O14 0.768474 0.924507 0.494431
#
# Coordination Sequence:
#
# PCOD8168726 Si02
#       7
#     4   4   4   4   4   4   4
#     4  10  21  36  56  88 113 150 250 257 302 370
#     4  10  25  38  66 100 125 158 211 250 344 374
#     4  10  20  39  70  97 124 163 207 250 297 402
#     4  12  22  40  62  90 132 166 203 281 316 368
#     4  11  21  36  61  86 114 174 221 265 307 375
#     4  11  21  36  61  86 114 174 221 265 307 375
#     4  10  20  39  70  97 124 163 207 250 297 402
#
# _framework density 20.064399999999999
#
# number of rings (size 3 to 8) (size 9 to 14) (size 15 to 20)
#    0.857    0.571    2.857    3.429    4.000    0.000 
#    0.000    0.000   12.571    0.000    0.000    0.000 
#    0.000    0.000    0.000    0.000    0.000    0.000 
#
# Total GULP energy -347023.859774 kJ/mol
# GULP energy per Si atom -12393.709278 kJ/mol
# Density = 2.001873 g / cm^3
# Si number density = 20.064400 Si / 1000 Ang^3
#
#
#
# Elastic Constant Matrix: (Units=GPa)
#
#
# Indices 1 2 3 4 5 6 
#
# 1 30.5236 11.7205 -10.2542 0.0000 0.0000 0.0000
# 2 11.7205 67.2116 21.0875 0.0000 0.0000 0.0000
# 3 -10.2542 21.0875 72.9830 0.0000 0.0000 0.0000
# 4 0.0000 0.0000 0.0000 35.1274 0.0000 0.0000
# 5 0.0000 0.0000 0.0000 0.0000 23.5200 0.0000
# 6 0.0000 0.0000 0.0000 0.0000 0.0000 30.3980
#
#
#
# Elastic Compliance Matrix: (Units=1/GPa)
#
#
# Indices 1 2 3 4 5 6 
#
# 1 0.039131 -0.009401 0.008214 0.000000 0.000000 0.000000
# 2 -0.009401 0.018620 -0.006701 0.000000 0.000000 0.000000
# 3 0.008214 -0.006701 0.016792 0.000000 0.000000 0.000000
# 4 0.000000 0.000000 0.000000 0.028468 0.000000 0.000000
# 5 0.000000 0.000000 0.000000 0.000000 0.042517 0.000000
# 6 0.000000 0.000000 0.000000 0.000000 0.000000 0.032897
#
#
# Mechanical properties :
#
#
# Convention : Reuss Voigt Hill
#
# Bulk Modulus (GPa) = 17.01612 23.98066 20.49839
# Shear Modulus (GPa) = 23.38752 27.68671 25.53712
#
# Velocity S-wave (km/s) = 3.41783 3.71872 3.57144
# Velocity P-wave (km/s) = 4.90658 5.51510 5.21971
#
# Compressibility (1/GPa) = 0.05876780
#
# Stress axis : x y z
#
# Youngs Moduli (GPa) = 25.55527 53.70537 59.55206
#
# Poissons Ratio (x) = 0.50488 -0.48917
# Poissons Ratio (y) = 0.24024 0.39905
# Poissons Ratio (z) = -0.20992 0.35987
#
# Static dielectric constant tensor:
#      x y z
#    x 3.347730 0.000000 0.000000 
#    y 0.000000 3.736060 0.000000 
#    z 0.000000 0.000000 3.667020 
# 
# 
# High freq. dielectric constant tensor:
#      x y z
#    x 1.742340 0.000000 0.000000 
#    y 0.000000 1.806060 0.000000 
#    z 0.000000 0.000000 1.782170 
# 
# From -- ./inp_files/2578.got.cif
#   From: 2010.03.12/outbox.cif.g09.slc.cpg/sg29_2_cif.got.tgz:2578.got - 2010.04.14 03:43:10.
