data_PCOD8168216
_publ_section_title
;
Structure prediction by ZEFSAII (Michael W. Deem and Ramdas Pophale) SiO2 
 PCOD8168216
Probable space group: P M A 2
;
_chemical_formula_sum "Si O2"
_cell_formula_units_Z 32
_cell_length_a 8.777676
_cell_length_b 14.206029
_cell_length_c 15.627499
_cell_angle_alpha 90.000000
_cell_angle_beta 90.000000
_cell_angle_gamma 90.000000
_cell_volume 1948.685362
_symmetry_space_group_name_H-M "P M A 2"
_symmetry_group_IT_number 28
_symmetry_cell_setting 'orthorhombic'
loop_
_space_group_symop_operation_xyz
x,y,z
-x,-y,z
1/2-x,y,z
1/2+x,-y,z
loop_
_atom_site_type_symbol
_atom_site_label
_atom_site_fract_x
_atom_site_fract_y
_atom_site_fract_z
Si Si1 0.430704 0.722778 0.769070
Si Si2 0.071535 0.602056 0.115407
Si Si3 0.570889 0.603166 0.284040
Si Si4 0.429252 0.601960 0.607804
Si Si5 0.069416 0.098213 0.698005
Si Si6 0.927681 0.095629 0.515142
Si Si7 0.072235 0.601642 0.927630
Si Si8 0.073714 0.708755 0.437539
O O1 0.250000 0.738930 0.766651
O O2 0.486751 0.657885 0.690851
O O3 0.515026 0.822444 0.764142
O O4 0.487201 0.674481 0.856832
O O5 0.250000 0.596626 0.133949
O O6 0.000000 0.500000 0.112605
O O7 0.991243 0.652673 0.196307
O O8 0.037116 0.646737 0.021840
O O9 0.500000 0.500000 0.299551
O O10 0.750000 0.591419 0.278498
O O11 0.529064 0.672710 0.360522
O O12 0.500000 0.500000 0.607022
O O13 0.250000 0.591235 0.610541
O O14 0.481815 0.657729 0.523699
O O15 0.250000 0.091633 0.695936
O O16 0.007680 0.123068 0.603841
O O17 0.000000 0.000000 0.730374
O O18 0.750000 0.079897 0.534597
O O19 0.952349 0.179324 0.447435
O O20 0.000000 0.000000 0.476676
O O21 0.250000 0.584853 0.916122
O O22 0.000000 0.500000 0.913721
O O23 0.250000 0.685884 0.418577
#
# Coordination Sequence:
#
# PCOD8168216 Si02
#       8
#     4   4   4   4   4   4   4   4
#     4  10  19  34  49  68  98 130 162 199 240 286
#     4   9  16  29  47  69  94 125 161 199 243 286
#     4  11  21  32  48  70  96 129 164 203 243 285
#     4  10  20  32  45  63  94 131 164 193 229 273
#     4  11  21  33  51  72  94 124 162 203 245 286
#     4  10  19  34  53  72  96 124 158 200 246 286
#     4   9  18  30  49  72  99 131 163 200 240 283
#     4  10  20  34  49  68  95 130 162 197 240 283
#
# _framework density 16.421327999999999
#
# number of rings (size 3 to 8) (size 9 to 14) (size 15 to 20)
#    0.000    2.000    1.250    5.250    0.000    4.000 
#    0.000    0.000    0.000    0.000    0.000    0.875 
#    0.000    4.000    0.000    0.000    0.000    0.000 
#
# Total GULP energy -396726.344791 kJ/mol
# GULP energy per Si atom -12397.698275 kJ/mol
# Density = 1.638395 g / cm^3
# Si number density = 16.421328 Si / 1000 Ang^3
#
#
#
# Elastic Constant Matrix: (Units=GPa)
#
#
# Indices 1 2 3 4 5 6 
#
# 1 92.2008 44.2187 51.6102 0.0000 0.0000 0.0000
# 2 44.2187 100.7314 57.3379 0.0000 0.0000 0.0000
# 3 51.6102 57.3379 133.6361 0.0000 0.0000 0.0000
# 4 0.0000 0.0000 0.0000 12.6276 0.0000 0.0000
# 5 0.0000 0.0000 0.0000 0.0000 20.6664 0.0000
# 6 0.0000 0.0000 0.0000 0.0000 0.0000 27.0298
#
#
#
# Elastic Compliance Matrix: (Units=1/GPa)
#
#
# Indices 1 2 3 4 5 6 
#
# 1 0.015182 -0.004402 -0.003974 0.000000 0.000000 0.000000
# 2 -0.004402 0.014412 -0.004483 0.000000 0.000000 0.000000
# 3 -0.003974 -0.004483 0.010942 0.000000 0.000000 0.000000
# 4 0.000000 0.000000 0.000000 0.079192 0.000000 0.000000
# 5 0.000000 0.000000 0.000000 0.000000 0.048388 0.000000
# 6 0.000000 0.000000 0.000000 0.000000 0.000000 0.036996
#
#
# Mechanical properties :
#
#
# Convention : Reuss Voigt Hill
#
# Bulk Modulus (GPa) = 67.49800 70.32241 68.91021
# Shear Modulus (GPa) = 21.20714 23.62484 22.41599
#
# Velocity S-wave (km/s) = 3.59756 3.79709 3.69867
# Velocity P-wave (km/s) = 7.64524 7.88294 7.76500
#
# Compressibility (1/GPa) = 0.01481525
#
# Stress axis : x y z
#
# Youngs Moduli (GPa) = 65.86807 69.38716 91.39427
#
# Poissons Ratio (x) = 0.30545 0.36324
# Poissons Ratio (y) = 0.28996 0.40976
# Poissons Ratio (z) = 0.26179 0.31109
#
# Static dielectric constant tensor:
#      x y z
#    x 3.038880 0.000000 0.000000 
#    y 0.000000 3.025370 0.000000 
#    z 0.000000 0.000000 3.566380 
# 
# 
# High freq. dielectric constant tensor:
#      x y z
#    x 1.640030 0.000000 0.000000 
#    y 0.000000 1.610490 0.000000 
#    z 0.000000 0.000000 1.626100 
# 
# From -- ./inp_files/6437.got.cif
#   From: 2010.03.12/outbox.cif.g09.slc.cpg/sg28_4_cif.got.tgz:6437.got - 2010.04.14 03:39:34.
