data_PCOD8168438
_publ_section_title
;
Structure prediction by ZEFSAII (Michael W. Deem and Ramdas Pophale) SiO2 
 PCOD8168438
Probable space group: P M A 2
;
_chemical_formula_sum "Si O2"
_cell_formula_units_Z 32
_cell_length_a 21.957026
_cell_length_b 10.842191
_cell_length_c 6.324299
_cell_angle_alpha 90.000000
_cell_angle_beta 90.000000
_cell_angle_gamma 90.000000
_cell_volume 1505.576974
_symmetry_space_group_name_H-M "P M A 2"
_symmetry_group_IT_number 28
_symmetry_cell_setting 'orthorhombic'
loop_
_space_group_symop_operation_xyz
x,y,z
-x,-y,z
1/2-x,y,z
1/2+x,-y,z
loop_
_atom_site_type_symbol
_atom_site_label
_atom_site_fract_x
_atom_site_fract_y
_atom_site_fract_z
Si Si1 0.679918 0.310022 0.243420
Si Si2 0.619118 0.490377 0.573454
Si Si3 0.618363 0.114274 0.493852
Si Si4 0.104731 0.298714 0.282748
Si Si5 0.818774 0.863523 0.561603
Si Si6 0.181356 0.338429 0.890004
Si Si7 0.091809 0.714878 0.867289
Si Si8 0.509758 0.138489 0.176902
O O1 0.750000 0.330677 0.192667
O O2 0.656837 0.407660 0.412411
O O3 0.668746 0.173323 0.338059
O O4 0.644667 0.328357 0.024620
O O5 0.580551 0.590974 0.436997
O O6 0.669203 0.558363 0.714867
O O7 0.574897 0.403732 0.718745
O O8 0.618231 0.178184 0.720772
O O9 0.553151 0.128027 0.380359
O O10 0.633994 0.974393 0.544438
O O11 0.164001 0.234348 0.381854
O O12 0.052736 0.197655 0.254199
O O13 0.129142 0.355823 0.065093
O O14 0.750000 0.909371 0.523162
O O15 0.824983 0.798665 0.790255
O O16 0.250000 0.357638 0.977667
O O17 0.034547 0.769181 0.995832
O O18 0.500000 0.000000 0.084430
#
# Coordination Sequence:
#
# PCOD8168438 Si02
#       8
#     4   4   4   4   4   4   4   4
#     4  10  21  39  64  93 130 170 209 261 319 385
#     4  10  22  42  62  91 131 166 213 260 320 390
#     4  10  22  41  61  92 129 170 213 260 321 380
#     4  11  23  41  64  92 125 168 209 263 322 375
#     4  10  21  37  60  93 129 162 205 258 315 382
#     4  10  22  38  63  96 128 167 209 258 323 389
#     4  10  24  41  64  96 125 166 218 263 317 382
#     4  11  24  44  67  94 125 172 225 274 324 380
#
# _framework density 21.25431
#
# number of rings (size 3 to 8) (size 9 to 14) (size 15 to 20)
#    0.000    1.750    1.250    1.875    1.750    8.000 
#    0.000   16.250    0.000    0.000    0.000    0.000 
#    0.000    0.000    0.000    0.000    0.000    0.000 
#
# Total GULP energy -396746.395103 kJ/mol
# GULP energy per Si atom -12398.324847 kJ/mol
# Density = 2.120593 g / cm^3
# Si number density = 21.254310 Si / 1000 Ang^3
#
#
#
# Elastic Constant Matrix: (Units=GPa)
#
#
# Indices 1 2 3 4 5 6 
#
# 1 97.3244 40.3120 47.7409 0.0000 0.0000 0.0000
# 2 40.3120 128.2311 53.5628 0.0000 0.0000 0.0000
# 3 47.7409 53.5628 119.7249 0.0000 0.0000 0.0000
# 4 0.0000 0.0000 0.0000 33.1982 0.0000 0.0000
# 5 0.0000 0.0000 0.0000 0.0000 20.6533 0.0000
# 6 0.0000 0.0000 0.0000 0.0000 0.0000 24.6179
#
#
#
# Elastic Compliance Matrix: (Units=1/GPa)
#
#
# Indices 1 2 3 4 5 6 
#
# 1 0.013361 -0.002429 -0.004241 0.000000 0.000000 0.000000
# 2 -0.002429 0.010032 -0.003520 0.000000 0.000000 0.000000
# 3 -0.004241 -0.003520 0.011618 0.000000 0.000000 0.000000
# 4 0.000000 0.000000 0.000000 0.030122 0.000000 0.000000
# 5 0.000000 0.000000 0.000000 0.000000 0.048418 0.000000
# 6 0.000000 0.000000 0.000000 0.000000 0.000000 0.040621
#
#
# Mechanical properties :
#
#
# Convention : Reuss Voigt Hill
#
# Bulk Modulus (GPa) = 68.34198 69.83463 69.08830
# Shear Modulus (GPa) = 27.86594 29.27153 28.56874
#
# Velocity S-wave (km/s) = 3.62480 3.71510 3.67023
# Velocity P-wave (km/s) = 7.05288 7.16454 7.10893
#
# Compressibility (1/GPa) = 0.01463229
#
# Stress axis : x y z
#
# Youngs Moduli (GPa) = 74.84217 99.67940 86.07044
#
# Poissons Ratio (x) = 0.24210 0.36505
# Poissons Ratio (y) = 0.18178 0.30294
# Poissons Ratio (z) = 0.31743 0.35084
#
# Static dielectric constant tensor:
#      x y z
#    x 3.519040 0.000000 0.000000 
#    y 0.000000 4.073230 0.000000 
#    z 0.000000 0.000000 3.991730 
# 
# 
# High freq. dielectric constant tensor:
#      x y z
#    x 1.811650 0.000000 0.000000 
#    y 0.000000 1.849060 0.000000 
#    z 0.000000 0.000000 1.842560 
# 
# From -- ./inp_files/1625.got.cif
#   From: 2010.03.12/outbox.cif.g09.slc.cpg/sg28_1_cif.got.tgz:1625.got - 2010.04.14 03:39:34.
