data_PCOD8168562
_publ_section_title
;
Structure prediction by ZEFSAII (Michael W. Deem and Ramdas Pophale) SiO2 
 PCOD8168562
Probable space group: P C A 21
;
_chemical_formula_sum "Si O2"
_cell_formula_units_Z 32
_cell_length_a 15.635481
_cell_length_b 18.535874
_cell_length_c 5.119817
_cell_angle_alpha 90.000000
_cell_angle_beta 90.000000
_cell_angle_gamma 90.000000
_cell_volume 1483.811569
_symmetry_space_group_name_H-M "P C A 21"
_symmetry_group_IT_number 29
_symmetry_cell_setting 'orthorhombic'
loop_
_space_group_symop_operation_xyz
x,y,z
-x,-y,1/2+z
1/2-x,y,1/2+z
1/2+x,-y,z
loop_
_atom_site_type_symbol
_atom_site_label
_atom_site_fract_x
_atom_site_fract_y
_atom_site_fract_z
Si Si1 0.337035 0.264879 0.515150
Si Si2 0.560253 0.926486 0.680869
Si Si3 0.448495 0.511867 0.305067
Si Si4 0.154552 0.204154 0.517689
Si Si5 0.307231 0.629693 0.225805
Si Si6 0.804615 0.203181 0.216294
Si Si7 0.048546 0.911416 0.683623
Si Si8 0.700725 0.571269 0.042472
O O1 0.253716 0.215983 0.447293
O O2 0.386414 0.257661 0.239721
O O3 0.303542 0.343520 0.580461
O O4 0.392953 0.229285 0.748975
O O5 0.641524 0.878299 0.602589
O O6 0.486519 0.905943 0.475894
O O7 0.590858 0.009117 0.653723
O O8 0.526597 0.905726 0.968580
O O9 0.521978 0.523594 0.527822
O O10 0.395423 0.584542 0.242877
O O11 0.392629 0.453689 0.462702
O O12 0.248951 0.609452 0.473890
O O13 0.334515 0.713410 0.207345
O O14 0.768863 0.187091 0.504031
O O15 0.883068 0.151534 0.145383
O O16 0.766894 0.542231 0.821752
#
# Coordination Sequence:
#
# PCOD8168562 Si02
#       8
#     4   4   4   4   4   4   4   4
#     4  10  19  35  55  83 124 143 205 232 282 357
#     4  10  21  37  60  81 129 162 196 240 304 374
#     4  12  26  43  61  97 132 154 204 264 308 366
#     4  10  18  35  53  84 117 154 193 245 276 341
#     4  10  21  43  69  89 118 167 208 250 316 378
#     4  10  21  40  65  88 115 148 209 267 296 345
#     4  10  21  40  57  88 117 165 205 239 304 372
#     4  12  21  41  66  86 118 175 202 243 302 377
#
# _framework density 21.566082000000002
#
# number of rings (size 3 to 8) (size 9 to 14) (size 15 to 20)
#    0.000    1.500    2.500    3.750    0.000    0.000 
#   11.250    0.000    0.000    0.000    0.000    0.000 
#    0.000    0.000    0.000    0.000    0.000    0.000 
#
# Total GULP energy -396565.860834 kJ/mol
# GULP energy per Si atom -12392.683151 kJ/mol
# Density = 2.151700 g / cm^3
# Si number density = 21.566082 Si / 1000 Ang^3
#
#
#
# Elastic Constant Matrix: (Units=GPa)
#
#
# Indices 1 2 3 4 5 6 
#
# 1 58.3585 53.1002 5.5852 0.0000 0.0000 0.0000
# 2 53.1002 97.1370 28.6661 0.0000 0.0000 0.0000
# 3 5.5852 28.6661 137.2680 0.0000 0.0000 0.0000
# 4 0.0000 0.0000 0.0000 30.9900 0.0000 0.0000
# 5 0.0000 0.0000 0.0000 0.0000 28.1778 0.0000
# 6 0.0000 0.0000 0.0000 0.0000 0.0000 36.6428
#
#
#
# Elastic Compliance Matrix: (Units=1/GPa)
#
#
# Indices 1 2 3 4 5 6 
#
# 1 0.035037 -0.019962 0.002743 0.000000 0.000000 0.000000
# 2 -0.019962 0.022345 -0.003854 0.000000 0.000000 0.000000
# 3 0.002743 -0.003854 0.007978 0.000000 0.000000 0.000000
# 4 0.000000 0.000000 0.000000 0.032268 0.000000 0.000000
# 5 0.000000 0.000000 0.000000 0.000000 0.035489 0.000000
# 6 0.000000 0.000000 0.000000 0.000000 0.000000 0.027290
#
#
# Mechanical properties :
#
#
# Convention : Reuss Voigt Hill
#
# Bulk Modulus (GPa) = 43.07929 51.94072 47.51000
# Shear Modulus (GPa) = 23.77652 32.85626 28.31639
#
# Velocity S-wave (km/s) = 3.32399 3.90746 3.62747
# Velocity P-wave (km/s) = 5.89497 6.67041 6.29464
#
# Compressibility (1/GPa) = 0.02321301
#
# Stress axis : x y z
#
# Youngs Moduli (GPa) = 28.54158 44.75355 125.34071
#
# Poissons Ratio (x) = 0.89339 -0.34384
# Poissons Ratio (y) = 0.56976 0.48307
# Poissons Ratio (z) = -0.07830 0.17248
#
# Static dielectric constant tensor:
#      x y z
#    x 3.440020 0.000000 0.000000 
#    y 0.000000 3.992280 0.000000 
#    z 0.000000 0.000000 4.566150 
# 
# 
# High freq. dielectric constant tensor:
#      x y z
#    x 1.802740 0.000000 0.000000 
#    y 0.000000 1.849910 0.000000 
#    z 0.000000 0.000000 1.886710 
# 
# From -- ./inp_files/273.got.cif
#   From: 2010.03.12/outbox.cif.g09.slc.cpg/sg29_1_cif.got.tgz:273.got - 2010.04.14 03:43:10.
