data_PCOD8168921
_publ_section_title
;
Structure prediction by ZEFSAII (Michael W. Deem and Ramdas Pophale) SiO2 
 PCOD8168921
Probable space group: P C A 21
;
_chemical_formula_sum "Si O2"
_cell_formula_units_Z 24
_cell_length_a 8.660744
_cell_length_b 13.272571
_cell_length_c 8.651204
_cell_angle_alpha 90.000000
_cell_angle_beta 90.000000
_cell_angle_gamma 90.000000
_cell_volume 994.458838
_symmetry_space_group_name_H-M "P C A 21"
_symmetry_group_IT_number 29
_symmetry_cell_setting 'orthorhombic'
loop_
_space_group_symop_operation_xyz
x,y,z
-x,-y,1/2+z
1/2-x,y,1/2+z
1/2+x,-y,z
loop_
_atom_site_type_symbol
_atom_site_label
_atom_site_fract_x
_atom_site_fract_y
_atom_site_fract_z
Si Si1 0.094559 0.570426 0.814130
Si Si2 0.960176 0.058264 0.676579
Si Si3 0.584427 0.736506 0.676244
Si Si4 0.239489 0.685337 0.078225
Si Si5 0.650397 0.101620 0.523523
Si Si6 0.267469 0.377714 0.898578
O O1 0.165795 0.588576 0.642934
O O2 0.138588 0.465559 0.895820
O O3 0.910426 0.579581 0.797782
O O4 0.161830 0.662545 0.914154
O O5 0.825038 0.065942 0.550429
O O6 0.088703 0.144742 0.635678
O O7 0.899282 0.071152 0.850944
O O8 0.040164 0.950582 0.650847
O O9 0.402486 0.710068 0.695152
O O10 0.667514 0.656529 0.562987
O O11 0.680870 0.720965 0.832953
O O12 0.357272 0.778611 0.055760
#
# Coordination Sequence:
#
# PCOD8168921 Si02
#       6
#     4   4   4   4   4   4
#     4  11  23  39  64  93 128 170 217 272 338 407
#     4  11  25  45  70 101 138 185 236 293 356 425
#     4  10  24  43  64  93 129 170 222 276 337 408
#     4  10  22  42  65  93 129 172 219 275 337 404
#     4  11  24  44  70 100 138 182 235 292 354 423
#     4  11  24  41  63  94 128 169 219 274 336 413
#
# _framework density 24.133728999999999
#
# number of rings (size 3 to 8) (size 9 to 14) (size 15 to 20)
#    0.000    1.333    0.000    5.000    0.000   13.333 
#    0.000    0.000    0.000    0.000    0.000    0.000 
#    0.000    0.000    0.000    0.000    0.000    0.000 
#
# Total GULP energy -297548.853869 kJ/mol
# GULP energy per Si atom -12397.868911 kJ/mol
# Density = 2.407880 g / cm^3
# Si number density = 24.133729 Si / 1000 Ang^3
#
#
#
# Elastic Constant Matrix: (Units=GPa)
#
#
# Indices 1 2 3 4 5 6 
#
# 1 93.4819 46.3594 33.3987 0.0000 0.0000 0.0000
# 2 46.3594 120.8841 37.6485 0.0000 0.0000 0.0000
# 3 33.3987 37.6485 62.7787 0.0000 0.0000 0.0000
# 4 0.0000 0.0000 0.0000 38.8987 0.0000 0.0000
# 5 0.0000 0.0000 0.0000 0.0000 37.4225 0.0000
# 6 0.0000 0.0000 0.0000 0.0000 0.0000 54.8179
#
#
#
# Elastic Compliance Matrix: (Units=1/GPa)
#
#
# Indices 1 2 3 4 5 6 
#
# 1 0.014564 -0.003901 -0.005409 0.000000 0.000000 0.000000
# 2 -0.003901 0.011217 -0.004652 0.000000 0.000000 0.000000
# 3 -0.005409 -0.004652 0.021596 0.000000 0.000000 0.000000
# 4 0.000000 0.000000 0.000000 0.025708 0.000000 0.000000
# 5 0.000000 0.000000 0.000000 0.000000 0.026722 0.000000
# 6 0.000000 0.000000 0.000000 0.000000 0.000000 0.018242
#
#
# Mechanical properties :
#
#
# Convention : Reuss Voigt Hill
#
# Bulk Modulus (GPa) = 51.40155 56.88419 54.14287
# Shear Modulus (GPa) = 32.79612 36.87702 34.83657
#
# Velocity S-wave (km/s) = 3.69037 3.91324 3.80344
# Velocity P-wave (km/s) = 6.28517 6.63623 6.46308
#
# Compressibility (1/GPa) = 0.01945467
#
# Stress axis : x y z
#
# Youngs Moduli (GPa) = 68.66137 89.14972 46.30458
#
# Poissons Ratio (x) = 0.34776 0.25046
# Poissons Ratio (y) = 0.26784 0.21539
# Poissons Ratio (z) = 0.37138 0.41469
#
# Static dielectric constant tensor:
#      x y z
#    x 4.415900 0.000000 0.000000 
#    y 0.000000 4.311630 0.000000 
#    z 0.000000 0.000000 4.090950 
# 
# 
# High freq. dielectric constant tensor:
#      x y z
#    x 1.962920 0.000000 0.000000 
#    y 0.000000 1.956710 0.000000 
#    z 0.000000 0.000000 1.948910 
# 
# From -- ./inp_files/1134.got.cif
#   From: 2010.03.12/outbox.cif.g09.slc.cpg/sg29_1_cif.got.tgz:1134.got - 2010.04.14 03:43:10.
