data_PCOD8168838
_publ_section_title
;
Structure prediction by ZEFSAII (Michael W. Deem and Ramdas Pophale) SiO2 
 PCOD8168838
Probable space group: P C A 21
;
_chemical_formula_sum "Si O2"
_cell_formula_units_Z 32
_cell_length_a 28.117722
_cell_length_b 6.572947
_cell_length_c 7.705316
_cell_angle_alpha 90.000000
_cell_angle_beta 90.000000
_cell_angle_gamma 90.000000
_cell_volume 1424.067966
_symmetry_space_group_name_H-M "P C A 21"
_symmetry_group_IT_number 29
_symmetry_cell_setting 'orthorhombic'
loop_
_space_group_symop_operation_xyz
x,y,z
-x,-y,1/2+z
1/2-x,y,1/2+z
1/2+x,-y,z
loop_
_atom_site_type_symbol
_atom_site_label
_atom_site_fract_x
_atom_site_fract_y
_atom_site_fract_z
Si Si1 0.694103 0.725683 0.046180
Si Si2 0.404364 0.312317 0.637011
Si Si3 0.002088 0.186408 0.286718
Si Si4 0.140774 0.844054 0.589329
Si Si5 0.665113 0.507146 0.361740
Si Si6 0.293004 0.205502 0.159095
Si Si7 0.417008 0.532282 0.297522
Si Si8 0.058416 0.133341 0.618157
O O1 0.641119 0.827326 0.072378
O O2 0.692793 0.524453 0.174893
O O3 0.738146 0.857208 0.119015
O O4 0.701533 0.676025 0.842888
O O5 0.453028 0.186727 0.654272
O O6 0.389158 0.409882 0.824777
O O7 0.411166 0.498835 0.502445
O O8 0.020443 0.209408 0.480568
O O9 0.968661 0.379483 0.249276
O O10 0.971917 0.980161 0.267792
O O11 0.162515 0.726500 0.423181
O O12 0.125175 0.678422 0.732691
O O13 0.180077 0.991161 0.671197
O O14 0.095435 0.977178 0.528587
O O15 0.689444 0.647478 0.506842
O O16 0.411669 0.314368 0.204015
#
# Coordination Sequence:
#
# PCOD8168838 Si02
#       8
#     4   4   4   4   4   4   4   4
#     4  10  23  43  73  98 139 183 229 291 364 418
#     4  10  21  41  68  96 136 184 233 284 359 419
#     4  11  23  39  65 100 132 186 235 289 352 430
#     4  11  24  42  70  99 136 184 235 286 361 419
#     4  10  24  45  70 100 137 186 228 290 357 424
#     4  12  22  49  71 102 142 181 234 302 351 433
#     4  11  23  43  65  98 137 189 230 292 354 424
#     4  11  24  40  66  97 141 179 234 298 352 419
#
# _framework density 22.470839000000002
#
# number of rings (size 3 to 8) (size 9 to 14) (size 15 to 20)
#    0.750    0.500    1.250    5.250    0.000    5.000 
#    4.500    0.000    0.000    0.000    0.000    0.000 
#    0.000    0.000    0.000    0.000    0.000    0.000 
#
# Total GULP energy -396481.638191 kJ/mol
# GULP energy per Si atom -12390.051193 kJ/mol
# Density = 2.241969 g / cm^3
# Si number density = 22.470839 Si / 1000 Ang^3
#
#
#
# Elastic Constant Matrix: (Units=GPa)
#
#
# Indices 1 2 3 4 5 6 
#
# 1 147.5261 50.0409 41.2431 0.0000 0.0000 0.0000
# 2 50.0409 110.6453 45.2783 0.0000 0.0000 0.0000
# 3 41.2431 45.2783 136.1772 0.0000 0.0000 0.0000
# 4 0.0000 0.0000 0.0000 24.9246 0.0000 0.0000
# 5 0.0000 0.0000 0.0000 0.0000 41.8118 0.0000
# 6 0.0000 0.0000 0.0000 0.0000 0.0000 25.8617
#
#
#
# Elastic Compliance Matrix: (Units=1/GPa)
#
#
# Indices 1 2 3 4 5 6 
#
# 1 0.008249 -0.003135 -0.001456 0.000000 0.000000 0.000000
# 2 -0.003135 0.011653 -0.002925 0.000000 0.000000 0.000000
# 3 -0.001456 -0.002925 0.008757 0.000000 0.000000 0.000000
# 4 0.000000 0.000000 0.000000 0.040121 0.000000 0.000000
# 5 0.000000 0.000000 0.000000 0.000000 0.023917 0.000000
# 6 0.000000 0.000000 0.000000 0.000000 0.000000 0.038667
#
#
# Mechanical properties :
#
#
# Convention : Reuss Voigt Hill
#
# Bulk Modulus (GPa) = 73.38518 74.16369 73.77443
# Shear Modulus (GPa) = 33.12638 35.70537 34.41587
#
# Velocity S-wave (km/s) = 3.84369 3.99051 3.91779
# Velocity P-wave (km/s) = 7.24068 7.36941 7.30533
#
# Compressibility (1/GPa) = 0.01362673
#
# Stress axis : x y z
#
# Youngs Moduli (GPa) = 121.22928 85.81736 114.19588
#
# Poissons Ratio (x) = 0.26902 0.16626
# Poissons Ratio (y) = 0.38004 0.33403
# Poissons Ratio (z) = 0.17650 0.25102
#
# Static dielectric constant tensor:
#      x y z
#    x 4.380860 0.000000 0.000000 
#    y 0.000000 3.709820 0.000000 
#    z 0.000000 0.000000 4.088590 
# 
# 
# High freq. dielectric constant tensor:
#      x y z
#    x 1.904650 0.000000 0.000000 
#    y 0.000000 1.842890 0.000000 
#    z 0.000000 0.000000 1.892130 
# 
# From -- ./inp_files/2610.got.cif
#   From: 2010.03.12/outbox.cif.g09.slc.cpg/sg29_2_cif.got.tgz:2610.got - 2010.04.14 03:43:10.
