data_PCOD8168091
_publ_section_title
;
Structure prediction by ZEFSAII (Michael W. Deem and Ramdas Pophale) SiO2 
 PCOD8168091
Probable space group: P M A 2
;
_chemical_formula_sum "Si O2"
_cell_formula_units_Z 24
_cell_length_a 8.770220
_cell_length_b 13.653698
_cell_length_c 13.026321
_cell_angle_alpha 90.000000
_cell_angle_beta 90.000000
_cell_angle_gamma 90.000000
_cell_volume 1559.848991
_symmetry_space_group_name_H-M "P M A 2"
_symmetry_group_IT_number 28
_symmetry_cell_setting 'orthorhombic'
loop_
_space_group_symop_operation_xyz
x,y,z
-x,-y,z
1/2-x,y,z
1/2+x,-y,z
loop_
_atom_site_type_symbol
_atom_site_label
_atom_site_fract_x
_atom_site_fract_y
_atom_site_fract_z
Si Si1 0.073645 0.894798 0.306980
Si Si2 0.929628 0.892400 0.105746
Si Si3 0.927620 0.106927 0.534091
Si Si4 0.922217 0.398422 0.809088
Si Si5 0.577538 0.208933 0.917024
Si Si6 0.930243 0.772745 0.713307
O O1 0.250000 0.904068 0.278020
O O2 0.051092 0.846891 0.419393
O O3 0.989085 0.841136 0.211824
O O4 0.000000 0.000000 0.315284
O O5 0.750000 0.901432 0.108507
O O6 0.000000 0.000000 0.091268
O O7 0.977900 0.823220 0.012880
O O8 0.750000 0.098531 0.562310
O O9 0.011607 0.181569 0.608273
O O10 0.000000 0.000000 0.544604
O O11 0.750000 0.417254 0.771396
O O12 0.923574 0.328137 0.910183
O O13 0.000000 0.500000 0.838100
O O14 0.013950 0.341052 0.718602
O O15 0.750000 0.168445 0.926755
O O16 0.502497 0.168227 0.810782
O O17 0.750000 0.778772 0.718936
#
# Coordination Sequence:
#
# PCOD8168091 Si02
#       6
#     4   4   4   4   4   4
#     4   9  17  29  45  63  87 120 159 195 226 264
#     4  11  20  30  46  66  93 125 158 193 228 270
#     4  10  19  31  46  66  93 126 160 193 229 269
#     4   9  18  32  51  70  93 119 148 188 228 276
#     4   9  19  33  47  67  94 120 153 189 227 275
#     4  10  19  31  47  69  95 121 154 189 229 277
#
# _framework density 15.386106
#
# number of rings (size 3 to 8) (size 9 to 14) (size 15 to 20)
#    1.000    1.333    0.000    5.500    0.000    2.667 
#    0.000    3.333    0.000    0.000    0.000    1.167 
#    0.000    5.333    0.000    0.000    0.000    0.000 
#
# Total GULP energy -297328.391999 kJ/mol
# GULP energy per Si atom -12388.683000 kJ/mol
# Density = 1.535109 g / cm^3
# Si number density = 15.386106 Si / 1000 Ang^3
#
#
#
# Elastic Constant Matrix: (Units=GPa)
#
#
# Indices 1 2 3 4 5 6 
#
# 1 148.8145 33.9482 58.7899 0.0000 0.0000 0.0000
# 2 33.9482 54.4304 36.1663 0.0000 0.0000 0.0000
# 3 58.7899 36.1663 113.4055 0.0000 0.0000 0.0000
# 4 0.0000 0.0000 0.0000 -1.5310 0.0000 0.0000
# 5 0.0000 0.0000 0.0000 0.0000 26.9397 0.0000
# 6 0.0000 0.0000 0.0000 0.0000 0.0000 24.6397
#
#
#
# Elastic Compliance Matrix: (Units=1/GPa)
#
#
# Indices 1 2 3 4 5 6 
#
# 1 0.008853 -0.003137 -0.003589 0.000000 0.000000 0.000000
# 2 -0.003137 0.024423 -0.006163 0.000000 0.000000 0.000000
# 3 -0.003589 -0.006163 0.012644 0.000000 0.000000 0.000000
# 4 0.000000 0.000000 0.000000 -0.653180 0.000000 0.000000
# 5 0.000000 0.000000 0.000000 0.000000 0.037120 0.000000
# 6 0.000000 0.000000 0.000000 0.000000 0.000000 0.040585
#
#
# Mechanical properties :
#
#
# Convention : Reuss Voigt Hill
#
# Bulk Modulus (GPa) = 49.64514 63.82880 56.73697
# Shear Modulus (GPa) = -10.05909 22.52609 6.23350
#
# Velocity S-wave (km/s) = -2.55968 3.83045 2.01499
# Velocity P-wave (km/s) = 4.85801 7.81907 6.50915
#
# Compressibility (1/GPa) = 0.02014296
#
# Stress axis : x y z
#
# Youngs Moduli (GPa) = 112.95203 40.94433 79.08945
#
# Poissons Ratio (x) = 0.12844 0.28387
# Poissons Ratio (y) = 0.35433 0.48740
# Poissons Ratio (z) = 0.40540 0.25233
#
# Static dielectric constant tensor:
#      x y z
#    x 3.138220 0.000000 0.000000 
#    y 0.000000 2.584900 0.000000 
#    z 0.000000 0.000000 3.284090 
# 
# 
# High freq. dielectric constant tensor:
#      x y z
#    x 1.616820 0.000000 0.000000 
#    y 0.000000 1.541120 0.000000 
#    z 0.000000 0.000000 1.588380 
# 
# From -- ./inp_files/5122.got.cif
#   From: 2010.03.12/outbox.cif.g09.slc.cpg/sg28_3_cif.got.tgz:5122.got - 2010.04.14 03:39:34.
