data_PCOD8168601
_publ_section_title
;
Structure prediction by ZEFSAII (Michael W. Deem and Ramdas Pophale) SiO2 
 PCOD8168601
Probable space group: P C A 21
;
_chemical_formula_sum "Si O2"
_cell_formula_units_Z 32
_cell_length_a 19.024600
_cell_length_b 8.554816
_cell_length_c 9.735430
_cell_angle_alpha 90.000000
_cell_angle_beta 90.000000
_cell_angle_gamma 90.000000
_cell_volume 1584.460241
_symmetry_space_group_name_H-M "P C A 21"
_symmetry_group_IT_number 29
_symmetry_cell_setting 'orthorhombic'
loop_
_space_group_symop_operation_xyz
x,y,z
-x,-y,1/2+z
1/2-x,y,1/2+z
1/2+x,-y,z
loop_
_atom_site_type_symbol
_atom_site_label
_atom_site_fract_x
_atom_site_fract_y
_atom_site_fract_z
Si Si1 0.865051 0.151596 0.643920
Si Si2 0.770947 0.256176 0.036443
Si Si3 0.551932 0.448455 0.191547
Si Si4 0.357884 0.133880 0.478556
Si Si5 0.071578 0.429226 0.896982
Si Si6 0.673803 0.677460 0.245348
Si Si7 0.785649 0.437209 0.299674
Si Si8 0.212414 0.029998 0.379849
O O1 0.813560 0.258413 0.553950
O O2 0.925564 0.265278 0.701416
O O3 0.898206 0.013623 0.549137
O O4 0.811240 0.076675 0.753101
O O5 0.774476 0.355891 0.895205
O O6 0.802097 0.079400 0.014061
O O7 0.808354 0.332905 0.167586
O O8 0.479739 0.467230 0.272431
O O9 0.609846 0.558034 0.263871
O O10 0.537165 0.507606 0.037522
O O11 0.414379 0.241468 0.399096
O O12 0.324446 0.241137 0.597363
O O13 0.295967 0.070774 0.378255
O O14 0.143953 0.521502 0.879527
O O15 0.749228 0.594634 0.247333
O O16 0.669235 0.807064 0.368826
#
# Coordination Sequence:
#
# PCOD8168601 Si02
#       8
#     4   4   4   4   4   4   4   4
#     4  10  19  37  63  87 124 165 197 259 319 374
#     4  11  20  35  61  95 125 155 203 259 326 373
#     4  11  23  44  64  90 129 175 214 263 318 378
#     4   9  20  38  61  91 128 159 204 259 327 372
#     4  11  24  43  64  91 128 172 215 266 315 384
#     4  10  20  37  63  90 128 161 208 265 322 367
#     4  12  21  38  65  96 122 163 210 268 319 373
#     4  10  19  34  63  96 122 158 201 261 322 383
#
# _framework density 20.196152000000001
#
# number of rings (size 3 to 8) (size 9 to 14) (size 15 to 20)
#    0.000    1.500    5.000    0.750    0.000    2.000 
#    0.000    3.750    0.000    0.000    0.000    0.000 
#    0.000    0.000    0.000    0.000    0.000    0.000 
#
# Total GULP energy -396484.527172 kJ/mol
# GULP energy per Si atom -12390.141474 kJ/mol
# Density = 2.015019 g / cm^3
# Si number density = 20.196152 Si / 1000 Ang^3
#
#
#
# Elastic Constant Matrix: (Units=GPa)
#
#
# Indices 1 2 3 4 5 6 
#
# 1 47.4509 23.3048 16.1339 0.0000 0.0000 0.0000
# 2 23.3048 117.7917 32.3588 0.0000 0.0000 0.0000
# 3 16.1339 32.3588 73.6460 0.0000 0.0000 0.0000
# 4 0.0000 0.0000 0.0000 38.8377 0.0000 0.0000
# 5 0.0000 0.0000 0.0000 0.0000 33.7509 0.0000
# 6 0.0000 0.0000 0.0000 0.0000 0.0000 22.8736
#
#
#
# Elastic Compliance Matrix: (Units=1/GPa)
#
#
# Indices 1 2 3 4 5 6 
#
# 1 0.024168 -0.003784 -0.003632 0.000000 0.000000 0.000000
# 2 -0.003784 0.010247 -0.003674 0.000000 0.000000 0.000000
# 3 -0.003632 -0.003674 0.015988 0.000000 0.000000 0.000000
# 4 0.000000 0.000000 0.000000 0.025748 0.000000 0.000000
# 5 0.000000 0.000000 0.000000 0.000000 0.029629 0.000000
# 6 0.000000 0.000000 0.000000 0.000000 0.000000 0.043718
#
#
# Mechanical properties :
#
#
# Convention : Reuss Voigt Hill
#
# Bulk Modulus (GPa) = 35.43009 42.49818 38.96414
# Shear Modulus (GPa) = 27.61124 30.23184 28.92154
#
# Velocity S-wave (km/s) = 3.70151 3.87319 3.78833
# Velocity P-wave (km/s) = 5.98743 6.41019 6.20241
#
# Compressibility (1/GPa) = 0.02822459
#
# Stress axis : x y z
#
# Youngs Moduli (GPa) = 41.37760 97.58613 62.54588
#
# Poissons Ratio (x) = 0.36924 0.22717
# Poissons Ratio (y) = 0.15656 0.22977
# Poissons Ratio (z) = 0.15028 0.35849
#
# Static dielectric constant tensor:
#      x y z
#    x 3.146020 0.000000 0.000000 
#    y 0.000000 4.178740 0.000000 
#    z 0.000000 0.000000 3.712730 
# 
# 
# High freq. dielectric constant tensor:
#      x y z
#    x 1.734880 0.000000 0.000000 
#    y 0.000000 1.816000 0.000000 
#    z 0.000000 0.000000 1.786030 
# 
# From -- ./inp_files/2287.got.cif
#   From: 2010.03.12/outbox.cif.g09.slc.cpg/sg29_2_cif.got.tgz:2287.got - 2010.04.14 03:43:10.
