data_PCOD8168203
_publ_section_title
;
Structure prediction by ZEFSAII (Michael W. Deem and Ramdas Pophale) SiO2 
 PCOD8168203
Probable space group: P M A 2
;
_chemical_formula_sum "Si O2"
_cell_formula_units_Z 32
_cell_length_a 9.174616
_cell_length_b 16.336402
_cell_length_c 11.048796
_cell_angle_alpha 90.000000
_cell_angle_beta 90.000000
_cell_angle_gamma 90.000000
_cell_volume 1655.995922
_symmetry_space_group_name_H-M "P M A 2"
_symmetry_group_IT_number 28
_symmetry_cell_setting 'orthorhombic'
loop_
_space_group_symop_operation_xyz
x,y,z
-x,-y,z
1/2-x,y,z
1/2+x,-y,z
loop_
_atom_site_type_symbol
_atom_site_label
_atom_site_fract_x
_atom_site_fract_y
_atom_site_fract_z
Si Si1 0.583562 0.912475 0.093000
Si Si2 0.913914 0.656748 0.840918
Si Si3 0.087843 0.079703 0.821777
Si Si4 0.425186 0.584064 0.059463
Si Si5 0.582252 0.212082 0.712436
Si Si6 0.914286 0.298331 0.459744
Si Si7 0.580746 0.245406 0.195351
Si Si8 0.907888 0.576178 0.583090
O O1 0.750000 0.924093 0.140946
O O2 0.507960 0.834757 0.157028
O O3 0.500000 0.000000 0.113794
O O4 0.589358 0.880873 0.954984
O O5 0.750000 0.673568 0.892532
O O6 0.897449 0.626586 0.704938
O O7 0.003325 0.595176 0.926650
O O8 0.009769 0.737792 0.823452
O O9 0.250000 0.064074 0.772695
O O10 0.001511 0.126996 0.717408
O O11 0.000000 0.000000 0.845086
O O12 0.500000 0.500000 0.113052
O O13 0.250000 0.571892 0.051388
O O14 0.465409 0.666613 0.135613
O O15 0.750000 0.202819 0.747280
O O16 0.560975 0.242151 0.576441
O O17 0.750000 0.331985 0.455911
O O18 0.951086 0.249963 0.338427
O O19 0.019214 0.375963 0.471823
O O20 0.750000 0.229699 0.166601
O O21 0.750000 0.548973 0.536652
O O22 0.000000 0.500000 0.621433
#
# Coordination Sequence:
#
# PCOD8168203 Si02
#       8
#     4   4   4   4   4   4   4   4
#     4  10  21  37  60  88 115 145 181 225 275 329
#     4  10  20  34  53  78 108 140 177 222 273 329
#     4  10  20  34  54  82 114 142 172 213 264 323
#     4  11  23  37  55  80 112 149 187 230 279 332
#     4  10  19  33  55  80 107 140 177 218 269 325
#     4   9  20  38  56  75 103 140 181 223 266 316
#     4  10  22  40  59  80 110 148 189 233 278 324
#     4  10  20  33  52  77 104 136 175 222 272 322
#
# _framework density 19.323718
#
# number of rings (size 3 to 8) (size 9 to 14) (size 15 to 20)
#    0.000    2.000    0.000    3.375    0.000    8.500 
#    0.000    1.875    0.000    0.000    0.000    0.000 
#    0.000    0.000    0.000    0.000    0.000    0.000 
#
# Total GULP energy -396448.046665 kJ/mol
# GULP energy per Si atom -12389.001458 kJ/mol
# Density = 1.927974 g / cm^3
# Si number density = 19.323718 Si / 1000 Ang^3
#
#
#
# Elastic Constant Matrix: (Units=GPa)
#
#
# Indices 1 2 3 4 5 6 
#
# 1 152.1065 58.8091 53.5422 0.0000 0.0000 0.0000
# 2 58.8091 89.7027 38.5603 0.0000 0.0000 0.0000
# 3 53.5422 38.5603 37.8664 0.0000 0.0000 0.0000
# 4 0.0000 0.0000 0.0000 17.3148 0.0000 0.0000
# 5 0.0000 0.0000 0.0000 0.0000 18.2247 0.0000
# 6 0.0000 0.0000 0.0000 0.0000 0.0000 33.8764
#
#
#
# Elastic Compliance Matrix: (Units=1/GPa)
#
#
# Indices 1 2 3 4 5 6 
#
# 1 0.013152 -0.001118 -0.017458 0.000000 0.000000 0.000000
# 2 -0.001118 0.019922 -0.018707 0.000000 0.000000 0.000000
# 3 -0.017458 -0.018707 0.070144 0.000000 0.000000 0.000000
# 4 0.000000 0.000000 0.000000 0.057754 0.000000 0.000000
# 5 0.000000 0.000000 0.000000 0.000000 0.054871 0.000000
# 6 0.000000 0.000000 0.000000 0.000000 0.000000 0.029519
#
#
# Mechanical properties :
#
#
# Convention : Reuss Voigt Hill
#
# Bulk Modulus (GPa) = 34.90117 64.61099 49.75608
# Shear Modulus (GPa) = 15.17548 22.46743 18.82145
#
# Velocity S-wave (km/s) = 2.80541 3.41352 3.12430
# Velocity P-wave (km/s) = 5.34736 7.00320 6.23054
#
# Compressibility (1/GPa) = 0.02865233
#
# Stress axis : x y z
#
# Youngs Moduli (GPa) = 76.03472 50.19535 14.25632
#
# Poissons Ratio (x) = 0.05610 0.24889
# Poissons Ratio (y) = 0.08497 0.26669
# Poissons Ratio (z) = 1.32745 0.93901
#
# Static dielectric constant tensor:
#      x y z
#    x 3.893970 0.000000 0.000000 
#    y 0.000000 3.589260 0.000000 
#    z 0.000000 0.000000 3.449110 
# 
# 
# High freq. dielectric constant tensor:
#      x y z
#    x 1.769960 0.000000 0.000000 
#    y 0.000000 1.750670 0.000000 
#    z 0.000000 0.000000 1.732450 
# 
# From -- ./inp_files/5026.got.cif
#   From: 2010.03.12/outbox.cif.g09.slc.cpg/sg28_3_cif.got.tgz:5026.got - 2010.04.14 03:39:34.
