data_PCOD8168547
_publ_section_title
;
Structure prediction by ZEFSAII (Michael W. Deem and Ramdas Pophale) SiO2 
 PCOD8168547
Probable space group: P C A 21
;
_chemical_formula_sum "Si O2"
_cell_formula_units_Z 32
_cell_length_a 21.915043
_cell_length_b 15.262344
_cell_length_c 5.307074
_cell_angle_alpha 90.000000
_cell_angle_beta 90.000000
_cell_angle_gamma 90.000000
_cell_volume 1775.083178
_symmetry_space_group_name_H-M "P C A 21"
_symmetry_group_IT_number 29
_symmetry_cell_setting 'orthorhombic'
loop_
_space_group_symop_operation_xyz
x,y,z
-x,-y,1/2+z
1/2-x,y,1/2+z
1/2+x,-y,z
loop_
_atom_site_type_symbol
_atom_site_label
_atom_site_fract_x
_atom_site_fract_y
_atom_site_fract_z
Si Si1 0.018768 0.796191 0.998760
Si Si2 0.606409 0.872995 0.998760
Si Si3 0.463345 0.854283 0.998760
Si Si4 0.919875 0.947928 0.998760
Si Si5 0.078445 0.476186 0.998760
Si Si6 0.029714 0.393546 0.498760
Si Si7 0.214002 0.257192 0.998760
Si Si8 0.214285 0.463860 0.998760
O O1 0.977618 0.883625 0.998760
O O2 0.977115 0.710506 0.998760
O O3 0.060905 0.803119 0.747751
O O4 0.060905 0.803119 0.249769
O O5 0.620318 0.931151 0.749482
O O6 0.648057 0.787233 0.998760
O O7 0.536570 0.841822 0.998760
O O8 0.620318 0.931151 0.248037
O O9 0.444660 0.954390 0.998760
O O10 0.066858 0.419537 0.747865
O O11 0.036854 0.562544 0.998760
O O12 0.066858 0.419538 0.249656
O O13 0.148057 0.509429 0.998760
O O14 0.250000 0.227615 0.748760
O O15 0.202893 0.360376 0.998760
O O16 0.250000 0.494170 0.248760
#
# Coordination Sequence:
#
# PCOD8168547 Si02
#       8
#     4   4   4   4   4   4   4   4
#     4  10  18  28  46  67  97 129 165 191 240 301
#     4  10  18  29  46  63  89 136 155 194 247 272
#     4  10  19  31  44  73 101 127 161 202 231 304
#     4  10  19  29  46  71 100 126 163 197 237 300
#     4  10  21  36  51  71 110 128 175 212 253 308
#     4  10  21  33  51  78  99 143 164 211 259 312
#     4  10  21  33  44  67  97 124 174 212 226 279
#     4  10  21  35  52  72  97 137 173 213 251 292
#
# _framework density 18.027325999999999
#
# number of rings (size 3 to 8) (size 9 to 14) (size 15 to 20)
#    0.000    2.000    0.000    6.000    7.000    0.000 
#    0.000    0.000    0.000    0.000    0.000    0.000 
#    0.000   34.000    0.000    0.000    0.000    0.000 
#
# Total GULP energy -396671.961917 kJ/mol
# GULP energy per Si atom -12395.998810 kJ/mol
# Density = 1.798629 g / cm^3
# Si number density = 18.027326 Si / 1000 Ang^3
#
#
#
# Elastic Constant Matrix: (Units=GPa)
#
#
# Indices 1 2 3 4 5 6 
#
# 1 69.0737 2.1160 25.0043 0.0000 0.0000 0.0000
# 2 2.1160 24.1481 14.5827 0.0000 0.0000 0.0000
# 3 25.0043 14.5827 194.8488 0.0000 0.0000 0.0000
# 4 0.0000 0.0000 0.0000 13.8816 0.0000 0.0000
# 5 0.0000 0.0000 0.0000 0.0000 18.2878 0.0000
# 6 0.0000 0.0000 0.0000 0.0000 0.0000 21.2105
#
#
#
# Elastic Compliance Matrix: (Units=1/GPa)
#
#
# Indices 1 2 3 4 5 6 
#
# 1 0.015183 -0.000161 -0.001936 0.000000 0.000000 0.000000
# 2 -0.000161 0.043373 -0.003225 0.000000 0.000000 0.000000
# 3 -0.001936 -0.003225 0.005622 0.000000 0.000000 0.000000
# 4 0.000000 0.000000 0.000000 0.072038 0.000000 0.000000
# 5 0.000000 0.000000 0.000000 0.000000 0.054681 0.000000
# 6 0.000000 0.000000 0.000000 0.000000 0.000000 0.047146
#
#
# Mechanical properties :
#
#
# Convention : Reuss Voigt Hill
#
# Bulk Modulus (GPa) = 18.68021 41.27516 29.97768
# Shear Modulus (GPa) = 18.75937 27.10050 22.92993
#
# Velocity S-wave (km/s) = 3.22934 3.88145 3.57032
# Velocity P-wave (km/s) = 4.92844 6.55996 5.80184
#
# Compressibility (1/GPa) = 0.05353260
#
# Stress axis : x y z
#
# Youngs Moduli (GPa) = 65.86236 23.05580 177.87068
#
# Poissons Ratio (x) = 0.00371 0.34442
# Poissons Ratio (y) = 0.01061 0.57371
# Poissons Ratio (z) = 0.12753 0.07436
#
# Static dielectric constant tensor:
#      x y z
#    x 2.934490 0.000000 0.000000 
#    y 0.000000 3.020640 0.000000 
#    z 0.000000 0.000000 5.283760 
# 
# 
# High freq. dielectric constant tensor:
#      x y z
#    x 1.643230 0.000000 0.000000 
#    y 0.000000 1.671070 0.000000 
#    z 0.000000 0.000000 1.744340 
# 
# From -- ./inp_files/563.got.cif
#   From: 2010.03.12/outbox.cif.g09.slc.cpg/sg29_1_cif.got.tgz:563.got - 2010.04.14 03:43:10.
