data_PCOD8168016
_publ_section_title
;
Structure prediction by ZEFSAII (Michael W. Deem and Ramdas Pophale) SiO2 
 PCOD8168016
Probable space group: P M A 2
;
_chemical_formula_sum "Si O2"
_cell_formula_units_Z 32
_cell_length_a 8.773907
_cell_length_b 14.248593
_cell_length_c 15.570879
_cell_angle_alpha 90.000000
_cell_angle_beta 90.000000
_cell_angle_gamma 90.000000
_cell_volume 1946.606360
_symmetry_space_group_name_H-M "P M A 2"
_symmetry_group_IT_number 28
_symmetry_cell_setting 'orthorhombic'
loop_
_space_group_symop_operation_xyz
x,y,z
-x,-y,z
1/2-x,y,z
1/2+x,-y,z
loop_
_atom_site_type_symbol
_atom_site_label
_atom_site_fract_x
_atom_site_fract_y
_atom_site_fract_z
Si Si1 0.570021 0.898287 0.834330
Si Si2 0.428739 0.220588 0.996083
Si Si3 0.431632 0.896372 0.334330
Si Si4 0.071261 0.220588 0.672577
Si Si5 0.570007 0.897951 0.162246
Si Si6 0.570008 0.897951 0.506414
Si Si7 0.929355 0.402975 0.932346
Si Si8 0.929355 0.402975 0.736314
O O1 0.750000 0.908694 0.834330
O O2 0.511443 0.843595 0.750486
O O3 0.500000 0.000000 0.834330
O O4 0.511443 0.843595 0.918174
O O5 0.250000 0.238431 0.987701
O O6 0.472351 0.170003 0.084309
O O7 0.512183 0.320288 0.993544
O O8 0.250000 0.896028 0.334330
O O9 0.496207 0.849356 0.247190
O O10 0.496207 0.849356 0.421470
O O11 0.500000 0.000000 0.334330
O O12 0.250000 0.238431 0.680960
O O13 0.027649 0.170003 0.584351
O O14 0.987817 0.320288 0.675117
O O15 0.750000 0.909391 0.174555
O O16 0.500000 0.000000 0.143532
O O17 0.750000 0.909392 0.494105
O O18 0.500000 0.000000 0.525128
O O19 0.750000 0.410680 0.939160
O O20 0.982721 0.383554 0.834330
O O21 0.000000 0.500000 0.966100
O O22 0.750000 0.410680 0.729500
O O23 0.000000 0.500000 0.702560
#
# Coordination Sequence:
#
# PCOD8168016 Si02
#       8
#     4   4   4   4   4   4   4   4
#     4  10  20  32  45  64  95 132 165 196 230 276
#     4  10  20  33  49  69  97 130 163 200 241 284
#     4  10  18  30  48  68  93 126 161 204 246 286
#     4  10  20  33  49  69  97 130 163 200 241 284
#     4  10  19  31  48  71  98 130 164 202 243 286
#     4  10  19  31  48  71  98 130 164 202 243 286
#     4  10  20  33  51  72  94 124 161 204 247 287
#     4  10  20  33  51  72  94 124 161 204 247 287
#
# _framework density 16.438866000000001
#
# number of rings (size 3 to 8) (size 9 to 14) (size 15 to 20)
#    0.000    2.000    1.250    4.875    0.000    4.000 
#    0.000    0.000    0.000    0.000    0.000    0.875 
#    0.000    0.000    0.000    0.000    0.000    0.000 
#
# Total GULP energy -396832.703151 kJ/mol
# GULP energy per Si atom -12401.021973 kJ/mol
# Density = 1.640145 g / cm^3
# Si number density = 16.438866 Si / 1000 Ang^3
#
#
#
# Elastic Constant Matrix: (Units=GPa)
#
#
# Indices 1 2 3 4 5 6 
#
# 1 78.0558 47.6564 55.9001 0.0000 0.0000 0.0000
# 2 47.6564 120.5241 65.9034 0.0000 0.0000 0.0000
# 3 55.9001 65.9034 137.7808 0.0000 0.0000 0.0000
# 4 0.0000 0.0000 0.0000 11.8978 0.0000 0.0000
# 5 0.0000 0.0000 0.0000 0.0000 22.9089 0.0000
# 6 0.0000 0.0000 0.0000 0.0000 0.0000 30.4455
#
#
#
# Elastic Compliance Matrix: (Units=1/GPa)
#
#
# Indices 1 2 3 4 5 6 
#
# 1 0.019818 -0.004658 -0.005812 0.000000 0.000000 0.000000
# 2 -0.004658 0.012331 -0.004008 0.000000 0.000000 0.000000
# 3 -0.005812 -0.004008 0.011533 0.000000 0.000000 0.000000
# 4 0.000000 0.000000 0.000000 0.084049 0.000000 0.000000
# 5 0.000000 0.000000 0.000000 0.000000 0.043651 0.000000
# 6 0.000000 0.000000 0.000000 0.000000 0.000000 0.032846
#
#
# Mechanical properties :
#
#
# Convention : Reuss Voigt Hill
#
# Bulk Modulus (GPa) = 67.91333 75.03117 71.47225
# Shear Modulus (GPa) = 21.00021 24.17715 22.58868
#
# Velocity S-wave (km/s) = 3.57805 3.83917 3.71091
# Velocity P-wave (km/s) = 7.64672 8.08665 7.86976
#
# Compressibility (1/GPa) = 0.01472465
#
# Stress axis : x y z
#
# Youngs Moduli (GPa) = 50.45969 81.09930 86.70524
#
# Poissons Ratio (x) = 0.37775 0.50397
# Poissons Ratio (y) = 0.23503 0.34753
# Poissons Ratio (z) = 0.29330 0.32506
#
# Static dielectric constant tensor:
#      x y z
#    x 3.081410 0.000000 0.000000 
#    y 0.000000 2.942980 0.000000 
#    z 0.000000 0.000000 3.505720 
# 
# 
# High freq. dielectric constant tensor:
#      x y z
#    x 1.643880 0.000000 0.000000 
#    y 0.000000 1.610330 0.000000 
#    z 0.000000 0.000000 1.627670 
# 
# From -- ./inp_files/6418.got.cif
#   From: 2010.03.12/outbox.cif.g09.slc.cpg/sg28_4_cif.got.tgz:6418.got - 2010.04.14 03:39:34.
