data_PCOD8168600
_publ_section_title
;
Structure prediction by ZEFSAII (Michael W. Deem and Ramdas Pophale) SiO2 
 PCOD8168600
Probable space group: P C A 21
;
_chemical_formula_sum "Si O2"
_cell_formula_units_Z 32
_cell_length_a 17.395888
_cell_length_b 16.677692
_cell_length_c 5.172985
_cell_angle_alpha 90.000000
_cell_angle_beta 90.000000
_cell_angle_gamma 90.000000
_cell_volume 1500.803283
_symmetry_space_group_name_H-M "P C A 21"
_symmetry_group_IT_number 29
_symmetry_cell_setting 'orthorhombic'
loop_
_space_group_symop_operation_xyz
x,y,z
-x,-y,1/2+z
1/2-x,y,1/2+z
1/2+x,-y,z
loop_
_atom_site_type_symbol
_atom_site_label
_atom_site_fract_x
_atom_site_fract_y
_atom_site_fract_z
Si Si1 0.212509 0.457892 0.577800
Si Si2 0.958943 0.710611 0.769553
Si Si3 0.206421 0.777902 0.219780
Si Si4 0.531373 0.218340 0.259192
Si Si5 0.033762 0.463161 0.462667
Si Si6 0.036591 0.967619 0.259874
Si Si7 0.220443 0.281232 0.161381
Si Si8 0.291482 0.968743 0.729302
O O1 0.259513 0.499330 0.342654
O O2 0.122699 0.470349 0.537006
O O3 0.235418 0.364054 0.583282
O O4 0.988569 0.624198 0.858946
O O5 0.868222 0.707762 0.724410
O O6 0.998198 0.732559 0.499709
O O7 0.981036 0.771475 0.999255
O O8 0.248418 0.742824 0.472906
O O9 0.117848 0.750551 0.208795
O O10 0.210929 0.873286 0.220328
O O11 0.530227 0.125249 0.335056
O O12 0.985782 0.477011 0.726291
O O13 0.123089 0.999589 0.278521
O O14 0.989470 0.019278 0.465613
O O15 0.265561 0.233845 0.391023
O O16 0.238757 0.003359 0.958459
#
# Coordination Sequence:
#
# PCOD8168600 Si02
#       8
#     4   4   4   4   4   4   4   4
#     4  10  19  36  63  88 115 157 218 259 285 364
#     4  12  23  40  63  92 130 159 204 271 312 375
#     4   9  17  33  57  84 110 148 204 251 289 360
#     4  11  24  38  63  96 125 162 210 263 321 363
#     4  12  25  39  63  96 127 159 206 273 319 360
#     4  11  22  39  63  90 127 167 206 257 319 385
#     4  10  19  34  63  88 113 158 219 258 281 358
#     4   9  17  31  55  86 107 144 209 254 282 347
#
# _framework density 21.321916000000002
#
# number of rings (size 3 to 8) (size 9 to 14) (size 15 to 20)
#    0.000    1.500    2.500    4.500    3.500    4.000 
#    0.000    0.000    0.000   30.000    0.000    0.000 
#    0.000    0.000    0.000    0.000    0.000    0.000 
#
# Total GULP energy -396708.208602 kJ/mol
# GULP energy per Si atom -12397.131519 kJ/mol
# Density = 2.127339 g / cm^3
# Si number density = 21.321916 Si / 1000 Ang^3
#
#
#
# Elastic Constant Matrix: (Units=GPa)
#
#
# Indices 1 2 3 4 5 6 
#
# 1 156.7516 32.2982 70.9842 0.0000 0.0000 0.0000
# 2 32.2982 27.8679 12.1451 0.0000 0.0000 0.0000
# 3 70.9842 12.1451 190.7952 0.0000 0.0000 0.0000
# 4 0.0000 0.0000 0.0000 25.5938 0.0000 0.0000
# 5 0.0000 0.0000 0.0000 0.0000 37.0169 0.0000
# 6 0.0000 0.0000 0.0000 0.0000 0.0000 22.2932
#
#
#
# Elastic Compliance Matrix: (Units=1/GPa)
#
#
# Indices 1 2 3 4 5 6 
#
# 1 0.009817 -0.010066 -0.003012 0.000000 0.000000 0.000000
# 2 -0.010066 0.047227 0.000739 0.000000 0.000000 0.000000
# 3 -0.003012 0.000739 0.006315 0.000000 0.000000 0.000000
# 4 0.000000 0.000000 0.000000 0.039072 0.000000 0.000000
# 5 0.000000 0.000000 0.000000 0.000000 0.027015 0.000000
# 6 0.000000 0.000000 0.000000 0.000000 0.000000 0.044857
#
#
# Mechanical properties :
#
#
# Convention : Reuss Voigt Hill
#
# Bulk Modulus (GPa) = 25.85179 67.36330 46.60755
# Shear Modulus (GPa) = 23.59888 34.31326 28.95607
#
# Velocity S-wave (km/s) = 3.33045 4.01595 3.68916
# Velocity P-wave (km/s) = 5.19038 7.29149 6.32874
#
# Compressibility (1/GPa) = 0.03868204
#
# Stress axis : x y z
#
# Youngs Moduli (GPa) = 101.86041 21.17412 158.36022
#
# Poissons Ratio (x) = 0.21313 0.47694
# Poissons Ratio (y) = 1.02528 -0.11696
# Poissons Ratio (z) = 0.30678 -0.01564
#
# Static dielectric constant tensor:
#      x y z
#    x 3.954650 0.000000 0.000000 
#    y 0.000000 3.377940 0.000000 
#    z 0.000000 0.000000 4.692470 
# 
# 
# High freq. dielectric constant tensor:
#      x y z
#    x 1.848900 0.000000 0.000000 
#    y 0.000000 1.780640 0.000000 
#    z 0.000000 0.000000 1.871260 
# 
# From -- ./inp_files/285.got.cif
#   From: 2010.03.12/outbox.cif.g09.slc.cpg/sg29_1_cif.got.tgz:285.got - 2010.04.14 03:43:10.
