data_PCOD8168535
_publ_section_title
;
Structure prediction by ZEFSAII (Michael W. Deem and Ramdas Pophale) SiO2 
 PCOD8168535
Probable space group: P C A 21
;
_chemical_formula_sum "Si O2"
_cell_formula_units_Z 24
_cell_length_a 5.232397
_cell_length_b 7.610665
_cell_length_c 29.566426
_cell_angle_alpha 90.000000
_cell_angle_beta 90.000000
_cell_angle_gamma 90.000000
_cell_volume 1177.394829
_symmetry_space_group_name_H-M "P C A 21"
_symmetry_group_IT_number 29
_symmetry_cell_setting 'orthorhombic'
loop_
_space_group_symop_operation_xyz
x,y,z
-x,-y,1/2+z
1/2-x,y,1/2+z
1/2+x,-y,z
loop_
_atom_site_type_symbol
_atom_site_label
_atom_site_fract_x
_atom_site_fract_y
_atom_site_fract_z
Si Si1 0.489029 0.204057 0.339490
Si Si2 0.463153 0.110959 0.143967
Si Si3 0.551667 0.108116 0.241262
Si Si4 0.989176 0.194069 0.378319
Si Si5 0.964598 0.609300 0.067861
Si Si6 0.486728 0.384366 0.966154
O O1 0.497554 0.224355 0.285310
O O2 0.737698 0.296386 0.360552
O O3 0.230924 0.296186 0.356563
O O4 0.480488 0.004995 0.359974
O O5 0.500878 0.205753 0.193217
O O6 0.522767 0.241842 0.103816
O O7 0.672492 0.956161 0.140231
O O8 0.348080 0.948289 0.243467
O O9 0.003224 0.215003 0.432793
O O10 0.678152 0.539635 0.075263
O O11 0.992079 0.688921 0.017412
O O12 0.229194 0.492250 0.957148
#
# Coordination Sequence:
#
# PCOD8168535 Si02
#       6
#     4   4   4   4   4   4
#     4  10  17  30  50  80 101 135 163 216 270 311
#     4  10  21  35  58  90 111 141 185 246 280 318
#     4  10  16  30  51  78 105 137 174 208 279 330
#     4  10  18  30  50  75 102 130 179 211 254 312
#     4  10  21  40  61  78 112 157 188 220 287 353
#     4  10  21  37  54  73 101 148 185 213 262 324
#
# _framework density 20.383986
#
# number of rings (size 3 to 8) (size 9 to 14) (size 15 to 20)
#    0.000    2.000    3.333    2.000    0.000    0.000 
#    6.000    0.000    0.000    6.000    0.000    0.000 
#    0.000    0.000    0.000    0.000    0.000    0.000 
#
# Total GULP energy -297324.645419 kJ/mol
# GULP energy per Si atom -12388.526892 kJ/mol
# Density = 2.033759 g / cm^3
# Si number density = 20.383986 Si / 1000 Ang^3
#
#
#
# Elastic Constant Matrix: (Units=GPa)
#
#
# Indices 1 2 3 4 5 6 
#
# 1 168.5060 5.4695 47.4682 0.0000 0.0000 0.0000
# 2 5.4695 22.7816 46.0399 0.0000 0.0000 0.0000
# 3 47.4682 46.0399 215.1974 0.0000 0.0000 0.0000
# 4 0.0000 0.0000 0.0000 15.7607 0.0000 0.0000
# 5 0.0000 0.0000 0.0000 0.0000 39.0942 0.0000
# 6 0.0000 0.0000 0.0000 0.0000 0.0000 7.5978
#
#
#
# Elastic Compliance Matrix: (Units=1/GPa)
#
#
# Indices 1 2 3 4 5 6 
#
# 1 0.006396 0.002318 -0.001907 0.000000 0.000000 0.000000
# 2 0.002318 0.078169 -0.017235 0.000000 0.000000 0.000000
# 3 -0.001907 -0.017235 0.008755 0.000000 0.000000 0.000000
# 4 0.000000 0.000000 0.000000 0.063449 0.000000 0.000000
# 5 0.000000 0.000000 0.000000 0.000000 0.025579 0.000000
# 6 0.000000 0.000000 0.000000 0.000000 0.000000 0.131617
#
#
# Mechanical properties :
#
#
# Convention : Reuss Voigt Hill
#
# Bulk Modulus (GPa) = 16.75819 67.16002 41.95910
# Shear Modulus (GPa) = 13.60528 32.99102 23.29815
#
# Velocity S-wave (km/s) = 2.58631 4.02739 3.38444
# Velocity P-wave (km/s) = 4.14219 7.39226 5.99180
#
# Compressibility (1/GPa) = 0.05967233
#
# Stress axis : x y z
#
# Youngs Moduli (GPa) = 156.33749 12.79281 114.22331
#
# Poissons Ratio (x) = -0.02965 0.21780
# Poissons Ratio (y) = -0.36236 1.96863
# Poissons Ratio (z) = 0.29810 0.22048
#
# Static dielectric constant tensor:
#      x y z
#    x 5.000310 0.000000 0.000000 
#    y 0.000000 2.867900 0.000000 
#    z 0.000000 0.000000 4.113590 
# 
# 
# High freq. dielectric constant tensor:
#      x y z
#    x 1.839070 0.000000 0.000000 
#    y 0.000000 1.713510 0.000000 
#    z 0.000000 0.000000 1.819640 
# 
# From -- ./inp_files/5620.got.cif
#   From: 2010.03.12/outbox.cif.g09.slc.cpg/sg29_3_cif.got.tgz:5620.got - 2010.04.14 03:43:10.
