data_PCOD8168667
_publ_section_title
;
Structure prediction by ZEFSAII (Michael W. Deem and Ramdas Pophale) SiO2 
 PCOD8168667
Probable space group: P C A 21
;
_chemical_formula_sum "Si O2"
_cell_formula_units_Z 32
_cell_length_a 17.920714
_cell_length_b 9.839310
_cell_length_c 9.019652
_cell_angle_alpha 90.000000
_cell_angle_beta 90.000000
_cell_angle_gamma 90.000000
_cell_volume 1590.412331
_symmetry_space_group_name_H-M "P C A 21"
_symmetry_group_IT_number 29
_symmetry_cell_setting 'orthorhombic'
loop_
_space_group_symop_operation_xyz
x,y,z
-x,-y,1/2+z
1/2-x,y,1/2+z
1/2+x,-y,z
loop_
_atom_site_type_symbol
_atom_site_label
_atom_site_fract_x
_atom_site_fract_y
_atom_site_fract_z
Si Si1 0.415090 0.630398 0.102910
Si Si2 0.839527 0.102054 0.121047
Si Si3 0.165789 0.448227 0.389850
Si Si4 0.834211 0.448227 0.389850
Si Si5 0.660473 0.897946 0.121047
Si Si6 0.813586 0.151287 0.461709
Si Si7 0.915090 0.630398 0.602910
Si Si8 0.813586 0.848713 0.961709
O O1 0.407011 0.793612 0.091164
O O2 0.355843 0.572540 0.219811
O O3 0.500000 0.596603 0.145527
O O4 0.392727 0.557826 0.950592
O O5 0.816073 0.099625 0.292491
O O6 0.770936 0.149459 0.018606
O O7 0.862803 0.950410 0.065629
O O8 0.250000 0.500000 0.398574
O O9 0.144157 0.427460 0.219811
O O10 0.156001 0.304817 0.476297
O O11 0.843999 0.304817 0.476297
O O12 0.892727 0.557826 0.450592
O O13 0.592989 0.793612 0.091164
O O14 0.683927 0.900375 0.292491
O O15 0.729064 0.850541 0.018606
O O16 0.637197 0.049590 0.065629
#
# Coordination Sequence:
#
# PCOD8168667 Si02
#       8
#     4   4   4   4   4   4   4   4
#     4  11  24  40  59  89 128 161 197 252 314 362
#     4  10  20  36  57  88 118 152 198 250 299 354
#     4  11  22  39  64  91 118 161 209 251 296 366
#     4  11  22  39  64  91 118 161 209 251 296 366
#     4  10  20  36  57  88 118 152 198 250 299 354
#     4  10  20  34  60  89 114 150 205 251 291 348
#     4  11  24  40  59  89 128 161 197 252 314 362
#     4  10  20  34  60  89 114 150 205 251 291 348
#
# _framework density 20.120566
#
# number of rings (size 3 to 8) (size 9 to 14) (size 15 to 20)
#    0.000    1.500    2.500    4.500    3.500    2.000 
#    0.000    6.250    0.000    0.000    0.000    0.000 
#    0.000    0.000    0.000    0.000    0.000    0.000 
#
# Total GULP energy -396706.160228 kJ/mol
# GULP energy per Si atom -12397.067507 kJ/mol
# Density = 2.007477 g / cm^3
# Si number density = 20.120566 Si / 1000 Ang^3
#
#
#
# Elastic Constant Matrix: (Units=GPa)
#
#
# Indices 1 2 3 4 5 6 
#
# 1 82.5148 46.5367 27.2190 0.0000 0.0000 0.0000
# 2 46.5367 116.5690 42.2366 0.0000 0.0000 0.0000
# 3 27.2190 42.2366 87.0212 0.0000 0.0000 0.0000
# 4 0.0000 0.0000 0.0000 36.8490 0.0000 0.0000
# 5 0.0000 0.0000 0.0000 0.0000 16.3598 0.0000
# 6 0.0000 0.0000 0.0000 0.0000 0.0000 23.2779
#
#
#
# Elastic Compliance Matrix: (Units=1/GPa)
#
#
# Indices 1 2 3 4 5 6 
#
# 1 0.016015 -0.005556 -0.002313 0.000000 0.000000 0.000000
# 2 -0.005556 0.012336 -0.004250 0.000000 0.000000 0.000000
# 3 -0.002313 -0.004250 0.014278 0.000000 0.000000 0.000000
# 4 0.000000 0.000000 0.000000 0.027138 0.000000 0.000000
# 5 0.000000 0.000000 0.000000 0.000000 0.061125 0.000000
# 6 0.000000 0.000000 0.000000 0.000000 0.000000 0.042959
#
#
# Mechanical properties :
#
#
# Convention : Reuss Voigt Hill
#
# Bulk Modulus (GPa) = 54.36986 57.56551 55.96769
# Shear Modulus (GPa) = 24.48352 26.63819 25.56086
#
# Velocity S-wave (km/s) = 3.49211 3.64253 3.56811
# Velocity P-wave (km/s) = 6.58335 6.80905 6.69715
#
# Compressibility (1/GPa) = 0.01839254
#
# Stress axis : x y z
#
# Youngs Moduli (GPa) = 62.44061 81.06112 70.03975
#
# Poissons Ratio (x) = 0.45034 0.16199
# Poissons Ratio (y) = 0.34689 0.29766
# Poissons Ratio (z) = 0.14442 0.34450
#
# Static dielectric constant tensor:
#      x y z
#    x 3.194150 0.000000 0.000000 
#    y 0.000000 4.323160 0.000000 
#    z 0.000000 0.000000 3.639600 
# 
# 
# High freq. dielectric constant tensor:
#      x y z
#    x 1.745310 0.000000 0.000000 
#    y 0.000000 1.806130 0.000000 
#    z 0.000000 0.000000 1.790930 
# 
# From -- ./inp_files/1829.got.cif
#   From: 2010.03.12/outbox.cif.g09.slc.cpg/sg29_1_cif.got.tgz:1829.got - 2010.04.14 03:43:10.
