data_PCOD8168128
_publ_section_title
;
Structure prediction by ZEFSAII (Michael W. Deem and Ramdas Pophale) SiO2 
 PCOD8168128
Probable space group: P M A 2
;
_chemical_formula_sum "Si O2"
_cell_formula_units_Z 20
_cell_length_a 8.842958
_cell_length_b 9.963382
_cell_length_c 12.651354
_cell_angle_alpha 90.000000
_cell_angle_beta 90.000000
_cell_angle_gamma 90.000000
_cell_volume 1114.657268
_symmetry_space_group_name_H-M "P M A 2"
_symmetry_group_IT_number 28
_symmetry_cell_setting 'orthorhombic'
loop_
_space_group_symop_operation_xyz
x,y,z
-x,-y,z
1/2-x,y,z
1/2+x,-y,z
loop_
_atom_site_type_symbol
_atom_site_label
_atom_site_fract_x
_atom_site_fract_y
_atom_site_fract_z
Si Si1 0.071624 0.139063 0.329350
Si Si2 0.074582 0.643728 0.945615
Si Si3 0.572761 0.862616 0.570681
Si Si4 0.426311 0.645610 0.178845
Si Si5 0.429144 0.353317 0.739026
O O1 0.250000 0.130522 0.314753
O O2 0.023994 0.167057 0.450356
O O3 0.007266 0.259649 0.261521
O O4 0.000000 0.000000 0.289434
O O5 0.250000 0.630023 0.916645
O O6 0.000000 0.500000 0.954376
O O7 0.989762 0.716930 0.847938
O O8 0.052197 0.710707 0.061138
O O9 0.750000 0.881261 0.580562
O O10 0.516292 0.739253 0.642245
O O11 0.500000 0.000000 0.612371
O O12 0.500000 0.500000 0.187377
O O13 0.250000 0.632433 0.206365
O O14 0.500000 0.500000 0.722804
O O15 0.250000 0.365929 0.743777
#
# Coordination Sequence:
#
# PCOD8168128 Si02
#       5
#     4   4   4   4   4
#     4  10  20  36  55  75 102 135 171 210 255 305
#     4   9  17  30  49  73 101 132 165 202 248 297
#     4   9  20  36  53  74 100 132 168 206 250 299
#     4  10  20  34  53  78 105 134 170 211 254 300
#     4  10  19  32  51  76 103 131 166 205 247 295
#
# _framework density 17.942734000000002
#
# number of rings (size 3 to 8) (size 9 to 14) (size 15 to 20)
#    0.000    2.400    0.000    3.600    0.000    5.600 
#    0.000    3.000    0.000    2.400    0.000    0.000 
#    0.000    0.000    0.000    0.000    0.000    0.000 
#
# Total GULP energy -247907.095949 kJ/mol
# GULP energy per Si atom -12395.354797 kJ/mol
# Density = 1.790190 g / cm^3
# Si number density = 17.942734 Si / 1000 Ang^3
#
#
#
# Elastic Constant Matrix: (Units=GPa)
#
#
# Indices 1 2 3 4 5 6 
#
# 1 91.0800 45.1439 51.6342 0.0000 0.0000 0.0000
# 2 45.1439 99.6178 73.6826 0.0000 0.0000 0.0000
# 3 51.6342 73.6826 120.2188 0.0000 0.0000 0.0000
# 4 0.0000 0.0000 0.0000 2.0173 0.0000 0.0000
# 5 0.0000 0.0000 0.0000 0.0000 31.7537 0.0000
# 6 0.0000 0.0000 0.0000 0.0000 0.0000 29.6281
#
#
#
# Elastic Compliance Matrix: (Units=1/GPa)
#
#
# Indices 1 2 3 4 5 6 
#
# 1 0.015254 -0.003781 -0.004234 0.000000 0.000000 0.000000
# 2 -0.003781 0.019300 -0.010205 0.000000 0.000000 0.000000
# 3 -0.004234 -0.010205 0.016392 0.000000 0.000000 0.000000
# 4 0.000000 0.000000 0.000000 0.495703 0.000000 0.000000
# 5 0.000000 0.000000 0.000000 0.000000 0.031492 0.000000
# 6 0.000000 0.000000 0.000000 0.000000 0.000000 0.033752
#
#
# Mechanical properties :
#
#
# Convention : Reuss Voigt Hill
#
# Bulk Modulus (GPa) = 68.94199 72.42643 70.68421
# Shear Modulus (GPa) = 7.65500 22.04355 14.84928
#
# Velocity S-wave (km/s) = 2.06776 3.50887 2.87991
# Velocity P-wave (km/s) = 6.64888 7.54117 7.10904
#
# Compressibility (1/GPa) = 0.01450495
#
# Stress axis : x y z
#
# Youngs Moduli (GPa) = 65.55782 51.81358 61.00658
#
# Poissons Ratio (x) = 0.19589 0.25832
# Poissons Ratio (y) = 0.24785 0.62259
# Poissons Ratio (z) = 0.27760 0.52877
#
# Static dielectric constant tensor:
#      x y z
#    x 3.440630 0.000000 0.000000 
#    y 0.000000 3.137510 0.000000 
#    z 0.000000 0.000000 3.999440 
# 
# 
# High freq. dielectric constant tensor:
#      x y z
#    x 1.710060 0.000000 0.000000 
#    y 0.000000 1.665710 0.000000 
#    z 0.000000 0.000000 1.708600 
# 
# From -- ./inp_files/4575.got.cif
#   From: 2010.03.12/outbox.cif.g09.slc.cpg/sg28_3_cif.got.tgz:4575.got - 2010.04.14 03:39:34.
