data_PCOD8168082
_publ_section_title
;
Structure prediction by ZEFSAII (Michael W. Deem and Ramdas Pophale) SiO2 
 PCOD8168082
Probable space group: P M A 2
;
_chemical_formula_sum "Si O2"
_cell_formula_units_Z 32
_cell_length_a 8.883524
_cell_length_b 17.858237
_cell_length_c 11.596613
_cell_angle_alpha 90.000000
_cell_angle_beta 90.000000
_cell_angle_gamma 90.000000
_cell_volume 1839.733966
_symmetry_space_group_name_H-M "P M A 2"
_symmetry_group_IT_number 28
_symmetry_cell_setting 'orthorhombic'
loop_
_space_group_symop_operation_xyz
x,y,z
-x,-y,z
1/2-x,y,z
1/2+x,-y,z
loop_
_atom_site_type_symbol
_atom_site_label
_atom_site_fract_x
_atom_site_fract_y
_atom_site_fract_z
Si Si1 0.072332 0.349973 0.390160
Si Si2 0.427269 0.771917 0.825788
Si Si3 0.070114 0.574851 0.191361
Si Si4 0.415646 0.293827 0.622748
Si Si5 0.425760 0.798055 0.300371
Si Si6 0.572103 0.075123 0.713690
Si Si7 0.418498 0.134757 0.499723
Si Si8 0.427447 0.727143 0.072472
O O1 0.250000 0.336016 0.365090
O O2 0.046751 0.359327 0.529262
O O3 0.007911 0.420244 0.318600
O O4 0.967922 0.282379 0.349246
O O5 0.250000 0.774271 0.834178
O O6 0.470493 0.709643 0.730011
O O7 0.487623 0.853842 0.787709
O O8 0.499411 0.749221 0.948920
O O9 0.250000 0.570147 0.201617
O O10 0.015195 0.645550 0.114160
O O11 0.000000 0.500000 0.133798
O O12 0.250000 0.305875 0.675698
O O13 0.420327 0.218197 0.548655
O O14 0.250000 0.812538 0.319355
O O15 0.515041 0.863205 0.369103
O O16 0.467709 0.793430 0.163949
O O17 0.750000 0.069037 0.717954
O O18 0.519453 0.082301 0.580978
O O19 0.500000 0.000000 0.767566
O O20 0.250000 0.101863 0.495352
O O21 0.250000 0.721279 0.059611
#
# Coordination Sequence:
#
# PCOD8168082 Si02
#       8
#     4   4   4   4   4   4   4   4
#     4   9  16  27  43  64  91 118 146 182 227 275
#     4   9  17  30  48  68  90 122 164 200 231 274
#     4  10  19  31  48  69  94 121 152 193 241 291
#     4   8  15  26  41  64  91 115 140 181 229 267
#     4   9  15  25  43  66  91 117 148 185 228 273
#     4  10  19  30  47  69  93 121 153 193 241 291
#     4   9  16  27  43  64  91 117 145 183 228 276
#     4   8  16  30  47  68  93 123 160 199 233 273
#
# _framework density 17.393818
#
# number of rings (size 3 to 8) (size 9 to 14) (size 15 to 20)
#    0.000    3.000    0.000    3.375    0.000    4.000 
#    0.000    3.750    0.000    1.500    0.000    5.250 
#    0.000    0.000    0.000    0.000    0.000    0.000 
#
# Total GULP energy -396447.171217 kJ/mol
# GULP energy per Si atom -12388.974101 kJ/mol
# Density = 1.735423 g / cm^3
# Si number density = 17.393818 Si / 1000 Ang^3
#
#
#
# Elastic Constant Matrix: (Units=GPa)
#
#
# Indices 1 2 3 4 5 6 
#
# 1 57.0145 20.7272 35.7412 0.0000 0.0000 0.0000
# 2 20.7272 61.2286 42.9260 0.0000 0.0000 0.0000
# 3 35.7412 42.9260 128.6805 0.0000 0.0000 0.0000
# 4 0.0000 0.0000 0.0000 16.1450 0.0000 0.0000
# 5 0.0000 0.0000 0.0000 0.0000 18.3365 0.0000
# 6 0.0000 0.0000 0.0000 0.0000 0.0000 22.2618
#
#
#
# Elastic Compliance Matrix: (Units=1/GPa)
#
#
# Indices 1 2 3 4 5 6 
#
# 1 0.022010 -0.004131 -0.004735 0.000000 0.000000 0.000000
# 2 -0.004131 0.022093 -0.006223 0.000000 0.000000 0.000000
# 3 -0.004735 -0.006223 0.011162 0.000000 0.000000 0.000000
# 4 0.000000 0.000000 0.000000 0.061939 0.000000 0.000000
# 5 0.000000 0.000000 0.000000 0.000000 0.054536 0.000000
# 6 0.000000 0.000000 0.000000 0.000000 0.000000 0.044920
#
#
# Mechanical properties :
#
#
# Convention : Reuss Voigt Hill
#
# Bulk Modulus (GPa) = 39.86063 49.52362 44.69212
# Shear Modulus (GPa) = 19.59251 21.18394 20.38822
#
# Velocity S-wave (km/s) = 3.35984 3.49363 3.42739
# Velocity P-wave (km/s) = 6.16585 6.69386 6.43527
#
# Compressibility (1/GPa) = 0.02508741
#
# Stress axis : x y z
#
# Youngs Moduli (GPa) = 45.43480 45.26283 89.58857
#
# Poissons Ratio (x) = 0.18698 0.42421
# Poissons Ratio (y) = 0.18769 0.55747
# Poissons Ratio (z) = 0.21514 0.28165
#
# Static dielectric constant tensor:
#      x y z
#    x 3.190910 0.000000 0.000000 
#    y 0.000000 3.122020 0.000000 
#    z 0.000000 0.000000 3.632940 
# 
# 
# High freq. dielectric constant tensor:
#      x y z
#    x 1.670250 0.000000 0.000000 
#    y 0.000000 1.631760 0.000000 
#    z 0.000000 0.000000 1.662480 
# 
# From -- ./inp_files/5176.got.cif
#   From: 2010.03.12/outbox.cif.g09.slc.cpg/sg28_3_cif.got.tgz:5176.got - 2010.04.14 03:39:34.
