data_PCOD8168447
_publ_section_title
;
Structure prediction by ZEFSAII (Michael W. Deem and Ramdas Pophale) SiO2 
 PCOD8168447
Probable space group: P M A 2
;
_chemical_formula_sum "Si O2"
_cell_formula_units_Z 32
_cell_length_a 18.073767
_cell_length_b 6.793704
_cell_length_c 13.859938
_cell_angle_alpha 90.000000
_cell_angle_beta 90.000000
_cell_angle_gamma 90.000000
_cell_volume 1701.831616
_symmetry_space_group_name_H-M "P M A 2"
_symmetry_group_IT_number 28
_symmetry_cell_setting 'orthorhombic'
loop_
_space_group_symop_operation_xyz
x,y,z
-x,-y,z
1/2-x,y,z
1/2+x,-y,z
loop_
_atom_site_type_symbol
_atom_site_label
_atom_site_fract_x
_atom_site_fract_y
_atom_site_fract_z
Si Si1 0.080744 0.581267 0.604720
Si Si2 0.919905 0.063339 0.939472
Si Si3 0.836211 0.356547 0.802176
Si Si4 0.917404 0.430859 0.313664
Si Si5 0.577003 0.396873 0.089380
Si Si6 0.337268 0.308309 0.452138
Si Si7 0.666052 0.668601 0.960795
Si Si8 0.579219 0.087701 0.454950
O O1 0.130579 0.608674 0.697911
O O2 0.120526 0.427497 0.534884
O O3 0.073813 0.794562 0.555309
O O4 0.000000 0.500000 0.633023
O O5 0.878879 0.180202 0.854890
O O6 0.877824 0.867846 0.966246
O O7 0.924849 0.184381 0.039156
O O8 0.000000 0.000000 0.900401
O O9 0.750000 0.298756 0.795000
O O10 0.847560 0.559743 0.859386
O O11 0.908231 0.378412 0.202312
O O12 0.862224 0.605174 0.347878
O O13 0.896427 0.233030 0.369774
O O14 0.000000 0.500000 0.340231
O O15 0.500000 0.500000 0.065171
O O16 0.643319 0.525250 0.047238
O O17 0.250000 0.331185 0.465402
O O18 0.358679 0.080048 0.461566
O O19 0.750000 0.725581 0.976522
O O20 0.500000 0.000000 0.428129
#
# Coordination Sequence:
#
# PCOD8168447 Si02
#       8
#     4   4   4   4   4   4   4   4
#     4  11  23  39  65  89 118 156 201 248 295 356
#     4  11  22  37  63  92 119 155 204 249 289 353
#     4  10  24  41  60  87 123 159 195 244 303 358
#     4  10  21  38  63  86 119 158 197 244 293 354
#     4  10  21  38  60  91 118 154 201 243 293 349
#     4  11  23  40  60  87 122 156 196 247 299 354
#     4  10  22  41  60  83 122 159 190 243 305 352
#     4  11  20  39  61  89 117 157 198 239 296 352
#
# _framework density 18.803270999999999
#
# number of rings (size 3 to 8) (size 9 to 14) (size 15 to 20)
#    0.000    1.500    3.750    1.500    1.750    6.500 
#    0.000    0.000    0.000    0.000    0.000    0.000 
#    0.000    0.000    0.000    0.000    0.000    0.000 
#
# Total GULP energy -396917.218239 kJ/mol
# GULP energy per Si atom -12403.663070 kJ/mol
# Density = 1.876047 g / cm^3
# Si number density = 18.803271 Si / 1000 Ang^3
#
#
#
# Elastic Constant Matrix: (Units=GPa)
#
#
# Indices 1 2 3 4 5 6 
#
# 1 120.9085 54.3589 41.5829 0.0000 0.0000 0.0000
# 2 54.3589 121.9724 41.0082 0.0000 0.0000 0.0000
# 3 41.5829 41.0082 107.9767 0.0000 0.0000 0.0000
# 4 0.0000 0.0000 0.0000 15.9323 0.0000 0.0000
# 5 0.0000 0.0000 0.0000 0.0000 27.9525 0.0000
# 6 0.0000 0.0000 0.0000 0.0000 0.0000 32.6143
#
#
#
# Elastic Compliance Matrix: (Units=1/GPa)
#
#
# Indices 1 2 3 4 5 6 
#
# 1 0.010999 -0.003987 -0.002722 0.000000 0.000000 0.000000
# 2 -0.003987 0.010844 -0.002583 0.000000 0.000000 0.000000
# 3 -0.002722 -0.002583 0.011290 0.000000 0.000000 0.000000
# 4 0.000000 0.000000 0.000000 0.062766 0.000000 0.000000
# 5 0.000000 0.000000 0.000000 0.000000 0.035775 0.000000
# 6 0.000000 0.000000 0.000000 0.000000 0.000000 0.030661
#
#
# Mechanical properties :
#
#
# Convention : Reuss Voigt Hill
#
# Bulk Modulus (GPa) = 68.72730 69.41752 69.07241
# Shear Modulus (GPa) = 26.91518 29.56032 28.23775
#
# Velocity S-wave (km/s) = 3.78750 3.96925 3.87944
# Velocity P-wave (km/s) = 7.46706 7.61607 7.54193
#
# Compressibility (1/GPa) = 0.01455026
#
# Stress axis : x y z
#
# Youngs Moduli (GPa) = 90.91535 92.21850 88.57086
#
# Poissons Ratio (x) = 0.36767 0.24107
# Poissons Ratio (y) = 0.36247 0.22877
# Poissons Ratio (z) = 0.24745 0.23820
#
# Static dielectric constant tensor:
#      x y z
#    x 3.512290 0.000000 0.000000 
#    y 0.000000 3.582410 0.000000 
#    z 0.000000 0.000000 3.407850 
# 
# 
# High freq. dielectric constant tensor:
#      x y z
#    x 1.738540 0.000000 0.000000 
#    y 0.000000 1.742470 0.000000 
#    z 0.000000 0.000000 1.727740 
# 
# From -- ./inp_files/6617.got.cif
#   From: 2010.03.12/outbox.cif.g09.slc.cpg/sg28_4_cif.got.tgz:6617.got - 2010.04.14 03:39:34.
