data_PCOD8168719
_publ_section_title
;
Structure prediction by ZEFSAII (Michael W. Deem and Ramdas Pophale) SiO2 
 PCOD8168719
Probable space group: P C A 21
;
_chemical_formula_sum "Si O2"
_cell_formula_units_Z 24
_cell_length_a 16.734838
_cell_length_b 7.143727
_cell_length_c 9.520537
_cell_angle_alpha 90.000000
_cell_angle_beta 90.000000
_cell_angle_gamma 90.000000
_cell_volume 1138.171764
_symmetry_space_group_name_H-M "P C A 21"
_symmetry_group_IT_number 29
_symmetry_cell_setting 'orthorhombic'
loop_
_space_group_symop_operation_xyz
x,y,z
-x,-y,1/2+z
1/2-x,y,1/2+z
1/2+x,-y,z
loop_
_atom_site_type_symbol
_atom_site_label
_atom_site_fract_x
_atom_site_fract_y
_atom_site_fract_z
Si Si1 0.400048 0.067879 0.195270
Si Si2 0.150541 0.247597 0.952735
Si Si3 0.221459 0.763010 0.811696
Si Si4 0.181457 0.087703 0.412879
Si Si5 0.419339 0.982599 0.660056
Si Si6 0.338933 0.614249 0.590349
O O1 0.337009 0.908256 0.236180
O O2 0.390783 0.250492 0.297598
O O3 0.488718 0.983414 0.195634
O O4 0.379949 0.128644 0.037592
O O5 0.246190 0.235355 0.929929
O O6 0.128014 0.402416 0.072239
O O7 0.111306 0.054406 0.009760
O O8 0.284846 0.876242 0.908097
O O9 0.261925 0.632251 0.691831
O O10 0.177467 0.634160 0.923262
O O11 0.132734 0.105627 0.268566
O O12 0.403929 0.758009 0.653558
#
# Coordination Sequence:
#
# PCOD8168719 Si02
#       6
#     4   4   4   4   4   4
#     4  11  21  41  66  91 129 168 203 264 324 374
#     4  11  23  41  65  92 123 165 218 259 309 376
#     4  10  20  40  64  90 123 166 207 263 310 367
#     4  10  20  38  64  91 119 165 213 250 307 373
#     4  11  23  42  62  92 131 166 206 261 323 376
#     4  11  23  40  65  94 125 162 217 263 309 376
#
# _framework density 21.086447
#
# number of rings (size 3 to 8) (size 9 to 14) (size 15 to 20)
#    0.000    1.333    5.000    3.000    4.667    0.000 
#    3.000    0.000    0.000    0.000    0.000    0.000 
#    0.000    0.000    0.000    0.000    0.000    0.000 
#
# Total GULP energy -297316.288640 kJ/mol
# GULP energy per Si atom -12388.178693 kJ/mol
# Density = 2.103845 g / cm^3
# Si number density = 21.086447 Si / 1000 Ang^3
#
#
#
# Elastic Constant Matrix: (Units=GPa)
#
#
# Indices 1 2 3 4 5 6 
#
# 1 89.7129 18.5751 27.3357 0.0000 0.0000 0.0000
# 2 18.5751 64.4753 31.3447 0.0000 0.0000 0.0000
# 3 27.3357 31.3447 105.3805 0.0000 0.0000 0.0000
# 4 0.0000 0.0000 0.0000 31.7627 0.0000 0.0000
# 5 0.0000 0.0000 0.0000 0.0000 26.1702 0.0000
# 6 0.0000 0.0000 0.0000 0.0000 0.0000 14.5547
#
#
#
# Elastic Compliance Matrix: (Units=1/GPa)
#
#
# Indices 1 2 3 4 5 6 
#
# 1 0.012400 -0.002348 -0.002518 0.000000 0.000000 0.000000
# 2 -0.002348 0.018576 -0.004916 0.000000 0.000000 0.000000
# 3 -0.002518 -0.004916 0.011605 0.000000 0.000000 0.000000
# 4 0.000000 0.000000 0.000000 0.031483 0.000000 0.000000
# 5 0.000000 0.000000 0.000000 0.000000 0.038211 0.000000
# 6 0.000000 0.000000 0.000000 0.000000 0.000000 0.068706
#
#
# Mechanical properties :
#
#
# Convention : Reuss Voigt Hill
#
# Bulk Modulus (GPa) = 43.44775 46.00887 44.72831
# Shear Modulus (GPa) = 24.01305 26.65173 25.33239
#
# Velocity S-wave (km/s) = 3.37826 3.55903 3.46982
# Velocity P-wave (km/s) = 5.98884 6.22539 6.10826
#
# Compressibility (1/GPa) = 0.02301615
#
# Stress axis : x y z
#
# Youngs Moduli (GPa) = 80.64413 53.83179 86.17027
#
# Poissons Ratio (x) = 0.12641 0.21699
# Poissons Ratio (y) = 0.18937 0.42364
# Poissons Ratio (z) = 0.20307 0.26465
#
# Static dielectric constant tensor:
#      x y z
#    x 3.610780 0.000000 0.000000 
#    y 0.000000 3.579590 0.000000 
#    z 0.000000 0.000000 3.976220 
# 
# 
# High freq. dielectric constant tensor:
#      x y z
#    x 1.805130 0.000000 0.000000 
#    y 0.000000 1.799610 0.000000 
#    z 0.000000 0.000000 1.850420 
# 
# From -- ./inp_files/2031.got.cif
#   From: 2010.03.12/outbox.cif.g09.slc.cpg/sg29_2_cif.got.tgz:2031.got - 2010.04.14 03:43:10.
