data_PCOD8168463
_publ_section_title
;
Structure prediction by ZEFSAII (Michael W. Deem and Ramdas Pophale) SiO2 
 PCOD8168463
Probable space group: P M A 2
;
_chemical_formula_sum "Si O2"
_cell_formula_units_Z 20
_cell_length_a 13.694364
_cell_length_b 8.982422
_cell_length_c 7.659684
_cell_angle_alpha 90.000000
_cell_angle_beta 90.000000
_cell_angle_gamma 90.000000
_cell_volume 942.206672
_symmetry_space_group_name_H-M "P M A 2"
_symmetry_group_IT_number 28
_symmetry_cell_setting 'orthorhombic'
loop_
_space_group_symop_operation_xyz
x,y,z
-x,-y,z
1/2-x,y,z
1/2+x,-y,z
loop_
_atom_site_type_symbol
_atom_site_label
_atom_site_fract_x
_atom_site_fract_y
_atom_site_fract_z
Si Si1 0.945363 0.275090 0.977320
Si Si2 0.859503 0.586219 0.066978
Si Si3 0.137408 0.917103 0.272739
Si Si4 0.641000 0.757962 0.404107
Si Si5 0.467072 0.834638 0.610626
O O1 0.914683 0.234279 0.780016
O O2 0.880834 0.412899 0.041699
O O3 0.925514 0.139445 0.108759
O O4 0.060802 0.312884 0.968913
O O5 0.750000 0.624792 0.999117
O O6 0.866628 0.618472 0.274005
O O7 0.250000 0.887029 0.232425
O O8 0.108471 0.830679 0.449991
O O9 0.114279 0.091782 0.296368
O O10 0.750000 0.770883 0.484002
O O11 0.563243 0.737935 0.559288
O O12 0.500000 0.000000 0.659869
#
# Coordination Sequence:
#
# PCOD8168463 Si02
#       5
#     4   4   4   4   4
#     4  11  23  39  64  92 125 167 206 255 318 373
#     4  10  22  41  61  87 124 165 208 253 307 371
#     4  10  21  39  64  92 124 164 211 262 313 369
#     4   9  19  40  67  91 123 165 209 260 314 369
#     4  10  22  38  64  93 125 160 210 261 313 373
#
# _framework density 21.226766000000001
#
# number of rings (size 3 to 8) (size 9 to 14) (size 15 to 20)
#    0.000    2.000    2.000    0.600    2.800    2.400 
#    7.200    0.000    0.000    0.000    0.000    0.000 
#    0.000    0.000    0.000    0.000    0.000    0.000 
#
# Total GULP energy -248005.355444 kJ/mol
# GULP energy per Si atom -12400.267772 kJ/mol
# Density = 2.117845 g / cm^3
# Si number density = 21.226766 Si / 1000 Ang^3
#
#
#
# Elastic Constant Matrix: (Units=GPa)
#
#
# Indices 1 2 3 4 5 6 
#
# 1 96.5316 29.3966 38.3919 0.0000 0.0000 0.0000
# 2 29.3966 64.6336 48.3535 0.0000 0.0000 0.0000
# 3 38.3919 48.3535 140.6060 0.0000 0.0000 0.0000
# 4 0.0000 0.0000 0.0000 27.0567 0.0000 0.0000
# 5 0.0000 0.0000 0.0000 0.0000 16.4848 0.0000
# 6 0.0000 0.0000 0.0000 0.0000 0.0000 25.4555
#
#
#
# Elastic Compliance Matrix: (Units=1/GPa)
#
#
# Indices 1 2 3 4 5 6 
#
# 1 0.012409 -0.004186 -0.001949 0.000000 0.000000 0.000000
# 2 -0.004186 0.022243 -0.006506 0.000000 0.000000 0.000000
# 3 -0.001949 -0.006506 0.009882 0.000000 0.000000 0.000000
# 4 0.000000 0.000000 0.000000 0.036959 0.000000 0.000000
# 5 0.000000 0.000000 0.000000 0.000000 0.060662 0.000000
# 6 0.000000 0.000000 0.000000 0.000000 0.000000 0.039284
#
#
# Mechanical properties :
#
#
# Convention : Reuss Voigt Hill
#
# Bulk Modulus (GPa) = 51.94311 59.33945 55.64128
# Shear Modulus (GPa) = 23.45889 26.17469 24.81679
#
# Velocity S-wave (km/s) = 3.32800 3.51536 3.42296
# Velocity P-wave (km/s) = 6.26826 6.67029 6.47240
#
# Compressibility (1/GPa) = 0.01925183
#
# Stress axis : x y z
#
# Youngs Moduli (GPa) = 80.58606 44.95755 101.19785
#
# Poissons Ratio (x) = 0.18819 0.19720
# Poissons Ratio (y) = 0.33734 0.65842
# Poissons Ratio (z) = 0.15704 0.29251
#
# Static dielectric constant tensor:
#      x y z
#    x 4.045770 0.000000 0.000000 
#    y 0.000000 3.653290 0.000000 
#    z 0.000000 0.000000 3.561240 
# 
# 
# High freq. dielectric constant tensor:
#      x y z
#    x 1.844020 0.000000 0.000000 
#    y 0.000000 1.818860 0.000000 
#    z 0.000000 0.000000 1.813340 
# 
# From -- ./inp_files/3222.got.cif
#   From: 2010.03.12/outbox.cif.g09.slc.cpg/sg28_2_cif.got.tgz:3222.got - 2010.04.14 03:39:34.
