data_PCOD8168339
_publ_section_title
;
Structure prediction by ZEFSAII (Michael W. Deem and Ramdas Pophale) SiO2 
 PCOD8168339
Probable space group: P M A 2
;
_chemical_formula_sum "Si O2"
_cell_formula_units_Z 24
_cell_length_a 8.723010
_cell_length_b 19.127101
_cell_length_c 7.585717
_cell_angle_alpha 90.000000
_cell_angle_beta 90.000000
_cell_angle_gamma 90.000000
_cell_volume 1265.645729
_symmetry_space_group_name_H-M "P M A 2"
_symmetry_group_IT_number 28
_symmetry_cell_setting 'orthorhombic'
loop_
_space_group_symop_operation_xyz
x,y,z
-x,-y,z
1/2-x,y,z
1/2+x,-y,z
loop_
_atom_site_type_symbol
_atom_site_label
_atom_site_fract_x
_atom_site_fract_y
_atom_site_fract_z
Si Si1 0.431191 0.573216 0.484560
Si Si2 0.568960 0.925500 0.495187
Si Si3 0.431992 0.674443 0.182648
Si Si4 0.931399 0.426680 0.881673
Si Si5 0.429926 0.832234 0.197735
Si Si6 0.070276 0.926696 0.866907
O O1 0.500000 0.500000 0.419631
O O2 0.250000 0.566532 0.473521
O O3 0.491656 0.634606 0.357237
O O4 0.485765 0.590949 0.683025
O O5 0.750000 0.932761 0.504741
O O6 0.522659 0.868056 0.353683
O O7 0.505506 0.901682 0.684857
O O8 0.500000 0.000000 0.438253
O O9 0.250000 0.675711 0.178971
O O10 0.493455 0.753415 0.183263
O O11 0.493541 0.634483 0.008981
O O12 0.750000 0.432960 0.893134
O O13 0.000000 0.500000 0.946168
O O14 0.250000 0.835464 0.242318
O O15 0.466332 0.868979 0.012813
O O16 0.250000 0.936758 0.835984
O O17 0.000000 0.000000 0.931259
#
# Coordination Sequence:
#
# PCOD8168339 Si02
#       6
#     4   4   4   4   4   4
#     4   9  17  30  50  73  98 129 167 210 251 297
#     4  11  22  37  58  81 107 139 176 218 262 312
#     4   9  18  32  50  73 100 132 169 206 250 306
#     4   9  17  30  49  72  96 127 167 209 252 297
#     4  10  21  36  55  80 109 141 177 218 264 314
#     4  10  20  35  57  81 105 136 175 219 263 310
#
# _framework density 18.962651000000001
#
# number of rings (size 3 to 8) (size 9 to 14) (size 15 to 20)
#    0.000    2.333    0.000    4.000    0.000    4.000 
#    0.000    6.667    0.000    4.000    0.000    0.000 
#    0.000    0.000    0.000    0.000    0.000    0.000 
#
# Total GULP energy -297628.025563 kJ/mol
# GULP energy per Si atom -12401.167732 kJ/mol
# Density = 1.891949 g / cm^3
# Si number density = 18.962651 Si / 1000 Ang^3
#
#
#
# Elastic Constant Matrix: (Units=GPa)
#
#
# Indices 1 2 3 4 5 6 
#
# 1 66.5583 44.8023 44.3961 0.0000 0.0000 0.0000
# 2 44.8023 174.5090 107.1594 0.0000 0.0000 0.0000
# 3 44.3961 107.1594 137.8119 0.0000 0.0000 0.0000
# 4 0.0000 0.0000 0.0000 10.6146 0.0000 0.0000
# 5 0.0000 0.0000 0.0000 0.0000 39.9635 0.0000
# 6 0.0000 0.0000 0.0000 0.0000 0.0000 25.8109
#
#
#
# Elastic Compliance Matrix: (Units=1/GPa)
#
#
# Indices 1 2 3 4 5 6 
#
# 1 0.019571 -0.002207 -0.004589 0.000000 0.000000 0.000000
# 2 -0.002207 0.011216 -0.008010 0.000000 0.000000 0.000000
# 3 -0.004589 -0.008010 0.014963 0.000000 0.000000 0.000000
# 4 0.000000 0.000000 0.000000 0.094210 0.000000 0.000000
# 5 0.000000 0.000000 0.000000 0.000000 0.025023 0.000000
# 6 0.000000 0.000000 0.000000 0.000000 0.000000 0.038743
#
#
# Mechanical properties :
#
#
# Convention : Reuss Voigt Hill
#
# Bulk Modulus (GPa) = 61.96519 85.73276 73.84898
# Shear Modulus (GPa) = 20.94539 27.44588 24.19564
#
# Velocity S-wave (km/s) = 3.32710 3.80855 3.57594
# Velocity P-wave (km/s) = 6.89260 8.04050 7.48857
#
# Compressibility (1/GPa) = 0.01613809
#
# Stress axis : x y z
#
# Youngs Moduli (GPa) = 51.09691 89.16151 66.83104
#
# Poissons Ratio (x) = 0.19674 0.30668
# Poissons Ratio (y) = 0.11275 0.53533
# Poissons Ratio (z) = 0.23448 0.71420
#
# Static dielectric constant tensor:
#      x y z
#    x 3.271860 0.000000 0.000000 
#    y 0.000000 3.690330 0.000000 
#    z 0.000000 0.000000 3.708920 
# 
# 
# High freq. dielectric constant tensor:
#      x y z
#    x 1.717920 0.000000 0.000000 
#    y 0.000000 1.734000 0.000000 
#    z 0.000000 0.000000 1.751130 
# 
# From -- ./inp_files/2557.got.cif
#   From: 2010.03.12/outbox.cif.g09.slc.cpg/sg28_2_cif.got.tgz:2557.got - 2010.04.14 03:39:34.
