data_PCOD8168399
_publ_section_title
;
Structure prediction by ZEFSAII (Michael W. Deem and Ramdas Pophale) SiO2 
 PCOD8168399
Probable space group: P M A 2
;
_chemical_formula_sum "Si O2"
_cell_formula_units_Z 24
_cell_length_a 9.089998
_cell_length_b 14.024048
_cell_length_c 10.113054
_cell_angle_alpha 90.000000
_cell_angle_beta 90.000000
_cell_angle_gamma 90.000000
_cell_volume 1289.197645
_symmetry_space_group_name_H-M "P M A 2"
_symmetry_group_IT_number 28
_symmetry_cell_setting 'orthorhombic'
loop_
_space_group_symop_operation_xyz
x,y,z
-x,-y,z
1/2-x,y,z
1/2+x,-y,z
loop_
_atom_site_type_symbol
_atom_site_label
_atom_site_fract_x
_atom_site_fract_y
_atom_site_fract_z
Si Si1 0.078317 0.797837 0.209530
Si Si2 0.420578 0.900955 0.943913
Si Si3 0.921411 0.202755 0.676490
Si Si4 0.918421 0.409329 0.276577
Si Si5 0.925161 0.900242 0.443058
Si Si6 0.078133 0.593559 0.577776
O O1 0.250000 0.818291 0.242301
O O2 0.053734 0.684701 0.188700
O O3 0.976145 0.827709 0.330488
O O4 0.024166 0.852221 0.078837
O O5 0.250000 0.924591 0.953899
O O6 0.453554 0.827317 0.826401
O O7 0.500000 0.000000 0.917734
O O8 0.750000 0.188717 0.637541
O O9 0.968270 0.313035 0.660762
O O10 0.020580 0.135966 0.584804
O O11 0.750000 0.438031 0.278938
O O12 0.973230 0.389931 0.426499
O O13 0.000000 0.500000 0.212543
O O14 0.750000 0.910749 0.443663
O O15 0.000000 0.000000 0.409184
O O16 0.250000 0.575705 0.588423
O O17 0.000000 0.500000 0.638152
#
# Coordination Sequence:
#
# PCOD8168399 Si02
#       6
#     4   4   4   4   4   4
#     4  10  20  38  58  81 111 146 185 228 276 328
#     4  10  22  38  59  80 108 148 187 226 277 334
#     4  10  20  38  58  81 111 146 185 228 276 328
#     4   9  17  31  53  79 110 144 178 222 274 325
#     4  12  24  36  55  82 109 142 183 232 280 328
#     4   9  17  31  53  79 110 144 178 222 274 325
#
# _framework density 18.616230000000002
#
# number of rings (size 3 to 8) (size 9 to 14) (size 15 to 20)
#    0.000    2.000    1.667    2.500    0.000    5.333 
#    0.000    0.833    0.000    0.000    0.000    0.000 
#    0.000    0.000    0.000    0.000    0.000    0.000 
#
# Total GULP energy -297636.042693 kJ/mol
# GULP energy per Si atom -12401.501779 kJ/mol
# Density = 1.857386 g / cm^3
# Si number density = 18.616230 Si / 1000 Ang^3
#
#
#
# Elastic Constant Matrix: (Units=GPa)
#
#
# Indices 1 2 3 4 5 6 
#
# 1 65.7055 37.1194 24.0998 0.0000 0.0000 0.0000
# 2 37.1194 121.0793 20.9469 0.0000 0.0000 0.0000
# 3 24.0998 20.9469 64.8964 0.0000 0.0000 0.0000
# 4 0.0000 0.0000 0.0000 31.4547 0.0000 0.0000
# 5 0.0000 0.0000 0.0000 0.0000 12.6126 0.0000
# 6 0.0000 0.0000 0.0000 0.0000 0.0000 35.3011
#
#
#
# Elastic Compliance Matrix: (Units=1/GPa)
#
#
# Indices 1 2 3 4 5 6 
#
# 1 0.020315 -0.005214 -0.005861 0.000000 0.000000 0.000000
# 2 -0.005214 0.010086 -0.001319 0.000000 0.000000 0.000000
# 3 -0.005861 -0.001319 0.018012 0.000000 0.000000 0.000000
# 4 0.000000 0.000000 0.000000 0.031792 0.000000 0.000000
# 5 0.000000 0.000000 0.000000 0.000000 0.079286 0.000000
# 6 0.000000 0.000000 0.000000 0.000000 0.000000 0.028328
#
#
# Mechanical properties :
#
#
# Convention : Reuss Voigt Hill
#
# Bulk Modulus (GPa) = 42.33064 46.22371 44.27718
# Shear Modulus (GPa) = 22.67774 27.17465 24.92620
#
# Velocity S-wave (km/s) = 3.49402 3.82479 3.66314
# Velocity P-wave (km/s) = 6.25024 6.66251 6.45966
#
# Compressibility (1/GPa) = 0.02362355
#
# Stress axis : x y z
#
# Youngs Moduli (GPa) = 49.22526 99.15013 55.51989
#
# Poissons Ratio (x) = 0.51696 0.32541
# Poissons Ratio (y) = 0.25666 0.07324
# Poissons Ratio (z) = 0.28852 0.13080
#
# Static dielectric constant tensor:
#      x y z
#    x 3.384230 0.000000 0.000000 
#    y 0.000000 3.596790 0.000000 
#    z 0.000000 0.000000 3.292230 
# 
# 
# High freq. dielectric constant tensor:
#      x y z
#    x 1.713040 0.000000 0.000000 
#    y 0.000000 1.738000 0.000000 
#    z 0.000000 0.000000 1.701460 
# 
# From -- ./inp_files/2443.got.cif
#   From: 2010.03.12/outbox.cif.g09.slc.cpg/sg28_2_cif.got.tgz:2443.got - 2010.04.14 03:39:34.
