data_PCOD8168948
_publ_section_title
;
Structure prediction by ZEFSAII (Michael W. Deem and Ramdas Pophale) SiO2 
 PCOD8168948
Probable space group: P C A 21
;
_chemical_formula_sum "Si O2"
_cell_formula_units_Z 32
_cell_length_a 18.933097
_cell_length_b 8.675191
_cell_length_c 8.964150
_cell_angle_alpha 90.000000
_cell_angle_beta 90.000000
_cell_angle_gamma 90.000000
_cell_volume 1472.345795
_symmetry_space_group_name_H-M "P C A 21"
_symmetry_group_IT_number 29
_symmetry_cell_setting 'orthorhombic'
loop_
_space_group_symop_operation_xyz
x,y,z
-x,-y,1/2+z
1/2-x,y,1/2+z
1/2+x,-y,z
loop_
_atom_site_type_symbol
_atom_site_label
_atom_site_fract_x
_atom_site_fract_y
_atom_site_fract_z
Si Si1 0.815129 0.781191 0.301870
Si Si2 0.536597 0.440996 0.035831
Si Si3 0.943981 0.347655 0.859095
Si Si4 0.807634 0.919445 0.986114
Si Si5 0.820709 0.423007 0.362068
Si Si6 0.806588 0.280110 0.037236
Si Si7 0.038481 0.077562 0.788394
Si Si8 0.042822 0.143834 0.465752
O O1 0.758639 0.888260 0.382611
O O2 0.804044 0.603127 0.341414
O O3 0.892481 0.838408 0.355186
O O4 0.805337 0.803594 0.125958
O O5 0.501467 0.598747 0.980870
O O6 0.603185 0.398260 0.935416
O O7 0.473584 0.317578 0.013726
O O8 0.556743 0.455835 0.210747
O O9 0.967501 0.177645 0.810343
O O10 0.866610 0.344861 0.927933
O O11 0.879228 0.875608 0.892686
O O12 0.804902 0.095807 0.038719
O O13 0.819397 0.335649 0.205121
O O14 0.766274 0.348185 0.477068
O O15 0.049140 0.039142 0.614919
O O16 0.022236 0.914908 0.866094
#
# Coordination Sequence:
#
# PCOD8168948 Si02
#       8
#     4   4   4   4   4   4   4   4
#     4  11  25  45  68  94 137 175 223 275 339 403
#     4  11  25  42  69 100 136 176 226 275 339 401
#     4  11  23  44  67  99 135 175 221 278 333 401
#     4  11  25  45  67  99 131 180 221 279 336 404
#     4  12  26  46  69 101 135 181 227 283 340 408
#     4  12  26  44  72  97 138 176 231 280 341 405
#     4  10  22  44  64  96 131 169 219 272 329 400
#     4  10  24  40  68  96 133 170 222 270 335 396
#
# _framework density 21.734024999999999
#
# number of rings (size 3 to 8) (size 9 to 14) (size 15 to 20)
#    0.000    1.000    2.500    3.000   10.500    2.000 
#    0.000    0.000    0.000    0.000    0.000    0.000 
#    0.000    0.000    0.000    0.000    0.000    0.000 
#
# Total GULP energy -396882.459721 kJ/mol
# GULP energy per Si atom -12402.576866 kJ/mol
# Density = 2.168456 g / cm^3
# Si number density = 21.734025 Si / 1000 Ang^3
#
#
#
# Elastic Constant Matrix: (Units=GPa)
#
#
# Indices 1 2 3 4 5 6 
#
# 1 109.7311 22.9788 22.8077 0.0000 0.0000 0.0000
# 2 22.9788 39.5416 21.0124 0.0000 0.0000 0.0000
# 3 22.8077 21.0124 75.4430 0.0000 0.0000 0.0000
# 4 0.0000 0.0000 0.0000 36.7188 0.0000 0.0000
# 5 0.0000 0.0000 0.0000 0.0000 37.0633 0.0000
# 6 0.0000 0.0000 0.0000 0.0000 0.0000 36.3503
#
#
#
# Elastic Compliance Matrix: (Units=1/GPa)
#
#
# Indices 1 2 3 4 5 6 
#
# 1 0.010567 -0.005215 -0.001742 0.000000 0.000000 0.000000
# 2 -0.005215 0.032257 -0.007408 0.000000 0.000000 0.000000
# 3 -0.001742 -0.007408 0.015845 0.000000 0.000000 0.000000
# 4 0.000000 0.000000 0.000000 0.027234 0.000000 0.000000
# 5 0.000000 0.000000 0.000000 0.000000 0.026981 0.000000
# 6 0.000000 0.000000 0.000000 0.000000 0.000000 0.027510
#
#
# Mechanical properties :
#
#
# Convention : Reuss Voigt Hill
#
# Bulk Modulus (GPa) = 33.40090 39.81262 36.60676
# Shear Modulus (GPa) = 27.91673 32.55424 30.23549
#
# Velocity S-wave (km/s) = 3.58784 3.87440 3.73387
# Velocity P-wave (km/s) = 5.70656 6.19456 5.95556
#
# Compressibility (1/GPa) = 0.02993932
#
# Stress axis : x y z
#
# Youngs Moduli (GPa) = 94.63043 31.00105 63.11191
#
# Poissons Ratio (x) = 0.16168 0.10995
# Poissons Ratio (y) = 0.49352 0.46750
# Poissons Ratio (z) = 0.16486 0.22964
#
# Static dielectric constant tensor:
#      x y z
#    x 4.067830 0.000000 0.000000 
#    y 0.000000 3.793080 0.000000 
#    z 0.000000 0.000000 3.969430 
# 
# 
# High freq. dielectric constant tensor:
#      x y z
#    x 1.869140 0.000000 0.000000 
#    y 0.000000 1.855060 0.000000 
#    z 0.000000 0.000000 1.852000 
# 
# From -- ./inp_files/2138.got.cif
#   From: 2010.03.12/outbox.cif.g09.slc.cpg/sg29_2_cif.got.tgz:2138.got - 2010.04.14 03:43:10.
