data_PCOD8168273
_publ_section_title
;
Structure prediction by ZEFSAII (Michael W. Deem and Ramdas Pophale) SiO2 
 PCOD8168273
Probable space group: P M A 2
;
_chemical_formula_sum "Si O2"
_cell_formula_units_Z 32
_cell_length_a 8.854626
_cell_length_b 15.226554
_cell_length_c 15.360284
_cell_angle_alpha 90.000000
_cell_angle_beta 90.000000
_cell_angle_gamma 90.000000
_cell_volume 2070.957063
_symmetry_space_group_name_H-M "P M A 2"
_symmetry_group_IT_number 28
_symmetry_cell_setting 'orthorhombic'
loop_
_space_group_symop_operation_xyz
x,y,z
-x,-y,z
1/2-x,y,z
1/2+x,-y,z
loop_
_atom_site_type_symbol
_atom_site_label
_atom_site_fract_x
_atom_site_fract_y
_atom_site_fract_z
Si Si1 0.423933 0.405753 0.597420
Si Si2 0.573351 0.404730 0.952764
Si Si3 0.930714 0.725866 0.088178
Si Si4 0.070480 0.732233 0.273928
Si Si5 0.424199 0.594378 0.760576
Si Si6 0.414931 0.083067 0.076734
Si Si7 0.581269 0.914113 0.282834
Si Si8 0.927188 0.595869 0.404330
O O1 0.500000 0.500000 0.594311
O O2 0.250000 0.416312 0.619523
O O3 0.500015 0.352229 0.678992
O O4 0.447880 0.363688 0.501959
O O5 0.500000 0.500000 0.958941
O O6 0.750000 0.410838 0.977035
O O7 0.484687 0.344592 0.019523
O O8 0.551940 0.362467 0.855995
O O9 0.750000 0.725591 0.098547
O O10 0.988392 0.822029 0.055363
O O11 0.002893 0.704446 0.181119
O O12 0.250000 0.733987 0.268103
O O13 0.012803 0.827150 0.306060
O O14 0.016339 0.659859 0.341445
O O15 0.500000 0.500000 0.765401
O O16 0.250000 0.583536 0.739180
O O17 0.250000 0.079446 0.034919
O O18 0.407575 0.073636 0.180040
O O19 0.500000 0.000000 0.034798
O O20 0.750000 0.905687 0.322259
O O21 0.500000 0.000000 0.323628
O O22 0.750000 0.590339 0.380009
O O23 0.000000 0.500000 0.395977
#
# Coordination Sequence:
#
# PCOD8168273 Si02
#       8
#     4   4   4   4   4   4   4   4
#     4   9  16  26  43  63  83 107 137 174 218 261
#     4  10  20  32  45  63  86 116 150 183 217 255
#     4  10  20  33  46  62  86 116 149 185 218 254
#     4  11  21  32  46  64  87 118 152 185 220 260
#     4   9  16  26  42  62  84 107 136 174 216 259
#     4   8  15  26  42  62  82 105 134 170 214 255
#     4   9  16  28  45  65  87 111 141 179 221 263
#     4  10  20  33  46  63  87 116 150 186 219 257
#
# _framework density 15.451793
#
# number of rings (size 3 to 8) (size 9 to 14) (size 15 to 20)
#    0.000    2.500    0.000    4.875    0.000    7.000 
#    0.000    2.500    0.000    0.000    0.000    0.000 
#    0.000    1.000    0.000    9.000    0.000    6.750 
#
# Total GULP energy -396470.830340 kJ/mol
# GULP energy per Si atom -12389.713448 kJ/mol
# Density = 1.541662 g / cm^3
# Si number density = 15.451793 Si / 1000 Ang^3
#
#
#
# Elastic Constant Matrix: (Units=GPa)
#
#
# Indices 1 2 3 4 5 6 
#
# 1 121.7237 42.5750 51.0241 0.0000 0.0000 0.0000
# 2 42.5750 80.3949 48.6797 0.0000 0.0000 0.0000
# 3 51.0241 48.6797 87.1480 0.0000 0.0000 0.0000
# 4 0.0000 0.0000 0.0000 -3.4164 0.0000 0.0000
# 5 0.0000 0.0000 0.0000 0.0000 -4.7040 0.0000
# 6 0.0000 0.0000 0.0000 0.0000 0.0000 24.0457
#
#
#
# Elastic Compliance Matrix: (Units=1/GPa)
#
#
# Indices 1 2 3 4 5 6 
#
# 1 0.011347 -0.003002 -0.004967 0.000000 0.000000 0.000000
# 2 -0.003002 0.019590 -0.009185 0.000000 0.000000 0.000000
# 3 -0.004967 -0.009185 0.019514 0.000000 0.000000 0.000000
# 4 0.000000 0.000000 0.000000 -0.292706 0.000000 0.000000
# 5 0.000000 0.000000 0.000000 0.000000 -0.212586 0.000000
# 6 0.000000 0.000000 0.000000 0.000000 0.000000 0.041587
#
#
# Mechanical properties :
#
#
# Convention : Reuss Voigt Hill
#
# Bulk Modulus (GPa) = 61.94632 63.75824 62.85228
# Shear Modulus (GPa) = -13.38454 12.98426 -0.20014
#
# Velocity S-wave (km/s) = -2.94634 2.90195 -0.36029
# Velocity P-wave (km/s) = 5.34813 7.25125 6.37115
#
# Compressibility (1/GPa) = 0.01614301
#
# Stress axis : x y z
#
# Youngs Moduli (GPa) = 88.12688 51.04661 51.24626
#
# Poissons Ratio (x) = 0.15322 0.25454
# Poissons Ratio (y) = 0.26453 0.47071
# Poissons Ratio (z) = 0.43773 0.46888
#
# Static dielectric constant tensor:
#      x y z
#    x 3.228010 0.000000 0.000000 
#    y 0.000000 2.868690 0.000000 
#    z 0.000000 0.000000 3.356570 
# 
# 
# High freq. dielectric constant tensor:
#      x y z
#    x 1.614840 0.000000 0.000000 
#    y 0.000000 1.560570 0.000000 
#    z 0.000000 0.000000 1.571230 
# 
# From -- ./inp_files/6445.got.cif
#   From: 2010.03.12/outbox.cif.g09.slc.cpg/sg28_4_cif.got.tgz:6445.got - 2010.04.14 03:39:34.
