data_PCOD8168807
_publ_section_title
;
Structure prediction by ZEFSAII (Michael W. Deem and Ramdas Pophale) SiO2 
 PCOD8168807
Probable space group: P C A 21
;
_chemical_formula_sum "Si O2"
_cell_formula_units_Z 32
_cell_length_a 5.321398
_cell_length_b 20.715888
_cell_length_c 12.349342
_cell_angle_alpha 90.000000
_cell_angle_beta 90.000000
_cell_angle_gamma 90.000000
_cell_volume 1361.360403
_symmetry_space_group_name_H-M "P C A 21"
_symmetry_group_IT_number 29
_symmetry_cell_setting 'orthorhombic'
loop_
_space_group_symop_operation_xyz
x,y,z
-x,-y,1/2+z
1/2-x,y,1/2+z
1/2+x,-y,z
loop_
_atom_site_type_symbol
_atom_site_label
_atom_site_fract_x
_atom_site_fract_y
_atom_site_fract_z
Si Si1 0.518453 0.227056 0.122010
Si Si2 0.415071 0.472074 0.991753
Si Si3 0.393892 0.973751 0.991765
Si Si4 0.879455 0.973420 0.746930
Si Si5 0.432699 0.327641 0.304913
Si Si6 0.938485 0.330235 0.438124
Si Si7 0.481222 0.145559 0.618143
Si Si8 0.620219 0.529757 0.738405
O O1 0.480048 0.266768 0.230403
O O2 0.764666 0.184117 0.142062
O O3 0.263326 0.188545 0.093634
O O4 0.579112 0.274615 0.025260
O O5 0.636567 0.517287 0.937407
O O6 0.368651 0.495344 0.114860
O O7 0.498770 0.398385 0.992244
O O8 0.625052 0.012365 0.047750
O O9 0.361705 0.999894 0.869240
O O10 0.464755 0.898409 0.010498
O O11 0.920536 0.896891 0.726726
O O12 0.619006 0.993217 0.689078
O O13 0.662662 0.333950 0.387262
O O14 0.417573 0.393805 0.238156
O O15 0.162277 0.313213 0.356724
O O16 0.387359 0.490329 0.794334
#
# Coordination Sequence:
#
# PCOD8168807 Si02
#       8
#     4   4   4   4   4   4   4   4
#     4  12  28  51  66 105 142 192 242 276 334 422
#     4  10  21  39  68 101 135 180 235 298 361 413
#     4  10  21  41  67 103 135 167 215 280 342 398
#     4  10  21  41  67 103 135 167 215 280 342 398
#     4  12  26  47  71  99 143 188 237 298 351 410
#     4  12  26  47  71  99 143 188 237 298 351 410
#     4  12  24  45  74  97 142 186 222 278 344 416
#     4  10  21  39  68 101 135 180 235 298 361 413
#
# _framework density 23.505901000000001
#
# number of rings (size 3 to 8) (size 9 to 14) (size 15 to 20)
#    0.000    1.000    1.250    5.250    0.000    3.000 
#   27.000    0.000    0.000    0.000    0.000    0.000 
#    0.000    0.000    0.000    0.000    0.000    0.000 
#
# Total GULP energy -396674.350706 kJ/mol
# GULP energy per Si atom -12396.073460 kJ/mol
# Density = 2.345240 g / cm^3
# Si number density = 23.505901 Si / 1000 Ang^3
#
#
#
# Elastic Constant Matrix: (Units=GPa)
#
#
# Indices 1 2 3 4 5 6 
#
# 1 181.5272 58.4570 21.1646 0.0000 0.0000 0.0000
# 2 58.4570 134.4011 21.2612 0.0000 0.0000 0.0000
# 3 21.1646 21.2612 62.5388 0.0000 0.0000 0.0000
# 4 0.0000 0.0000 0.0000 27.4289 0.0000 0.0000
# 5 0.0000 0.0000 0.0000 0.0000 21.2720 0.0000
# 6 0.0000 0.0000 0.0000 0.0000 0.0000 -7.5335
#
#
#
# Elastic Compliance Matrix: (Units=1/GPa)
#
#
# Indices 1 2 3 4 5 6 
#
# 1 0.006506 -0.002623 -0.001310 0.000000 0.000000 0.000000
# 2 -0.002623 0.008920 -0.002145 0.000000 0.000000 0.000000
# 3 -0.001310 -0.002145 0.017163 0.000000 0.000000 0.000000
# 4 0.000000 0.000000 0.000000 0.036458 0.000000 0.000000
# 5 0.000000 0.000000 0.000000 0.000000 0.047010 0.000000
# 6 0.000000 0.000000 0.000000 0.000000 0.000000 -0.132741
#
#
# Mechanical properties :
#
#
# Convention : Reuss Voigt Hill
#
# Bulk Modulus (GPa) = 48.93926 64.47030 56.70478
# Shear Modulus (GPa) = 2189.92595 26.73910 1108.33253
#
# Velocity S-wave (km/s) = 30.55605 3.37642 21.73789
# Velocity P-wave (km/s) = 35.57754 6.53353 25.57780
#
# Compressibility (1/GPa) = 0.02043349
#
# Stress axis : x y z
#
# Youngs Moduli (GPa) = 153.70170 112.10245 58.26561
#
# Poissons Ratio (x) = 0.29399 0.07634
# Poissons Ratio (y) = 0.40309 0.12499
# Poissons Ratio (z) = 0.20139 0.24048
#
# Static dielectric constant tensor:
#      x y z
#    x 5.432030 0.000000 0.000000 
#    y 0.000000 4.117160 0.000000 
#    z 0.000000 0.000000 4.511580 
# 
# 
# High freq. dielectric constant tensor:
#      x y z
#    x 1.982400 0.000000 0.000000 
#    y 0.000000 1.915450 0.000000 
#    z 0.000000 0.000000 1.959970 
# 
# From -- ./inp_files/4115.got.cif
#   From: 2010.03.12/outbox.cif.g09.slc.cpg/sg29_3_cif.got.tgz:4115.got - 2010.04.14 03:43:10.
