data_PCOD8168170
_publ_section_title
;
Structure prediction by ZEFSAII (Michael W. Deem and Ramdas Pophale) SiO2 
 PCOD8168170
Probable space group: P M A 2
;
_chemical_formula_sum "Si O2"
_cell_formula_units_Z 24
_cell_length_a 8.806679
_cell_length_b 15.417670
_cell_length_c 9.737109
_cell_angle_alpha 90.000000
_cell_angle_beta 90.000000
_cell_angle_gamma 90.000000
_cell_volume 1322.089768
_symmetry_space_group_name_H-M "P M A 2"
_symmetry_group_IT_number 28
_symmetry_cell_setting 'orthorhombic'
loop_
_space_group_symop_operation_xyz
x,y,z
-x,-y,z
1/2-x,y,z
1/2+x,-y,z
loop_
_atom_site_type_symbol
_atom_site_label
_atom_site_fract_x
_atom_site_fract_y
_atom_site_fract_z
Si Si1 0.928791 0.764334 0.229400
Si Si2 0.422130 0.586782 0.225949
Si Si3 0.430642 0.907927 0.040643
Si Si4 0.573317 0.758766 0.545686
Si Si5 0.419126 0.585009 0.552905
Si Si6 0.930461 0.908940 0.750312
O O1 0.750000 0.774687 0.202563
O O2 0.972556 0.776385 0.388671
O O3 0.982300 0.670070 0.175992
O O4 0.022519 0.837283 0.151564
O O5 0.500000 0.500000 0.165304
O O6 0.250000 0.593373 0.170733
O O7 0.424357 0.582385 0.389323
O O8 0.250000 0.915730 0.031528
O O9 0.500000 0.000000 0.086066
O O10 0.497933 0.879319 0.894187
O O11 0.750000 0.741838 0.557941
O O12 0.496471 0.672662 0.606524
O O13 0.520653 0.840159 0.635452
O O14 0.500000 0.500000 0.614252
O O15 0.250000 0.584194 0.610429
O O16 0.750000 0.917079 0.766209
O O17 0.000000 0.000000 0.702251
#
# Coordination Sequence:
#
# PCOD8168170 Si02
#       6
#     4   4   4   4   4   4
#     4  10  19  33  52  77 106 135 167 209 254 297
#     4   9  16  27  44  70 101 135 170 206 247 295
#     4  11  22  37  55  75  99 132 171 209 250 303
#     4   9  19  33  51  76 105 133 166 207 252 296
#     4   9  16  26  44  69 100 134 168 204 245 292
#     4  10  20  36  55  75  99 131 168 207 250 301
#
# _framework density 18.153079000000002
#
# number of rings (size 3 to 8) (size 9 to 14) (size 15 to 20)
#    0.000    2.333    0.000    4.500    0.000    6.667 
#    0.000    1.667    0.000    1.000    0.000    2.333 
#    0.000    0.000    0.000    0.000    0.000    0.000 
#
# Total GULP energy -297611.630153 kJ/mol
# GULP energy per Si atom -12400.484590 kJ/mol
# Density = 1.811176 g / cm^3
# Si number density = 18.153079 Si / 1000 Ang^3
#
#
#
# Elastic Constant Matrix: (Units=GPa)
#
#
# Indices 1 2 3 4 5 6 
#
# 1 109.1597 73.0853 38.9909 0.0000 0.0000 0.0000
# 2 73.0853 164.1389 67.9381 0.0000 0.0000 0.0000
# 3 38.9909 67.9381 53.7025 0.0000 0.0000 0.0000
# 4 0.0000 0.0000 0.0000 -2.2053 0.0000 0.0000
# 5 0.0000 0.0000 0.0000 0.0000 15.8079 0.0000
# 6 0.0000 0.0000 0.0000 0.0000 0.0000 40.1188
#
#
#
# Elastic Compliance Matrix: (Units=1/GPa)
#
#
# Indices 1 2 3 4 5 6 
#
# 1 0.013581 -0.004127 -0.004640 0.000000 0.000000 0.000000
# 2 -0.004127 0.014043 -0.014769 0.000000 0.000000 0.000000
# 3 -0.004640 -0.014769 0.040675 0.000000 0.000000 0.000000
# 4 0.000000 0.000000 0.000000 -0.453445 0.000000 0.000000
# 5 0.000000 0.000000 0.000000 0.000000 0.063259 0.000000
# 6 0.000000 0.000000 0.000000 0.000000 0.000000 0.024926
#
#
# Mechanical properties :
#
#
# Convention : Reuss Voigt Hill
#
# Bulk Modulus (GPa) = 47.11100 76.33663 61.72381
# Shear Modulus (GPa) = -20.59197 20.54339 -0.02429
#
# Velocity S-wave (km/s) = -3.37167 3.36769 -0.11580
# Velocity P-wave (km/s) = 3.29407 7.56734 5.83590
#
# Compressibility (1/GPa) = 0.02122647
#
# Stress axis : x y z
#
# Youngs Moduli (GPa) = 73.63111 71.20985 24.58542
#
# Poissons Ratio (x) = 0.29386 0.11408
# Poissons Ratio (y) = 0.30385 0.36311
# Poissons Ratio (z) = 0.34165 1.05172
#
# Static dielectric constant tensor:
#      x y z
#    x 3.497420 0.000000 0.000000 
#    y 0.000000 3.552350 0.000000 
#    z 0.000000 0.000000 3.026170 
# 
# 
# High freq. dielectric constant tensor:
#      x y z
#    x 1.719870 0.000000 0.000000 
#    y 0.000000 1.718760 0.000000 
#    z 0.000000 0.000000 1.657550 
# 
# From -- ./inp_files/2472.got.cif
#   From: 2010.03.12/outbox.cif.g09.slc.cpg/sg28_2_cif.got.tgz:2472.got - 2010.04.14 03:39:34.
