data_PCOD8168545
_publ_section_title
;
Structure prediction by ZEFSAII (Michael W. Deem and Ramdas Pophale) SiO2 
 PCOD8168545
Probable space group: P C A 21
;
_chemical_formula_sum "Si O2"
_cell_formula_units_Z 32
_cell_length_a 8.970283
_cell_length_b 10.416720
_cell_length_c 19.990441
_cell_angle_alpha 90.000000
_cell_angle_beta 90.000000
_cell_angle_gamma 90.000000
_cell_volume 1867.925325
_symmetry_space_group_name_H-M "P C A 21"
_symmetry_group_IT_number 29
_symmetry_cell_setting 'orthorhombic'
loop_
_space_group_symop_operation_xyz
x,y,z
-x,-y,1/2+z
1/2-x,y,1/2+z
1/2+x,-y,z
loop_
_atom_site_type_symbol
_atom_site_label
_atom_site_fract_x
_atom_site_fract_y
_atom_site_fract_z
Si Si1 0.075303 0.169014 0.569440
Si Si2 0.953843 0.430291 0.335880
Si Si3 0.546157 0.069709 0.433882
Si Si4 0.095739 0.276528 0.849208
Si Si5 0.803097 0.023272 0.525434
Si Si6 0.575303 0.669014 0.700322
Si Si7 0.904261 0.776528 0.920554
Si Si8 0.303097 0.523272 0.744327
O O1 0.102485 0.250000 0.634881
O O2 0.107790 0.245725 0.500580
O O3 0.904225 0.120197 0.568347
O O4 0.192245 0.051965 0.574897
O O5 0.953051 0.576729 0.364330
O O6 0.798149 0.400053 0.298393
O O7 0.973449 0.324520 0.393471
O O8 0.091541 0.422140 0.283750
O O9 0.526551 0.175480 0.376290
O O10 0.701851 0.099947 0.471369
O O11 0.408459 0.077860 0.486012
O O12 0.546949 0.923271 0.405432
O O13 0.107790 0.254275 0.769182
O O14 0.250000 0.250000 0.884881
O O15 0.404225 0.620197 0.701415
O O16 0.692245 0.551965 0.694864
#
# Coordination Sequence:
#
# PCOD8168545 Si02
#       8
#     4   4   4   4   4   4   4   4
#     4  10  20  37  55  76 113 146 184 225 281 335
#     4  10  17  34  59  80 109 144 181 230 277 323
#     4  10  17  34  59  80 109 144 181 230 277 323
#     4  10  19  36  57  86 112 143 188 229 280 323
#     4   8  18  35  55  74 109 146 174 221 294 314
#     4  10  20  37  55  76 113 146 184 225 281 335
#     4  10  19  36  57  86 112 143 188 229 280 323
#     4   8  18  35  55  74 109 146 174 221 294 314
#
# _framework density 17.131307
#
# number of rings (size 3 to 8) (size 9 to 14) (size 15 to 20)
#    0.000    3.000    5.000    0.000    0.000    4.000 
#    4.500    5.000    0.000    0.000    0.000    0.000 
#    0.000    0.000    0.000    0.000    0.000    0.000 
#
# Total GULP energy -396480.572114 kJ/mol
# GULP energy per Si atom -12390.017879 kJ/mol
# Density = 1.709232 g / cm^3
# Si number density = 17.131307 Si / 1000 Ang^3
#
#
#
# Elastic Constant Matrix: (Units=GPa)
#
#
# Indices 1 2 3 4 5 6 
#
# 1 116.6924 35.9612 45.3667 0.0000 0.0000 0.0000
# 2 35.9612 98.0887 55.9920 0.0000 0.0000 0.0000
# 3 45.3667 55.9920 107.8566 0.0000 0.0000 0.0000
# 4 0.0000 0.0000 0.0000 39.9211 0.0000 0.0000
# 5 0.0000 0.0000 0.0000 0.0000 20.0035 0.0000
# 6 0.0000 0.0000 0.0000 0.0000 0.0000 23.0432
#
#
#
# Elastic Compliance Matrix: (Units=1/GPa)
#
#
# Indices 1 2 3 4 5 6 
#
# 1 0.010484 -0.001885 -0.003431 0.000000 0.000000 0.000000
# 2 -0.001885 0.014827 -0.006904 0.000000 0.000000 0.000000
# 3 -0.003431 -0.006904 0.014299 0.000000 0.000000 0.000000
# 4 0.000000 0.000000 0.000000 0.025049 0.000000 0.000000
# 5 0.000000 0.000000 0.000000 0.000000 0.049991 0.000000
# 6 0.000000 0.000000 0.000000 0.000000 0.000000 0.043397
#
#
# Mechanical properties :
#
#
# Convention : Reuss Voigt Hill
#
# Bulk Modulus (GPa) = 65.92324 66.36417 66.14371
# Shear Modulus (GPa) = 26.66007 28.94809 27.80408
#
# Velocity S-wave (km/s) = 3.94917 4.11515 4.03302
# Velocity P-wave (km/s) = 7.70450 7.83594 7.77050
#
# Compressibility (1/GPa) = 0.01516916
#
# Stress axis : x y z
#
# Youngs Moduli (GPa) = 95.37903 67.44359 69.93398
#
# Poissons Ratio (x) = 0.12714 0.23997
# Poissons Ratio (y) = 0.17980 0.48285
# Poissons Ratio (z) = 0.32728 0.46566
#
# Static dielectric constant tensor:
#      x y z
#    x 3.543500 0.000000 0.000000 
#    y 0.000000 3.095290 0.000000 
#    z 0.000000 0.000000 2.995670 
# 
# 
# High freq. dielectric constant tensor:
#      x y z
#    x 1.686020 0.000000 0.000000 
#    y 0.000000 1.638940 0.000000 
#    z 0.000000 0.000000 1.635180 
# 
# From -- ./inp_files/5441.got.cif
#   From: 2010.03.12/outbox.cif.g09.slc.cpg/sg29_3_cif.got.tgz:5441.got - 2010.04.14 03:43:10.
