data_PCOD8168125
_publ_section_title
;
Structure prediction by ZEFSAII (Michael W. Deem and Ramdas Pophale) SiO2 
 PCOD8168125
Probable space group: P M A 2
;
_chemical_formula_sum "Si O2"
_cell_formula_units_Z 32
_cell_length_a 8.746289
_cell_length_b 14.807182
_cell_length_c 12.548700
_cell_angle_alpha 90.000000
_cell_angle_beta 90.000000
_cell_angle_gamma 90.000000
_cell_volume 1625.155697
_symmetry_space_group_name_H-M "P M A 2"
_symmetry_group_IT_number 28
_symmetry_cell_setting 'orthorhombic'
loop_
_space_group_symop_operation_xyz
x,y,z
-x,-y,z
1/2-x,y,z
1/2+x,-y,z
loop_
_atom_site_type_symbol
_atom_site_label
_atom_site_fract_x
_atom_site_fract_y
_atom_site_fract_z
Si Si1 0.427694 0.785174 0.498500
Si Si2 0.929207 0.634214 0.207789
Si Si3 0.431602 0.590099 0.429864
Si Si4 0.567116 0.100924 0.695927
Si Si5 0.069350 0.777051 0.891038
Si Si6 0.567797 0.408672 0.980343
Si Si7 0.076699 0.910814 0.062921
Si Si8 0.924889 0.187501 0.264448
O O1 0.250000 0.777629 0.523201
O O2 0.491024 0.681624 0.489980
O O3 0.499281 0.847609 0.590898
O O4 0.461550 0.836389 0.386818
O O5 0.750000 0.612296 0.208975
O O6 0.010918 0.587785 0.308274
O O7 0.957116 0.740782 0.217651
O O8 0.002658 0.598464 0.099440
O O9 0.500000 0.500000 0.486779
O O10 0.250000 0.586708 0.431842
O O11 0.750000 0.092204 0.695195
O O12 0.505975 0.165664 0.791054
O O13 0.500000 0.000000 0.704647
O O14 0.250000 0.774468 0.881612
O O15 0.011485 0.673592 0.903253
O O16 0.010977 0.825190 0.999207
O O17 0.500000 0.500000 0.928446
O O18 0.750000 0.411854 0.986945
O O19 0.250000 0.921575 0.029442
O O20 0.055186 0.900337 0.190305
O O21 0.000000 0.000000 0.019941
O O22 0.750000 0.225302 0.255830
#
# Coordination Sequence:
#
# PCOD8168125 Si02
#       8
#     4   4   4   4   4   4   4   4
#     4   8  17  33  55  78 104 141 180 219 265 321
#     4  11  20  31  50  79 110 145 185 225 265 315
#     4  10  19  33  52  77 110 149 186 221 264 320
#     4  10  20  38  61  84 105 137 184 226 274 325
#     4   9  19  36  57  76 105 144 179 221 271 326
#     4  11  21  36  54  77 108 146 184 221 269 325
#     4  10  19  32  50  75 104 140 177 215 269 326
#     4   9  17  33  52  72 108 150 182 216 268 324
#
# _framework density 19.690422000000002
#
# number of rings (size 3 to 8) (size 9 to 14) (size 15 to 20)
#    0.000    2.250    1.250    3.375    0.000    1.000 
#    0.000    5.000    0.000    0.000    0.000    0.000 
#    0.000    0.000    0.000    0.000    0.000    0.000 
#
# Total GULP energy -396488.010494 kJ/mol
# GULP energy per Si atom -12390.250328 kJ/mol
# Density = 1.964561 g / cm^3
# Si number density = 19.690422 Si / 1000 Ang^3
#
#
#
# Elastic Constant Matrix: (Units=GPa)
#
#
# Indices 1 2 3 4 5 6 
#
# 1 57.4713 35.1287 23.2475 0.0000 0.0000 0.0000
# 2 35.1287 166.5455 75.2849 0.0000 0.0000 0.0000
# 3 23.2475 75.2849 115.8634 0.0000 0.0000 0.0000
# 4 0.0000 0.0000 0.0000 24.4684 0.0000 0.0000
# 5 0.0000 0.0000 0.0000 0.0000 12.6609 0.0000
# 6 0.0000 0.0000 0.0000 0.0000 0.0000 31.9755
#
#
#
# Elastic Compliance Matrix: (Units=1/GPa)
#
#
# Indices 1 2 3 4 5 6 
#
# 1 0.020244 -0.003446 -0.001823 0.000000 0.000000 0.000000
# 2 -0.003446 0.009088 -0.005214 0.000000 0.000000 0.000000
# 3 -0.001823 -0.005214 0.012384 0.000000 0.000000 0.000000
# 4 0.000000 0.000000 0.000000 0.040869 0.000000 0.000000
# 5 0.000000 0.000000 0.000000 0.000000 0.078984 0.000000
# 6 0.000000 0.000000 0.000000 0.000000 0.000000 0.031274
#
#
# Mechanical properties :
#
#
# Convention : Reuss Voigt Hill
#
# Bulk Modulus (GPa) = 48.19010 67.46690 57.82850
# Shear Modulus (GPa) = 22.65270 27.56889 25.11080
#
# Velocity S-wave (km/s) = 3.39550 3.74587 3.57498
# Velocity P-wave (km/s) = 6.31661 7.28333 6.81713
#
# Compressibility (1/GPa) = 0.02075115
#
# Stress axis : x y z
#
# Youngs Moduli (GPa) = 49.39834 110.03517 80.74734
#
# Poissons Ratio (x) = 0.37918 0.14718
# Poissons Ratio (y) = 0.17022 0.42099
# Poissons Ratio (z) = 0.09004 0.57369
#
# Static dielectric constant tensor:
#      x y z
#    x 3.342090 0.000000 0.000000 
#    y 0.000000 3.819820 0.000000 
#    z 0.000000 0.000000 3.650910 
# 
# 
# High freq. dielectric constant tensor:
#      x y z
#    x 1.736030 0.000000 0.000000 
#    y 0.000000 1.777410 0.000000 
#    z 0.000000 0.000000 1.751080 
# 
# From -- ./inp_files/5110.got.cif
#   From: 2010.03.12/outbox.cif.g09.slc.cpg/sg28_3_cif.got.tgz:5110.got - 2010.04.14 03:39:34.
