data_PCOD8168796
_publ_section_title
;
Structure prediction by ZEFSAII (Michael W. Deem and Ramdas Pophale) SiO2 
 PCOD8168796
Probable space group: P C A 21
;
_chemical_formula_sum "Si O2"
_cell_formula_units_Z 20
_cell_length_a 13.872231
_cell_length_b 11.625331
_cell_length_c 4.686356
_cell_angle_alpha 90.000000
_cell_angle_beta 90.000000
_cell_angle_gamma 90.000000
_cell_volume 755.765244
_symmetry_space_group_name_H-M "P C A 21"
_symmetry_group_IT_number 29
_symmetry_cell_setting 'orthorhombic'
loop_
_space_group_symop_operation_xyz
x,y,z
-x,-y,1/2+z
1/2-x,y,1/2+z
1/2+x,-y,z
loop_
_atom_site_type_symbol
_atom_site_label
_atom_site_fract_x
_atom_site_fract_y
_atom_site_fract_z
Si Si1 0.557107 0.476990 0.285440
Si Si2 0.942893 0.023012 0.785435
Si Si3 0.680450 0.250000 0.292060
Si Si4 0.812476 0.884130 0.194448
Si Si5 0.812476 0.615875 0.194446
O O1 0.458924 0.454895 0.483419
O O2 0.615544 0.360787 0.229021
O O3 0.599989 0.557058 0.534164
O O4 0.884459 0.139217 0.729019
O O5 0.900011 0.942946 0.034160
O O6 0.958922 0.954896 0.483412
O O7 0.720105 0.249999 0.613241
O O8 0.713039 0.920267 0.019470
O O9 0.831644 0.750003 0.162735
O O10 0.713039 0.579739 0.019468
#
# Coordination Sequence:
#
# PCOD8168796 Si02
#       5
#     4   4   4   4   4
#     4  12  26  41  68 100 139 171 226 287 340 395
#     4  12  26  41  68 100 139 171 226 287 340 395
#     4  12  26  48  74 100 140 194 236 276 350 436
#     4  10  21  39  63  88 123 167 210 259 323 399
#     4  10  21  39  63  88 123 167 210 259 323 399
#
# _framework density 26.463242999999999
#
# number of rings (size 3 to 8) (size 9 to 14) (size 15 to 20)
#    0.000    0.800    0.000    7.200    5.600    0.000 
#    0.000    0.000    0.000    0.000    0.000    0.000 
#    0.000    0.000    0.000    0.000    0.000    0.000 
#
# Total GULP energy -247868.770343 kJ/mol
# GULP energy per Si atom -12393.438517 kJ/mol
# Density = 2.640301 g / cm^3
# Si number density = 26.463243 Si / 1000 Ang^3
#
#
#
# Elastic Constant Matrix: (Units=GPa)
#
#
# Indices 1 2 3 4 5 6 
#
# 1 38.3906 3.2125 -8.6777 0.0000 0.0000 0.0000
# 2 3.2125 105.5784 24.6824 0.0000 0.0000 0.0000
# 3 -8.6777 24.6824 155.3622 0.0000 0.0000 0.0000
# 4 0.0000 0.0000 0.0000 22.4595 0.0000 0.0000
# 5 0.0000 0.0000 0.0000 0.0000 3.3758 0.0000
# 6 0.0000 0.0000 0.0000 0.0000 0.0000 69.0383
#
#
#
# Elastic Compliance Matrix: (Units=1/GPa)
#
#
# Indices 1 2 3 4 5 6 
#
# 1 0.026526 -0.001198 0.001672 0.000000 0.000000 0.000000
# 2 -0.001198 0.009891 -0.001638 0.000000 0.000000 0.000000
# 3 0.001672 -0.001638 0.006790 0.000000 0.000000 0.000000
# 4 0.000000 0.000000 0.000000 0.044525 0.000000 0.000000
# 5 0.000000 0.000000 0.000000 0.000000 0.296223 0.000000
# 6 0.000000 0.000000 0.000000 0.000000 0.000000 0.014485
#
#
# Mechanical properties :
#
#
# Convention : Reuss Voigt Hill
#
# Bulk Modulus (GPa) = 24.46258 37.52952 30.99605
# Shear Modulus (GPa) = 12.06579 37.64900 24.85739
#
# Velocity S-wave (km/s) = 2.13760 3.77595 3.06815
# Velocity P-wave (km/s) = 3.91874 5.76393 4.92846
#
# Compressibility (1/GPa) = 0.04087877
#
# Stress axis : x y z
#
# Youngs Moduli (GPa) = 37.69859 101.10097 147.27022
#
# Poissons Ratio (x) = 0.12112 -0.24623
# Poissons Ratio (y) = 0.04516 0.24128
# Poissons Ratio (z) = -0.06303 0.16564
#
# Static dielectric constant tensor:
#      x y z
#    x 5.435510 0.000000 0.000000 
#    y 0.000000 4.372290 0.000000 
#    z 0.000000 0.000000 5.202780 
# 
# 
# High freq. dielectric constant tensor:
#      x y z
#    x 2.108680 0.000000 0.000000 
#    y 0.000000 2.032960 0.000000 
#    z 0.000000 0.000000 2.113940 
# 
# From -- ./inp_files/60.got.cif
#   From: 2010.03.12/outbox.cif.g09.slc.cpg/sg29_1_cif.got.tgz:60.got - 2010.04.14 03:43:10.
