data_PCOD8168740
_publ_section_title
;
Structure prediction by ZEFSAII (Michael W. Deem and Ramdas Pophale) SiO2 
 PCOD8168740
Probable space group: P C A 21
;
_chemical_formula_sum "Si O2"
_cell_formula_units_Z 28
_cell_length_a 17.693949
_cell_length_b 5.552219
_cell_length_c 13.153467
_cell_angle_alpha 90.000000
_cell_angle_beta 90.000000
_cell_angle_gamma 90.000000
_cell_volume 1292.205540
_symmetry_space_group_name_H-M "P C A 21"
_symmetry_group_IT_number 29
_symmetry_cell_setting 'orthorhombic'
loop_
_space_group_symop_operation_xyz
x,y,z
-x,-y,1/2+z
1/2-x,y,1/2+z
1/2+x,-y,z
loop_
_atom_site_type_symbol
_atom_site_label
_atom_site_fract_x
_atom_site_fract_y
_atom_site_fract_z
Si Si1 0.661624 0.402537 0.819040
Si Si2 0.482701 0.462548 0.430964
Si Si3 0.379452 0.300679 0.854218
Si Si4 0.029301 0.042960 0.499016
Si Si5 0.771556 0.704825 0.679358
Si Si6 0.154711 0.912068 0.636133
Si Si7 0.732925 0.436239 0.491600
O O1 0.591117 0.552942 0.861142
O O2 0.710458 0.577724 0.749976
O O3 0.632200 0.188987 0.746958
O O4 0.712685 0.296049 0.911877
O O5 0.558129 0.483914 0.360305
O O6 0.484731 0.212485 0.496146
O O7 0.477962 0.710824 0.500072
O O8 0.350435 0.259732 0.739167
O O9 0.418088 0.056171 0.896925
O O10 0.309674 0.355711 0.929275
O O11 0.082321 0.064979 0.599450
O O12 0.787427 0.552232 0.577586
O O13 0.735017 0.956064 0.646335
O O14 0.168158 0.718553 0.546448
#
# Coordination Sequence:
#
# PCOD8168740 Si02
#       7
#     4   4   4   4   4   4   4
#     4  10  25  38  64  91 132 167 218 271 329 392
#     4  10  22  43  62  90 128 172 210 261 322 392
#     4   9  20  37  63  90 124 172 208 270 319 389
#     4  10  21  40  68  85 130 168 216 253 332 384
#     4  10  21  37  62  95 124 163 223 271 325 385
#     4  11  21  38  64  95 124 173 218 271 327 394
#     4  10  20  41  59  92 126 167 215 269 328 384
#
# _framework density 21.668379999999999
#
# number of rings (size 3 to 8) (size 9 to 14) (size 15 to 20)
#    0.857    1.143    2.857    0.000    6.000    1.143 
#    2.571    0.000    0.000    0.000    0.000    0.000 
#    0.000    0.000    0.000    0.000    0.000    0.000 
#
# Total GULP energy -346866.142615 kJ/mol
# GULP energy per Si atom -12388.076522 kJ/mol
# Density = 2.161906 g / cm^3
# Si number density = 21.668380 Si / 1000 Ang^3
#
#
#
# Elastic Constant Matrix: (Units=GPa)
#
#
# Indices 1 2 3 4 5 6 
#
# 1 47.2017 -1.7150 24.5197 0.0000 0.0000 0.0000
# 2 -1.7150 95.7985 19.6609 0.0000 0.0000 0.0000
# 3 24.5197 19.6609 99.8532 0.0000 0.0000 0.0000
# 4 0.0000 0.0000 0.0000 19.5938 0.0000 0.0000
# 5 0.0000 0.0000 0.0000 0.0000 20.2449 0.0000
# 6 0.0000 0.0000 0.0000 0.0000 0.0000 20.0022
#
#
#
# Elastic Compliance Matrix: (Units=1/GPa)
#
#
# Indices 1 2 3 4 5 6 
#
# 1 0.024561 0.001748 -0.006375 0.000000 0.000000 0.000000
# 2 0.001748 0.011003 -0.002596 0.000000 0.000000 0.000000
# 3 -0.006375 -0.002596 0.012091 0.000000 0.000000 0.000000
# 4 0.000000 0.000000 0.000000 0.051037 0.000000 0.000000
# 5 0.000000 0.000000 0.000000 0.000000 0.049395 0.000000
# 6 0.000000 0.000000 0.000000 0.000000 0.000000 0.049994
#
#
# Mechanical properties :
#
#
# Convention : Reuss Voigt Hill
#
# Bulk Modulus (GPa) = 30.11219 36.42049 33.26634
# Shear Modulus (GPa) = 22.36171 25.32736 23.84454
#
# Velocity S-wave (km/s) = 3.21596 3.42257 3.32087
# Velocity P-wave (km/s) = 5.26468 5.69766 5.48544
#
# Compressibility (1/GPa) = 0.03320914
#
# Stress axis : x y z
#
# Youngs Moduli (GPa) = 40.71496 90.88771 82.70410
#
# Poissons Ratio (x) = -0.15888 0.52727
# Poissons Ratio (y) = -0.07117 0.21467
# Poissons Ratio (z) = 0.25957 0.23591
#
# Static dielectric constant tensor:
#      x y z
#    x 3.671460 0.000000 0.000000 
#    y 0.000000 3.686240 0.000000 
#    z 0.000000 0.000000 4.005860 
# 
# 
# High freq. dielectric constant tensor:
#      x y z
#    x 1.833850 0.000000 0.000000 
#    y 0.000000 1.833250 0.000000 
#    z 0.000000 0.000000 1.844790 
# 
# From -- ./inp_files/3778.got.cif
#   From: 2010.03.12/outbox.cif.g09.slc.cpg/sg29_2_cif.got.tgz:3778.got - 2010.04.14 03:43:10.
