data_PCOD8168094
_publ_section_title
;
Structure prediction by ZEFSAII (Michael W. Deem and Ramdas Pophale) SiO2 
 PCOD8168094
Probable space group: P M A 2
;
_chemical_formula_sum "Si O2"
_cell_formula_units_Z 32
_cell_length_a 8.981645
_cell_length_b 14.248073
_cell_length_c 15.549279
_cell_angle_alpha 90.000000
_cell_angle_beta 90.000000
_cell_angle_gamma 90.000000
_cell_volume 1989.858861
_symmetry_space_group_name_H-M "P M A 2"
_symmetry_group_IT_number 28
_symmetry_cell_setting 'orthorhombic'
loop_
_space_group_symop_operation_xyz
x,y,z
-x,-y,z
1/2-x,y,z
1/2+x,-y,z
loop_
_atom_site_type_symbol
_atom_site_label
_atom_site_fract_x
_atom_site_fract_y
_atom_site_fract_z
Si Si1 0.425728 0.898848 0.465350
Si Si2 0.425088 0.405517 0.248741
Si Si3 0.076542 0.776435 0.300992
Si Si4 0.925144 0.792512 0.986269
Si Si5 0.423800 0.406591 0.051309
Si Si6 0.077443 0.098949 0.819385
Si Si7 0.074358 0.900960 0.138700
Si Si8 0.425149 0.100801 0.630658
O O1 0.250000 0.911540 0.475940
O O2 0.467264 0.835276 0.384560
O O3 0.494255 0.846892 0.550641
O O4 0.500000 0.000000 0.451025
O O5 0.500000 0.500000 0.284530
O O6 0.250000 0.414047 0.259644
O O7 0.484247 0.319364 0.304898
O O8 0.473088 0.389615 0.149697
O O9 0.250000 0.751664 0.298881
O O10 0.028743 0.833945 0.216930
O O11 0.750000 0.803620 0.005594
O O12 0.974468 0.684148 0.996730
O O13 0.014260 0.858394 0.050637
O O14 0.969117 0.824295 0.890161
O O15 0.500000 0.500000 0.013165
O O16 0.250000 0.423577 0.044374
O O17 0.250000 0.075131 0.826069
O O18 0.041702 0.144340 0.725231
O O19 0.000000 0.000000 0.836750
O O20 0.250000 0.914764 0.131677
O O21 0.000000 0.000000 0.157103
O O22 0.250000 0.094114 0.612289
O O23 0.500000 0.000000 0.632087
#
# Coordination Sequence:
#
# PCOD8168094 Si02
#       8
#     4   4   4   4   4   4   4   4
#     4  10  19  31  47  68  94 125 157 195 235 276
#     4  10  19  32  51  71  92 121 155 195 238 278
#     4  10  21  34  47  67  94 124 159 194 232 275
#     4  10  19  33  48  67  93 123 158 192 230 275
#     4   9  18  31  48  68  90 118 152 192 233 273
#     4   9  18  30  46  66  93 123 154 191 229 274
#     4  11  22  33  45  63  92 128 160 191 223 267
#     4   9  16  28  45  66  89 118 153 192 235 276
#
# _framework density 16.081543
#
# number of rings (size 3 to 8) (size 9 to 14) (size 15 to 20)
#    0.000    2.250    1.250    3.000    0.000    4.500 
#    0.000    0.000    0.000    0.000    0.000    0.875 
#    0.000    4.000    0.000    0.000    0.000    0.000 
#
# Total GULP energy -396718.552268 kJ/mol
# GULP energy per Si atom -12397.454758 kJ/mol
# Density = 1.604494 g / cm^3
# Si number density = 16.081543 Si / 1000 Ang^3
#
#
#
# Elastic Constant Matrix: (Units=GPa)
#
#
# Indices 1 2 3 4 5 6 
#
# 1 64.4942 45.2511 44.9963 0.0000 0.0000 0.0000
# 2 45.2511 106.8153 51.6969 0.0000 0.0000 0.0000
# 3 44.9963 51.6969 118.2360 0.0000 0.0000 0.0000
# 4 0.0000 0.0000 0.0000 9.4528 0.0000 0.0000
# 5 0.0000 0.0000 0.0000 0.0000 16.1370 0.0000
# 6 0.0000 0.0000 0.0000 0.0000 0.0000 27.4331
#
#
#
# Elastic Compliance Matrix: (Units=1/GPa)
#
#
# Indices 1 2 3 4 5 6 
#
# 1 0.025251 -0.007669 -0.006256 0.000000 0.000000 0.000000
# 2 -0.007669 0.014204 -0.003292 0.000000 0.000000 0.000000
# 3 -0.006256 -0.003292 0.012278 0.000000 0.000000 0.000000
# 4 0.000000 0.000000 0.000000 0.105789 0.000000 0.000000
# 5 0.000000 0.000000 0.000000 0.000000 0.061969 0.000000
# 6 0.000000 0.000000 0.000000 0.000000 0.000000 0.036452
#
#
# Mechanical properties :
#
#
# Convention : Reuss Voigt Hill
#
# Bulk Modulus (GPa) = 57.80983 63.71489 60.76236
# Shear Modulus (GPa) = 16.88359 20.44466 18.66412
#
# Velocity S-wave (km/s) = 3.24369 3.56941 3.41044
# Velocity P-wave (km/s) = 7.07493 7.52951 7.30576
#
# Compressibility (1/GPa) = 0.01729810
#
# Stress axis : x y z
#
# Youngs Moduli (GPa) = 39.60177 70.40145 81.44686
#
# Poissons Ratio (x) = 0.53994 0.50957
# Poissons Ratio (y) = 0.30372 0.26811
# Poissons Ratio (z) = 0.24776 0.23175
#
# Static dielectric constant tensor:
#      x y z
#    x 3.119400 0.000000 0.000000 
#    y 0.000000 2.966590 0.000000 
#    z 0.000000 0.000000 3.546390 
# 
# 
# High freq. dielectric constant tensor:
#      x y z
#    x 1.627950 0.000000 0.000000 
#    y 0.000000 1.595770 0.000000 
#    z 0.000000 0.000000 1.612140 
# 
# From -- ./inp_files/6395.got.cif
#   From: 2010.03.12/outbox.cif.g09.slc.cpg/sg28_4_cif.got.tgz:6395.got - 2010.04.14 03:39:34.
