data_PCOD8168881
_publ_section_title
;
Structure prediction by ZEFSAII (Michael W. Deem and Ramdas Pophale) SiO2 
 PCOD8168881
Probable space group: P C A 21
;
_chemical_formula_sum "Si O2"
_cell_formula_units_Z 28
_cell_length_a 14.314928
_cell_length_b 10.296674
_cell_length_c 8.969242
_cell_angle_alpha 90.000000
_cell_angle_beta 90.000000
_cell_angle_gamma 90.000000
_cell_volume 1322.031712
_symmetry_space_group_name_H-M "P C A 21"
_symmetry_group_IT_number 29
_symmetry_cell_setting 'orthorhombic'
loop_
_space_group_symop_operation_xyz
x,y,z
-x,-y,1/2+z
1/2-x,y,1/2+z
1/2+x,-y,z
loop_
_atom_site_type_symbol
_atom_site_label
_atom_site_fract_x
_atom_site_fract_y
_atom_site_fract_z
Si Si1 0.750000 0.500000 0.412410
Si Si2 0.891312 0.168398 0.214515
Si Si3 0.607522 0.911617 0.548242
Si Si4 0.786090 0.679162 0.165274
Si Si5 0.286090 0.679162 0.665274
Si Si6 0.391312 0.168398 0.714515
Si Si7 0.392478 0.911617 0.548242
O O1 0.815474 0.590960 0.307355
O O2 0.689824 0.596003 0.517277
O O3 0.684526 0.409041 0.307354
O O4 0.810176 0.403996 0.517276
O O5 0.825737 0.291679 0.178449
O O6 0.865794 0.111132 0.376906
O O7 1.000000 0.210601 0.205472
O O8 0.866368 0.058329 0.092549
O O9 0.659337 0.813730 0.660785
O O10 0.634206 0.888867 0.376906
O O11 0.500000 0.885820 0.579344
O O12 0.674263 0.708321 0.178448
O O13 0.340663 0.813730 0.660784
O O14 0.366368 0.058329 0.592549
#
# Coordination Sequence:
#
# PCOD8168881 Si02
#       7
#     4   4   4   4   4   4   4
#     4  10  24  38  60  86 116 156 208 236 282 342
#     4  10  22  39  62  91 119 150 193 243 299 354
#     4  10  22  39  62  91 119 150 193 243 299 354
#     4  11  21  42  60  84 119 159 192 248 286 345
#     4  11  21  42  60  84 119 159 192 248 286 345
#     4  10  22  39  62  91 119 150 193 243 299 354
#     4  10  22  39  62  91 119 150 193 243 299 354
#
# _framework density 21.179521999999999
#
# number of rings (size 3 to 8) (size 9 to 14) (size 15 to 20)
#    0.000    1.714    2.857    0.857    4.000    2.286 
#    0.000    8.571    0.000    0.000    0.000    0.000 
#    0.000    0.000    0.000    0.000    0.000    0.000 
#
# Total GULP energy -347130.488165 kJ/mol
# GULP energy per Si atom -12397.517434 kJ/mol
# Density = 2.113132 g / cm^3
# Si number density = 21.179522 Si / 1000 Ang^3
#
#
#
# Elastic Constant Matrix: (Units=GPa)
#
#
# Indices 1 2 3 4 5 6 
#
# 1 57.8070 44.2718 25.8064 0.0000 0.0000 0.0000
# 2 44.2718 88.9229 36.8940 0.0000 0.0000 0.0000
# 3 25.8064 36.8940 115.8612 0.0000 0.0000 0.0000
# 4 0.0000 0.0000 0.0000 40.2653 0.0000 0.0000
# 5 0.0000 0.0000 0.0000 0.0000 20.1831 0.0000
# 6 0.0000 0.0000 0.0000 0.0000 0.0000 15.7585
#
#
#
# Elastic Compliance Matrix: (Units=1/GPa)
#
#
# Indices 1 2 3 4 5 6 
#
# 1 0.028397 -0.013266 -0.002101 0.000000 0.000000 0.000000
# 2 -0.013266 0.019155 -0.003145 0.000000 0.000000 0.000000
# 3 -0.002101 -0.003145 0.010100 0.000000 0.000000 0.000000
# 4 0.000000 0.000000 0.000000 0.024835 0.000000 0.000000
# 5 0.000000 0.000000 0.000000 0.000000 0.049546 0.000000
# 6 0.000000 0.000000 0.000000 0.000000 0.000000 0.063458
#
#
# Mechanical properties :
#
#
# Convention : Reuss Voigt Hill
#
# Bulk Modulus (GPa) = 48.47529 52.94840 50.71184
# Shear Modulus (GPa) = 20.88630 25.61597 23.25114
#
# Velocity S-wave (km/s) = 3.14372 3.48151 3.31692
# Velocity P-wave (km/s) = 6.00956 6.41992 6.21812
#
# Compressibility (1/GPa) = 0.02062907
#
# Stress axis : x y z
#
# Youngs Moduli (GPa) = 35.21533 52.20477 99.00706
#
# Poissons Ratio (x) = 0.69256 0.20797
# Poissons Ratio (y) = 0.46718 0.31136
# Poissons Ratio (z) = 0.07397 0.16417
#
# Static dielectric constant tensor:
#      x y z
#    x 3.531680 0.000000 0.000000 
#    y 0.000000 3.899270 0.000000 
#    z 0.000000 0.000000 4.076250 
# 
# 
# High freq. dielectric constant tensor:
#      x y z
#    x 1.792580 0.000000 0.000000 
#    y 0.000000 1.839780 0.000000 
#    z 0.000000 0.000000 1.845760 
# 
# From -- ./inp_files/1794.got.cif
#   From: 2010.03.12/outbox.cif.g09.slc.cpg/sg29_1_cif.got.tgz:1794.got - 2010.04.14 03:43:10.
