data_PCOD8168375
_publ_section_title
;
Structure prediction by ZEFSAII (Michael W. Deem and Ramdas Pophale) SiO2 
 PCOD8168375
Probable space group: P M A 2
;
_chemical_formula_sum "Si O2"
_cell_formula_units_Z 32
_cell_length_a 29.943912
_cell_length_b 8.220530
_cell_length_c 6.662635
_cell_angle_alpha 90.000000
_cell_angle_beta 90.000000
_cell_angle_gamma 90.000000
_cell_volume 1640.039765
_symmetry_space_group_name_H-M "P M A 2"
_symmetry_group_IT_number 28
_symmetry_cell_setting 'orthorhombic'
loop_
_space_group_symop_operation_xyz
x,y,z
-x,-y,z
1/2-x,y,z
1/2+x,-y,z
loop_
_atom_site_type_symbol
_atom_site_label
_atom_site_fract_x
_atom_site_fract_y
_atom_site_fract_z
Si Si1 0.199101 0.668285 0.320790
Si Si2 0.152645 0.883409 0.651784
Si Si3 0.381914 0.467216 0.221356
Si Si4 0.080780 0.661324 0.873779
Si Si5 0.124132 0.097448 0.296465
Si Si6 0.300235 0.966014 0.040389
Si Si7 0.459493 0.613448 0.468755
Si Si8 0.459006 0.888143 0.190985
O O1 0.250000 0.612848 0.359832
O O2 0.180761 0.760627 0.515369
O O3 0.169458 0.510040 0.272360
O O4 0.195283 0.784480 0.127947
O O5 0.114576 0.787942 0.771688
O O6 0.131856 0.031877 0.522146
O O7 0.186299 0.965929 0.808088
O O8 0.391811 0.282873 0.284296
O O9 0.412973 0.576777 0.360185
O O10 0.393272 0.514286 0.989294
O O11 0.048313 0.588264 0.704642
O O12 0.047078 0.750941 0.023466
O O13 0.169062 0.088049 0.166170
O O14 0.086308 0.989381 0.195050
O O15 0.250000 0.031900 0.060140
O O16 0.500000 0.500000 0.396620
O O17 0.470241 0.800054 0.404237
O O18 0.500000 0.000000 0.127768
#
# Coordination Sequence:
#
# PCOD8168375 Si02
#       8
#     4   4   4   4   4   4   4   4
#     4  10  20  36  62  90 118 160 204 246 303 364
#     4  11  18  40  63  87 115 160 204 248 296 364
#     4  11  23  40  61  88 125 161 195 255 308 366
#     4  11  21  41  66  86 121 161 207 249 307 366
#     4  11  23  38  62  88 125 161 196 249 317 362
#     4  10  20  37  63  90 118 158 205 248 298 363
#     4  11  23  41  63  87 119 160 204 253 301 368
#     4  11  23  41  61  90 122 158 202 254 307 369
#
# _framework density 19.511721999999999
#
# number of rings (size 3 to 8) (size 9 to 14) (size 15 to 20)
#    0.000    1.250    5.000    2.625    0.000    5.500 
#    2.250    0.000    0.000    0.000    0.000    0.000 
#    0.000    0.000    0.000    0.000    0.000    0.000 
#
# Total GULP energy -396834.297172 kJ/mol
# GULP energy per Si atom -12401.071787 kJ/mol
# Density = 1.946731 g / cm^3
# Si number density = 19.511722 Si / 1000 Ang^3
#
#
#
# Elastic Constant Matrix: (Units=GPa)
#
#
# Indices 1 2 3 4 5 6 
#
# 1 107.5660 22.5313 27.4080 0.0000 0.0000 0.0000
# 2 22.5313 84.5411 26.5473 0.0000 0.0000 0.0000
# 3 27.4080 26.5473 107.8716 0.0000 0.0000 0.0000
# 4 0.0000 0.0000 0.0000 23.2300 0.0000 0.0000
# 5 0.0000 0.0000 0.0000 0.0000 23.5951 0.0000
# 6 0.0000 0.0000 0.0000 0.0000 0.0000 31.4105
#
#
#
# Elastic Compliance Matrix: (Units=1/GPa)
#
#
# Indices 1 2 3 4 5 6 
#
# 1 0.010266 -0.002078 -0.002097 0.000000 0.000000 0.000000
# 2 -0.002078 0.013240 -0.002730 0.000000 0.000000 0.000000
# 3 -0.002097 -0.002730 0.010475 0.000000 0.000000 0.000000
# 4 0.000000 0.000000 0.000000 0.043048 0.000000 0.000000
# 5 0.000000 0.000000 0.000000 0.000000 0.042382 0.000000
# 6 0.000000 0.000000 0.000000 0.000000 0.000000 0.031836
#
#
# Mechanical properties :
#
#
# Convention : Reuss Voigt Hill
#
# Bulk Modulus (GPa) = 49.57690 50.32799 49.95244
# Shear Modulus (GPa) = 29.10687 30.54658 29.82672
#
# Velocity S-wave (km/s) = 3.86653 3.96100 3.91405
# Velocity P-wave (km/s) = 6.73775 6.83879 6.78846
#
# Compressibility (1/GPa) = 0.02017069
#
# Stress axis : x y z
#
# Youngs Moduli (GPa) = 97.40758 75.53062 95.46469
#
# Poissons Ratio (x) = 0.15692 0.20020
# Poissons Ratio (y) = 0.20237 0.26066
# Poissons Ratio (z) = 0.20428 0.20623
#
# Static dielectric constant tensor:
#      x y z
#    x 3.739330 0.000000 0.000000 
#    y 0.000000 3.325720 0.000000 
#    z 0.000000 0.000000 3.758280 
# 
# 
# High freq. dielectric constant tensor:
#      x y z
#    x 1.770710 0.000000 0.000000 
#    y 0.000000 1.737490 0.000000 
#    z 0.000000 0.000000 1.766130 
# 
# From -- ./inp_files/1920.got.cif
#   From: 2010.03.12/outbox.cif.g09.slc.cpg/sg28_1_cif.got.tgz:1920.got - 2010.04.14 03:39:34.
