data_PCOD8168779
_publ_section_title
;
Structure prediction by ZEFSAII (Michael W. Deem and Ramdas Pophale) SiO2 
 PCOD8168779
Probable space group: P C A 21
;
_chemical_formula_sum "Si O2"
_cell_formula_units_Z 28
_cell_length_a 15.747410
_cell_length_b 14.964042
_cell_length_c 5.339504
_cell_angle_alpha 90.000000
_cell_angle_beta 90.000000
_cell_angle_gamma 90.000000
_cell_volume 1258.226911
_symmetry_space_group_name_H-M "P C A 21"
_symmetry_group_IT_number 29
_symmetry_cell_setting 'orthorhombic'
loop_
_space_group_symop_operation_xyz
x,y,z
-x,-y,1/2+z
1/2-x,y,1/2+z
1/2+x,-y,z
loop_
_atom_site_type_symbol
_atom_site_label
_atom_site_fract_x
_atom_site_fract_y
_atom_site_fract_z
Si Si1 0.090509 0.811265 0.711730
Si Si2 0.437091 0.739218 0.710705
Si Si3 0.979558 0.552415 0.276629
Si Si4 0.696597 0.850419 0.772490
Si Si5 0.197578 0.355374 0.766968
Si Si6 0.445652 0.003718 0.276674
Si Si7 0.252704 0.684349 0.702887
O O1 0.034054 0.793598 0.459217
O O2 0.174658 0.752253 0.700060
O O3 0.112556 0.915679 0.733384
O O4 0.030904 0.782971 0.949999
O O5 0.461732 0.636590 0.722591
O O6 0.334957 0.746488 0.700333
O O7 0.881737 0.579045 0.283570
O O8 0.005545 0.516012 0.549463
O O9 0.752449 0.871699 0.526944
O O10 0.666149 0.747336 0.770476
O O11 0.612368 0.909224 0.763788
O O12 0.244324 0.375783 0.506487
O O13 0.486169 0.994431 0.552519
O O14 0.250051 0.622802 0.452745
#
# Coordination Sequence:
#
# PCOD8168779 Si02
#       7
#     4   4   4   4   4   4   4
#     4  10  21  37  61  91 132 179 212 261 333 400
#     4  10  21  40  63  93 124 170 216 264 327 408
#     4  12  26  45  71 106 136 168 223 291 364 411
#     4  10  23  44  69  97 133 189 241 285 334 400
#     4  10  23  46  72  99 134 184 233 280 343 419
#     4  12  26  40  62 105 144 177 232 293 344 388
#     4   8  16  32  54  83 119 159 209 236 305 386
#
# _framework density 22.253536
#
# number of rings (size 3 to 8) (size 9 to 14) (size 15 to 20)
#    0.000    1.714    0.000    3.429    4.000    3.429 
#    0.000   12.857    0.000    0.000    0.000    0.000 
#    0.000    0.000    0.000    0.000    0.000    0.000 
#
# Total GULP energy -346903.618258 kJ/mol
# GULP energy per Si atom -12389.414938 kJ/mol
# Density = 2.220289 g / cm^3
# Si number density = 22.253536 Si / 1000 Ang^3
#
#
#
# Elastic Constant Matrix: (Units=GPa)
#
#
# Indices 1 2 3 4 5 6 
#
# 1 70.6673 34.0749 17.5139 0.0000 0.0000 0.0000
# 2 34.0749 65.3762 8.2421 0.0000 0.0000 0.0000
# 3 17.5139 8.2421 213.3713 0.0000 0.0000 0.0000
# 4 0.0000 0.0000 0.0000 28.9232 0.0000 0.0000
# 5 0.0000 0.0000 0.0000 0.0000 26.5853 0.0000
# 6 0.0000 0.0000 0.0000 0.0000 0.0000 37.9201
#
#
#
# Elastic Compliance Matrix: (Units=1/GPa)
#
#
# Indices 1 2 3 4 5 6 
#
# 1 0.019200 -0.009856 -0.001195 0.000000 0.000000 0.000000
# 2 -0.009856 0.020431 0.000020 0.000000 0.000000 0.000000
# 3 -0.001195 0.000020 0.004784 0.000000 0.000000 0.000000
# 4 0.000000 0.000000 0.000000 0.034574 0.000000 0.000000
# 5 0.000000 0.000000 0.000000 0.000000 0.037615 0.000000
# 6 0.000000 0.000000 0.000000 0.000000 0.000000 0.026371
#
#
# Mechanical properties :
#
#
# Convention : Reuss Voigt Hill
#
# Bulk Modulus (GPa) = 44.74085 52.11964 48.43024
# Shear Modulus (GPa) = 28.98737 37.99131 33.48934
#
# Velocity S-wave (km/s) = 3.61306 4.13631 3.88351
# Velocity P-wave (km/s) = 6.12816 6.80322 6.47449
#
# Compressibility (1/GPa) = 0.02235094
#
# Stress axis : x y z
#
# Youngs Moduli (GPa) = 52.08412 48.94546 209.02993
#
# Poissons Ratio (x) = 0.48243 0.24983
# Poissons Ratio (y) = 0.51336 -0.00414
# Poissons Ratio (z) = 0.06225 -0.00097
#
# Static dielectric constant tensor:
#      x y z
#    x 3.810520 0.000000 0.000000 
#    y 0.000000 3.871900 0.000000 
#    z 0.000000 0.000000 5.559640 
# 
# 
# High freq. dielectric constant tensor:
#      x y z
#    x 1.863790 0.000000 0.000000 
#    y 0.000000 1.859650 0.000000 
#    z 0.000000 0.000000 1.922920 
# 
# From -- ./inp_files/233.got.cif
#   From: 2010.03.12/outbox.cif.g09.slc.cpg/sg29_1_cif.got.tgz:233.got - 2010.04.14 03:43:10.
