data_PCOD8168142
_publ_section_title
;
Structure prediction by ZEFSAII (Michael W. Deem and Ramdas Pophale) SiO2 
 PCOD8168142
Probable space group: P M A 2
;
_chemical_formula_sum "Si O2"
_cell_formula_units_Z 32
_cell_length_a 8.610563
_cell_length_b 16.678230
_cell_length_c 11.473060
_cell_angle_alpha 90.000000
_cell_angle_beta 90.000000
_cell_angle_gamma 90.000000
_cell_volume 1647.634102
_symmetry_space_group_name_H-M "P M A 2"
_symmetry_group_IT_number 28
_symmetry_cell_setting 'orthorhombic'
loop_
_space_group_symop_operation_xyz
x,y,z
-x,-y,z
1/2-x,y,z
1/2+x,-y,z
loop_
_atom_site_type_symbol
_atom_site_label
_atom_site_fract_x
_atom_site_fract_y
_atom_site_fract_z
Si Si1 0.068198 0.215123 0.801560
Si Si2 0.429391 0.425715 0.898352
Si Si3 0.928648 0.279078 0.015058
Si Si4 0.433288 0.587584 0.420840
Si Si5 0.430508 0.634180 0.681252
Si Si6 0.066207 0.084844 0.372893
Si Si7 0.433243 0.080255 0.635327
Si Si8 0.069154 0.748173 0.282870
O O1 0.250000 0.206166 0.828739
O O2 0.999227 0.146913 0.719783
O O3 0.040032 0.294313 0.725611
O O4 0.972312 0.209059 0.923102
O O5 0.500000 0.500000 0.972154
O O6 0.250000 0.433194 0.867499
O O7 0.534822 0.431134 0.780226
O O8 0.455393 0.349292 0.978557
O O9 0.750000 0.304779 0.999172
O O10 0.965172 0.256009 0.146190
O O11 0.500000 0.500000 0.380448
O O12 0.250000 0.580786 0.406675
O O13 0.484157 0.603644 0.554282
O O14 0.493317 0.665555 0.345334
O O15 0.250000 0.659353 0.678706
O O16 0.250000 0.079958 0.362121
O O17 0.003794 0.092004 0.504711
O O18 0.011736 0.168318 0.316410
O O19 0.000000 0.000000 0.319350
O O20 0.250000 0.080691 0.634141
O O21 0.500000 0.000000 0.690210
O O22 0.250000 0.756371 0.311977
#
# Coordination Sequence:
#
# PCOD8168142 Si02
#       8
#     4   4   4   4   4   4   4   4
#     4  10  19  33  53  78 107 137 174 218 266 320
#     4  11  21  34  53  76 104 136 174 221 270 319
#     4  10  21  37  55  75 102 138 181 223 265 315
#     4  10  22  37  54  79 111 146 183 226 275 328
#     4  10  19  32  52  78 106 137 174 216 269 327
#     4  10  20  36  60  88 115 144 180 222 272 328
#     4   9  19  33  52  81 112 139 168 209 261 320
#     4  10  22  40  58  79 110 147 188 233 276 321
#
# _framework density 19.421786999999998
#
# number of rings (size 3 to 8) (size 9 to 14) (size 15 to 20)
#    0.000    2.000    0.000    5.250    0.000    5.500 
#    0.000    1.875    0.000    1.500    0.000    0.000 
#    0.000    0.000    0.000    0.000    0.000    0.000 
#
# Total GULP energy -396449.858644 kJ/mol
# GULP energy per Si atom -12389.058083 kJ/mol
# Density = 1.937758 g / cm^3
# Si number density = 19.421787 Si / 1000 Ang^3
#
#
#
# Elastic Constant Matrix: (Units=GPa)
#
#
# Indices 1 2 3 4 5 6 
#
# 1 59.4473 33.2297 35.1496 0.0000 0.0000 0.0000
# 2 33.2297 135.2393 63.4527 0.0000 0.0000 0.0000
# 3 35.1496 63.4527 97.3101 0.0000 0.0000 0.0000
# 4 0.0000 0.0000 0.0000 5.6860 0.0000 0.0000
# 5 0.0000 0.0000 0.0000 0.0000 23.5386 0.0000
# 6 0.0000 0.0000 0.0000 0.0000 0.0000 34.7466
#
#
#
# Elastic Compliance Matrix: (Units=1/GPa)
#
#
# Indices 1 2 3 4 5 6 
#
# 1 0.021921 -0.002408 -0.006348 0.000000 0.000000 0.000000
# 2 -0.002408 0.010918 -0.006250 0.000000 0.000000 0.000000
# 3 -0.006348 -0.006250 0.016645 0.000000 0.000000 0.000000
# 4 0.000000 0.000000 0.000000 0.175871 0.000000 0.000000
# 5 0.000000 0.000000 0.000000 0.000000 0.042483 0.000000
# 6 0.000000 0.000000 0.000000 0.000000 0.000000 0.028780
#
#
# Mechanical properties :
#
#
# Convention : Reuss Voigt Hill
#
# Bulk Modulus (GPa) = 51.35387 61.74008 56.54697
# Shear Modulus (GPa) = 15.00961 23.47190 19.24075
#
# Velocity S-wave (km/s) = 2.78299 3.48017 3.15092
# Velocity P-wave (km/s) = 6.06840 6.92870 6.51277
#
# Compressibility (1/GPa) = 0.01947273
#
# Stress axis : x y z
#
# Youngs Moduli (GPa) = 45.61838 91.59027 60.07939
#
# Poissons Ratio (x) = 0.22053 0.38139
# Poissons Ratio (y) = 0.10984 0.37548
# Poissons Ratio (z) = 0.28959 0.57241
#
# Static dielectric constant tensor:
#      x y z
#    x 3.467780 0.000000 0.000000 
#    y 0.000000 3.952990 0.000000 
#    z 0.000000 0.000000 3.660460 
# 
# 
# High freq. dielectric constant tensor:
#      x y z
#    x 1.755330 0.000000 0.000000 
#    y 0.000000 1.765060 0.000000 
#    z 0.000000 0.000000 1.743550 
# 
# From -- ./inp_files/5086.got.cif
#   From: 2010.03.12/outbox.cif.g09.slc.cpg/sg28_3_cif.got.tgz:5086.got - 2010.04.14 03:39:34.
