data_PCOD8168116
_publ_section_title
;
Structure prediction by ZEFSAII (Michael W. Deem and Ramdas Pophale) SiO2 
 PCOD8168116
Probable space group: P M A 2
;
_chemical_formula_sum "Si O2"
_cell_formula_units_Z 20
_cell_length_a 8.963283
_cell_length_b 13.951519
_cell_length_c 10.145274
_cell_angle_alpha 90.000000
_cell_angle_beta 90.000000
_cell_angle_gamma 90.000000
_cell_volume 1268.680850
_symmetry_space_group_name_H-M "P M A 2"
_symmetry_group_IT_number 28
_symmetry_cell_setting 'orthorhombic'
loop_
_space_group_symop_operation_xyz
x,y,z
-x,-y,z
1/2-x,y,z
1/2+x,-y,z
loop_
_atom_site_type_symbol
_atom_site_label
_atom_site_fract_x
_atom_site_fract_y
_atom_site_fract_z
Si Si1 0.073424 0.763578 0.224100
Si Si2 0.926201 0.099288 0.752377
Si Si3 0.424162 0.902788 0.452458
Si Si4 0.580635 0.783356 0.968222
Si Si5 0.581287 0.597919 0.107199
O O1 0.250000 0.758140 0.206633
O O2 0.025879 0.815352 0.359265
O O3 0.004597 0.655502 0.224804
O O4 0.002463 0.822711 0.100424
O O5 0.750000 0.092350 0.771732
O O6 0.971343 0.122107 0.601764
O O7 0.991633 0.185290 0.838983
O O8 0.000000 0.000000 0.799170
O O9 0.250000 0.920925 0.442050
O O10 0.500000 0.000000 0.402968
O O11 0.750000 0.822614 0.963951
O O12 0.579351 0.666615 0.977230
O O13 0.500000 0.500000 0.071321
O O14 0.750000 0.576608 0.152879
#
# Coordination Sequence:
#
# PCOD8168116 Si02
#       5
#     4   4   4   4   4
#     4   9  17  31  49  71  97 126 159 197 237 278
#     4  10  19  32  49  69  96 130 163 195 236 280
#     4   9  19  32  48  70  96 129 163 194 233 281
#     4   9  19  32  47  72  97 123 161 197 235 282
#     4   9  18  31  50  73  96 121 156 195 241 287
#
# _framework density 15.764405999999999
#
# number of rings (size 3 to 8) (size 9 to 14) (size 15 to 20)
#    1.200    1.600    0.000    1.800    0.000    3.200 
#    0.000    2.000    0.000    1.200    0.000    2.800 
#    0.000    0.000    0.000    0.000    0.000    0.000 
#
# Total GULP energy -247824.525164 kJ/mol
# GULP energy per Si atom -12391.226258 kJ/mol
# Density = 1.572853 g / cm^3
# Si number density = 15.764406 Si / 1000 Ang^3
#
#
#
# Elastic Constant Matrix: (Units=GPa)
#
#
# Indices 1 2 3 4 5 6 
#
# 1 99.2176 46.5140 42.7547 0.0000 0.0000 0.0000
# 2 46.5140 90.6282 49.6724 0.0000 0.0000 0.0000
# 3 42.7547 49.6724 79.4033 0.0000 0.0000 0.0000
# 4 0.0000 0.0000 0.0000 13.2182 0.0000 0.0000
# 5 0.0000 0.0000 0.0000 0.0000 20.4238 0.0000
# 6 0.0000 0.0000 0.0000 0.0000 0.0000 29.9019
#
#
#
# Elastic Compliance Matrix: (Units=1/GPa)
#
#
# Indices 1 2 3 4 5 6 
#
# 1 0.014361 -0.004767 -0.004751 0.000000 0.000000 0.000000
# 2 -0.004767 0.018374 -0.008927 0.000000 0.000000 0.000000
# 3 -0.004751 -0.008927 0.020737 0.000000 0.000000 0.000000
# 4 0.000000 0.000000 0.000000 0.075653 0.000000 0.000000
# 5 0.000000 0.000000 0.000000 0.000000 0.048963 0.000000
# 6 0.000000 0.000000 0.000000 0.000000 0.000000 0.033443
#
#
# Mechanical properties :
#
#
# Convention : Reuss Voigt Hill
#
# Bulk Modulus (GPa) = 60.30806 60.79236 60.55021
# Shear Modulus (GPa) = 19.68926 21.39598 20.54262
#
# Velocity S-wave (km/s) = 3.53791 3.68806 3.61377
# Velocity P-wave (km/s) = 7.41808 7.53542 7.47698
#
# Compressibility (1/GPa) = 0.01658153
#
# Stress axis : x y z
#
# Youngs Moduli (GPa) = 69.63481 54.42612 48.22397
#
# Poissons Ratio (x) = 0.25943 0.22909
# Poissons Ratio (y) = 0.33193 0.43051
# Poissons Ratio (z) = 0.33081 0.48588
#
# Static dielectric constant tensor:
#      x y z
#    x 3.102070 0.000000 0.000000 
#    y 0.000000 2.825760 0.000000 
#    z 0.000000 0.000000 2.901640 
# 
# 
# High freq. dielectric constant tensor:
#      x y z
#    x 1.624690 0.000000 0.000000 
#    y 0.000000 1.585390 0.000000 
#    z 0.000000 0.000000 1.584240 
# 
# From -- ./inp_files/2342.got.cif
#   From: 2010.03.12/outbox.cif.g09.slc.cpg/sg28_2_cif.got.tgz:2342.got - 2010.04.14 03:39:34.
