data_PCOD8168512
_publ_section_title
;
Structure prediction by ZEFSAII (Michael W. Deem and Ramdas Pophale) SiO2 
 PCOD8168512
Probable space group: P M A 2
;
_chemical_formula_sum "Si O2"
_cell_formula_units_Z 20
_cell_length_a 8.893388
_cell_length_b 14.819582
_cell_length_c 7.460396
_cell_angle_alpha 90.000000
_cell_angle_beta 90.000000
_cell_angle_gamma 90.000000
_cell_volume 983.252535
_symmetry_space_group_name_H-M "P M A 2"
_symmetry_group_IT_number 28
_symmetry_cell_setting 'orthorhombic'
loop_
_space_group_symop_operation_xyz
x,y,z
-x,-y,z
1/2-x,y,z
1/2+x,-y,z
loop_
_atom_site_type_symbol
_atom_site_label
_atom_site_fract_x
_atom_site_fract_y
_atom_site_fract_z
Si Si1 0.426572 0.720370 0.055420
Si Si2 0.573287 0.402918 0.389926
Si Si3 0.417789 0.912471 0.667336
Si Si4 0.086064 0.915251 0.091449
Si Si5 0.571276 0.725582 0.678592
O O1 0.250000 0.729874 0.005790
O O2 0.457457 0.643385 0.199012
O O3 0.484809 0.816881 0.135900
O O4 0.517725 0.697127 0.876625
O O5 0.500000 0.500000 0.378662
O O6 0.750000 0.409092 0.431689
O O7 0.491887 0.349066 0.545942
O O8 0.250000 0.904178 0.585926
O O9 0.510029 0.822956 0.617658
O O10 0.500000 0.000000 0.582960
O O11 0.407863 0.924922 0.878805
O O12 0.250000 0.920303 0.178085
O O13 0.000000 0.000000 0.178035
O O14 0.750000 0.727042 0.672625
#
# Coordination Sequence:
#
# PCOD8168512 Si02
#       5
#     4   4   4   4   4
#     4   9  20  39  61  84 115 155 194 237 291 345
#     4  11  24  43  64  85 113 148 192 247 301 353
#     4   9  16  29  51  81 117 155 196 238 283 337
#     4   8  14  26  47  77 110 145 183 223 272 328
#     4  11  22  37  60  89 121 157 196 237 287 349
#
# _framework density 20.340654000000001
#
# number of rings (size 3 to 8) (size 9 to 14) (size 15 to 20)
#    0.000    2.400    0.000    4.200    0.000    7.200 
#    0.000    3.000    0.000    2.400    0.000    0.000 
#    0.000    0.000    0.000    0.000    0.000    0.000 
#
# Total GULP energy -247936.733675 kJ/mol
# GULP energy per Si atom -12396.836684 kJ/mol
# Density = 2.029436 g / cm^3
# Si number density = 20.340654 Si / 1000 Ang^3
#
#
#
# Elastic Constant Matrix: (Units=GPa)
#
#
# Indices 1 2 3 4 5 6 
#
# 1 161.5373 93.3071 59.1064 0.0000 0.0000 0.0000
# 2 93.3071 192.2506 68.3620 0.0000 0.0000 0.0000
# 3 59.1064 68.3620 74.3629 0.0000 0.0000 0.0000
# 4 0.0000 0.0000 0.0000 67.6402 0.0000 0.0000
# 5 0.0000 0.0000 0.0000 0.0000 6.5264 0.0000
# 6 0.0000 0.0000 0.0000 0.0000 0.0000 39.7691
#
#
#
# Elastic Compliance Matrix: (Units=1/GPa)
#
#
# Indices 1 2 3 4 5 6 
#
# 1 0.009726 -0.002929 -0.005038 0.000000 0.000000 0.000000
# 2 -0.002929 0.008610 -0.005587 0.000000 0.000000 0.000000
# 3 -0.005038 -0.005587 0.022588 0.000000 0.000000 0.000000
# 4 0.000000 0.000000 0.000000 0.014784 0.000000 0.000000
# 5 0.000000 0.000000 0.000000 0.000000 0.153224 0.000000
# 6 0.000000 0.000000 0.000000 0.000000 0.000000 0.025145
#
#
# Mechanical properties :
#
#
# Convention : Reuss Voigt Hill
#
# Bulk Modulus (GPa) = 72.37972 96.63354 84.50663
# Shear Modulus (GPa) = 18.81195 36.61215 27.71205
#
# Velocity S-wave (km/s) = 3.04443 4.24718 3.69507
# Velocity P-wave (km/s) = 6.92958 8.46535 7.73567
#
# Compressibility (1/GPa) = 0.01381602
#
# Stress axis : x y z
#
# Youngs Moduli (GPa) = 102.82128 116.14815 44.27152
#
# Poissons Ratio (x) = 0.34018 0.22303
# Poissons Ratio (y) = 0.30115 0.24734
# Poissons Ratio (z) = 0.51799 0.64891
#
# Static dielectric constant tensor:
#      x y z
#    x 3.825590 0.000000 0.000000 
#    y 0.000000 3.787210 0.000000 
#    z 0.000000 0.000000 3.398100 
# 
# 
# High freq. dielectric constant tensor:
#      x y z
#    x 1.795880 0.000000 0.000000 
#    y 0.000000 1.804270 0.000000 
#    z 0.000000 0.000000 1.777480 
# 
# From -- ./inp_files/2378.got.cif
#   From: 2010.03.12/outbox.cif.g09.slc.cpg/sg28_2_cif.got.tgz:2378.got - 2010.04.14 03:39:34.
