data_PCOD8168425
_publ_section_title
;
Structure prediction by ZEFSAII (Michael W. Deem and Ramdas Pophale) SiO2 
 PCOD8168425
Probable space group: P M A 2
;
_chemical_formula_sum "Si O2"
_cell_formula_units_Z 32
_cell_length_a 23.752561
_cell_length_b 7.718420
_cell_length_c 8.745476
_cell_angle_alpha 90.000000
_cell_angle_beta 90.000000
_cell_angle_gamma 90.000000
_cell_volume 1603.327721
_symmetry_space_group_name_H-M "P M A 2"
_symmetry_group_IT_number 28
_symmetry_cell_setting 'orthorhombic'
loop_
_space_group_symop_operation_xyz
x,y,z
-x,-y,z
1/2-x,y,z
1/2+x,-y,z
loop_
_atom_site_type_symbol
_atom_site_label
_atom_site_fract_x
_atom_site_fract_y
_atom_site_fract_z
Si Si1 0.185473 0.543470 0.526950
Si Si2 0.486100 0.197195 0.522360
Si Si3 0.315412 0.494769 0.172287
Si Si4 0.994377 0.795965 0.184575
Si Si5 0.909626 0.322643 0.711366
Si Si6 0.390733 0.787982 0.036856
Si Si7 0.620568 0.818974 0.038077
Si Si8 0.116503 0.304926 0.711290
O O1 0.250000 0.595514 0.556464
O O2 0.171617 0.525862 0.349171
O O3 0.144234 0.692872 0.595650
O O4 0.171740 0.360421 0.612396
O O5 0.484107 0.284127 0.353742
O O6 0.532833 0.288165 0.624179
O O7 0.425323 0.202806 0.600250
O O8 0.500000 0.000000 0.499392
O O9 0.250000 0.503799 0.135132
O O10 0.343063 0.647443 0.072490
O O11 0.335869 0.303002 0.126925
O O12 0.052149 0.719795 0.116711
O O13 0.942228 0.749165 0.074563
O O14 0.000000 0.000000 0.191246
O O15 0.913733 0.519990 0.772618
O O16 0.901387 0.196132 0.854823
O O17 0.372157 0.980737 0.092234
O O18 0.632696 0.810609 0.856659
#
# Coordination Sequence:
#
# PCOD8168425 Si02
#       8
#     4   4   4   4   4   4   4   4
#     4   9  21  40  63  84 115 155 203 253 298 351
#     4  11  20  35  56  86 124 159 197 246 293 356
#     4  11  23  42  63  88 119 157 203 253 298 355
#     4   9  21  36  57  89 122 157 203 246 295 358
#     4  10  21  36  58  88 120 153 201 238 300 355
#     4  11  22  40  63  91 123 159 198 247 302 357
#     4  11  22  40  63  91 123 159 198 247 302 357
#     4  10  21  36  58  88 120 153 201 238 300 355
#
# _framework density 19.958489
#
# number of rings (size 3 to 8) (size 9 to 14) (size 15 to 20)
#    0.750    1.000    1.250    3.375    0.000    4.000 
#    2.250    1.250    0.000    5.250    0.000    0.000 
#    0.000    0.000    0.000    0.000    0.000    0.000 
#
# Total GULP energy -396688.099984 kJ/mol
# GULP energy per Si atom -12396.503124 kJ/mol
# Density = 1.991306 g / cm^3
# Si number density = 19.958489 Si / 1000 Ang^3
#
#
#
# Elastic Constant Matrix: (Units=GPa)
#
#
# Indices 1 2 3 4 5 6 
#
# 1 78.7165 5.5799 31.8118 0.0000 0.0000 0.0000
# 2 5.5799 56.6316 2.8987 0.0000 0.0000 0.0000
# 3 31.8118 2.8987 108.1504 0.0000 0.0000 0.0000
# 4 0.0000 0.0000 0.0000 13.7398 0.0000 0.0000
# 5 0.0000 0.0000 0.0000 0.0000 23.2805 0.0000
# 6 0.0000 0.0000 0.0000 0.0000 0.0000 24.2079
#
#
#
# Elastic Compliance Matrix: (Units=1/GPa)
#
#
# Indices 1 2 3 4 5 6 
#
# 1 0.014500 -0.001212 -0.004233 0.000000 0.000000 0.000000
# 2 -0.001212 0.017784 -0.000120 0.000000 0.000000 0.000000
# 3 -0.004233 -0.000120 0.010495 0.000000 0.000000 0.000000
# 4 0.000000 0.000000 0.000000 0.072781 0.000000 0.000000
# 5 0.000000 0.000000 0.000000 0.000000 0.042954 0.000000
# 6 0.000000 0.000000 0.000000 0.000000 0.000000 0.041309
#
#
# Mechanical properties :
#
#
# Convention : Reuss Voigt Hill
#
# Bulk Modulus (GPa) = 31.59684 36.00881 33.80283
# Shear Modulus (GPa) = 22.57314 25.79286 24.18300
#
# Velocity S-wave (km/s) = 3.36669 3.59879 3.48467
# Velocity P-wave (km/s) = 5.56583 5.94554 5.75881
#
# Compressibility (1/GPa) = 0.03164874
#
# Stress axis : x y z
#
# Youngs Moduli (GPa) = 68.96410 56.23170 95.28691
#
# Poissons Ratio (x) = 0.06816 0.40332
# Poissons Ratio (y) = 0.08359 0.01145
# Poissons Ratio (z) = 0.29190 0.00675
#
# Static dielectric constant tensor:
#      x y z
#    x 3.543230 0.000000 0.000000 
#    y 0.000000 3.884170 0.000000 
#    z 0.000000 0.000000 3.765250 
# 
# 
# High freq. dielectric constant tensor:
#      x y z
#    x 1.769030 0.000000 0.000000 
#    y 0.000000 1.763620 0.000000 
#    z 0.000000 0.000000 1.791300 
# 
# From -- ./inp_files/4237.got.cif
#   From: 2010.03.12/outbox.cif.g09.slc.cpg/sg28_3_cif.got.tgz:4237.got - 2010.04.14 03:39:34.
