data_PCOD8168579
_publ_section_title
;
Structure prediction by ZEFSAII (Michael W. Deem and Ramdas Pophale) SiO2 
 PCOD8168579
Probable space group: P C A 21
;
_chemical_formula_sum "Si O2"
_cell_formula_units_Z 28
_cell_length_a 20.739096
_cell_length_b 14.612754
_cell_length_c 5.215466
_cell_angle_alpha 90.000000
_cell_angle_beta 90.000000
_cell_angle_gamma 90.000000
_cell_volume 1580.574655
_symmetry_space_group_name_H-M "P C A 21"
_symmetry_group_IT_number 29
_symmetry_cell_setting 'orthorhombic'
loop_
_space_group_symop_operation_xyz
x,y,z
-x,-y,1/2+z
1/2-x,y,1/2+z
1/2+x,-y,z
loop_
_atom_site_type_symbol
_atom_site_label
_atom_site_fract_x
_atom_site_fract_y
_atom_site_fract_z
Si Si1 0.551526 0.097032 0.033060
Si Si2 0.723694 0.713685 0.034743
Si Si3 0.584826 0.997547 0.533036
Si Si4 0.220272 0.082744 0.536879
Si Si5 0.005244 0.706398 0.010407
Si Si6 0.537475 0.485940 0.094612
Si Si7 0.078169 0.324646 0.010855
O O1 0.588327 0.061753 0.283977
O O2 0.551375 0.206549 0.034571
O O3 0.477998 0.064592 0.032457
O O4 0.588482 0.061244 0.783017
O O5 0.749143 0.659749 0.286181
O O6 0.759728 0.811335 0.040919
O O7 0.646746 0.725544 0.031376
O O8 0.643428 0.926340 0.532322
O O9 0.250862 0.033454 0.288491
O O10 0.054640 0.619411 0.027388
O O11 0.953098 0.701752 0.239341
O O12 0.968140 0.709555 0.738958
O O13 0.521102 0.490813 0.396938
O O14 0.590388 0.564789 0.033825
#
# Coordination Sequence:
#
# PCOD8168579 Si02
#       7
#     4   4   4   4   4   4   4
#     4  10  21  33  52  71  99 142 167 217 258 306
#     4  10  21  32  45  75  98 136 170 195 251 308
#     4  10  21  36  46  72 104 130 177 211 264 299
#     4  10  21  33  51  70  97 133 172 208 256 310
#     4  10  19  31  53  76 100 136 172 202 261 305
#     4   8  16  30  46  74 102 129 159 193 247 299
#     4  10  19  31  51  74 110 132 161 214 245 315
#
# _framework density 17.715076
#
# number of rings (size 3 to 8) (size 9 to 14) (size 15 to 20)
#    0.000    2.286    0.000    2.571    8.000    0.000 
#    0.000    0.000    0.000    0.000    0.000    6.000 
#    0.000    0.000    0.000    0.000    0.000    0.000 
#
# Total GULP energy -346940.134999 kJ/mol
# GULP energy per Si atom -12390.719107 kJ/mol
# Density = 1.767476 g / cm^3
# Si number density = 17.715076 Si / 1000 Ang^3
#
#
#
# Elastic Constant Matrix: (Units=GPa)
#
#
# Indices 1 2 3 4 5 6 
#
# 1 58.1928 14.4199 18.6547 0.0000 0.0000 0.0000
# 2 14.4199 93.5969 14.3505 0.0000 0.0000 0.0000
# 3 18.6547 14.3505 147.1818 0.0000 0.0000 0.0000
# 4 0.0000 0.0000 0.0000 12.8457 0.0000 0.0000
# 5 0.0000 0.0000 0.0000 0.0000 22.3587 0.0000
# 6 0.0000 0.0000 0.0000 0.0000 0.0000 19.4476
#
#
#
# Elastic Compliance Matrix: (Units=1/GPa)
#
#
# Indices 1 2 3 4 5 6 
#
# 1 0.018482 -0.002526 -0.002096 0.000000 0.000000 0.000000
# 2 -0.002526 0.011192 -0.000771 0.000000 0.000000 0.000000
# 3 -0.002096 -0.000771 0.007135 0.000000 0.000000 0.000000
# 4 0.000000 0.000000 0.000000 0.077847 0.000000 0.000000
# 5 0.000000 0.000000 0.000000 0.000000 0.044725 0.000000
# 6 0.000000 0.000000 0.000000 0.000000 0.000000 0.051420
#
#
# Mechanical properties :
#
#
# Convention : Reuss Voigt Hill
#
# Bulk Modulus (GPa) = 38.42863 43.75794 41.09329
# Shear Modulus (GPa) = 21.71436 27.70016 24.70726
#
# Velocity S-wave (km/s) = 3.50488 3.95859 3.73862
# Velocity P-wave (km/s) = 6.17403 6.75637 6.47175
#
# Compressibility (1/GPa) = 0.02602226
#
# Stress axis : x y z
#
# Youngs Moduli (GPa) = 54.10620 89.35349 140.15051
#
# Poissons Ratio (x) = 0.22571 0.29379
# Poissons Ratio (y) = 0.13667 0.10806
# Poissons Ratio (z) = 0.11342 0.06889
#
# Static dielectric constant tensor:
#      x y z
#    x 2.901740 0.000000 0.000000 
#    y 0.000000 3.279480 0.000000 
#    z 0.000000 0.000000 8.671080 
# 
# 
# High freq. dielectric constant tensor:
#      x y z
#    x 1.637940 0.000000 0.000000 
#    y 0.000000 1.662410 0.000000 
#    z 0.000000 0.000000 1.725670 
# 
# From -- ./inp_files/416.got.cif
#   From: 2010.03.12/outbox.cif.g09.slc.cpg/sg29_1_cif.got.tgz:416.got - 2010.04.14 03:43:10.
