data_PCOD8168557
_publ_section_title
;
Structure prediction by ZEFSAII (Michael W. Deem and Ramdas Pophale) SiO2 
 PCOD8168557
Probable space group: P C A 21
;
_chemical_formula_sum "Si O2"
_cell_formula_units_Z 28
_cell_length_a 9.702319
_cell_length_b 13.279884
_cell_length_c 12.521414
_cell_angle_alpha 90.000000
_cell_angle_beta 90.000000
_cell_angle_gamma 90.000000
_cell_volume 1613.329987
_symmetry_space_group_name_H-M "P C A 21"
_symmetry_group_IT_number 29
_symmetry_cell_setting 'orthorhombic'
loop_
_space_group_symop_operation_xyz
x,y,z
-x,-y,1/2+z
1/2-x,y,1/2+z
1/2+x,-y,z
loop_
_atom_site_type_symbol
_atom_site_label
_atom_site_fract_x
_atom_site_fract_y
_atom_site_fract_z
Si Si1 0.559258 0.896953 0.839140
Si Si2 0.373741 0.079829 0.787082
Si Si3 0.940742 0.603047 0.520530
Si Si4 0.857670 0.750000 0.929835
Si Si5 0.392287 0.320270 0.298973
Si Si6 0.373741 0.420171 0.072588
Si Si7 0.892287 0.820270 0.560696
O O1 0.712782 0.935722 0.811559
O O2 0.530892 0.787587 0.785675
O O3 0.447337 0.973197 0.794675
O O4 0.539584 0.887283 0.967145
O O5 0.442080 0.159234 0.873226
O O6 0.398154 0.118032 0.668236
O O7 0.960416 0.612717 0.392525
O O8 0.787218 0.564278 0.548111
O O9 0.969108 0.712413 0.573995
O O10 0.052663 0.526804 0.564995
O O11 0.764178 0.705549 0.833755
O O12 0.942080 0.659234 0.986443
O O13 0.764178 0.794451 0.025915
O O14 0.398155 0.381968 0.191434
#
# Coordination Sequence:
#
# PCOD8168557 Si02
#       7
#     4   4   4   4   4   4   4
#     4   9  19  32  49  73  94 125 162 191 234 287
#     4  10  18  32  52  71  94 126 160 197 232 276
#     4   9  19  32  49  73  94 125 162 191 234 287
#     4   8  16  30  48  72  92 126 164 186 226 296
#     4   8  17  33  49  66  99 130 154 189 237 288
#     4  10  18  32  52  71  94 126 160 197 232 276
#     4   8  17  33  49  66  99 130 154 189 237 288
#
# _framework density 17.355408000000001
#
# number of rings (size 3 to 8) (size 9 to 14) (size 15 to 20)
#    0.000    4.000    0.000    3.429    0.000    6.857 
#    0.000    4.286    0.000    0.000    0.000    0.000 
#    0.000    0.000    0.000    0.000    0.000    0.000 
#
# Total GULP energy -346866.401621 kJ/mol
# GULP energy per Si atom -12388.085772 kJ/mol
# Density = 1.731591 g / cm^3
# Si number density = 17.355408 Si / 1000 Ang^3
#
#
#
# Elastic Constant Matrix: (Units=GPa)
#
#
# Indices 1 2 3 4 5 6 
#
# 1 49.7930 52.0311 33.4663 0.0000 0.0000 0.0000
# 2 52.0311 131.6682 85.0682 0.0000 0.0000 0.0000
# 3 33.4663 85.0682 115.1234 0.0000 0.0000 0.0000
# 4 0.0000 0.0000 0.0000 34.8149 0.0000 0.0000
# 5 0.0000 0.0000 0.0000 0.0000 4.8519 0.0000
# 6 0.0000 0.0000 0.0000 0.0000 0.0000 17.0466
#
#
#
# Elastic Compliance Matrix: (Units=1/GPa)
#
#
# Indices 1 2 3 4 5 6 
#
# 1 0.034210 -0.013574 0.000085 0.000000 0.000000 0.000000
# 2 -0.013574 0.019919 -0.010773 0.000000 0.000000 0.000000
# 3 0.000085 -0.010773 0.016622 0.000000 0.000000 0.000000
# 4 0.000000 0.000000 0.000000 0.028723 0.000000 0.000000
# 5 0.000000 0.000000 0.000000 0.000000 0.206104 0.000000
# 6 0.000000 0.000000 0.000000 0.000000 0.000000 0.058663
#
#
# Mechanical properties :
#
#
# Convention : Reuss Voigt Hill
#
# Bulk Modulus (GPa) = 44.98834 70.85734 57.92284
# Shear Modulus (GPa) = 11.89990 19.74397 15.82193
#
# Velocity S-wave (km/s) = 2.62135 3.37653 3.02262
# Velocity P-wave (km/s) = 5.92790 7.49114 6.75489
#
# Compressibility (1/GPa) = 0.02222798
#
# Stress axis : x y z
#
# Youngs Moduli (GPa) = 29.23159 50.20386 60.16176
#
# Poissons Ratio (x) = 0.68145 -0.00513
# Poissons Ratio (y) = 0.39678 0.64811
# Poissons Ratio (z) = -0.00249 0.54083
#
# Static dielectric constant tensor:
#      x y z
#    x 2.731780 0.000000 0.000000 
#    y 0.000000 3.385270 0.000000 
#    z 0.000000 0.000000 3.302700 
# 
# 
# High freq. dielectric constant tensor:
#      x y z
#    x 1.610070 0.000000 0.000000 
#    y 0.000000 1.677360 0.000000 
#    z 0.000000 0.000000 1.683030 
# 
# From -- ./inp_files/3201.got.cif
#   From: 2010.03.12/outbox.cif.g09.slc.cpg/sg29_2_cif.got.tgz:3201.got - 2010.04.14 03:43:10.
