data_PCOD8168048
_publ_section_title
;
Structure prediction by ZEFSAII (Michael W. Deem and Ramdas Pophale) SiO2 
 PCOD8168048
Probable space group: P M A 2
;
_chemical_formula_sum "Si O2"
_cell_formula_units_Z 24
_cell_length_a 8.634065
_cell_length_b 9.070147
_cell_length_c 15.484295
_cell_angle_alpha 90.000000
_cell_angle_beta 90.000000
_cell_angle_gamma 90.000000
_cell_volume 1212.609807
_symmetry_space_group_name_H-M "P M A 2"
_symmetry_group_IT_number 28
_symmetry_cell_setting 'orthorhombic'
loop_
_space_group_symop_operation_xyz
x,y,z
-x,-y,z
1/2-x,y,z
1/2+x,-y,z
loop_
_atom_site_type_symbol
_atom_site_label
_atom_site_fract_x
_atom_site_fract_y
_atom_site_fract_z
Si Si1 0.067962 0.161127 0.682370
Si Si2 0.932543 0.662077 0.164815
Si Si3 0.066211 0.663655 0.339884
Si Si4 0.566503 0.662699 0.514919
Si Si5 0.429417 0.841577 0.010322
Si Si6 0.428661 0.658477 0.837578
O O1 0.250000 0.147185 0.684517
O O2 0.011546 0.233687 0.592984
O O3 0.016156 0.263537 0.760108
O O4 0.000000 0.000000 0.693139
O O5 0.750000 0.648019 0.174614
O O6 0.000000 0.500000 0.147675
O O7 0.002466 0.737490 0.251949
O O8 0.974692 0.767024 0.086410
O O9 0.250000 0.665506 0.340204
O O10 0.000000 0.500000 0.339866
O O11 0.001501 0.738289 0.427481
O O12 0.500000 0.500000 0.530583
O O13 0.750000 0.650848 0.507756
O O14 0.250000 0.852487 0.036859
O O15 0.452887 0.749512 0.924139
O O16 0.500000 0.000000 0.991719
O O17 0.500000 0.500000 0.854387
O O18 0.250000 0.643390 0.812232
#
# Coordination Sequence:
#
# PCOD8168048 Si02
#       6
#     4   4   4   4   4   4
#     4  11  24  40  60  85 118 155 193 237 289 345
#     4  11  21  36  59  86 117 153 194 242 289 341
#     4  10  18  31  54  83 114 149 190 239 289 340
#     4  10  20  35  56  84 114 149 192 239 288 341
#     4  11  24  41  60  86 118 154 192 235 287 344
#     4  11  24  41  64  90 118 150 191 238 285 339
#
# _framework density 19.792021999999999
#
# number of rings (size 3 to 8) (size 9 to 14) (size 15 to 20)
#    0.000    1.333    0.000    8.500    0.000    9.333 
#    0.000    0.833    0.000    2.000    0.000    0.000 
#    0.000    0.000    0.000    0.000    0.000    0.000 
#
# Total GULP energy -297652.051128 kJ/mol
# GULP energy per Si atom -12402.168797 kJ/mol
# Density = 1.974697 g / cm^3
# Si number density = 19.792022 Si / 1000 Ang^3
#
#
#
# Elastic Constant Matrix: (Units=GPa)
#
#
# Indices 1 2 3 4 5 6 
#
# 1 99.2421 26.9646 42.1628 0.0000 0.0000 0.0000
# 2 26.9646 93.2673 30.1660 0.0000 0.0000 0.0000
# 3 42.1628 30.1660 114.6958 0.0000 0.0000 0.0000
# 4 0.0000 0.0000 0.0000 -91.7462 0.0000 0.0000
# 5 0.0000 0.0000 0.0000 0.0000 31.4716 0.0000
# 6 0.0000 0.0000 0.0000 0.0000 0.0000 26.0590
#
#
#
# Elastic Compliance Matrix: (Units=1/GPa)
#
#
# Indices 1 2 3 4 5 6 
#
# 1 0.012378 -0.002303 -0.003945 0.000000 0.000000 0.000000
# 2 -0.002303 0.012147 -0.002348 0.000000 0.000000 0.000000
# 3 -0.003945 -0.002348 0.010786 0.000000 0.000000 0.000000
# 4 0.000000 0.000000 0.000000 -0.010900 0.000000 0.000000
# 5 0.000000 0.000000 0.000000 0.000000 0.031775 0.000000
# 6 0.000000 0.000000 0.000000 0.000000 0.000000 0.038375
#
#
# Mechanical properties :
#
#
# Convention : Reuss Voigt Hill
#
# Bulk Modulus (GPa) = 55.18701 56.19910 55.69306
# Shear Modulus (GPa) = 42.44764 7.01767 24.73266
#
# Velocity S-wave (km/s) = 4.63610 1.88505 3.53884
# Velocity P-wave (km/s) = 7.52342 5.76145 6.70060
#
# Compressibility (1/GPa) = 0.01812020
#
# Stress axis : x y z
#
# Youngs Moduli (GPa) = 80.78942 82.32382 92.70970
#
# Poissons Ratio (x) = 0.18957 0.36569
# Poissons Ratio (y) = 0.18604 0.21771
# Poissons Ratio (z) = 0.31868 0.19332
#
# Static dielectric constant tensor:
#      x y z
#    x 3.800400 0.000000 0.000000 
#    y 0.000000 3.450390 0.000000 
#    z 0.000000 0.000000 4.296970 
# 
# 
# High freq. dielectric constant tensor:
#      x y z
#    x 1.792540 0.000000 0.000000 
#    y 0.000000 1.750590 0.000000 
#    z 0.000000 0.000000 1.798280 
# 
# From -- ./inp_files/6091.got.cif
#   From: 2010.03.12/outbox.cif.g09.slc.cpg/sg28_4_cif.got.tgz:6091.got - 2010.04.14 03:39:34.
