data_PCOD8168324
_publ_section_title
;
Structure prediction by ZEFSAII (Michael W. Deem and Ramdas Pophale) SiO2 
 PCOD8168324
Probable space group: P M A 2
;
_chemical_formula_sum "Si O2"
_cell_formula_units_Z 28
_cell_length_a 8.942028
_cell_length_b 9.849502
_cell_length_c 17.184746
_cell_angle_alpha 90.000000
_cell_angle_beta 90.000000
_cell_angle_gamma 90.000000
_cell_volume 1513.538301
_symmetry_space_group_name_H-M "P M A 2"
_symmetry_group_IT_number 28
_symmetry_cell_setting 'orthorhombic'
loop_
_space_group_symop_operation_xyz
x,y,z
-x,-y,z
1/2-x,y,z
1/2+x,-y,z
loop_
_atom_site_type_symbol
_atom_site_label
_atom_site_fract_x
_atom_site_fract_y
_atom_site_fract_z
Si Si1 0.575524 0.640954 0.447610
Si Si2 0.572347 0.648432 0.873637
Si Si3 0.577919 0.137798 0.166688
Si Si4 0.423210 0.859120 0.983882
Si Si5 0.075290 0.139058 0.743739
Si Si6 0.426470 0.138470 0.567641
Si Si7 0.074736 0.357258 0.271936
O O1 0.500000 0.500000 0.467214
O O2 0.750000 0.619915 0.459457
O O3 0.510951 0.747904 0.509382
O O4 0.539331 0.690756 0.360066
O O5 0.500000 0.500000 0.868120
O O6 0.750000 0.633533 0.883598
O O7 0.505815 0.730388 0.946433
O O8 0.528419 0.733068 0.796413
O O9 0.750000 0.132343 0.191750
O O10 0.495088 0.256102 0.210915
O O11 0.500000 0.000000 0.193219
O O12 0.559233 0.162202 0.075400
O O13 0.250000 0.863763 0.958446
O O14 0.500000 0.000000 0.957047
O O15 0.250000 0.112289 0.748666
O O16 0.024196 0.173752 0.655835
O O17 0.000000 0.000000 0.773889
O O18 0.250000 0.123561 0.560665
O O19 0.500000 0.000000 0.539520
O O20 0.250000 0.369601 0.256913
O O21 0.000000 0.500000 0.255206
#
# Coordination Sequence:
#
# PCOD8168324 Si02
#       7
#     4   4   4   4   4   4   4
#     4   9  19  34  52  75 104 138 175 214 257 308
#     4  11  23  37  54  79 109 140 176 218 263 310
#     4  10  21  37  57  81 107 137 174 216 262 312
#     4  10  21  38  59  81 106 138 175 214 260 314
#     4   9  19  35  55  77 103 137 174 213 258 310
#     4   9  18  34  53  76 105 135 172 215 258 306
#     4  10  20  35  54  77 106 141 179 218 263 314
#
# _framework density 18.499696
#
# number of rings (size 3 to 8) (size 9 to 14) (size 15 to 20)
#    0.000    2.286    0.000    2.143    0.000    6.857 
#    0.000    1.429    0.000    0.000    0.000    0.000 
#    0.000    0.000    0.000    0.000    0.000    0.000 
#
# Total GULP energy -347247.667742 kJ/mol
# GULP energy per Si atom -12401.702419 kJ/mol
# Density = 1.845759 g / cm^3
# Si number density = 18.499696 Si / 1000 Ang^3
#
#
#
# Elastic Constant Matrix: (Units=GPa)
#
#
# Indices 1 2 3 4 5 6 
#
# 1 90.5498 74.4814 49.7251 0.0000 0.0000 0.0000
# 2 74.4814 150.0819 73.9991 0.0000 0.0000 0.0000
# 3 49.7251 73.9991 77.8474 0.0000 0.0000 0.0000
# 4 0.0000 0.0000 0.0000 39.3192 0.0000 0.0000
# 5 0.0000 0.0000 0.0000 0.0000 30.2687 0.0000
# 6 0.0000 0.0000 0.0000 0.0000 0.0000 40.0937
#
#
#
# Elastic Compliance Matrix: (Units=1/GPa)
#
#
# Indices 1 2 3 4 5 6 
#
# 1 0.020202 -0.006895 -0.006350 0.000000 0.000000 0.000000
# 2 -0.006895 0.014894 -0.009753 0.000000 0.000000 0.000000
# 3 -0.006350 -0.009753 0.026173 0.000000 0.000000 0.000000
# 4 0.000000 0.000000 0.000000 0.025433 0.000000 0.000000
# 5 0.000000 0.000000 0.000000 0.000000 0.033037 0.000000
# 6 0.000000 0.000000 0.000000 0.000000 0.000000 0.024942
#
#
# Mechanical properties :
#
#
# Convention : Reuss Voigt Hill
#
# Bulk Modulus (GPa) = 65.47854 79.43225 72.45539
# Shear Modulus (GPa) = 25.54043 29.95457 27.74750
#
# Velocity S-wave (km/s) = 3.71966 4.02828 3.87704
# Velocity P-wave (km/s) = 7.34296 8.04154 7.70017
#
# Compressibility (1/GPa) = 0.01527218
#
# Stress axis : x y z
#
# Youngs Moduli (GPa) = 49.49995 67.14263 38.20715
#
# Poissons Ratio (x) = 0.46293 0.24262
# Poissons Ratio (y) = 0.34129 0.37265
# Poissons Ratio (z) = 0.31434 0.65487
#
# Static dielectric constant tensor:
#      x y z
#    x 3.479990 0.000000 0.000000 
#    y 0.000000 3.390310 0.000000 
#    z 0.000000 0.000000 3.577920 
# 
# 
# High freq. dielectric constant tensor:
#      x y z
#    x 1.725230 0.000000 0.000000 
#    y 0.000000 1.718750 0.000000 
#    z 0.000000 0.000000 1.723850 
# 
# From -- ./inp_files/6716.got.cif
#   From: 2010.03.12/outbox.cif.g09.slc.cpg/sg28_4_cif.got.tgz:6716.got - 2010.04.14 03:39:34.
