data_PCOD8168962
_publ_section_title
;
Structure prediction by ZEFSAII (Michael W. Deem and Ramdas Pophale) SiO2 
 PCOD8168962
Probable space group: P C A 21
;
_chemical_formula_sum "Si O2"
_cell_formula_units_Z 24
_cell_length_a 14.346707
_cell_length_b 8.563673
_cell_length_c 8.399787
_cell_angle_alpha 90.000000
_cell_angle_beta 90.000000
_cell_angle_gamma 90.000000
_cell_volume 1032.002093
_symmetry_space_group_name_H-M "P C A 21"
_symmetry_group_IT_number 29
_symmetry_cell_setting 'orthorhombic'
loop_
_space_group_symop_operation_xyz
x,y,z
-x,-y,1/2+z
1/2-x,y,1/2+z
1/2+x,-y,z
loop_
_atom_site_type_symbol
_atom_site_label
_atom_site_fract_x
_atom_site_fract_y
_atom_site_fract_z
Si Si1 0.372505 0.432963 0.929970
Si Si2 0.958114 0.559561 0.586108
Si Si3 0.081447 0.115975 0.574432
Si Si4 0.820018 0.185966 0.086575
Si Si5 0.812263 0.365176 0.406025
Si Si6 0.495781 0.841443 0.907199
O O1 0.427375 0.453746 0.766278
O O2 0.268942 0.502893 0.914717
O O3 0.432489 0.515037 0.069846
O O4 0.365953 0.249800 0.976098
O O5 0.905752 0.433408 0.477686
O O6 0.937760 0.735193 0.520098
O O7 0.025071 0.182028 0.725271
O O8 0.161400 0.994228 0.636447
O O9 0.006008 0.023780 0.462429
O O10 0.836266 0.304321 0.231506
O O11 0.718031 0.215469 0.013503
O O12 0.891136 0.227120 0.939005
#
# Coordination Sequence:
#
# PCOD8168962 Si02
#       6
#     4   4   4   4   4   4
#     4  12  25  45  71 112 141 198 254 316 369 463
#     4  12  25  42  78 100 151 196 255 311 375 454
#     4  10  24  44  74 104 150 187 251 312 387 453
#     4  10  25  48  68 105 149 194 248 308 394 441
#     4  12  25  48  72 105 149 200 255 312 376 459
#     4  10  22  45  69 108 144 193 251 305 383 454
#
# _framework density 23.255768
#
# number of rings (size 3 to 8) (size 9 to 14) (size 15 to 20)
#    1.000    0.000    3.333    3.000    4.667    0.000 
#    6.000    0.000    0.000    0.000    0.000    0.000 
#    0.000    0.000    0.000    0.000    0.000    0.000 
#
# Total GULP energy -297390.862171 kJ/mol
# GULP energy per Si atom -12391.285924 kJ/mol
# Density = 2.320284 g / cm^3
# Si number density = 23.255768 Si / 1000 Ang^3
#
#
#
# Elastic Constant Matrix: (Units=GPa)
#
#
# Indices 1 2 3 4 5 6 
#
# 1 48.1712 33.3650 6.4235 0.0000 0.0000 0.0000
# 2 33.3650 118.3159 26.9902 0.0000 0.0000 0.0000
# 3 6.4235 26.9902 84.4796 0.0000 0.0000 0.0000
# 4 0.0000 0.0000 0.0000 49.0055 0.0000 0.0000
# 5 0.0000 0.0000 0.0000 0.0000 36.1897 0.0000
# 6 0.0000 0.0000 0.0000 0.0000 0.0000 36.7001
#
#
#
# Elastic Compliance Matrix: (Units=1/GPa)
#
#
# Indices 1 2 3 4 5 6 
#
# 1 0.025810 -0.007368 0.000391 0.000000 0.000000 0.000000
# 2 -0.007368 0.011220 -0.003024 0.000000 0.000000 0.000000
# 3 0.000391 -0.003024 0.012774 0.000000 0.000000 0.000000
# 4 0.000000 0.000000 0.000000 0.020406 0.000000 0.000000
# 5 0.000000 0.000000 0.000000 0.000000 0.027632 0.000000
# 6 0.000000 0.000000 0.000000 0.000000 0.000000 0.027248
#
#
# Mechanical properties :
#
#
# Convention : Reuss Voigt Hill
#
# Bulk Modulus (GPa) = 33.55467 42.72491 38.13979
# Shear Modulus (GPa) = 32.25291 36.65825 34.45558
#
# Velocity S-wave (km/s) = 3.72812 3.97458 3.85332
# Velocity P-wave (km/s) = 5.74384 6.28289 6.01940
#
# Compressibility (1/GPa) = 0.02980211
#
# Stress axis : x y z
#
# Youngs Moduli (GPa) = 38.74430 89.13011 78.28625
#
# Poissons Ratio (x) = 0.65669 -0.03064
# Poissons Ratio (y) = 0.28546 0.23676
# Poissons Ratio (z) = -0.01516 0.26955
#
# Static dielectric constant tensor:
#      x y z
#    x 3.928170 0.000000 0.000000 
#    y 0.000000 4.453160 0.000000 
#    z 0.000000 0.000000 4.052630 
# 
# 
# High freq. dielectric constant tensor:
#      x y z
#    x 1.896250 0.000000 0.000000 
#    y 0.000000 1.935870 0.000000 
#    z 0.000000 0.000000 1.922690 
# 
# From -- ./inp_files/1737.got.cif
#   From: 2010.03.12/outbox.cif.g09.slc.cpg/sg29_1_cif.got.tgz:1737.got - 2010.04.14 03:43:10.
