data_PCOD8168560
_publ_section_title
;
Structure prediction by ZEFSAII (Michael W. Deem and Ramdas Pophale) SiO2 
 PCOD8168560
Probable space group: P C A 21
;
_chemical_formula_sum "Si O2"
_cell_formula_units_Z 32
_cell_length_a 20.698336
_cell_length_b 8.526699
_cell_length_c 9.101810
_cell_angle_alpha 90.000000
_cell_angle_beta 90.000000
_cell_angle_gamma 90.000000
_cell_volume 1606.364620
_symmetry_space_group_name_H-M "P C A 21"
_symmetry_group_IT_number 29
_symmetry_cell_setting 'orthorhombic'
loop_
_space_group_symop_operation_xyz
x,y,z
-x,-y,1/2+z
1/2-x,y,1/2+z
1/2+x,-y,z
loop_
_atom_site_type_symbol
_atom_site_label
_atom_site_fract_x
_atom_site_fract_y
_atom_site_fract_z
Si Si1 0.436086 0.858700 0.338250
Si Si2 0.187433 0.320420 0.846457
Si Si3 0.427388 0.183511 0.177565
Si Si4 0.699672 0.820084 0.161024
Si Si5 0.293363 0.813266 0.640759
Si Si6 0.068516 0.844513 0.174007
Si Si7 0.689402 0.319627 0.840517
Si Si8 0.577805 0.843686 0.340657
O O1 0.431267 0.918120 0.508238
O O2 0.383509 0.727061 0.297215
O O3 0.505832 0.775893 0.309879
O O4 0.424396 0.005566 0.233078
O O5 0.117828 0.294897 0.772739
O O6 0.241819 0.276543 0.729040
O O7 0.192259 0.501114 0.891701
O O8 0.195086 0.213488 0.989055
O O9 0.501249 0.250571 0.192102
O O10 0.402649 0.181482 0.009902
O O11 0.633022 0.765395 0.239727
O O12 0.712334 0.004717 0.185293
O O13 0.364808 0.744649 0.687313
O O14 0.285096 0.795643 0.466952
O O15 0.237401 0.706657 0.706105
O O16 0.071880 0.973114 0.301600
#
# Coordination Sequence:
#
# PCOD8168560 Si02
#       8
#     4   4   4   4   4   4   4   4
#     4   9  18  36  58  82 113 149 188 232 281 337
#     4  12  24  38  55  83 117 149 182 233 289 340
#     4  10  18  33  59  85 111 145 187 233 280 335
#     4  11  22  39  61  84 110 147 194 236 281 337
#     4  10  20  38  60  82 107 146 191 233 274 331
#     4   8  17  33  56  83 111 143 188 239 280 324
#     4  11  23  38  55  82 116 148 183 230 286 339
#     4   9  18  33  58  87 109 139 191 242 277 323
#
# _framework density 19.920757999999999
#
# number of rings (size 3 to 8) (size 9 to 14) (size 15 to 20)
#    0.000    2.000    0.000    5.250    0.000    4.000 
#    0.000    5.000    0.000    0.000    0.000    0.000 
#    0.000    0.000    0.000    0.000    0.000    0.000 
#
# Total GULP energy -396649.220816 kJ/mol
# GULP energy per Si atom -12395.288150 kJ/mol
# Density = 1.987542 g / cm^3
# Si number density = 19.920758 Si / 1000 Ang^3
#
#
#
# Elastic Constant Matrix: (Units=GPa)
#
#
# Indices 1 2 3 4 5 6 
#
# 1 136.9692 32.5226 45.5532 0.0000 0.0000 0.0000
# 2 32.5226 60.4800 8.9974 0.0000 0.0000 0.0000
# 3 45.5532 8.9974 85.7695 0.0000 0.0000 0.0000
# 4 0.0000 0.0000 0.0000 19.3089 0.0000 0.0000
# 5 0.0000 0.0000 0.0000 0.0000 35.6848 0.0000
# 6 0.0000 0.0000 0.0000 0.0000 0.0000 13.1753
#
#
#
# Elastic Compliance Matrix: (Units=1/GPa)
#
#
# Indices 1 2 3 4 5 6 
#
# 1 0.010015 -0.004667 -0.004830 0.000000 0.000000 0.000000
# 2 -0.004667 0.018971 0.000489 0.000000 0.000000 0.000000
# 3 -0.004830 0.000489 0.014173 0.000000 0.000000 0.000000
# 4 0.000000 0.000000 0.000000 0.051789 0.000000 0.000000
# 5 0.000000 0.000000 0.000000 0.000000 0.028023 0.000000
# 6 0.000000 0.000000 0.000000 0.000000 0.000000 0.075900
#
#
# Mechanical properties :
#
#
# Convention : Reuss Voigt Hill
#
# Bulk Modulus (GPa) = 39.77194 50.81836 45.29515
# Shear Modulus (GPa) = 22.19561 26.71017 24.45289
#
# Velocity S-wave (km/s) = 3.34158 3.66569 3.50738
# Velocity P-wave (km/s) = 5.90733 6.59409 6.26014
#
# Compressibility (1/GPa) = 0.02514336
#
# Stress axis : x y z
#
# Youngs Moduli (GPa) = 99.84662 52.71087 70.55667
#
# Poissons Ratio (x) = 0.24601 0.34077
# Poissons Ratio (y) = 0.46600 -0.03448
# Poissons Ratio (z) = 0.48223 -0.02576
#
# Static dielectric constant tensor:
#      x y z
#    x 4.172210 0.000000 0.000000 
#    y 0.000000 3.082620 0.000000 
#    z 0.000000 0.000000 3.602170 
# 
# 
# High freq. dielectric constant tensor:
#      x y z
#    x 1.805160 0.000000 0.000000 
#    y 0.000000 1.725240 0.000000 
#    z 0.000000 0.000000 1.782130 
# 
# From -- ./inp_files/2295.got.cif
#   From: 2010.03.12/outbox.cif.g09.slc.cpg/sg29_2_cif.got.tgz:2295.got - 2010.04.14 03:43:10.
