data_PCOD8168104
_publ_section_title
;
Structure prediction by ZEFSAII (Michael W. Deem and Ramdas Pophale) SiO2 
 PCOD8168104
Probable space group: P M A 2
;
_chemical_formula_sum "Si O2"
_cell_formula_units_Z 28
_cell_length_a 8.952787
_cell_length_b 19.382926
_cell_length_c 9.592715
_cell_angle_alpha 90.000000
_cell_angle_beta 90.000000
_cell_angle_gamma 90.000000
_cell_volume 1664.635421
_symmetry_space_group_name_H-M "P M A 2"
_symmetry_group_IT_number 28
_symmetry_cell_setting 'orthorhombic'
loop_
_space_group_symop_operation_xyz
x,y,z
-x,-y,z
1/2-x,y,z
1/2+x,-y,z
loop_
_atom_site_type_symbol
_atom_site_label
_atom_site_fract_x
_atom_site_fract_y
_atom_site_fract_z
Si Si1 0.419422 0.703660 0.653340
Si Si2 0.427829 0.799224 0.193641
Si Si3 0.073364 0.308725 0.383871
Si Si4 0.073690 0.805500 0.880502
Si Si5 0.419697 0.570927 0.511905
Si Si6 0.573785 0.070190 0.692205
Si Si7 0.074562 0.929473 0.374058
O O1 0.250000 0.729870 0.622993
O O2 0.522792 0.731244 0.525965
O O3 0.474148 0.734698 0.800627
O O4 0.424324 0.619560 0.651604
O O5 0.250000 0.789759 0.201007
O O6 0.505541 0.730952 0.252777
O O7 0.481180 0.866538 0.278217
O O8 0.490574 0.806341 0.036325
O O9 0.250000 0.312706 0.372101
O O10 0.004630 0.386774 0.388580
O O11 0.250000 0.811300 0.891317
O O12 0.010745 0.869271 0.790642
O O13 0.500000 0.500000 0.547594
O O14 0.250000 0.556325 0.465247
O O15 0.750000 0.062678 0.705266
O O16 0.526473 0.086190 0.533081
O O17 0.500000 0.000000 0.745806
O O18 0.250000 0.939348 0.360109
O O19 0.000000 0.000000 0.320028
#
# Coordination Sequence:
#
# PCOD8168104 Si02
#       7
#     4   4   4   4   4   4   4
#     4   8  16  31  51  73  96 126 164 204 242 288
#     4  10  19  32  50  71  97 132 171 207 249 298
#     4  10  19  31  49  74 102 131 164 202 243 289
#     4   9  17  31  51  71  94 129 170 207 245 296
#     4   9  17  30  53  80 105 127 160 203 245 288
#     4   9  17  30  47  66  91 123 163 208 251 295
#     4   9  18  31  48  68  93 126 166 211 254 299
#
# _framework density 16.820499999999999
#
# number of rings (size 3 to 8) (size 9 to 14) (size 15 to 20)
#    0.857    2.000    0.000    2.143    0.000    3.429 
#    0.000    5.000    0.000    0.857    0.000    2.000 
#    0.000    0.000    0.000    0.000    0.000    0.000 
#
# Total GULP energy -346952.900617 kJ/mol
# GULP energy per Si atom -12391.175022 kJ/mol
# Density = 1.678222 g / cm^3
# Si number density = 16.820500 Si / 1000 Ang^3
#
#
#
# Elastic Constant Matrix: (Units=GPa)
#
#
# Indices 1 2 3 4 5 6 
#
# 1 61.0818 39.5398 29.8072 0.0000 0.0000 0.0000
# 2 39.5398 127.7680 66.0290 0.0000 0.0000 0.0000
# 3 29.8072 66.0290 110.3730 0.0000 0.0000 0.0000
# 4 0.0000 0.0000 0.0000 11.4485 0.0000 0.0000
# 5 0.0000 0.0000 0.0000 0.0000 12.6183 0.0000
# 6 0.0000 0.0000 0.0000 0.0000 0.0000 29.4877
#
#
#
# Elastic Compliance Matrix: (Units=1/GPa)
#
#
# Indices 1 2 3 4 5 6 
#
# 1 0.020967 -0.005157 -0.002578 0.000000 0.000000 0.000000
# 2 -0.005157 0.012597 -0.006144 0.000000 0.000000 0.000000
# 3 -0.002578 -0.006144 0.013432 0.000000 0.000000 0.000000
# 4 0.000000 0.000000 0.000000 0.087348 0.000000 0.000000
# 5 0.000000 0.000000 0.000000 0.000000 0.079250 0.000000
# 6 0.000000 0.000000 0.000000 0.000000 0.000000 0.033912
#
#
# Mechanical properties :
#
#
# Convention : Reuss Voigt Hill
#
# Bulk Modulus (GPa) = 51.97295 63.33053 57.65174
# Shear Modulus (GPa) = 17.75092 21.63403 19.69248
#
# Velocity S-wave (km/s) = 3.25209 3.59021 3.42532
# Velocity P-wave (km/s) = 6.71320 7.41072 7.07056
#
# Compressibility (1/GPa) = 0.01924078
#
# Stress axis : x y z
#
# Youngs Moduli (GPa) = 47.69327 79.38120 74.45121
#
# Poissons Ratio (x) = 0.40934 0.19190
# Poissons Ratio (y) = 0.24594 0.45740
# Poissons Ratio (z) = 0.12293 0.48769
#
# Static dielectric constant tensor:
#      x y z
#    x 2.942620 0.000000 0.000000 
#    y 0.000000 3.131760 0.000000 
#    z 0.000000 0.000000 3.153070 
# 
# 
# High freq. dielectric constant tensor:
#      x y z
#    x 1.632640 0.000000 0.000000 
#    y 0.000000 1.645090 0.000000 
#    z 0.000000 0.000000 1.625630 
# 
# From -- ./inp_files/2661.got.cif
#   From: 2010.03.12/outbox.cif.g09.slc.cpg/sg28_2_cif.got.tgz:2661.got - 2010.04.14 03:39:34.
