data_PCOD8168213
_publ_section_title
;
Structure prediction by ZEFSAII (Michael W. Deem and Ramdas Pophale) SiO2 
 PCOD8168213
Probable space group: P M A 2
;
_chemical_formula_sum "Si O2"
_cell_formula_units_Z 24
_cell_length_a 8.650996
_cell_length_b 14.052201
_cell_length_c 10.186850
_cell_angle_alpha 90.000000
_cell_angle_beta 90.000000
_cell_angle_gamma 90.000000
_cell_volume 1238.369867
_symmetry_space_group_name_H-M "P M A 2"
_symmetry_group_IT_number 28
_symmetry_cell_setting 'orthorhombic'
loop_
_space_group_symop_operation_xyz
x,y,z
-x,-y,z
1/2-x,y,z
1/2+x,-y,z
loop_
_atom_site_type_symbol
_atom_site_label
_atom_site_fract_x
_atom_site_fract_y
_atom_site_fract_z
Si Si1 0.068471 0.603650 0.570540
Si Si2 0.432701 0.900560 0.728948
Si Si3 0.931070 0.603072 0.063923
Si Si4 0.430310 0.097057 0.444376
Si Si5 0.928920 0.703562 0.329218
Si Si6 0.566877 0.713843 0.811149
O O1 0.250000 0.601856 0.597489
O O2 0.000000 0.500000 0.588506
O O3 0.035138 0.642258 0.425628
O O4 0.985799 0.671615 0.673459
O O5 0.250000 0.903536 0.732539
O O6 0.487450 0.879213 0.581169
O O7 0.494877 0.818746 0.825521
O O8 0.500000 0.000000 0.780796
O O9 0.750000 0.589885 0.051650
O O10 0.974850 0.673734 0.182428
O O11 0.000000 0.500000 0.089782
O O12 0.996940 0.648900 0.930059
O O13 0.250000 0.082113 0.472724
O O14 0.460945 0.183747 0.344372
O O15 0.500000 0.000000 0.382603
O O16 0.750000 0.680023 0.360241
O O17 0.750000 0.722283 0.815401
#
# Coordination Sequence:
#
# PCOD8168213 Si02
#       6
#     4   4   4   4   4   4
#     4  12  24  37  57  85 115 149 194 245 296 350
#     4  11  21  35  58  88 120 153 195 239 294 350
#     4  10  23  41  61  84 115 157 199 241 295 353
#     4  10  19  33  57  85 119 153 190 237 293 346
#     4  10  21  39  60  85 117 154 194 240 294 349
#     4  11  22  39  60  85 118 154 196 244 294 348
#
# _framework density 19.380317000000002
#
# number of rings (size 3 to 8) (size 9 to 14) (size 15 to 20)
#    0.000    1.333    1.667    6.000    0.000    5.333 
#    0.000    0.833    0.000    2.000    0.000    0.000 
#    0.000    0.000    0.000    0.000    0.000    0.000 
#
# Total GULP energy -297698.434081 kJ/mol
# GULP energy per Si atom -12404.101420 kJ/mol
# Density = 1.933621 g / cm^3
# Si number density = 19.380317 Si / 1000 Ang^3
#
#
#
# Elastic Constant Matrix: (Units=GPa)
#
#
# Indices 1 2 3 4 5 6 
#
# 1 106.0013 49.7058 27.5288 0.0000 0.0000 0.0000
# 2 49.7058 145.8869 35.4561 0.0000 0.0000 0.0000
# 3 27.5288 35.4561 71.4049 0.0000 0.0000 0.0000
# 4 0.0000 0.0000 0.0000 37.5280 0.0000 0.0000
# 5 0.0000 0.0000 0.0000 0.0000 17.8945 0.0000
# 6 0.0000 0.0000 0.0000 0.0000 0.0000 36.9273
#
#
#
# Elastic Compliance Matrix: (Units=1/GPa)
#
#
# Indices 1 2 3 4 5 6 
#
# 1 0.011728 -0.003295 -0.002886 0.000000 0.000000 0.000000
# 2 -0.003295 0.008721 -0.003060 0.000000 0.000000 0.000000
# 3 -0.002886 -0.003060 0.016637 0.000000 0.000000 0.000000
# 4 0.000000 0.000000 0.000000 0.026647 0.000000 0.000000
# 5 0.000000 0.000000 0.000000 0.000000 0.055883 0.000000
# 6 0.000000 0.000000 0.000000 0.000000 0.000000 0.027080
#
#
# Mechanical properties :
#
#
# Convention : Reuss Voigt Hill
#
# Bulk Modulus (GPa) = 53.74942 60.96385 57.35663
# Shear Modulus (GPa) = 29.17522 32.51012 30.84267
#
# Velocity S-wave (km/s) = 3.88416 4.10015 3.99362
# Velocity P-wave (km/s) = 6.92170 7.34437 7.13617
#
# Compressibility (1/GPa) = 0.01860485
#
# Stress axis : x y z
#
# Youngs Moduli (GPa) = 85.26483 114.66706 60.10822
#
# Poissons Ratio (x) = 0.37779 0.17345
# Poissons Ratio (y) = 0.28092 0.18394
# Poissons Ratio (z) = 0.24604 0.35090
#
# Static dielectric constant tensor:
#      x y z
#    x 3.559570 0.000000 0.000000 
#    y 0.000000 3.664080 0.000000 
#    z 0.000000 0.000000 3.451910 
# 
# 
# High freq. dielectric constant tensor:
#      x y z
#    x 1.761490 0.000000 0.000000 
#    y 0.000000 1.775270 0.000000 
#    z 0.000000 0.000000 1.731980 
# 
# From -- ./inp_files/2448.got.cif
#   From: 2010.03.12/outbox.cif.g09.slc.cpg/sg28_2_cif.got.tgz:2448.got - 2010.04.14 03:39:34.
