data_PCOD8168238
_publ_section_title
;
Structure prediction by ZEFSAII (Michael W. Deem and Ramdas Pophale) SiO2 
 PCOD8168238
Probable space group: P M A 2
;
_chemical_formula_sum "Si O2"
_cell_formula_units_Z 24
_cell_length_a 8.710938
_cell_length_b 9.123763
_cell_length_c 15.674202
_cell_angle_alpha 90.000000
_cell_angle_beta 90.000000
_cell_angle_gamma 90.000000
_cell_volume 1245.731245
_symmetry_space_group_name_H-M "P M A 2"
_symmetry_group_IT_number 28
_symmetry_cell_setting 'orthorhombic'
loop_
_space_group_symop_operation_xyz
x,y,z
-x,-y,z
1/2-x,y,z
1/2+x,-y,z
loop_
_atom_site_type_symbol
_atom_site_label
_atom_site_fract_x
_atom_site_fract_y
_atom_site_fract_z
Si Si1 0.067913 0.337093 0.571880
Si Si2 0.431519 0.339063 0.941169
Si Si3 0.930197 0.842120 0.099720
Si Si4 0.428195 0.343430 0.757522
Si Si5 0.931519 0.659471 0.265707
Si Si6 0.567910 0.159898 0.419558
O O1 0.250000 0.344075 0.555092
O O2 0.028311 0.269509 0.666693
O O3 0.000000 0.500000 0.559518
O O4 0.988785 0.223474 0.509096
O O5 0.500000 0.500000 0.952329
O O6 0.250000 0.353932 0.951894
O O7 0.476165 0.267141 0.847773
O O8 0.498771 0.233642 0.014472
O O9 0.750000 0.859532 0.091667
O O10 0.976679 0.746500 0.180942
O O11 0.000000 0.000000 0.112208
O O12 0.500000 0.500000 0.757742
O O13 0.250000 0.370477 0.759063
O O14 0.750000 0.652881 0.280932
O O15 0.000000 0.500000 0.254710
O O16 0.010968 0.734148 0.345766
O O17 0.750000 0.150314 0.418896
O O18 0.500000 0.000000 0.404161
#
# Coordination Sequence:
#
# PCOD8168238 Si02
#       6
#     4   4   4   4   4   4
#     4  10  19  34  56  83 112 146 185 228 273 322
#     4   9  17  32  53  80 109 141 181 225 268 316
#     4  10  22  37  55  79 111 146 181 220 268 321
#     4   8  15  28  50  77 108 141 178 223 269 313
#     4  11  23  40  61  86 111 141 180 224 270 322
#     4  12  25  41  59  81 110 145 181 224 274 328
#
# _framework density 19.265792000000001
#
# number of rings (size 3 to 8) (size 9 to 14) (size 15 to 20)
#    0.000    2.000    0.000    4.000    0.000    4.000 
#    0.000    0.833    0.000    2.000    0.000    0.000 
#    0.000    0.000    0.000    0.000    0.000    0.000 
#
# Total GULP energy -297413.128640 kJ/mol
# GULP energy per Si atom -12392.213693 kJ/mol
# Density = 1.922194 g / cm^3
# Si number density = 19.265792 Si / 1000 Ang^3
#
#
#
# Elastic Constant Matrix: (Units=GPa)
#
#
# Indices 1 2 3 4 5 6 
#
# 1 69.3412 41.3968 58.1774 0.0000 0.0000 0.0000
# 2 41.3968 118.7414 69.0585 0.0000 0.0000 0.0000
# 3 58.1774 69.0585 178.4125 0.0000 0.0000 0.0000
# 4 0.0000 0.0000 0.0000 16.0919 0.0000 0.0000
# 5 0.0000 0.0000 0.0000 0.0000 12.0432 0.0000
# 6 0.0000 0.0000 0.0000 0.0000 0.0000 31.0153
#
#
#
# Elastic Compliance Matrix: (Units=1/GPa)
#
#
# Indices 1 2 3 4 5 6 
#
# 1 0.021507 -0.004413 -0.005305 0.000000 0.000000 0.000000
# 2 -0.004413 0.011774 -0.003118 0.000000 0.000000 0.000000
# 3 -0.005305 -0.003118 0.008542 0.000000 0.000000 0.000000
# 4 0.000000 0.000000 0.000000 0.062143 0.000000 0.000000
# 5 0.000000 0.000000 0.000000 0.000000 0.083034 0.000000
# 6 0.000000 0.000000 0.000000 0.000000 0.000000 0.032242
#
#
# Mechanical properties :
#
#
# Convention : Reuss Voigt Hill
#
# Bulk Modulus (GPa) = 61.91829 78.19563 70.05696
# Shear Modulus (GPa) = 19.97625 25.02090 22.49857
#
# Velocity S-wave (km/s) = 3.22355 3.60769 3.42101
# Velocity P-wave (km/s) = 6.78703 7.61773 7.21435
#
# Compressibility (1/GPa) = 0.01615032
#
# Stress axis : x y z
#
# Youngs Moduli (GPa) = 46.49730 84.93563 117.06995
#
# Poissons Ratio (x) = 0.37478 0.62106
# Poissons Ratio (y) = 0.20517 0.36507
# Poissons Ratio (z) = 0.24667 0.26486
#
# Static dielectric constant tensor:
#      x y z
#    x 3.585420 0.000000 0.000000 
#    y 0.000000 3.319890 0.000000 
#    z 0.000000 0.000000 4.466260 
# 
# 
# High freq. dielectric constant tensor:
#      x y z
#    x 1.753400 0.000000 0.000000 
#    y 0.000000 1.725550 0.000000 
#    z 0.000000 0.000000 1.782910 
# 
# From -- ./inp_files/6036.got.cif
#   From: 2010.03.12/outbox.cif.g09.slc.cpg/sg28_4_cif.got.tgz:6036.got - 2010.04.14 03:39:34.
