data_PCOD8168665
_publ_section_title
;
Structure prediction by ZEFSAII (Michael W. Deem and Ramdas Pophale) SiO2 
 PCOD8168665
Probable space group: P C A 21
;
_chemical_formula_sum "Si O2"
_cell_formula_units_Z 20
_cell_length_a 21.529531
_cell_length_b 9.288523
_cell_length_c 5.137446
_cell_angle_alpha 90.000000
_cell_angle_beta 90.000000
_cell_angle_gamma 90.000000
_cell_volume 1027.373833
_symmetry_space_group_name_H-M "P C A 21"
_symmetry_group_IT_number 29
_symmetry_cell_setting 'orthorhombic'
loop_
_space_group_symop_operation_xyz
x,y,z
-x,-y,1/2+z
1/2-x,y,1/2+z
1/2+x,-y,z
loop_
_atom_site_type_symbol
_atom_site_label
_atom_site_fract_x
_atom_site_fract_y
_atom_site_fract_z
Si Si1 0.968851 0.671884 0.322720
Si Si2 0.593031 0.440409 0.523856
Si Si3 0.787174 0.259876 0.994635
Si Si4 0.905990 0.738938 0.832902
Si Si5 0.212561 0.078048 0.471373
O O1 0.935522 0.763549 0.550064
O O2 0.041448 0.653992 0.375525
O O3 0.937860 0.511134 0.285634
O O4 0.959068 0.761448 0.055284
O O5 0.649970 0.336880 0.584295
O O6 0.617744 0.572971 0.346004
O O7 0.763983 0.305722 0.709031
O O8 0.800115 0.090840 0.983825
O O9 0.851036 0.847653 0.891698
O O10 0.236482 0.125463 0.755695
#
# Coordination Sequence:
#
# PCOD8168665 Si02
#       5
#     4   4   4   4   4
#     4  10  20  35  57  86 110 146 176 233 283 320
#     4  10  21  37  60  80 119 140 184 229 280 328
#     4  10  24  38  57  81 112 148 188 226 281 330
#     4  10  20  34  57  82 109 141 192 219 276 336
#     4  10  21  40  55  77 114 153 182 233 282 324
#
# _framework density 19.467110000000002
#
# number of rings (size 3 to 8) (size 9 to 14) (size 15 to 20)
#    1.200    0.800    2.000    1.200    2.800    1.600 
#    0.000    2.000    0.000    0.000    0.000    0.000 
#    0.000    0.000    0.000    0.000    0.000    0.000 
#
# Total GULP energy -247819.761762 kJ/mol
# GULP energy per Si atom -12390.988088 kJ/mol
# Density = 1.942280 g / cm^3
# Si number density = 19.467110 Si / 1000 Ang^3
#
#
#
# Elastic Constant Matrix: (Units=GPa)
#
#
# Indices 1 2 3 4 5 6 
#
# 1 104.6219 33.9342 20.1863 0.0000 0.0000 0.0000
# 2 33.9342 25.8205 12.7642 0.0000 0.0000 0.0000
# 3 20.1863 12.7642 105.5041 0.0000 0.0000 0.0000
# 4 0.0000 0.0000 0.0000 19.0994 0.0000 0.0000
# 5 0.0000 0.0000 0.0000 0.0000 25.2540 0.0000
# 6 0.0000 0.0000 0.0000 0.0000 0.0000 -80.8093
#
#
#
# Elastic Compliance Matrix: (Units=1/GPa)
#
#
# Indices 1 2 3 4 5 6 
#
# 1 0.016693 -0.021654 -0.000574 0.000000 0.000000 0.000000
# 2 -0.021654 0.069283 -0.004239 0.000000 0.000000 0.000000
# 3 -0.000574 -0.004239 0.010101 0.000000 0.000000 0.000000
# 4 0.000000 0.000000 0.000000 0.052358 0.000000 0.000000
# 5 0.000000 0.000000 0.000000 0.000000 0.039598 0.000000
# 6 0.000000 0.000000 0.000000 0.000000 0.000000 -0.012375
#
#
# Mechanical properties :
#
#
# Convention : Reuss Voigt Hill
#
# Bulk Modulus (GPa) = 23.17905 41.07953 32.12929
# Shear Modulus (GPa) = 20.57849 3.97962 12.27905
#
# Velocity S-wave (km/s) = 3.25482 1.43133 2.51422
# Velocity P-wave (km/s) = 5.10468 4.88666 4.99686
#
# Compressibility (1/GPa) = 0.04314241
#
# Stress axis : x y z
#
# Youngs Moduli (GPa) = 59.90709 14.43353 99.00039
#
# Poissons Ratio (x) = 0.31255 0.05683
# Poissons Ratio (y) = 1.29724 0.41966
# Poissons Ratio (z) = 0.03439 0.06118
#
# Static dielectric constant tensor:
#      x y z
#    x 3.236810 0.000000 0.000000 
#    y 0.000000 3.249540 0.000000 
#    z 0.000000 0.000000 3.759020 
# 
# 
# High freq. dielectric constant tensor:
#      x y z
#    x 1.748070 0.000000 0.000000 
#    y 0.000000 1.726710 0.000000 
#    z 0.000000 0.000000 1.771290 
# 
# From -- ./inp_files/501.got.cif
#   From: 2010.03.12/outbox.cif.g09.slc.cpg/sg29_1_cif.got.tgz:501.got - 2010.04.14 03:43:10.
