data_PCOD8168453
_publ_section_title
;
Structure prediction by ZEFSAII (Michael W. Deem and Ramdas Pophale) SiO2 
 PCOD8168453
Probable space group: P M A 2
;
_chemical_formula_sum "Si O2"
_cell_formula_units_Z 30
_cell_length_a 20.001741
_cell_length_b 6.087373
_cell_length_c 11.254679
_cell_angle_alpha 90.000000
_cell_angle_beta 90.000000
_cell_angle_gamma 90.000000
_cell_volume 1370.347860
_symmetry_space_group_name_H-M "P M A 2"
_symmetry_group_IT_number 28
_symmetry_cell_setting 'orthorhombic'
loop_
_space_group_symop_operation_xyz
x,y,z
-x,-y,z
1/2-x,y,z
1/2+x,-y,z
loop_
_atom_site_type_symbol
_atom_site_label
_atom_site_fract_x
_atom_site_fract_y
_atom_site_fract_z
Si Si1 0.619598 0.726748 0.225790
Si Si2 0.174380 0.671547 0.777492
Si Si3 0.106271 0.351775 0.609700
Si Si4 0.675554 0.975966 0.436874
Si Si5 0.074339 0.056583 0.813388
Si Si6 0.173664 0.319879 0.969839
Si Si7 0.918249 0.357460 0.400073
Si Si8 0.500000 0.000000 0.281546
O O1 0.672066 0.842705 0.313531
O O2 0.590097 0.508555 0.284719
O O3 0.559803 0.903878 0.200711
O O4 0.657279 0.652034 0.107967
O O5 0.250000 0.768368 0.765753
O O6 0.164475 0.491823 0.673760
O O7 0.165992 0.555198 0.905989
O O8 0.116139 0.851332 0.761489
O O9 0.137005 0.149738 0.539049
O O10 0.060721 0.240453 0.711728
O O11 0.064209 0.502297 0.518154
O O12 0.750000 0.000167 0.481003
O O13 0.649276 0.222725 0.422036
O O14 0.120475 0.147115 0.919008
O O15 0.000000 0.000000 0.861637
O O16 0.250000 0.232619 0.953871
O O17 0.978382 0.191866 0.372493
#
# Coordination Sequence:
#
# PCOD8168453 Si02
#       8
#     4   4   4   4   4   4   4   2
#     4  10  22  41  63  95 129 169 215 266 322 386
#     4  10  22  43  67  93 128 172 219 270 329 384
#     4  10  22  41  62  94 128 170 216 270 321 386
#     4  10  21  38  62  95 132 167 210 264 322 384
#     4  11  25  45  63  97 129 170 219 273 329 385
#     4  10  23  43  70  97 127 169 218 272 325 388
#     4  10  22  41  59  93 127 174 212 264 320 389
#     4  10  22  42  60  92 130 174 214 260 324 388
#
# _framework density 21.892251999999999
#
# number of rings (size 3 to 8) (size 9 to 14) (size 15 to 20)
#    0.000    1.867    0.000    2.400    0.933   10.133 
#   31.200    1.333    0.000    0.000    0.000    0.000 
#    0.000    0.000    0.000    0.000    0.000    0.000 
#
# Total GULP energy -371919.276342 kJ/mol
# GULP energy per Si atom -12397.309211 kJ/mol
# Density = 2.184242 g / cm^3
# Si number density = 21.892252 Si / 1000 Ang^3
#
#
#
# Elastic Constant Matrix: (Units=GPa)
#
#
# Indices 1 2 3 4 5 6 
#
# 1 129.4190 42.8519 23.3654 0.0000 0.0000 0.0000
# 2 42.8519 104.2013 36.4508 0.0000 0.0000 0.0000
# 3 23.3654 36.4508 123.6908 0.0000 0.0000 0.0000
# 4 0.0000 0.0000 0.0000 20.4451 0.0000 0.0000
# 5 0.0000 0.0000 0.0000 0.0000 6.7695 0.0000
# 6 0.0000 0.0000 0.0000 0.0000 0.0000 33.5285
#
#
#
# Elastic Compliance Matrix: (Units=1/GPa)
#
#
# Indices 1 2 3 4 5 6 
#
# 1 0.008996 -0.003462 -0.000679 0.000000 0.000000 0.000000
# 2 -0.003462 0.012032 -0.002892 0.000000 0.000000 0.000000
# 3 -0.000679 -0.002892 0.009065 0.000000 0.000000 0.000000
# 4 0.000000 0.000000 0.000000 0.048911 0.000000 0.000000
# 5 0.000000 0.000000 0.000000 0.000000 0.147722 0.000000
# 6 0.000000 0.000000 0.000000 0.000000 0.000000 0.029825
#
#
# Mechanical properties :
#
#
# Convention : Reuss Voigt Hill
#
# Bulk Modulus (GPa) = 62.39332 62.51637 62.45484
# Shear Modulus (GPa) = 18.11858 29.12481 23.62169
#
# Velocity S-wave (km/s) = 2.87997 3.65138 3.28837
# Velocity P-wave (km/s) = 6.29452 6.81140 6.55806
#
# Compressibility (1/GPa) = 0.01602736
#
# Stress axis : x y z
#
# Youngs Moduli (GPa) = 111.16426 83.11139 110.31246
#
# Poissons Ratio (x) = 0.28772 0.07492
# Poissons Ratio (y) = 0.38483 0.31900
# Poissons Ratio (z) = 0.07549 0.24034
#
# Static dielectric constant tensor:
#      x y z
#    x 3.893090 0.000000 0.000000 
#    y 0.000000 4.088480 0.000000 
#    z 0.000000 0.000000 3.831910 
# 
# 
# High freq. dielectric constant tensor:
#      x y z
#    x 1.859050 0.000000 0.000000 
#    y 0.000000 1.868830 0.000000 
#    z 0.000000 0.000000 1.853800 
# 
# From -- ./inp_files/5850.got.cif
#   From: 2010.03.12/outbox.cif.g09.slc.cpg/sg28_3_cif.got.tgz:5850.got - 2010.04.14 03:39:34.
