data_PCOD8168277
_publ_section_title
;
Structure prediction by ZEFSAII (Michael W. Deem and Ramdas Pophale) SiO2 
 PCOD8168277
Probable space group: P M A 2
;
_chemical_formula_sum "Si O2"
_cell_formula_units_Z 32
_cell_length_a 9.831237
_cell_length_b 18.727719
_cell_length_c 10.159057
_cell_angle_alpha 90.000000
_cell_angle_beta 90.000000
_cell_angle_gamma 90.000000
_cell_volume 1870.451481
_symmetry_space_group_name_H-M "P M A 2"
_symmetry_group_IT_number 28
_symmetry_cell_setting 'orthorhombic'
loop_
_space_group_symop_operation_xyz
x,y,z
-x,-y,z
1/2-x,y,z
1/2+x,-y,z
loop_
_atom_site_type_symbol
_atom_site_label
_atom_site_fract_x
_atom_site_fract_y
_atom_site_fract_z
Si Si1 0.904345 0.434467 0.214770
Si Si2 0.090844 0.220056 0.354297
Si Si3 0.599650 0.940315 0.358650
Si Si4 0.594927 0.339820 0.962698
Si Si5 0.408876 0.219585 0.049081
Si Si6 0.400266 0.059470 0.045600
Si Si7 0.092925 0.568188 0.714060
Si Si8 0.593134 0.340671 0.459553
O O1 0.750000 0.462889 0.219585
O O2 0.948163 0.400381 0.353122
O O3 0.000000 0.500000 0.180581
O O4 0.922919 0.375217 0.104081
O O5 0.250000 0.235387 0.377614
O O6 0.053376 0.139419 0.398341
O O7 0.053449 0.231833 0.201653
O O8 0.001484 0.271681 0.444713
O O9 0.750000 0.955745 0.414715
O O10 0.602521 0.945671 0.202119
O O11 0.500000 0.000000 0.419895
O O12 0.750000 0.314742 0.938780
O O13 0.550774 0.396365 0.852014
O O14 0.497287 0.271269 0.956855
O O15 0.250000 0.234891 0.025805
O O16 0.446775 0.139049 0.005450
O O17 0.250000 0.043980 0.989532
O O18 0.500000 0.000000 0.984145
O O19 0.250000 0.543289 0.714570
O O20 0.066765 0.626912 0.602476
O O21 0.000000 0.500000 0.687530
O O22 0.750000 0.317696 0.439403
#
# Coordination Sequence:
#
# PCOD8168277 Si02
#       8
#     4   4   4   4   4   4   4   4
#     4  10  20  32  48  70  93 118 153 192 233 286
#     4   9  17  29  46  70  99 129 162 200 239 282
#     4   8  14  24  38  61  94 128 160 192 230 278
#     4  10  20  34  50  71  97 125 159 198 241 288
#     4   9  17  29  46  70  99 129 162 200 239 282
#     4   8  14  24  38  61  94 128 160 192 230 278
#     4  10  22  38  54  72  97 126 159 202 245 290
#     4  10  20  34  50  71  97 125 159 198 241 288
#
# _framework density 17.108169
#
# number of rings (size 3 to 8) (size 9 to 14) (size 15 to 20)
#    0.000    2.750    1.250    2.250    0.000    3.000 
#    0.000    2.500    0.000    0.000    0.000    0.875 
#    0.000    0.000    0.000    0.000    0.000    0.000 
#
# Total GULP energy -396768.534721 kJ/mol
# GULP energy per Si atom -12399.016710 kJ/mol
# Density = 1.706923 g / cm^3
# Si number density = 17.108169 Si / 1000 Ang^3
#
#
#
# Elastic Constant Matrix: (Units=GPa)
#
#
# Indices 1 2 3 4 5 6 
#
# 1 89.5583 79.8147 19.2141 0.0000 0.0000 0.0000
# 2 79.8147 117.4008 13.4860 0.0000 0.0000 0.0000
# 3 19.2141 13.4860 40.2576 0.0000 0.0000 0.0000
# 4 0.0000 0.0000 0.0000 17.2438 0.0000 0.0000
# 5 0.0000 0.0000 0.0000 0.0000 16.1567 0.0000
# 6 0.0000 0.0000 0.0000 0.0000 0.0000 42.2073
#
#
#
# Elastic Compliance Matrix: (Units=1/GPa)
#
#
# Indices 1 2 3 4 5 6 
#
# 1 0.030591 -0.019885 -0.007939 0.000000 0.000000 0.000000
# 2 -0.019885 0.021785 0.002193 0.000000 0.000000 0.000000
# 3 -0.007939 0.002193 0.027895 0.000000 0.000000 0.000000
# 4 0.000000 0.000000 0.000000 0.057992 0.000000 0.000000
# 5 0.000000 0.000000 0.000000 0.000000 0.061894 0.000000
# 6 0.000000 0.000000 0.000000 0.000000 0.000000 0.023693
#
#
# Mechanical properties :
#
#
# Convention : Reuss Voigt Hill
#
# Bulk Modulus (GPa) = 34.47335 52.47181 43.47258
# Shear Modulus (GPa) = 17.55740 24.10169 20.82954
#
# Velocity S-wave (km/s) = 3.20700 3.75745 3.49308
# Velocity P-wave (km/s) = 5.82298 7.04001 6.46022
#
# Compressibility (1/GPa) = 0.02900791
#
# Stress axis : x y z
#
# Youngs Moduli (GPa) = 32.68937 45.90345 35.84930
#
# Poissons Ratio (x) = 0.91280 0.28461
# Poissons Ratio (y) = 0.65004 -0.07862
# Poissons Ratio (z) = 0.25952 -0.10067
#
# Static dielectric constant tensor:
#      x y z
#    x 3.343060 0.000000 0.000000 
#    y 0.000000 3.196520 0.000000 
#    z 0.000000 0.000000 2.857670 
# 
# 
# High freq. dielectric constant tensor:
#      x y z
#    x 1.663030 0.000000 0.000000 
#    y 0.000000 1.663250 0.000000 
#    z 0.000000 0.000000 1.619410 
# 
# From -- ./inp_files/5161.got.cif
#   From: 2010.03.12/outbox.cif.g09.slc.cpg/sg28_3_cif.got.tgz:5161.got - 2010.04.14 03:39:34.
