data_PCOD8168225
_publ_section_title
;
Structure prediction by ZEFSAII (Michael W. Deem and Ramdas Pophale) SiO2 
 PCOD8168225
Probable space group: P M A 2
;
_chemical_formula_sum "Si O2"
_cell_formula_units_Z 24
_cell_length_a 8.597169
_cell_length_b 26.711511
_cell_length_c 5.143577
_cell_angle_alpha 90.000000
_cell_angle_beta 90.000000
_cell_angle_gamma 90.000000
_cell_volume 1181.188378
_symmetry_space_group_name_H-M "P M A 2"
_symmetry_group_IT_number 28
_symmetry_cell_setting 'orthorhombic'
loop_
_space_group_symop_operation_xyz
x,y,z
-x,-y,z
1/2-x,y,z
1/2+x,-y,z
loop_
_atom_site_type_symbol
_atom_site_label
_atom_site_fract_x
_atom_site_fract_y
_atom_site_fract_z
Si Si1 0.567742 0.223530 0.072390
Si Si2 0.567771 0.945420 0.562466
Si Si3 0.565280 0.613609 0.517392
Si Si4 0.065933 0.273326 0.572551
Si Si5 0.565204 0.555152 0.016058
Si Si6 0.566085 0.884566 0.065562
O O1 0.750000 0.232128 0.039109
O O2 0.515545 0.237833 0.362549
O O3 0.526930 0.166143 0.021450
O O4 0.477801 0.257330 0.863450
O O5 0.750000 0.950824 0.540223
O O6 0.508244 0.909377 0.332844
O O7 0.500000 0.000000 0.527859
O O8 0.517069 0.922091 0.836006
O O9 0.750000 0.613915 0.527509
O O10 0.504277 0.670312 0.530334
O O11 0.502734 0.587896 0.256358
O O12 0.499426 0.581610 0.758133
O O13 0.250000 0.269086 0.536045
O O14 0.500000 0.500000 0.039293
O O15 0.750000 0.552649 0.015951
O O16 0.750000 0.873134 0.063733
#
# Coordination Sequence:
#
# PCOD8168225 Si02
#       6
#     4   4   4   4   4   4
#     4  12  25  40  60  92 126 154 191 252 310 348
#     4  10  21  36  57  83 112 146 191 240 286 337
#     4   9  19  35  57  80 106 144 193 236 274 336
#     4  11  22  41  66  87 113 160 207 242 289 359
#     4  10  19  34  54  80 110 142 183 232 282 338
#     4  10  21  38  58  82 112 154 199 234 276 350
#
# _framework density 20.318522000000002
#
# number of rings (size 3 to 8) (size 9 to 14) (size 15 to 20)
#    0.000    1.667    0.000    5.000    0.000    5.333 
#    0.000    5.000    0.000    0.000    0.000    0.000 
#    0.000    0.000    0.000    0.000    0.000    0.000 
#
# Total GULP energy -297718.325072 kJ/mol
# GULP energy per Si atom -12404.930211 kJ/mol
# Density = 2.027228 g / cm^3
# Si number density = 20.318522 Si / 1000 Ang^3
#
#
#
# Elastic Constant Matrix: (Units=GPa)
#
#
# Indices 1 2 3 4 5 6 
#
# 1 42.1928 34.5816 20.1539 0.0000 0.0000 0.0000
# 2 34.5816 111.3135 17.0024 0.0000 0.0000 0.0000
# 3 20.1539 17.0024 109.2697 0.0000 0.0000 0.0000
# 4 0.0000 0.0000 0.0000 43.0358 0.0000 0.0000
# 5 0.0000 0.0000 0.0000 0.0000 22.0727 0.0000
# 6 0.0000 0.0000 0.0000 0.0000 0.0000 31.7302
#
#
#
# Elastic Compliance Matrix: (Units=1/GPa)
#
#
# Indices 1 2 3 4 5 6 
#
# 1 0.034041 -0.009851 -0.004746 0.000000 0.000000 0.000000
# 2 -0.009851 0.012053 -0.000059 0.000000 0.000000 0.000000
# 3 -0.004746 -0.000059 0.010036 0.000000 0.000000 0.000000
# 4 0.000000 0.000000 0.000000 0.023236 0.000000 0.000000
# 5 0.000000 0.000000 0.000000 0.000000 0.045305 0.000000
# 6 0.000000 0.000000 0.000000 0.000000 0.000000 0.031516
#
#
# Mechanical properties :
#
#
# Convention : Reuss Voigt Hill
#
# Bulk Modulus (GPa) = 37.28543 45.13910 41.21226
# Shear Modulus (GPa) = 25.71518 32.10362 28.90940
#
# Velocity S-wave (km/s) = 3.56139 3.97926 3.77611
# Velocity P-wave (km/s) = 5.94152 6.58609 6.27209
#
# Compressibility (1/GPa) = 0.02682013
#
# Stress axis : x y z
#
# Youngs Moduli (GPa) = 29.37603 82.96766 99.64018
#
# Poissons Ratio (x) = 0.81729 0.47288
# Poissons Ratio (y) = 0.28937 0.00584
# Poissons Ratio (z) = 0.13941 0.00486
#
# Static dielectric constant tensor:
#      x y z
#    x 3.412170 0.000000 0.000000 
#    y 0.000000 3.718680 0.000000 
#    z 0.000000 0.000000 4.063660 
# 
# 
# High freq. dielectric constant tensor:
#      x y z
#    x 1.767690 0.000000 0.000000 
#    y 0.000000 1.810310 0.000000 
#    z 0.000000 0.000000 1.814350 
# 
# From -- ./inp_files/224.got.cif
#   From: 2010.03.12/outbox.cif.g09.slc.cpg/sg28_1_cif.got.tgz:224.got - 2010.04.14 03:39:34.
