data_PCOD8168645
_publ_section_title
;
Structure prediction by ZEFSAII (Michael W. Deem and Ramdas Pophale) SiO2 
 PCOD8168645
Probable space group: P C A 21
;
_chemical_formula_sum "Si O2"
_cell_formula_units_Z 32
_cell_length_a 19.233269
_cell_length_b 9.003340
_cell_length_c 9.550408
_cell_angle_alpha 90.000000
_cell_angle_beta 90.000000
_cell_angle_gamma 90.000000
_cell_volume 1653.783605
_symmetry_space_group_name_H-M "P C A 21"
_symmetry_group_IT_number 29
_symmetry_cell_setting 'orthorhombic'
loop_
_space_group_symop_operation_xyz
x,y,z
-x,-y,1/2+z
1/2-x,y,1/2+z
1/2+x,-y,z
loop_
_atom_site_type_symbol
_atom_site_label
_atom_site_fract_x
_atom_site_fract_y
_atom_site_fract_z
Si Si1 0.845734 0.119934 0.233790
Si Si2 0.474670 0.631218 0.666749
Si Si3 0.156092 0.729264 0.015138
Si Si4 0.069837 0.116323 0.340631
Si Si5 0.572712 0.547640 0.426147
Si Si6 0.691129 0.082670 0.259891
Si Si7 0.689855 0.329617 0.481163
Si Si8 0.025044 0.043955 0.640498
O O1 0.871874 0.216839 0.365167
O O2 0.772284 0.039710 0.265711
O O3 0.898143 0.986816 0.199626
O O4 0.841867 0.235252 0.107172
O O5 0.401442 0.624218 0.584474
O O6 0.531233 0.548428 0.571754
O O7 0.468967 0.552834 0.816089
O O8 0.497324 0.799829 0.698242
O O9 0.167596 0.882343 0.101682
O O10 0.228347 0.637304 0.005317
O O11 0.080645 0.290167 0.360460
O O12 0.027661 0.045049 0.471453
O O13 0.147003 0.048482 0.328989
O O14 0.026735 0.083547 0.198544
O O15 0.649037 0.483745 0.461665
O O16 0.679042 0.237392 0.339777
#
# Coordination Sequence:
#
# PCOD8168645 Si02
#       8
#     4   4   4   4   4   4   4   4
#     4  10  21  34  67  94 112 155 212 252 304 358
#     4  11  24  42  60  88 128 159 210 246 313 371
#     4  10  20  39  64  91 114 161 214 244 292 380
#     4  11  23  39  62  88 124 154 206 258 310 364
#     4  11  25  40  58  91 124 165 198 254 310 373
#     4  10  19  40  63  87 119 156 206 259 298 364
#     4  10  20  39  67  83 121 165 206 248 306 364
#     4  11  22  39  63  90 118 161 202 259 307 362
#
# _framework density 19.349568000000001
#
# number of rings (size 3 to 8) (size 9 to 14) (size 15 to 20)
#    0.000    1.500    3.750    1.500    3.500    0.000 
#    0.000    3.750    0.000    0.000    0.000    0.000 
#    0.000    0.000    0.000    0.000    0.000    0.000 
#
# Total GULP energy -396859.530439 kJ/mol
# GULP energy per Si atom -12401.860326 kJ/mol
# Density = 1.930553 g / cm^3
# Si number density = 19.349568 Si / 1000 Ang^3
#
#
#
# Elastic Constant Matrix: (Units=GPa)
#
#
# Indices 1 2 3 4 5 6 
#
# 1 100.8793 59.1192 28.8977 0.0000 0.0000 0.0000
# 2 59.1192 91.9639 35.6731 0.0000 0.0000 0.0000
# 3 28.8977 35.6731 74.9593 0.0000 0.0000 0.0000
# 4 0.0000 0.0000 0.0000 30.3346 0.0000 0.0000
# 5 0.0000 0.0000 0.0000 0.0000 33.8607 0.0000
# 6 0.0000 0.0000 0.0000 0.0000 0.0000 32.9999
#
#
#
# Elastic Compliance Matrix: (Units=1/GPa)
#
#
# Indices 1 2 3 4 5 6 
#
# 1 0.016053 -0.009712 -0.001567 0.000000 0.000000 0.000000
# 2 -0.009712 0.019211 -0.005399 0.000000 0.000000 0.000000
# 3 -0.001567 -0.005399 0.016514 0.000000 0.000000 0.000000
# 4 0.000000 0.000000 0.000000 0.032966 0.000000 0.000000
# 5 0.000000 0.000000 0.000000 0.000000 0.029533 0.000000
# 6 0.000000 0.000000 0.000000 0.000000 0.000000 0.030303
#
#
# Mechanical properties :
#
#
# Convention : Reuss Voigt Hill
#
# Bulk Modulus (GPa) = 54.27825 57.24250 55.76037
# Shear Modulus (GPa) = 27.16265 29.04654 28.10460
#
# Velocity S-wave (km/s) = 3.75078 3.87867 3.81526
# Velocity P-wave (km/s) = 6.84617 7.05027 6.94897
#
# Compressibility (1/GPa) = 0.01842359
#
# Stress axis : x y z
#
# Youngs Moduli (GPa) = 62.29224 52.05226 60.55562
#
# Poissons Ratio (x) = 0.50554 0.09488
# Poissons Ratio (y) = 0.60499 0.32691
# Poissons Ratio (z) = 0.09760 0.28101
#
# Static dielectric constant tensor:
#      x y z
#    x 3.725910 0.000000 0.000000 
#    y 0.000000 3.217220 0.000000 
#    z 0.000000 0.000000 3.736990 
# 
# 
# High freq. dielectric constant tensor:
#      x y z
#    x 1.765990 0.000000 0.000000 
#    y 0.000000 1.717390 0.000000 
#    z 0.000000 0.000000 1.770900 
# 
# From -- ./inp_files/2306.got.cif
#   From: 2010.03.12/outbox.cif.g09.slc.cpg/sg29_2_cif.got.tgz:2306.got - 2010.04.14 03:43:10.
