data_PCOD8168809
_publ_section_title
;
Structure prediction by ZEFSAII (Michael W. Deem and Ramdas Pophale) SiO2 
 PCOD8168809
Probable space group: P C A 21
;
_chemical_formula_sum "Si O2"
_cell_formula_units_Z 32
_cell_length_a 5.444665
_cell_length_b 17.341901
_cell_length_c 14.370684
_cell_angle_alpha 90.000000
_cell_angle_beta 90.000000
_cell_angle_gamma 90.000000
_cell_volume 1356.892075
_symmetry_space_group_name_H-M "P C A 21"
_symmetry_group_IT_number 29
_symmetry_cell_setting 'orthorhombic'
loop_
_space_group_symop_operation_xyz
x,y,z
-x,-y,1/2+z
1/2-x,y,1/2+z
1/2+x,-y,z
loop_
_atom_site_type_symbol
_atom_site_label
_atom_site_fract_x
_atom_site_fract_y
_atom_site_fract_z
Si Si1 0.874549 0.035164 0.007610
Si Si2 0.375157 0.668576 0.272622
Si Si3 0.888551 0.184937 0.512787
Si Si4 0.374555 0.964836 0.223468
Si Si5 0.250006 0.223518 0.365545
Si Si6 0.611460 0.184936 0.218299
Si Si7 0.930077 0.452049 0.115544
Si Si8 0.124853 0.668575 0.458465
O O1 0.842330 0.127756 0.993695
O O2 0.885418 0.011908 0.115538
O O3 0.631039 0.993961 0.962251
O O4 0.607492 0.720328 0.296033
O O5 0.186251 0.725537 0.220649
O O6 0.455073 0.598771 0.207801
O O7 0.249995 0.634041 0.365540
O O8 0.999971 0.166950 0.615543
O O9 0.813775 0.274466 0.510434
O O10 0.083524 0.168905 0.430849
O O11 0.342338 0.872246 0.237387
O O12 0.631044 0.993961 0.268826
O O13 0.416494 0.168907 0.300241
O O14 0.392508 0.279673 0.435060
O O15 0.661907 0.491027 0.115544
O O16 0.955061 0.401232 0.023284
#
# Coordination Sequence:
#
# PCOD8168809 Si02
#       8
#     4   4   4   4   4   4   4   4
#     4   9  19  35  57  94 137 177 230 286 345 396
#     4  10  24  45  70 101 139 180 231 279 339 406
#     4  10  21  39  69  96 132 187 236 285 337 407
#     4   9  19  35  57  94 137 177 230 286 345 396
#     4  10  24  40  68  98 136 174 246 278 340 402
#     4  10  21  39  69  96 132 187 236 285 337 407
#     4  12  30  48  76 110 142 176 226 272 344 422
#     4  10  24  45  70 101 139 180 231 279 339 406
#
# _framework density 23.583303999999998
#
# number of rings (size 3 to 8) (size 9 to 14) (size 15 to 20)
#    0.000    2.000    1.250    0.000   12.250    1.000 
#    0.000    1.250    0.000    0.000    0.000    0.000 
#    0.000    0.000    0.000    0.000    0.000    0.000 
#
# Total GULP energy -396667.862164 kJ/mol
# GULP energy per Si atom -12395.870693 kJ/mol
# Density = 2.352963 g / cm^3
# Si number density = 23.583304 Si / 1000 Ang^3
#
#
#
# Elastic Constant Matrix: (Units=GPa)
#
#
# Indices 1 2 3 4 5 6 
#
# 1 106.5491 16.9904 19.6712 0.0000 0.0000 0.0000
# 2 16.9904 85.1310 35.6924 0.0000 0.0000 0.0000
# 3 19.6712 35.6924 97.5338 0.0000 0.0000 0.0000
# 4 0.0000 0.0000 0.0000 -13.1364 0.0000 0.0000
# 5 0.0000 0.0000 0.0000 0.0000 12.2776 0.0000
# 6 0.0000 0.0000 0.0000 0.0000 0.0000 33.3462
#
#
#
# Elastic Compliance Matrix: (Units=1/GPa)
#
#
# Indices 1 2 3 4 5 6 
#
# 1 0.009876 -0.001342 -0.001501 0.000000 0.000000 0.000000
# 2 -0.001342 0.014058 -0.004874 0.000000 0.000000 0.000000
# 3 -0.001501 -0.004874 0.012339 0.000000 0.000000 0.000000
# 4 0.000000 0.000000 0.000000 -0.076125 0.000000 0.000000
# 5 0.000000 0.000000 0.000000 0.000000 0.081449 0.000000
# 6 0.000000 0.000000 0.000000 0.000000 0.000000 0.029988
#
#
# Mechanical properties :
#
#
# Convention : Reuss Voigt Hill
#
# Bulk Modulus (GPa) = 47.98407 48.21356 48.09881
# Shear Modulus (GPa) = 53.21072 20.95481 37.08277
#
# Velocity S-wave (km/s) = 4.75519 2.98408 3.96967
# Velocity P-wave (km/s) = 7.10915 5.68870 6.43822
#
# Compressibility (1/GPa) = 0.02084025
#
# Stress axis : x y z
#
# Youngs Moduli (GPa) = 101.25128 71.13471 81.04297
#
# Poissons Ratio (x) = 0.09545 0.12164
# Poissons Ratio (y) = 0.13587 0.39499
# Poissons Ratio (z) = 0.15197 0.34670
#
# Static dielectric constant tensor:
#      x y z
#    x 4.391360 0.000000 0.000000 
#    y 0.000000 3.993430 0.000000 
#    z 0.000000 0.000000 4.222150 
# 
# 
# High freq. dielectric constant tensor:
#      x y z
#    x 1.933600 0.000000 0.000000 
#    y 0.000000 1.920570 0.000000 
#    z 0.000000 0.000000 1.937530 
# 
# From -- ./inp_files/4112.got.cif
#   From: 2010.03.12/outbox.cif.g09.slc.cpg/sg29_3_cif.got.tgz:4112.got - 2010.04.14 03:43:10.
