data_PCOD8168780
_publ_section_title
;
Structure prediction by ZEFSAII (Michael W. Deem and Ramdas Pophale) SiO2 
 PCOD8168780
Probable space group: P C A 21
;
_chemical_formula_sum "Si O2"
_cell_formula_units_Z 32
_cell_length_a 8.846243
_cell_length_b 16.032431
_cell_length_c 10.752557
_cell_angle_alpha 90.000000
_cell_angle_beta 90.000000
_cell_angle_gamma 90.000000
_cell_volume 1525.000542
_symmetry_space_group_name_H-M "P C A 21"
_symmetry_group_IT_number 29
_symmetry_cell_setting 'orthorhombic'
loop_
_space_group_symop_operation_xyz
x,y,z
-x,-y,1/2+z
1/2-x,y,1/2+z
1/2+x,-y,z
loop_
_atom_site_type_symbol
_atom_site_label
_atom_site_fract_x
_atom_site_fract_y
_atom_site_fract_z
Si Si1 0.959257 0.888134 0.166290
Si Si2 0.067653 0.375819 0.170465
Si Si3 0.896604 0.702336 0.190243
Si Si4 0.179237 0.619736 0.848660
Si Si5 0.443949 0.716947 0.942526
Si Si6 0.367747 0.563216 0.618764
Si Si7 0.528929 0.103534 0.444070
Si Si8 0.281268 0.999657 0.558797
O O1 0.915524 0.793803 0.123414
O O2 0.023834 0.877661 0.301070
O O3 0.102925 0.926898 0.094911
O O4 0.816680 0.952527 0.165281
O O5 0.228798 0.331144 0.167631
O O6 0.064751 0.474480 0.152340
O O7 0.989560 0.353965 0.304437
O O8 0.967858 0.345840 0.054704
O O9 0.924734 0.707929 0.338647
O O10 0.010144 0.637275 0.127048
O O11 0.282180 0.700173 0.877253
O O12 0.239345 0.573851 0.723779
O O13 0.184147 0.562104 0.973190
O O14 0.437520 0.807683 0.007554
O O15 0.661146 0.038064 0.464477
O O16 0.367655 0.072875 0.489812
#
# Coordination Sequence:
#
# PCOD8168780 Si02
#       8
#     4   4   4   4   4   4   4   4
#     4  10  21  41  62  95 130 164 213 265 325 390
#     4  12  25  42  68  93 131 175 225 273 332 385
#     4  10  25  42  64  97 133 169 219 281 327 392
#     4  11  25  45  66  95 128 178 220 276 327 398
#     4  10  24  43  62  94 132 170 222 271 327 398
#     4  11  26  43  69  96 135 175 230 270 337 386
#     4  10  21  39  63  92 129 164 211 266 320 392
#     4  10  21  37  66  92 126 167 210 256 333 391
#
# _framework density 20.983599000000002
#
# number of rings (size 3 to 8) (size 9 to 14) (size 15 to 20)
#    0.000    1.500    1.250    2.250    8.750    1.000 
#    0.000    1.250    0.000    0.000    0.000    0.000 
#    0.000    0.000    0.000    0.000    0.000    0.000 
#
# Total GULP energy -396542.609581 kJ/mol
# GULP energy per Si atom -12391.956549 kJ/mol
# Density = 2.093584 g / cm^3
# Si number density = 20.983599 Si / 1000 Ang^3
#
#
#
# Elastic Constant Matrix: (Units=GPa)
#
#
# Indices 1 2 3 4 5 6 
#
# 1 115.8945 56.5148 35.4383 0.0000 0.0000 0.0000
# 2 56.5148 157.5234 32.2589 0.0000 0.0000 0.0000
# 3 35.4383 32.2589 99.1057 0.0000 0.0000 0.0000
# 4 0.0000 0.0000 0.0000 25.1691 0.0000 0.0000
# 5 0.0000 0.0000 0.0000 0.0000 28.3155 0.0000
# 6 0.0000 0.0000 0.0000 0.0000 0.0000 32.5782
#
#
#
# Elastic Compliance Matrix: (Units=1/GPa)
#
#
# Indices 1 2 3 4 5 6 
#
# 1 0.011178 -0.003420 -0.002884 0.000000 0.000000 0.000000
# 2 -0.003420 0.007848 -0.001332 0.000000 0.000000 0.000000
# 3 -0.002884 -0.001332 0.011555 0.000000 0.000000 0.000000
# 4 0.000000 0.000000 0.000000 0.039731 0.000000 0.000000
# 5 0.000000 0.000000 0.000000 0.000000 0.035316 0.000000
# 6 0.000000 0.000000 0.000000 0.000000 0.000000 0.030695
#
#
# Mechanical properties :
#
#
# Convention : Reuss Voigt Hill
#
# Bulk Modulus (GPa) = 65.31604 68.99419 67.15511
# Shear Modulus (GPa) = 31.90856 33.76666 32.83761
#
# Velocity S-wave (km/s) = 3.90377 4.01583 3.96020
# Velocity P-wave (km/s) = 7.17733 7.37929 7.27901
#
# Compressibility (1/GPa) = 0.01531018
#
# Stress axis : x y z
#
# Youngs Moduli (GPa) = 89.46161 127.42305 86.54325
#
# Poissons Ratio (x) = 0.43575 0.24958
# Poissons Ratio (y) = 0.30594 0.11525
# Poissons Ratio (z) = 0.25800 0.16968
#
# Static dielectric constant tensor:
#      x y z
#    x 3.945630 0.000000 0.000000 
#    y 0.000000 4.330890 0.000000 
#    z 0.000000 0.000000 3.757390 
# 
# 
# High freq. dielectric constant tensor:
#      x y z
#    x 1.832210 0.000000 0.000000 
#    y 0.000000 1.829450 0.000000 
#    z 0.000000 0.000000 1.814980 
# 
# From -- ./inp_files/2947.got.cif
#   From: 2010.03.12/outbox.cif.g09.slc.cpg/sg29_2_cif.got.tgz:2947.got - 2010.04.14 03:43:10.
