data_PCOD8168063
_publ_section_title
;
Structure prediction by ZEFSAII (Michael W. Deem and Ramdas Pophale) SiO2 
 PCOD8168063
Probable space group: P M A 2
;
_chemical_formula_sum "Si O2"
_cell_formula_units_Z 20
_cell_length_a 10.029917
_cell_length_b 9.343484
_cell_length_c 11.489170
_cell_angle_alpha 90.000000
_cell_angle_beta 90.000000
_cell_angle_gamma 90.000000
_cell_volume 1076.700317
_symmetry_space_group_name_H-M "P M A 2"
_symmetry_group_IT_number 28
_symmetry_cell_setting 'orthorhombic'
loop_
_space_group_symop_operation_xyz
x,y,z
-x,-y,z
1/2-x,y,z
1/2+x,-y,z
loop_
_atom_site_type_symbol
_atom_site_label
_atom_site_fract_x
_atom_site_fract_y
_atom_site_fract_z
Si Si1 0.412829 0.856792 0.168180
Si Si2 0.250000 0.661571 0.797241
Si Si3 0.750000 0.669478 0.801391
Si Si4 0.250000 0.839518 0.569660
Si Si5 0.491468 0.830457 0.419062
Si Si6 0.750000 0.820044 0.552249
Si Si7 0.996096 0.334981 0.955046
O O1 0.250000 0.882005 0.161922
O O2 0.453522 0.779033 0.289208
O O3 0.500000 0.000000 0.155213
O O4 0.470448 0.754053 0.070346
O O5 0.250000 0.495555 0.760716
O O6 0.250000 0.774139 0.695360
O O7 0.122050 0.700416 0.869696
O O8 0.750000 0.755498 0.681230
O O9 0.626736 0.710494 0.883740
O O10 0.377734 0.777101 0.504996
O O11 0.250000 0.010671 0.572586
O O12 0.626815 0.766852 0.473081
O O13 0.500000 0.000000 0.415332
O O14 0.000000 0.500000 0.992694
#
# Coordination Sequence:
#
# PCOD8168063 Si02
#       7
#     4   2   2   2   4   2   4
#     4  11  23  39  62  90 118 151 196 246 291 347
#     4  10  20  37  58  80 114 157 193 240 295 340
#     4  10  22  37  56  86 116 151 197 238 287 348
#     4  10  18  33  56  80 108 151 187 230 287 346
#     4   9  19  34  56  82 114 146 186 232 293 341
#     4  10  20  35  56  84 114 147 189 238 283 348
#     4  10  22  40  60  82 118 160 195 238 295 348
#
# _framework density 18.57527
#
# number of rings (size 3 to 8) (size 9 to 14) (size 15 to 20)
#    0.000    2.000    2.000    1.200    5.600    1.600 
#    0.000    2.000    0.000    0.000    0.000    0.000 
#    0.000    0.000    0.000    0.000    0.000    0.000 
#
# Total GULP energy -247845.756112 kJ/mol
# GULP energy per Si atom -12392.287806 kJ/mol
# Density = 1.853299 g / cm^3
# Si number density = 18.575270 Si / 1000 Ang^3
#
#
#
# Elastic Constant Matrix: (Units=GPa)
#
#
# Indices 1 2 3 4 5 6 
#
# 1 181.0694 38.1055 84.9371 0.0000 0.0000 0.0000
# 2 38.1055 46.5616 60.4528 0.0000 0.0000 0.0000
# 3 84.9371 60.4528 166.4659 0.0000 0.0000 0.0000
# 4 0.0000 0.0000 0.0000 -41.8694 0.0000 0.0000
# 5 0.0000 0.0000 0.0000 0.0000 50.5797 0.0000
# 6 0.0000 0.0000 0.0000 0.0000 0.0000 19.7594
#
#
#
# Elastic Compliance Matrix: (Units=1/GPa)
#
#
# Indices 1 2 3 4 5 6 
#
# 1 0.007375 -0.002176 -0.002973 0.000000 0.000000 0.000000
# 2 -0.002176 0.041279 -0.013881 0.000000 0.000000 0.000000
# 3 -0.002973 -0.013881 0.012565 0.000000 0.000000 0.000000
# 4 0.000000 0.000000 0.000000 -0.023884 0.000000 0.000000
# 5 0.000000 0.000000 0.000000 0.000000 0.019771 0.000000
# 6 0.000000 0.000000 0.000000 0.000000 0.000000 0.050609
#
#
# Mechanical properties :
#
#
# Convention : Reuss Voigt Hill
#
# Bulk Modulus (GPa) = 43.17655 84.56529 63.87092
# Shear Modulus (GPa) = 32.57447 19.73403 26.15425
#
# Velocity S-wave (km/s) = 4.19220 3.26296 3.75642
# Velocity P-wave (km/s) = 6.83574 7.73437 7.29889
#
# Compressibility (1/GPa) = 0.02316072
#
# Stress axis : x y z
#
# Youngs Moduli (GPa) = 135.58927 24.22517 79.58675
#
# Poissons Ratio (x) = 0.05271 0.23660
# Poissons Ratio (y) = 0.29503 1.10471
# Poissons Ratio (z) = 0.40309 0.33626
#
# Static dielectric constant tensor:
#      x y z
#    x 3.894190 0.000000 0.000000 
#    y 0.000000 3.135830 0.000000 
#    z 0.000000 0.000000 3.596610 
# 
# 
# High freq. dielectric constant tensor:
#      x y z
#    x 1.747200 0.000000 0.000000 
#    y 0.000000 1.687300 0.000000 
#    z 0.000000 0.000000 1.737830 
# 
# From -- ./inp_files/2307.got.cif
#   From: 2010.03.12/outbox.cif.g09.slc.cpg/sg28_2_cif.got.tgz:2307.got - 2010.04.14 03:39:34.
