data_PCOD8168922
_publ_section_title
;
Structure prediction by ZEFSAII (Michael W. Deem and Ramdas Pophale) SiO2 
 PCOD8168922
Probable space group: P C A 21
;
_chemical_formula_sum "Si O2"
_cell_formula_units_Z 20
_cell_length_a 12.590910
_cell_length_b 4.919081
_cell_length_c 13.523812
_cell_angle_alpha 90.000000
_cell_angle_beta 90.000000
_cell_angle_gamma 90.000000
_cell_volume 837.606846
_symmetry_space_group_name_H-M "P C A 21"
_symmetry_group_IT_number 29
_symmetry_cell_setting 'orthorhombic'
loop_
_space_group_symop_operation_xyz
x,y,z
-x,-y,1/2+z
1/2-x,y,1/2+z
1/2+x,-y,z
loop_
_atom_site_type_symbol
_atom_site_label
_atom_site_fract_x
_atom_site_fract_y
_atom_site_fract_z
Si Si1 0.204748 0.310411 0.397900
Si Si2 0.891639 0.713493 0.266608
Si Si3 0.496989 0.993659 0.945985
Si Si4 0.611244 0.209197 0.636546
Si Si5 0.286558 0.816709 0.503782
O O1 0.266477 0.266276 0.294302
O O2 0.225266 0.626449 0.424007
O O3 0.083418 0.208302 0.393859
O O4 0.258681 0.131525 0.483935
O O5 0.925307 0.424911 0.219134
O O6 0.961041 0.784471 0.363002
O O7 0.914254 0.917318 0.178937
O O8 0.586517 0.196441 0.992773
O O9 0.449747 0.794747 0.030896
O O10 0.737553 0.255610 0.611885
#
# Coordination Sequence:
#
# PCOD8168922 Si02
#       5
#     4   4   4   4   4
#     4  10  22  42  65  93 135 180 229 290 349 413
#     4  11  24  43  68 104 143 183 236 292 352 422
#     4  10  24  46  74 104 142 194 238 292 362 430
#     4  11  24  43  68 104 143 183 236 292 352 422
#     4  10  22  42  65  93 135 180 229 290 349 413
#
# _framework density 23.877548000000001
#
# number of rings (size 3 to 8) (size 9 to 14) (size 15 to 20)
#    0.000    1.600    0.000    4.800    0.000   16.000 
#    0.000    8.000    0.000    0.000    0.000    0.000 
#    0.000    0.000    0.000    0.000    0.000    0.000 
#
# Total GULP energy -247764.756828 kJ/mol
# GULP energy per Si atom -12388.237841 kJ/mol
# Density = 2.382320 g / cm^3
# Si number density = 23.877548 Si / 1000 Ang^3
#
#
#
# Elastic Constant Matrix: (Units=GPa)
#
#
# Indices 1 2 3 4 5 6 
#
# 1 144.7995 33.2367 54.0508 0.0000 0.0000 0.0000
# 2 33.2367 78.9524 28.8083 0.0000 0.0000 0.0000
# 3 54.0508 28.8083 123.5074 0.0000 0.0000 0.0000
# 4 0.0000 0.0000 0.0000 46.6196 0.0000 0.0000
# 5 0.0000 0.0000 0.0000 0.0000 46.0095 0.0000
# 6 0.0000 0.0000 0.0000 0.0000 0.0000 28.9116
#
#
#
# Elastic Compliance Matrix: (Units=1/GPa)
#
#
# Indices 1 2 3 4 5 6 
#
# 1 0.008677 -0.002478 -0.003219 0.000000 0.000000 0.000000
# 2 -0.002478 0.014552 -0.002310 0.000000 0.000000 0.000000
# 3 -0.003219 -0.002310 0.010044 0.000000 0.000000 0.000000
# 4 0.000000 0.000000 0.000000 0.021450 0.000000 0.000000
# 5 0.000000 0.000000 0.000000 0.000000 0.021735 0.000000
# 6 0.000000 0.000000 0.000000 0.000000 0.000000 0.034588
#
#
# Mechanical properties :
#
#
# Convention : Reuss Voigt Hill
#
# Bulk Modulus (GPa) = 57.94149 64.38343 61.16246
# Shear Modulus (GPa) = 37.64712 39.71905 38.68309
#
# Velocity S-wave (km/s) = 3.97504 4.08296 4.02936
# Velocity P-wave (km/s) = 6.73697 7.01783 6.87883
#
# Compressibility (1/GPa) = 0.01725879
#
# Stress axis : x y z
#
# Youngs Moduli (GPa) = 115.25359 68.71996 99.55955
#
# Poissons Ratio (x) = 0.17029 0.32050
# Poissons Ratio (y) = 0.28559 0.22996
# Poissons Ratio (z) = 0.37102 0.15873
#
# Static dielectric constant tensor:
#      x y z
#    x 4.675840 0.000000 0.000000 
#    y 0.000000 4.171080 0.000000 
#    z 0.000000 0.000000 4.168110 
# 
# 
# High freq. dielectric constant tensor:
#      x y z
#    x 1.943300 0.000000 0.000000 
#    y 0.000000 1.954570 0.000000 
#    z 0.000000 0.000000 1.934260 
# 
# From -- ./inp_files/3349.got.cif
#   From: 2010.03.12/outbox.cif.g09.slc.cpg/sg29_2_cif.got.tgz:3349.got - 2010.04.14 03:43:10.
