data_PCOD8168737
_publ_section_title
;
Structure prediction by ZEFSAII (Michael W. Deem and Ramdas Pophale) SiO2 
 PCOD8168737
Probable space group: P C A 21
;
_chemical_formula_sum "Si O2"
_cell_formula_units_Z 32
_cell_length_a 9.940497
_cell_length_b 18.285027
_cell_length_c 8.614345
_cell_angle_alpha 90.000000
_cell_angle_beta 90.000000
_cell_angle_gamma 90.000000
_cell_volume 1565.762781
_symmetry_space_group_name_H-M "P C A 21"
_symmetry_group_IT_number 29
_symmetry_cell_setting 'orthorhombic'
loop_
_space_group_symop_operation_xyz
x,y,z
-x,-y,1/2+z
1/2-x,y,1/2+z
1/2+x,-y,z
loop_
_atom_site_type_symbol
_atom_site_label
_atom_site_fract_x
_atom_site_fract_y
_atom_site_fract_z
Si Si1 0.933484 0.713044 0.405080
Si Si2 0.927482 0.547001 0.390888
Si Si3 0.163858 0.283064 0.562342
Si Si4 0.169712 0.078794 0.743863
Si Si5 0.853600 0.551224 0.041107
Si Si6 0.588397 0.860890 0.417365
Si Si7 0.170621 0.908453 0.744409
Si Si8 0.919436 0.144658 0.912570
O O1 0.984606 0.629547 0.405673
O O2 0.863929 0.732858 0.241806
O O3 0.823970 0.725053 0.539903
O O4 0.056765 0.768228 0.435426
O O5 0.878131 0.529473 0.218123
O O6 0.801628 0.533300 0.504482
O O7 0.048419 0.493105 0.429197
O O8 0.116046 0.363426 0.509960
O O9 0.084375 0.225086 0.457193
O O10 0.129552 0.092359 0.567086
O O11 0.196878 0.993723 0.768280
O O12 0.307112 0.122252 0.779381
O O13 0.056624 0.105464 0.863158
O O14 0.440341 0.882659 0.366210
O O15 0.129495 0.891811 0.569931
O O16 0.308346 0.865657 0.779574
#
# Coordination Sequence:
#
# PCOD8168737 Si02
#       8
#     4   4   4   4   4   4   4   4
#     4  10  22  41  67  92 128 165 212 260 308 376
#     4  10  21  41  65 100 127 169 208 256 312 372
#     4  10  20  40  66  94 123 163 210 258 303 371
#     4  12  23  42  67  89 122 163 212 262 311 382
#     4  10  21  39  66  95 133 162 212 254 311 371
#     4  12  23  41  66  94 121 161 216 256 314 375
#     4  12  27  41  60  91 126 166 206 266 323 367
#     4  12  25  45  61  89 130 165 212 256 322 376
#
# _framework density 20.437322999999999
#
# number of rings (size 3 to 8) (size 9 to 14) (size 15 to 20)
#    0.000    1.000    2.500    4.500    1.750    1.000 
#    2.250    0.000    0.000    0.000    0.000    0.000 
#    0.000    0.000    0.000    0.000    0.000    0.000 
#
# Total GULP energy -397005.962861 kJ/mol
# GULP energy per Si atom -12406.436339 kJ/mol
# Density = 2.039081 g / cm^3
# Si number density = 20.437323 Si / 1000 Ang^3
#
#
#
# Elastic Constant Matrix: (Units=GPa)
#
#
# Indices 1 2 3 4 5 6 
#
# 1 76.2494 52.3326 7.3197 0.0000 0.0000 0.0000
# 2 52.3326 114.1217 24.8240 0.0000 0.0000 0.0000
# 3 7.3197 24.8240 60.9182 0.0000 0.0000 0.0000
# 4 0.0000 0.0000 0.0000 31.3685 0.0000 0.0000
# 5 0.0000 0.0000 0.0000 0.0000 34.4260 0.0000
# 6 0.0000 0.0000 0.0000 0.0000 0.0000 36.4437
#
#
#
# Elastic Compliance Matrix: (Units=1/GPa)
#
#
# Indices 1 2 3 4 5 6 
#
# 1 0.019248 -0.009133 0.001409 0.000000 0.000000 0.000000
# 2 -0.009133 0.013948 -0.004587 0.000000 0.000000 0.000000
# 3 0.001409 -0.004587 0.018115 0.000000 0.000000 0.000000
# 4 0.000000 0.000000 0.000000 0.031879 0.000000 0.000000
# 5 0.000000 0.000000 0.000000 0.000000 0.029048 0.000000
# 6 0.000000 0.000000 0.000000 0.000000 0.000000 0.027440
#
#
# Mechanical properties :
#
#
# Convention : Reuss Voigt Hill
#
# Bulk Modulus (GPa) = 37.46688 46.69353 42.08020
# Shear Modulus (GPa) = 28.86906 31.56849 30.21878
#
# Velocity S-wave (km/s) = 3.76249 3.93447 3.84944
# Velocity P-wave (km/s) = 6.10307 6.59824 6.35548
#
# Compressibility (1/GPa) = 0.02669024
#
# Stress axis : x y z
#
# Youngs Moduli (GPa) = 51.95382 71.69321 55.20237
#
# Poissons Ratio (x) = 0.65477 -0.07778
# Poissons Ratio (y) = 0.47449 0.25319
# Poissons Ratio (z) = -0.07320 0.32882
#
# Static dielectric constant tensor:
#      x y z
#    x 3.724700 0.000000 0.000000 
#    y 0.000000 3.903870 0.000000 
#    z 0.000000 0.000000 3.760040 
# 
# 
# High freq. dielectric constant tensor:
#      x y z
#    x 1.787460 0.000000 0.000000 
#    y 0.000000 1.809200 0.000000 
#    z 0.000000 0.000000 1.811630 
# 
# From -- ./inp_files/1282.got.cif
#   From: 2010.03.12/outbox.cif.g09.slc.cpg/sg29_1_cif.got.tgz:1282.got - 2010.04.14 03:43:10.
