data_PCOD8168732
_publ_section_title
;
Structure prediction by ZEFSAII (Michael W. Deem and Ramdas Pophale) SiO2 
 PCOD8168732
Probable space group: P C A 21
;
_chemical_formula_sum "Si O2"
_cell_formula_units_Z 32
_cell_length_a 10.216089
_cell_length_b 9.102658
_cell_length_c 17.278386
_cell_angle_alpha 90.000000
_cell_angle_beta 90.000000
_cell_angle_gamma 90.000000
_cell_volume 1606.778699
_symmetry_space_group_name_H-M "P C A 21"
_symmetry_group_IT_number 29
_symmetry_cell_setting 'orthorhombic'
loop_
_space_group_symop_operation_xyz
x,y,z
-x,-y,1/2+z
1/2-x,y,1/2+z
1/2+x,-y,z
loop_
_atom_site_type_symbol
_atom_site_label
_atom_site_fract_x
_atom_site_fract_y
_atom_site_fract_z
Si Si1 0.235699 0.394282 0.483660
Si Si2 0.210297 0.171444 0.775733
Si Si3 0.270075 0.135688 0.096791
Si Si4 0.365098 0.928249 0.391069
Si Si5 0.328638 0.715042 0.971598
Si Si6 0.447648 0.317006 0.848876
Si Si7 0.001337 0.056272 0.031389
Si Si8 0.536539 0.625533 0.860158
O O1 0.243662 0.299850 0.562266
O O2 0.231661 0.566219 0.508039
O O3 0.107084 0.342934 0.435942
O O4 0.362410 0.365964 0.431478
O O5 0.205660 0.126385 0.687419
O O6 0.331708 0.280424 0.789711
O O7 0.078229 0.262253 0.793073
O O8 0.218714 0.028680 0.831909
O O9 0.396754 0.064197 0.057624
O O10 0.132900 0.051191 0.082526
O O11 0.277197 0.839810 0.452509
O O12 0.451124 0.815835 0.342106
O O13 0.460451 0.031372 0.441482
O O14 0.393707 0.670428 0.890088
O O15 0.431150 0.783845 0.033120
O O16 0.525994 0.462931 0.823267
#
# Coordination Sequence:
#
# PCOD8168732 Si02
#       8
#     4   4   4   4   4   4   4   4
#     4  10  20  40  63  94 121 164 216 277 322 386
#     4  11  26  41  62  93 135 178 206 270 345 402
#     4  12  26  43  63  96 142 174 215 271 346 403
#     4  12  21  39  68  97 124 165 226 273 324 388
#     4  11  21  36  70  96 117 164 227 277 321 377
#     4  10  21  40  64  91 122 162 218 275 315 385
#     4  12  23  42  65  95 127 172 220 273 320 395
#     4  10  20  41  65  90 122 163 226 268 323 386
#
# _framework density 19.915623
#
# number of rings (size 3 to 8) (size 9 to 14) (size 15 to 20)
#    0.000    1.000    6.250    1.500    1.750    0.000 
#    2.250    0.000    0.000    0.000    0.000    0.000 
#    0.000    0.000    0.000    0.000    0.000    0.000 
#
# Total GULP energy -396798.262072 kJ/mol
# GULP energy per Si atom -12399.945690 kJ/mol
# Density = 1.987029 g / cm^3
# Si number density = 19.915623 Si / 1000 Ang^3
#
#
#
# Elastic Constant Matrix: (Units=GPa)
#
#
# Indices 1 2 3 4 5 6 
#
# 1 78.4847 29.0818 20.1349 0.0000 0.0000 0.0000
# 2 29.0818 116.1136 33.7361 0.0000 0.0000 0.0000
# 3 20.1349 33.7361 87.5750 0.0000 0.0000 0.0000
# 4 0.0000 0.0000 0.0000 21.2325 0.0000 0.0000
# 5 0.0000 0.0000 0.0000 0.0000 17.9814 0.0000
# 6 0.0000 0.0000 0.0000 0.0000 0.0000 42.1090
#
#
#
# Elastic Compliance Matrix: (Units=1/GPa)
#
#
# Indices 1 2 3 4 5 6 
#
# 1 0.014400 -0.002978 -0.002164 0.000000 0.000000 0.000000
# 2 -0.002978 0.010314 -0.003288 0.000000 0.000000 0.000000
# 3 -0.002164 -0.003288 0.013183 0.000000 0.000000 0.000000
# 4 0.000000 0.000000 0.000000 0.047098 0.000000 0.000000
# 5 0.000000 0.000000 0.000000 0.000000 0.055613 0.000000
# 6 0.000000 0.000000 0.000000 0.000000 0.000000 0.023748
#
#
# Mechanical properties :
#
#
# Convention : Reuss Voigt Hill
#
# Bulk Modulus (GPa) = 47.53624 49.78654 48.66139
# Shear Modulus (GPa) = 26.56369 29.54594 28.05481
#
# Velocity S-wave (km/s) = 3.65610 3.85587 3.75732
# Velocity P-wave (km/s) = 6.46091 6.69901 6.58104
#
# Compressibility (1/GPa) = 0.02103658
#
# Stress axis : x y z
#
# Youngs Moduli (GPa) = 69.44520 96.96006 75.85541
#
# Poissons Ratio (x) = 0.28874 0.16412
# Poissons Ratio (y) = 0.20681 0.24944
# Poissons Ratio (z) = 0.15025 0.31884
#
# Static dielectric constant tensor:
#      x y z
#    x 3.819250 0.000000 0.000000 
#    y 0.000000 3.878000 0.000000 
#    z 0.000000 0.000000 3.143140 
# 
# 
# High freq. dielectric constant tensor:
#      x y z
#    x 1.790580 0.000000 0.000000 
#    y 0.000000 1.794610 0.000000 
#    z 0.000000 0.000000 1.724140 
# 
# From -- ./inp_files/5142.got.cif
#   From: 2010.03.12/outbox.cif.g09.slc.cpg/sg29_3_cif.got.tgz:5142.got - 2010.04.14 03:43:10.
