data_PCOD8168666
_publ_section_title
;
Structure prediction by ZEFSAII (Michael W. Deem and Ramdas Pophale) SiO2 
 PCOD8168666
Probable space group: P C A 21
;
_chemical_formula_sum "Si O2"
_cell_formula_units_Z 32
_cell_length_a 8.888303
_cell_length_b 10.579842
_cell_length_c 15.345455
_cell_angle_alpha 90.000000
_cell_angle_beta 90.000000
_cell_angle_gamma 90.000000
_cell_volume 1443.038118
_symmetry_space_group_name_H-M "P C A 21"
_symmetry_group_IT_number 29
_symmetry_cell_setting 'orthorhombic'
loop_
_space_group_symop_operation_xyz
x,y,z
-x,-y,1/2+z
1/2-x,y,1/2+z
1/2+x,-y,z
loop_
_atom_site_type_symbol
_atom_site_label
_atom_site_fract_x
_atom_site_fract_y
_atom_site_fract_z
Si Si1 0.250000 0.027274 0.388270
Si Si2 0.029655 0.838540 0.312679
Si Si3 0.536743 0.329572 0.138270
Si Si4 0.969882 0.350889 0.315753
Si Si5 0.029656 0.838540 0.963861
Si Si6 0.749999 0.550364 0.888270
Si Si7 0.369589 0.591940 0.138270
Si Si8 0.530119 0.350888 0.460787
O O1 0.153146 0.950096 0.315605
O O2 0.346853 0.950095 0.460935
O O3 0.361739 0.111312 0.329842
O O4 0.138260 0.111312 0.446699
O O5 0.026772 0.759332 0.223488
O O6 0.085772 0.753197 0.393345
O O7 0.415599 0.443219 0.138270
O O8 0.690542 0.407073 0.138271
O O9 0.526773 0.240668 0.053051
O O10 0.873398 0.477425 0.332093
O O11 0.932677 0.320808 0.216499
O O12 0.914228 0.246803 0.383195
O O13 0.150634 0.366451 0.322212
O O14 0.650633 0.633549 0.954329
O O15 0.873396 0.477424 0.944446
O O16 0.432675 0.679192 0.060041
#
# Coordination Sequence:
#
# PCOD8168666 Si02
#       8
#     4   4   4   4   4   4   4   4
#     4  10  24  46  68  88 122 172 230 280 324 372
#     4  11  24  44  67  94 128 172 222 276 326 375
#     4  12  26  42  68 102 136 172 214 266 332 404
#     4  11  21  38  60  90 131 171 210 262 324 392
#     4  11  24  44  67  94 128 172 222 276 326 375
#     4  10  20  34  58  86 126 172 208 254 324 400
#     4  12  24  38  64 102 138 174 212 256 328 418
#     4  11  21  38  60  90 131 171 210 262 324 392
#
# _framework density 22.175436000000001
#
# number of rings (size 3 to 8) (size 9 to 14) (size 15 to 20)
#    0.000    1.000    0.000    9.000    0.000    3.000 
#    0.000    5.000    0.000    0.000    0.000    0.000 
#    0.000    0.000    0.000    0.000    0.000    0.000 
#
# Total GULP energy -396585.206947 kJ/mol
# GULP energy per Si atom -12393.287717 kJ/mol
# Density = 2.212496 g / cm^3
# Si number density = 22.175436 Si / 1000 Ang^3
#
#
#
# Elastic Constant Matrix: (Units=GPa)
#
#
# Indices 1 2 3 4 5 6 
#
# 1 161.1240 42.5452 41.6132 0.0000 0.0000 0.0000
# 2 42.5452 85.0375 62.0133 0.0000 0.0000 0.0000
# 3 41.6132 62.0133 180.5427 0.0000 0.0000 0.0000
# 4 0.0000 0.0000 0.0000 16.6203 0.0000 0.0000
# 5 0.0000 0.0000 0.0000 0.0000 26.6539 0.0000
# 6 0.0000 0.0000 0.0000 0.0000 0.0000 43.0269
#
#
#
# Elastic Compliance Matrix: (Units=1/GPa)
#
#
# Indices 1 2 3 4 5 6 
#
# 1 0.007194 -0.003189 -0.000563 0.000000 0.000000 0.000000
# 2 -0.003189 0.017103 -0.005140 0.000000 0.000000 0.000000
# 3 -0.000563 -0.005140 0.007434 0.000000 0.000000 0.000000
# 4 0.000000 0.000000 0.000000 0.060167 0.000000 0.000000
# 5 0.000000 0.000000 0.000000 0.000000 0.037518 0.000000
# 6 0.000000 0.000000 0.000000 0.000000 0.000000 0.023241
#
#
# Mechanical properties :
#
#
# Convention : Reuss Voigt Hill
#
# Bulk Modulus (GPa) = 71.69287 79.89416 75.79351
# Shear Modulus (GPa) = 28.55696 35.96240 32.25968
#
# Velocity S-wave (km/s) = 3.59245 4.03143 3.81825
# Velocity P-wave (km/s) = 7.04327 7.60108 7.32748
#
# Compressibility (1/GPa) = 0.01394839
#
# Stress axis : x y z
#
# Youngs Moduli (GPa) = 139.00980 58.46973 134.51822
#
# Poissons Ratio (x) = 0.18644 0.07571
# Poissons Ratio (y) = 0.44326 0.69137
# Poissons Ratio (z) = 0.07824 0.30051
#
# Static dielectric constant tensor:
#      x y z
#    x 4.306580 0.000000 0.000000 
#    y 0.000000 4.027750 0.000000 
#    z 0.000000 0.000000 4.450220 
# 
# 
# High freq. dielectric constant tensor:
#      x y z
#    x 1.902560 0.000000 0.000000 
#    y 0.000000 1.859710 0.000000 
#    z 0.000000 0.000000 1.864130 
# 
# From -- ./inp_files/4272.got.cif
#   From: 2010.03.12/outbox.cif.g09.slc.cpg/sg29_3_cif.got.tgz:4272.got - 2010.04.14 03:43:10.
