data_PCOD8168093
_publ_section_title
;
Structure prediction by ZEFSAII (Michael W. Deem and Ramdas Pophale) SiO2 
 PCOD8168093
Probable space group: P M A 2
;
_chemical_formula_sum "Si O2"
_cell_formula_units_Z 28
_cell_length_a 8.881884
_cell_length_b 15.274784
_cell_length_c 12.565770
_cell_angle_alpha 90.000000
_cell_angle_beta 90.000000
_cell_angle_gamma 90.000000
_cell_volume 1704.783686
_symmetry_space_group_name_H-M "P M A 2"
_symmetry_group_IT_number 28
_symmetry_cell_setting 'orthorhombic'
loop_
_space_group_symop_operation_xyz
x,y,z
-x,-y,z
1/2-x,y,z
1/2+x,-y,z
loop_
_atom_site_type_symbol
_atom_site_label
_atom_site_fract_x
_atom_site_fract_y
_atom_site_fract_z
Si Si1 0.579556 0.087156 0.904690
Si Si2 0.574956 0.593445 0.314155
Si Si3 0.074143 0.260560 0.156166
Si Si4 0.418061 0.914746 0.157936
Si Si5 0.425932 0.406089 0.548396
Si Si6 0.929264 0.403611 0.756749
Si Si7 0.927004 0.733897 0.909245
O O1 0.750000 0.092521 0.860798
O O2 0.487413 0.172611 0.867182
O O3 0.500000 0.000000 0.857961
O O4 0.579457 0.082205 0.031146
O O5 0.500000 0.500000 0.298778
O O6 0.750000 0.577626 0.295073
O O7 0.508958 0.659738 0.226335
O O8 0.547991 0.636445 0.431796
O O9 0.250000 0.249069 0.174491
O O10 0.999242 0.172132 0.199118
O O11 0.036024 0.278174 0.033477
O O12 0.250000 0.914586 0.202822
O O13 0.500000 0.000000 0.205099
O O14 0.500000 0.500000 0.539946
O O15 0.250000 0.413201 0.576533
O O16 0.511416 0.358318 0.646341
O O17 0.750000 0.409990 0.757040
O O18 0.000000 0.500000 0.769880
O O19 0.984369 0.344122 0.853236
O O20 0.750000 0.728033 0.885446
#
# Coordination Sequence:
#
# PCOD8168093 Si02
#       7
#     4   4   4   4   4   4   4
#     4   9  16  27  43  64  89 118 152 188 226 265
#     4   9  18  31  47  67  91 119 150 186 225 265
#     4   9  18  31  45  65  94 124 152 183 221 267
#     4   9  16  26  42  63  87 117 151 187 224 262
#     4   9  16  29  48  67  86 110 146 189 230 267
#     4  11  21  33  48  66  90 119 153 191 229 269
#     4  10  19  31  46  66  94 125 155 186 223 269
#
# _framework density 16.424371000000001
#
# number of rings (size 3 to 8) (size 9 to 14) (size 15 to 20)
#    0.000    2.571    0.000    3.857    0.000    5.714 
#    0.000    1.429    0.000    0.000    0.000    1.000 
#    0.000    2.286    0.000    0.000    0.000    0.000 
#
# Total GULP energy -347054.862284 kJ/mol
# GULP energy per Si atom -12394.816510 kJ/mol
# Density = 1.638699 g / cm^3
# Si number density = 16.424371 Si / 1000 Ang^3
#
#
#
# Elastic Constant Matrix: (Units=GPa)
#
#
# Indices 1 2 3 4 5 6 
#
# 1 111.2431 58.2387 45.3211 0.0000 0.0000 0.0000
# 2 58.2387 119.5149 55.2731 0.0000 0.0000 0.0000
# 3 45.3211 55.2731 66.5028 0.0000 0.0000 0.0000
# 4 0.0000 0.0000 0.0000 1.9381 0.0000 0.0000
# 5 0.0000 0.0000 0.0000 0.0000 23.7689 0.0000
# 6 0.0000 0.0000 0.0000 0.0000 0.0000 30.8152
#
#
#
# Elastic Compliance Matrix: (Units=1/GPa)
#
#
# Indices 1 2 3 4 5 6 
#
# 1 0.013404 -0.003747 -0.006020 0.000000 0.000000 0.000000
# 2 -0.003747 0.014639 -0.009613 0.000000 0.000000 0.000000
# 3 -0.006020 -0.009613 0.027130 0.000000 0.000000 0.000000
# 4 0.000000 0.000000 0.000000 0.515960 0.000000 0.000000
# 5 0.000000 0.000000 0.000000 0.000000 0.042072 0.000000
# 6 0.000000 0.000000 0.000000 0.000000 0.000000 0.032452
#
#
# Mechanical properties :
#
#
# Convention : Reuss Voigt Hill
#
# Bulk Modulus (GPa) = 60.93452 68.32517 64.62984
# Shear Modulus (GPa) = 7.24755 20.53298 13.89027
#
# Velocity S-wave (km/s) = 2.10292 3.53959 2.91127
# Velocity P-wave (km/s) = 6.56330 7.64167 7.12292
#
# Compressibility (1/GPa) = 0.01641106
#
# Stress axis : x y z
#
# Youngs Moduli (GPa) = 74.60589 68.30941 36.86021
#
# Poissons Ratio (x) = 0.25599 0.22189
# Poissons Ratio (y) = 0.27959 0.35435
# Poissons Ratio (z) = 0.44912 0.65668
#
# Static dielectric constant tensor:
#      x y z
#    x 3.111090 0.000000 0.000000 
#    y 0.000000 3.101310 0.000000 
#    z 0.000000 0.000000 3.288150 
# 
# 
# High freq. dielectric constant tensor:
#      x y z
#    x 1.647770 0.000000 0.000000 
#    y 0.000000 1.620020 0.000000 
#    z 0.000000 0.000000 1.599020 
# 
# From -- ./inp_files/6361.got.cif
#   From: 2010.03.12/outbox.cif.g09.slc.cpg/sg28_4_cif.got.tgz:6361.got - 2010.04.14 03:39:34.
