data_PCOD8168543
_publ_section_title
;
Structure prediction by ZEFSAII (Michael W. Deem and Ramdas Pophale) SiO2 
 PCOD8168543
Probable space group: P C A 21
;
_chemical_formula_sum "Si O2"
_cell_formula_units_Z 32
_cell_length_a 16.255342
_cell_length_b 19.961845
_cell_length_c 4.983737
_cell_angle_alpha 90.000000
_cell_angle_beta 90.000000
_cell_angle_gamma 90.000000
_cell_volume 1617.155961
_symmetry_space_group_name_H-M "P C A 21"
_symmetry_group_IT_number 29
_symmetry_cell_setting 'orthorhombic'
loop_
_space_group_symop_operation_xyz
x,y,z
-x,-y,1/2+z
1/2-x,y,1/2+z
1/2+x,-y,z
loop_
_atom_site_type_symbol
_atom_site_label
_atom_site_fract_x
_atom_site_fract_y
_atom_site_fract_z
Si Si1 0.448428 0.510711 0.210530
Si Si2 0.982419 0.349116 0.100017
Si Si3 0.193722 0.904119 0.646230
Si Si4 0.698216 0.747484 0.626086
Si Si5 0.942022 0.199971 0.118911
Si Si6 0.407543 0.372501 0.099951
Si Si7 0.446727 0.012538 0.209341
Si Si8 0.456318 0.162510 0.121547
O O1 0.471234 0.503605 0.523375
O O2 0.420180 0.587414 0.149883
O O3 0.383988 0.451695 0.132274
O O4 0.931865 0.280368 0.135141
O O5 0.058940 0.354576 0.304903
O O6 0.019489 0.351997 0.802771
O O7 0.230440 0.907889 0.349185
O O8 0.145089 0.834229 0.686433
O O9 0.133026 0.966334 0.689314
O O10 0.729403 0.765575 0.330770
O O11 0.675449 0.668973 0.652001
O O12 0.616989 0.788210 0.696649
O O13 0.011997 0.175344 0.322481
O O14 0.968545 0.175519 0.824145
O O15 0.420712 0.087833 0.138159
O O16 0.481512 0.011785 0.510540
#
# Coordination Sequence:
#
# PCOD8168543 Si02
#       8
#     4   4   4   4   4   4   4   4
#     4   8  16  27  49  80 108 135 186 245 284 324
#     4  10  17  32  57  85 106 148 194 247 284 334
#     4  12  26  42  64  94 124 152 194 242 302 358
#     4  12  24  36  54  83 124 161 198 242 302 356
#     4  12  21  39  65  88 119 156 194 248 295 352
#     4  10  18  33  52  78 116 149 195 242 290 340
#     4  12  23  43  68  90 117 159 200 239 290 356
#     4  12  23  40  63  88 114 156 207 243 287 356
#
# _framework density 19.787825000000002
#
# number of rings (size 3 to 8) (size 9 to 14) (size 15 to 20)
#    0.000    1.000    5.000    3.000    0.000    1.000 
#    0.000    0.000    0.000    1.500    0.000    0.000 
#    0.000    0.000    0.000    0.000    0.000    0.000 
#
# Total GULP energy -396801.302453 kJ/mol
# GULP energy per Si atom -12400.040702 kJ/mol
# Density = 1.974279 g / cm^3
# Si number density = 19.787825 Si / 1000 Ang^3
#
#
#
# Elastic Constant Matrix: (Units=GPa)
#
#
# Indices 1 2 3 4 5 6 
#
# 1 64.4467 37.2678 9.3972 0.0000 0.0000 0.0000
# 2 37.2678 156.8030 19.6954 0.0000 0.0000 0.0000
# 3 9.3972 19.6954 76.0004 0.0000 0.0000 0.0000
# 4 0.0000 0.0000 0.0000 27.0178 0.0000 0.0000
# 5 0.0000 0.0000 0.0000 0.0000 32.9620 0.0000
# 6 0.0000 0.0000 0.0000 0.0000 0.0000 26.1872
#
#
#
# Elastic Compliance Matrix: (Units=1/GPa)
#
#
# Indices 1 2 3 4 5 6 
#
# 1 0.018088 -0.004153 -0.001160 0.000000 0.000000 0.000000
# 2 -0.004153 0.007546 -0.001442 0.000000 0.000000 0.000000
# 3 -0.001160 -0.001442 0.013675 0.000000 0.000000 0.000000
# 4 0.000000 0.000000 0.000000 0.037013 0.000000 0.000000
# 5 0.000000 0.000000 0.000000 0.000000 0.030338 0.000000
# 6 0.000000 0.000000 0.000000 0.000000 0.000000 0.038187
#
#
# Mechanical properties :
#
#
# Convention : Reuss Voigt Hill
#
# Bulk Modulus (GPa) = 38.76335 47.77456 43.26896
# Shear Modulus (GPa) = 29.94819 32.62606 31.28712
#
# Velocity S-wave (km/s) = 3.89455 4.06494 3.98066
# Velocity P-wave (km/s) = 6.31311 6.79908 6.56060
#
# Compressibility (1/GPa) = 0.02579756
#
# Stress axis : x y z
#
# Youngs Moduli (GPa) = 55.28664 132.52679 73.12646
#
# Poissons Ratio (x) = 0.55041 0.08484
# Poissons Ratio (y) = 0.22962 0.10544
# Poissons Ratio (z) = 0.06414 0.19109
#
# Static dielectric constant tensor:
#      x y z
#    x 3.139040 0.000000 0.000000 
#    y 0.000000 4.093420 0.000000 
#    z 0.000000 0.000000 3.750120 
# 
# 
# High freq. dielectric constant tensor:
#      x y z
#    x 1.713070 0.000000 0.000000 
#    y 0.000000 1.794050 0.000000 
#    z 0.000000 0.000000 1.795380 
# 
# From -- ./inp_files/112.got.cif
#   From: 2010.03.12/outbox.cif.g09.slc.cpg/sg29_1_cif.got.tgz:112.got - 2010.04.14 03:43:10.
