data_PCOD8168829
_publ_section_title
;
Structure prediction by ZEFSAII (Michael W. Deem and Ramdas Pophale) SiO2 
 PCOD8168829
Probable space group: P C A 21
;
_chemical_formula_sum "Si O2"
_cell_formula_units_Z 24
_cell_length_a 8.288959
_cell_length_b 14.022115
_cell_length_c 7.788986
_cell_angle_alpha 90.000000
_cell_angle_beta 90.000000
_cell_angle_gamma 90.000000
_cell_volume 905.304000
_symmetry_space_group_name_H-M "P C A 21"
_symmetry_group_IT_number 29
_symmetry_cell_setting 'orthorhombic'
loop_
_space_group_symop_operation_xyz
x,y,z
-x,-y,1/2+z
1/2-x,y,1/2+z
1/2+x,-y,z
loop_
_atom_site_type_symbol
_atom_site_label
_atom_site_fract_x
_atom_site_fract_y
_atom_site_fract_z
Si Si1 0.450483 0.602633 0.386660
Si Si2 0.502883 0.910750 0.554120
Si Si3 0.523720 0.397098 0.259459
Si Si4 0.196134 0.281267 0.557449
Si Si5 0.328956 0.908048 0.922106
Si Si6 0.422211 0.712462 0.070623
O O1 0.451109 0.500636 0.296583
O O2 0.372087 0.600631 0.579904
O O3 0.633427 0.642912 0.413615
O O4 0.359556 0.674648 0.255455
O O5 0.623585 0.823355 0.518434
O O6 0.418367 0.902450 0.740496
O O7 0.365323 0.916796 0.406081
O O8 0.609220 0.005229 0.539281
O O9 0.379708 0.318800 0.238968
O O10 0.631308 0.363276 0.421050
O O11 0.385427 0.279229 0.572308
O O12 0.347570 0.814098 0.037223
#
# Coordination Sequence:
#
# PCOD8168829 Si02
#       6
#     4   4   4   4   4   4
#     4  10  22  38  69  97 144 183 235 286 347 416
#     4  12  27  49  72 107 142 186 237 292 358 431
#     4  10  21  41  63 103 140 185 236 284 347 418
#     4  10  24  43  73 103 141 181 239 292 355 425
#     4  12  28  47  76 103 144 186 235 293 359 430
#     4  12  22  46  73 105 139 189 234 299 358 424
#
# _framework density 26.510435000000001
#
# number of rings (size 3 to 8) (size 9 to 14) (size 15 to 20)
#    1.000    0.000    3.333    3.000    4.667    0.000 
#    0.000   10.000    0.000    0.000    0.000    0.000 
#    0.000    0.000    0.000    0.000    0.000    0.000 
#
# Total GULP energy -297408.915486 kJ/mol
# GULP energy per Si atom -12392.038145 kJ/mol
# Density = 2.645010 g / cm^3
# Si number density = 26.510435 Si / 1000 Ang^3
#
#
#
# Elastic Constant Matrix: (Units=GPa)
#
#
# Indices 1 2 3 4 5 6 
#
# 1 71.0938 4.3178 25.6702 0.0000 0.0000 0.0000
# 2 4.3178 150.5989 18.7331 0.0000 0.0000 0.0000
# 3 25.6702 18.7331 121.0815 0.0000 0.0000 0.0000
# 4 0.0000 0.0000 0.0000 32.2799 0.0000 0.0000
# 5 0.0000 0.0000 0.0000 0.0000 38.3698 0.0000
# 6 0.0000 0.0000 0.0000 0.0000 0.0000 -21.5548
#
#
#
# Elastic Compliance Matrix: (Units=1/GPa)
#
#
# Indices 1 2 3 4 5 6 
#
# 1 0.015232 -0.000036 -0.003224 0.000000 0.000000 0.000000
# 2 -0.000036 0.006771 -0.001040 0.000000 0.000000 0.000000
# 3 -0.003224 -0.001040 0.009103 0.000000 0.000000 0.000000
# 4 0.000000 0.000000 0.000000 0.030979 0.000000 0.000000
# 5 0.000000 0.000000 0.000000 0.000000 0.026062 0.000000
# 6 0.000000 0.000000 0.000000 0.000000 0.000000 -0.046393
#
#
# Mechanical properties :
#
#
# Convention : Reuss Voigt Hill
#
# Bulk Modulus (GPa) = 44.43056 48.91296 46.67176
# Shear Modulus (GPa) = 86.42275 29.42249 57.92262
#
# Velocity S-wave (km/s) = 5.71579 3.33505 4.67936
# Velocity P-wave (km/s) = 7.76894 5.77240 6.84387
#
# Compressibility (1/GPa) = 0.02250703
#
# Stress axis : x y z
#
# Youngs Moduli (GPa) = 65.65069 147.69874 109.85072
#
# Poissons Ratio (x) = 0.00527 0.35414
# Poissons Ratio (y) = 0.00234 0.11424
# Poissons Ratio (z) = 0.21165 0.15360
#
# Static dielectric constant tensor:
#      x y z
#    x 4.475350 0.000000 0.000000 
#    y 0.000000 4.749950 0.000000 
#    z 0.000000 0.000000 5.213640 
# 
# 
# High freq. dielectric constant tensor:
#      x y z
#    x 2.069950 0.000000 0.000000 
#    y 0.000000 2.064030 0.000000 
#    z 0.000000 0.000000 2.087240 
# 
# From -- ./inp_files/1179.got.cif
#   From: 2010.03.12/outbox.cif.g09.slc.cpg/sg29_1_cif.got.tgz:1179.got - 2010.04.14 03:43:10.
