data_PCOD8168317
_publ_section_title
;
Structure prediction by ZEFSAII (Michael W. Deem and Ramdas Pophale) SiO2 
 PCOD8168317
Probable space group: P M A 2
;
_chemical_formula_sum "Si O2"
_cell_formula_units_Z 32
_cell_length_a 9.491405
_cell_length_b 28.986714
_cell_length_c 5.359488
_cell_angle_alpha 90.000000
_cell_angle_beta 90.000000
_cell_angle_gamma 90.000000
_cell_volume 1474.527218
_symmetry_space_group_name_H-M "P M A 2"
_symmetry_group_IT_number 28
_symmetry_cell_setting 'orthorhombic'
loop_
_space_group_symop_operation_xyz
x,y,z
-x,-y,z
1/2-x,y,z
1/2+x,-y,z
loop_
_atom_site_type_symbol
_atom_site_label
_atom_site_fract_x
_atom_site_fract_y
_atom_site_fract_z
Si Si1 0.096788 0.231155 0.418000
Si Si2 0.904999 0.675351 0.683771
Si Si3 0.081307 0.952579 0.511513
Si Si4 0.403002 0.814972 0.744365
Si Si5 0.404223 0.722972 0.018776
Si Si6 0.913431 0.453540 0.955776
Si Si7 0.914039 0.397899 0.454599
Si Si8 0.586615 0.096978 0.015579
O O1 0.250000 0.217743 0.303301
O O2 0.121893 0.271804 0.615361
O O3 0.027660 0.185114 0.539599
O O4 0.988341 0.250219 0.223656
O O5 0.750000 0.653244 0.742999
O O6 0.986735 0.647421 0.466041
O O7 0.009155 0.677788 0.924462
O O8 0.250000 0.960097 0.506869
O O9 0.028769 0.929536 0.770099
O O10 0.025809 0.920870 0.279263
O O11 0.000000 0.000000 0.480848
O O12 0.250000 0.833113 0.637712
O O13 0.446753 0.848260 0.974993
O O14 0.380469 0.761457 0.808534
O O15 0.250000 0.705353 0.111483
O O16 0.750000 0.466612 0.959483
O O17 0.953556 0.424229 0.201085
O O18 0.000000 0.500000 0.966474
O O19 0.953232 0.427334 0.700874
O O20 0.750000 0.383628 0.458865
O O21 0.750000 0.087277 0.029561
#
# Coordination Sequence:
#
# PCOD8168317 Si02
#       8
#     4   4   4   4   4   4   4   4
#     4  10  21  36  54  79 116 153 188 235 291 344
#     4  10  22  38  55  81 115 153 196 241 290 346
#     4  10  20  36  57  82 111 146 182 231 286 341
#     4   9  19  35  55  81 106 143 194 237 280 336
#     4  10  20  34  57  82 110 149 193 239 287 342
#     4  10  22  40  62  88 119 152 192 241 296 351
#     4  10  22  39  60  89 120 153 196 245 290 346
#     4   9  19  34  58  84 110 143 188 236 280 334
#
# _framework density 21.701872999999999
#
# number of rings (size 3 to 8) (size 9 to 14) (size 15 to 20)
#    0.000    2.250    0.000    1.875    3.500    3.000 
#    0.000    1.250    0.000    0.000    0.000    0.000 
#    0.000    0.000    0.000    0.000    0.000    0.000 
#
# Total GULP energy -396457.088038 kJ/mol
# GULP energy per Si atom -12389.284001 kJ/mol
# Density = 2.165248 g / cm^3
# Si number density = 21.701873 Si / 1000 Ang^3
#
#
#
# Elastic Constant Matrix: (Units=GPa)
#
#
# Indices 1 2 3 4 5 6 
#
# 1 107.3258 3.9223 10.5919 0.0000 0.0000 0.0000
# 2 3.9223 55.0383 -0.3915 0.0000 0.0000 0.0000
# 3 10.5919 -0.3915 93.0720 0.0000 0.0000 0.0000
# 4 0.0000 0.0000 0.0000 29.5574 0.0000 0.0000
# 5 0.0000 0.0000 0.0000 0.0000 17.1791 0.0000
# 6 0.0000 0.0000 0.0000 0.0000 0.0000 24.5282
#
#
#
# Elastic Compliance Matrix: (Units=1/GPa)
#
#
# Indices 1 2 3 4 5 6 
#
# 1 0.009449 -0.000681 -0.001078 0.000000 0.000000 0.000000
# 2 -0.000681 0.018219 0.000154 0.000000 0.000000 0.000000
# 3 -0.001078 0.000154 0.010868 0.000000 0.000000 0.000000
# 4 0.000000 0.000000 0.000000 0.033833 0.000000 0.000000
# 5 0.000000 0.000000 0.000000 0.000000 0.058210 0.000000
# 6 0.000000 0.000000 0.000000 0.000000 0.000000 0.040769
#
#
# Mechanical properties :
#
#
# Convention : Reuss Voigt Hill
#
# Bulk Modulus (GPa) = 28.30847 31.52017 29.91432
# Shear Modulus (GPa) = 26.83372 30.34048 28.58710
#
# Velocity S-wave (km/s) = 3.52016 3.74312 3.63335
# Velocity P-wave (km/s) = 5.44009 5.76515 5.60498
#
# Compressibility (1/GPa) = 0.03532512
#
# Stress axis : x y z
#
# Youngs Moduli (GPa) = 105.83448 54.88833 92.01568
#
# Poissons Ratio (x) = 0.03738 0.09921
# Poissons Ratio (y) = 0.07208 -0.01418
# Poissons Ratio (z) = 0.11411 -0.00846
#
# Static dielectric constant tensor:
#      x y z
#    x 4.313080 0.000000 0.000000 
#    y 0.000000 3.934290 0.000000 
#    z 0.000000 0.000000 4.129500 
# 
# 
# High freq. dielectric constant tensor:
#      x y z
#    x 1.845350 0.000000 0.000000 
#    y 0.000000 1.838700 0.000000 
#    z 0.000000 0.000000 1.852260 
# 
# From -- ./inp_files/235.got.cif
#   From: 2010.03.12/outbox.cif.g09.slc.cpg/sg28_1_cif.got.tgz:235.got - 2010.04.14 03:39:34.
