data_PCOD8168423
_publ_section_title
;
Structure prediction by ZEFSAII (Michael W. Deem and Ramdas Pophale) SiO2 
 PCOD8168423
Probable space group: P M A 2
;
_chemical_formula_sum "Si O2"
_cell_formula_units_Z 32
_cell_length_a 15.356456
_cell_length_b 12.014949
_cell_length_c 9.063516
_cell_angle_alpha 90.000000
_cell_angle_beta 90.000000
_cell_angle_gamma 90.000000
_cell_volume 1672.282470
_symmetry_space_group_name_H-M "P M A 2"
_symmetry_group_IT_number 28
_symmetry_cell_setting 'orthorhombic'
loop_
_space_group_symop_operation_xyz
x,y,z
-x,-y,z
1/2-x,y,z
1/2+x,-y,z
loop_
_atom_site_type_symbol
_atom_site_label
_atom_site_fract_x
_atom_site_fract_y
_atom_site_fract_z
Si Si1 0.844267 0.732309 0.913250
Si Si2 0.648315 0.269729 0.411200
Si Si3 0.902016 0.489719 0.921092
Si Si4 0.346599 0.271124 0.563550
Si Si5 0.149077 0.517732 0.596538
Si Si6 0.993149 0.128188 0.913323
Si Si7 0.506978 0.127828 0.564244
Si Si8 0.651265 0.267782 0.071193
O O1 0.750000 0.774206 0.972833
O O2 0.854162 0.604296 0.961158
O O3 0.845199 0.740124 0.738311
O O4 0.921390 0.809035 0.976937
O O5 0.750000 0.244030 0.436127
O O6 0.622207 0.388677 0.479875
O O7 0.594376 0.173652 0.491103
O O8 0.622584 0.272697 0.240732
O O9 0.904674 0.463895 0.746297
O O10 0.000000 0.500000 0.978338
O O11 0.854261 0.390793 0.004912
O O12 0.250000 0.239975 0.500772
O O13 0.371277 0.398240 0.521998
O O14 0.421015 0.189886 0.499760
O O15 0.250000 0.523693 0.641624
O O16 0.984874 0.143926 0.738855
O O17 0.907886 0.180059 0.985551
O O18 0.000000 0.000000 0.959124
O O19 0.500000 0.000000 0.519205
O O20 0.750000 0.225179 0.055368
#
# Coordination Sequence:
#
# PCOD8168423 Si02
#       8
#     4   4   4   4   4   4   4   4
#     4   9  17  32  53  79 113 142 173 225 287 341
#     4  10  23  39  56  80 115 154 190 228 278 336
#     4  11  19  32  57  86 111 141 186 232 289 338
#     4   8  16  31  52  80 109 139 173 222 285 337
#     4   9  18  33  55  83 109 141 183 228 279 340
#     4  10  21  37  59  87 112 142 193 242 280 333
#     4  10  21  36  57  84 110 143 189 239 282 324
#     4  11  23  40  57  80 118 157 189 231 281 339
#
# _framework density 19.135522999999999
#
# number of rings (size 3 to 8) (size 9 to 14) (size 15 to 20)
#    0.000    2.250    1.250    2.625    3.500    3.000 
#    2.250    2.500    0.000    0.750    0.000    0.000 
#    0.000    0.000    0.000    0.000    0.000    0.000 
#
# Total GULP energy -396798.909714 kJ/mol
# GULP energy per Si atom -12399.965929 kJ/mol
# Density = 1.909197 g / cm^3
# Si number density = 19.135523 Si / 1000 Ang^3
#
#
#
# Elastic Constant Matrix: (Units=GPa)
#
#
# Indices 1 2 3 4 5 6 
#
# 1 116.3737 69.4885 33.9565 0.0000 0.0000 0.0000
# 2 69.4885 153.3101 49.8010 0.0000 0.0000 0.0000
# 3 33.9565 49.8010 46.1594 0.0000 0.0000 0.0000
# 4 0.0000 0.0000 0.0000 -0.2396 0.0000 0.0000
# 5 0.0000 0.0000 0.0000 0.0000 22.1563 0.0000
# 6 0.0000 0.0000 0.0000 0.0000 0.0000 26.7869
#
#
#
# Elastic Compliance Matrix: (Units=1/GPa)
#
#
# Indices 1 2 3 4 5 6 
#
# 1 0.012414 -0.004096 -0.004713 0.000000 0.000000 0.000000
# 2 -0.004096 0.011393 -0.009279 0.000000 0.000000 0.000000
# 3 -0.004713 -0.009279 0.035143 0.000000 0.000000 0.000000
# 4 0.000000 0.000000 0.000000 -4.173518 0.000000 0.000000
# 5 0.000000 0.000000 0.000000 0.000000 0.045134 0.000000
# 6 0.000000 0.000000 0.000000 0.000000 0.000000 0.037332
#
#
# Mechanical properties :
#
#
# Convention : Reuss Voigt Hill
#
# Bulk Modulus (GPa) = 43.91087 69.14834 56.52960
# Shear Modulus (GPa) = -1.25366 20.58052 9.66343
#
# Velocity S-wave (km/s) = -0.81029 3.28306 2.24966
# Velocity P-wave (km/s) = 4.70337 7.11237 6.02941
#
# Compressibility (1/GPa) = 0.02277341
#
# Stress axis : x y z
#
# Youngs Moduli (GPa) = 80.55536 87.77050 28.45525
#
# Poissons Ratio (x) = 0.35947 0.13412
# Poissons Ratio (y) = 0.32992 0.26405
# Poissons Ratio (z) = 0.37969 0.81446
#
# Static dielectric constant tensor:
#      x y z
#    x 3.734590 0.000000 0.000000 
#    y 0.000000 3.571310 0.000000 
#    z 0.000000 0.000000 3.139800 
# 
# 
# High freq. dielectric constant tensor:
#      x y z
#    x 1.760300 0.000000 0.000000 
#    y 0.000000 1.743710 0.000000 
#    z 0.000000 0.000000 1.703660 
# 
# From -- ./inp_files/3525.got.cif
#   From: 2010.03.12/outbox.cif.g09.slc.cpg/sg28_2_cif.got.tgz:3525.got - 2010.04.14 03:39:34.
