data_PCOD8168202
_publ_section_title
;
Structure prediction by ZEFSAII (Michael W. Deem and Ramdas Pophale) SiO2 
 PCOD8168202
Probable space group: P M A 2
;
_chemical_formula_sum "Si O2"
_cell_formula_units_Z 16
_cell_length_a 15.067378
_cell_length_b 8.607006
_cell_length_c 6.880022
_cell_angle_alpha 90.000000
_cell_angle_beta 90.000000
_cell_angle_gamma 90.000000
_cell_volume 892.235741
_symmetry_space_group_name_H-M "P M A 2"
_symmetry_group_IT_number 28
_symmetry_cell_setting 'orthorhombic'
loop_
_space_group_symop_operation_xyz
x,y,z
-x,-y,z
1/2-x,y,z
1/2+x,-y,z
loop_
_atom_site_type_symbol
_atom_site_label
_atom_site_fract_x
_atom_site_fract_y
_atom_site_fract_z
Si Si1 0.151070 0.610133 0.719500
Si Si2 0.415808 0.404900 0.386807
Si Si3 0.986176 0.821248 0.705929
Si Si4 0.850383 0.680507 0.979595
O O1 0.250000 0.679617 0.737100
O O2 0.142966 0.524565 0.511902
O O3 0.130645 0.487587 0.888691
O O4 0.082073 0.748402 0.751089
O O5 0.500000 0.500000 0.305893
O O6 0.444063 0.260172 0.519060
O O7 0.360533 0.333463 0.210639
O O8 0.920386 0.803086 0.890687
O O9 0.000000 0.000000 0.657528
O O10 0.750000 0.735948 0.932550
#
# Coordination Sequence:
#
# PCOD8168202 Si02
#       4
#     4   4   4   4
#     4   9  18  33  53  75  98 130 172 213 251 292
#     4   9  17  32  53  75  99 131 170 211 250 291
#     4  10  21  34  50  75 108 138 163 200 251 306
#     4  10  19  33  55  77  98 129 171 214 250 291
#
# _framework density 17.932479000000001
#
# number of rings (size 3 to 8) (size 9 to 14) (size 15 to 20)
#    0.000    2.500    0.000    4.500    0.000    3.000 
#    0.000    0.000    0.000    0.000    0.000    0.000 
#    0.000    0.000    0.000    0.000    0.000    0.000 
#
# Total GULP energy -198408.738594 kJ/mol
# GULP energy per Si atom -12400.546162 kJ/mol
# Density = 1.789166 g / cm^3
# Si number density = 17.932479 Si / 1000 Ang^3
#
#
#
# Elastic Constant Matrix: (Units=GPa)
#
#
# Indices 1 2 3 4 5 6 
#
# 1 112.0708 43.8428 26.4599 0.0000 0.0000 0.0000
# 2 43.8428 87.5965 14.4724 0.0000 0.0000 0.0000
# 3 26.4599 14.4724 85.0005 0.0000 0.0000 0.0000
# 4 0.0000 0.0000 0.0000 11.1942 0.0000 0.0000
# 5 0.0000 0.0000 0.0000 0.0000 25.5978 0.0000
# 6 0.0000 0.0000 0.0000 0.0000 0.0000 15.5879
#
#
#
# Elastic Compliance Matrix: (Units=1/GPa)
#
#
# Indices 1 2 3 4 5 6 
#
# 1 0.011674 -0.005394 -0.002716 0.000000 0.000000 0.000000
# 2 -0.005394 0.014239 -0.000745 0.000000 0.000000 0.000000
# 3 -0.002716 -0.000745 0.012737 0.000000 0.000000 0.000000
# 4 0.000000 0.000000 0.000000 0.089332 0.000000 0.000000
# 5 0.000000 0.000000 0.000000 0.000000 0.039066 0.000000
# 6 0.000000 0.000000 0.000000 0.000000 0.000000 0.064152
#
#
# Mechanical properties :
#
#
# Convention : Reuss Voigt Hill
#
# Bulk Modulus (GPa) = 47.75587 50.46866 49.11227
# Shear Modulus (GPa) = 19.53956 23.80217 21.67086
#
# Velocity S-wave (km/s) = 3.30452 3.64719 3.48008
# Velocity P-wave (km/s) = 6.42250 6.77797 6.60263
#
# Compressibility (1/GPa) = 0.02093983
#
# Stress axis : x y z
#
# Youngs Moduli (GPa) = 85.65710 70.22930 78.51218
#
# Poissons Ratio (x) = 0.37885 0.21321
# Poissons Ratio (y) = 0.46208 0.05850
# Poissons Ratio (z) = 0.23262 0.05233
#
# Static dielectric constant tensor:
#      x y z
#    x 3.492970 0.000000 0.000000 
#    y 0.000000 2.944880 0.000000 
#    z 0.000000 0.000000 3.222690 
# 
# 
# High freq. dielectric constant tensor:
#      x y z
#    x 1.710240 0.000000 0.000000 
#    y 0.000000 1.660040 0.000000 
#    z 0.000000 0.000000 1.693170 
# 
# From -- ./inp_files/618.got.cif
#   From: 2010.03.12/outbox.cif.g09.slc.cpg/sg28_1_cif.got.tgz:618.got - 2010.04.14 03:39:34.
