data_PCOD8168209
_publ_section_title
;
Structure prediction by ZEFSAII (Michael W. Deem and Ramdas Pophale) SiO2 
 PCOD8168209
Probable space group: P M A 2
;
_chemical_formula_sum "Si O2"
_cell_formula_units_Z 32
_cell_length_a 9.117468
_cell_length_b 14.441441
_cell_length_c 12.253796
_cell_angle_alpha 90.000000
_cell_angle_beta 90.000000
_cell_angle_gamma 90.000000
_cell_volume 1613.449675
_symmetry_space_group_name_H-M "P M A 2"
_symmetry_group_IT_number 28
_symmetry_cell_setting 'orthorhombic'
loop_
_space_group_symop_operation_xyz
x,y,z
-x,-y,z
1/2-x,y,z
1/2+x,-y,z
loop_
_atom_site_type_symbol
_atom_site_label
_atom_site_fract_x
_atom_site_fract_y
_atom_site_fract_z
Si Si1 0.920916 0.407645 0.469950
Si Si2 0.914728 0.411554 0.945631
Si Si3 0.082874 0.175714 0.794732
Si Si4 0.915652 0.344856 0.710642
Si Si5 0.924314 0.206138 0.006102
Si Si6 0.084629 0.087819 0.576188
Si Si7 0.422966 0.099484 0.201540
Si Si8 0.420176 0.230725 0.405150
O O1 0.750000 0.415872 0.445304
O O2 0.953898 0.397079 0.598907
O O3 0.000000 0.500000 0.428541
O O4 0.983751 0.323357 0.397595
O O5 0.750000 0.424022 0.985888
O O6 0.925618 0.413627 0.814034
O O7 0.000000 0.500000 0.993788
O O8 0.973597 0.313953 0.994882
O O9 0.250000 0.187514 0.835949
O O10 0.070050 0.093162 0.707084
O O11 0.035730 0.266367 0.728412
O O12 0.975473 0.154432 0.895423
O O13 0.750000 0.302780 0.705707
O O14 0.750000 0.195445 0.018494
O O15 0.007830 0.157737 0.103686
O O16 0.250000 0.072764 0.537591
O O17 0.027930 0.180597 0.516818
O O18 0.000000 0.000000 0.530589
O O19 0.250000 0.084691 0.181378
O O20 0.455010 0.160098 0.307920
O O21 0.500000 0.000000 0.212209
O O22 0.250000 0.259490 0.406859
#
# Coordination Sequence:
#
# PCOD8168209 Si02
#       8
#     4   4   4   4   4   4   4   4
#     4  11  22  35  57  87 121 162 204 247 297 354
#     4   9  18  32  52  81 117 156 195 238 287 342
#     4  10  19  33  55  83 118 158 197 240 296 354
#     4   9  18  32  50  79 117 159 201 240 290 346
#     4  10  22  40  60  85 121 156 198 251 298 353
#     4  10  21  35  55  84 117 153 190 235 294 357
#     4  11  24  43  69  93 115 149 197 250 304 361
#     4  10  22  42  62  86 120 153 195 249 300 355
#
# _framework density 19.833279999999998
#
# number of rings (size 3 to 8) (size 9 to 14) (size 15 to 20)
#    0.000    2.000    1.250    3.000    0.000    6.000 
#    0.000    1.875    0.000    1.500    0.000    0.000 
#    0.000    0.000    0.000    0.000    0.000    0.000 
#
# Total GULP energy -396727.856695 kJ/mol
# GULP energy per Si atom -12397.745522 kJ/mol
# Density = 1.978814 g / cm^3
# Si number density = 19.833280 Si / 1000 Ang^3
#
#
#
# Elastic Constant Matrix: (Units=GPa)
#
#
# Indices 1 2 3 4 5 6 
#
# 1 104.4869 70.3696 46.9572 0.0000 0.0000 0.0000
# 2 70.3696 128.5491 48.0360 0.0000 0.0000 0.0000
# 3 46.9572 48.0360 89.4962 0.0000 0.0000 0.0000
# 4 0.0000 0.0000 0.0000 21.3807 0.0000 0.0000
# 5 0.0000 0.0000 0.0000 0.0000 23.7852 0.0000
# 6 0.0000 0.0000 0.0000 0.0000 0.0000 38.7285
#
#
#
# Elastic Compliance Matrix: (Units=1/GPa)
#
#
# Indices 1 2 3 4 5 6 
#
# 1 0.016667 -0.007325 -0.004813 0.000000 0.000000 0.000000
# 2 -0.007325 0.012950 -0.003107 0.000000 0.000000 0.000000
# 3 -0.004813 -0.003107 0.015367 0.000000 0.000000 0.000000
# 4 0.000000 0.000000 0.000000 0.046771 0.000000 0.000000
# 5 0.000000 0.000000 0.000000 0.000000 0.042043 0.000000
# 6 0.000000 0.000000 0.000000 0.000000 0.000000 0.025821
#
#
# Mechanical properties :
#
#
# Convention : Reuss Voigt Hill
#
# Bulk Modulus (GPa) = 69.00126 72.58419 70.79272
# Shear Modulus (GPa) = 25.64873 27.25686 26.45279
#
# Velocity S-wave (km/s) = 3.60003 3.71118 3.65603
# Velocity P-wave (km/s) = 7.22125 7.41892 7.32075
#
# Compressibility (1/GPa) = 0.01449249
#
# Stress axis : x y z
#
# Youngs Moduli (GPa) = 59.99885 77.21880 65.07465
#
# Poissons Ratio (x) = 0.56564 0.31322
# Poissons Ratio (y) = 0.43950 0.20222
# Poissons Ratio (z) = 0.28879 0.23996
#
# Static dielectric constant tensor:
#      x y z
#    x 3.632100 0.000000 0.000000 
#    y 0.000000 3.474800 0.000000 
#    z 0.000000 0.000000 3.531130 
# 
# 
# High freq. dielectric constant tensor:
#      x y z
#    x 1.778040 0.000000 0.000000 
#    y 0.000000 1.768770 0.000000 
#    z 0.000000 0.000000 1.758930 
# 
# From -- ./inp_files/5089.got.cif
#   From: 2010.03.12/outbox.cif.g09.slc.cpg/sg28_3_cif.got.tgz:5089.got - 2010.04.14 03:39:34.
