data_PCOD8168172
_publ_section_title
;
Structure prediction by ZEFSAII (Michael W. Deem and Ramdas Pophale) SiO2 
 PCOD8168172
Probable space group: P M A 2
;
_chemical_formula_sum "Si O2"
_cell_formula_units_Z 32
_cell_length_a 15.420689
_cell_length_b 8.568660
_cell_length_c 14.045235
_cell_angle_alpha 90.000000
_cell_angle_beta 90.000000
_cell_angle_gamma 90.000000
_cell_volume 1855.862085
_symmetry_space_group_name_H-M "P M A 2"
_symmetry_group_IT_number 28
_symmetry_cell_setting 'orthorhombic'
loop_
_space_group_symop_operation_xyz
x,y,z
-x,-y,z
1/2-x,y,z
1/2+x,-y,z
loop_
_atom_site_type_symbol
_atom_site_label
_atom_site_fract_x
_atom_site_fract_y
_atom_site_fract_z
Si Si1 0.153733 0.111744 0.774370
Si Si2 0.006731 0.683459 0.288164
Si Si3 0.414171 0.902689 0.931253
Si Si4 0.151253 0.822351 0.645330
Si Si5 0.844258 0.889358 0.289869
Si Si6 0.920110 0.101928 0.447420
Si Si7 0.484264 0.680651 0.780894
Si Si8 0.585351 0.105086 0.142085
O O1 0.250000 0.189251 0.768540
O O2 0.078276 0.239510 0.767487
O O3 0.151833 0.010214 0.871660
O O4 0.138234 0.995708 0.686483
O O5 0.047816 0.753195 0.384011
O O6 0.064055 0.732426 0.196178
O O7 0.000000 0.500000 0.296612
O O8 0.910259 0.748766 0.275245
O O9 0.435683 0.744531 0.874477
O O10 0.500000 0.000000 0.946540
O O11 0.377955 0.859337 0.036024
O O12 0.250000 0.763180 0.664949
O O13 0.135894 0.827598 0.532784
O O14 0.079618 0.707535 0.691348
O O15 0.750000 0.812026 0.297611
O O16 0.862017 0.986755 0.385042
O O17 0.843740 0.008318 0.200709
O O18 0.000000 0.000000 0.487969
O O19 0.500000 0.500000 0.795613
O O20 0.500000 0.000000 0.141683
#
# Coordination Sequence:
#
# PCOD8168172 Si02
#       8
#     4   4   4   4   4   4   4   4
#     4   9  18  32  51  71  93 125 166 206 244 287
#     4   9  18  31  47  70 100 132 158 188 242 301
#     4   8  15  30  49  69  91 121 162 199 232 275
#     4  10  19  33  53  73  93 124 166 210 247 287
#     4   9  17  30  48  70  92 120 162 207 242 280
#     4   9  17  31  51  70  92 125 164 203 242 287
#     4  10  20  32  48  73 104 132 157 194 246 302
#     4   8  15  29  49  68  90 123 160 195 232 277
#
# _framework density 17.242659
#
# number of rings (size 3 to 8) (size 9 to 14) (size 15 to 20)
#    0.000    3.000    0.000    3.750    0.000    2.000 
#    0.000    3.125    0.000    0.000    0.000    3.500 
#    0.000    0.000    0.000    0.000    0.000    0.000 
#
# Total GULP energy -396614.085075 kJ/mol
# GULP energy per Si atom -12394.190159 kJ/mol
# Density = 1.720341 g / cm^3
# Si number density = 17.242659 Si / 1000 Ang^3
#
#
#
# Elastic Constant Matrix: (Units=GPa)
#
#
# Indices 1 2 3 4 5 6 
#
# 1 100.7057 35.4044 29.3112 0.0000 0.0000 0.0000
# 2 35.4044 105.9469 31.3610 0.0000 0.0000 0.0000
# 3 29.3112 31.3610 112.7332 0.0000 0.0000 0.0000
# 4 0.0000 0.0000 0.0000 11.6936 0.0000 0.0000
# 5 0.0000 0.0000 0.0000 0.0000 13.5333 0.0000
# 6 0.0000 0.0000 0.0000 0.0000 0.0000 13.7183
#
#
#
# Elastic Compliance Matrix: (Units=1/GPa)
#
#
# Indices 1 2 3 4 5 6 
#
# 1 0.011703 -0.003280 -0.002130 0.000000 0.000000 0.000000
# 2 -0.003280 0.011205 -0.002264 0.000000 0.000000 0.000000
# 3 -0.002130 -0.002264 0.010054 0.000000 0.000000 0.000000
# 4 0.000000 0.000000 0.000000 0.085517 0.000000 0.000000
# 5 0.000000 0.000000 0.000000 0.000000 0.073892 0.000000
# 6 0.000000 0.000000 0.000000 0.000000 0.000000 0.072896
#
#
# Mechanical properties :
#
#
# Convention : Reuss Voigt Hill
#
# Bulk Modulus (GPa) = 56.77672 56.83767 56.80719
# Shear Modulus (GPa) = 17.45276 22.67630 20.06453
#
# Velocity S-wave (km/s) = 3.18494 3.63040 3.41494
# Velocity P-wave (km/s) = 6.82090 7.11393 6.96896
#
# Compressibility (1/GPa) = 0.01761285
#
# Stress axis : x y z
#
# Youngs Moduli (GPa) = 85.44668 89.24512 99.46002
#
# Poissons Ratio (x) = 0.29275 0.21189
# Poissons Ratio (y) = 0.28029 0.22520
# Poissons Ratio (z) = 0.18203 0.20207
#
# Static dielectric constant tensor:
#      x y z
#    x 3.163290 0.000000 0.000000 
#    y 0.000000 2.869030 0.000000 
#    z 0.000000 0.000000 3.483310 
# 
# 
# High freq. dielectric constant tensor:
#      x y z
#    x 1.664790 0.000000 0.000000 
#    y 0.000000 1.631040 0.000000 
#    z 0.000000 0.000000 1.672280 
# 
# From -- ./inp_files/6566.got.cif
#   From: 2010.03.12/outbox.cif.g09.slc.cpg/sg28_4_cif.got.tgz:6566.got - 2010.04.14 03:39:34.
