data_PCOD8168111
_publ_section_title
;
Structure prediction by ZEFSAII (Michael W. Deem and Ramdas Pophale) SiO2 
 PCOD8168111
Probable space group: P M A 2
;
_chemical_formula_sum "Si O2"
_cell_formula_units_Z 32
_cell_length_a 9.136954
_cell_length_b 14.372519
_cell_length_c 12.339171
_cell_angle_alpha 90.000000
_cell_angle_beta 90.000000
_cell_angle_gamma 90.000000
_cell_volume 1620.392830
_symmetry_space_group_name_H-M "P M A 2"
_symmetry_group_IT_number 28
_symmetry_cell_setting 'orthorhombic'
loop_
_space_group_symop_operation_xyz
x,y,z
-x,-y,z
1/2-x,y,z
1/2+x,-y,z
loop_
_atom_site_type_symbol
_atom_site_label
_atom_site_fract_x
_atom_site_fract_y
_atom_site_fract_z
Si Si1 0.585950 0.866762 0.456140
Si Si2 0.418085 0.585196 0.591288
Si Si3 0.420577 0.706634 0.186311
Si Si4 0.581261 0.270713 0.773596
Si Si5 0.421391 0.598802 0.968513
Si Si6 0.914781 0.655689 0.394891
Si Si7 0.579073 0.088289 0.245600
Si Si8 0.923174 0.906713 0.701290
O O1 0.750000 0.904818 0.432907
O O2 0.585263 0.756635 0.447462
O O3 0.472547 0.909121 0.370647
O O4 0.532533 0.893996 0.575788
O O5 0.500000 0.500000 0.652466
O O6 0.250000 0.558533 0.578282
O O7 0.438256 0.679399 0.658277
O O8 0.489749 0.591730 0.472978
O O9 0.250000 0.696608 0.215387
O O10 0.513554 0.653463 0.276567
O O11 0.463594 0.816314 0.183732
O O12 0.461325 0.659993 0.073133
O O13 0.750000 0.243148 0.794527
O O14 0.524783 0.340900 0.866251
O O15 0.483703 0.178252 0.773363
O O16 0.500000 0.500000 0.972374
O O17 0.250000 0.578508 0.960479
O O18 0.750000 0.616608 0.385482
O O19 0.750000 0.070248 0.242396
O O20 0.500000 0.000000 0.188118
O O21 0.750000 0.912757 0.717291
O O22 0.000000 0.000000 0.744994
#
# Coordination Sequence:
#
# PCOD8168111 Si02
#       8
#     4   4   4   4   4   4   4   4
#     4   9  18  32  51  78 112 152 192 231 276 331
#     4  11  22  35  55  83 115 151 190 232 289 352
#     4   9  20  38  58  82 115 153 191 235 289 346
#     4  10  22  40  61  85 115 151 191 241 293 345
#     4  10  22  42  66  89 113 145 192 244 296 350
#     4  10  19  34  55  82 117 152 189 235 285 340
#     4  10  19  31  51  79 112 152 192 232 279 334
#     4  11  22  36  56  84 118 156 196 238 287 342
#
# _framework density 19.748297000000001
#
# number of rings (size 3 to 8) (size 9 to 14) (size 15 to 20)
#    0.000    2.000    1.250    2.250    0.000    5.000 
#    0.000    1.875    0.000    1.500    0.000    0.000 
#    0.000    0.000    0.000    0.000    0.000    0.000 
#
# Total GULP energy -396836.876557 kJ/mol
# GULP energy per Si atom -12401.152392 kJ/mol
# Density = 1.970335 g / cm^3
# Si number density = 19.748297 Si / 1000 Ang^3
#
#
#
# Elastic Constant Matrix: (Units=GPa)
#
#
# Indices 1 2 3 4 5 6 
#
# 1 107.9879 65.2417 50.5906 0.0000 0.0000 0.0000
# 2 65.2417 133.6157 52.9772 0.0000 0.0000 0.0000
# 3 50.5906 52.9772 94.7527 0.0000 0.0000 0.0000
# 4 0.0000 0.0000 0.0000 22.1602 0.0000 0.0000
# 5 0.0000 0.0000 0.0000 0.0000 22.6495 0.0000
# 6 0.0000 0.0000 0.0000 0.0000 0.0000 39.1325
#
#
#
# Elastic Compliance Matrix: (Units=1/GPa)
#
#
# Indices 1 2 3 4 5 6 
#
# 1 0.014740 -0.005238 -0.004941 0.000000 0.000000 0.000000
# 2 -0.005238 0.011477 -0.003620 0.000000 0.000000 0.000000
# 3 -0.004941 -0.003620 0.015216 0.000000 0.000000 0.000000
# 4 0.000000 0.000000 0.000000 0.045126 0.000000 0.000000
# 5 0.000000 0.000000 0.000000 0.000000 0.044151 0.000000
# 6 0.000000 0.000000 0.000000 0.000000 0.000000 0.025554
#
#
# Mechanical properties :
#
#
# Convention : Reuss Voigt Hill
#
# Bulk Modulus (GPa) = 72.28579 74.88615 73.58597
# Shear Modulus (GPa) = 26.52874 27.95823 27.24348
#
# Velocity S-wave (km/s) = 3.66914 3.76670 3.71824
# Velocity P-wave (km/s) = 7.39142 7.54453 7.46837
#
# Compressibility (1/GPa) = 0.01383398
#
# Stress axis : x y z
#
# Youngs Moduli (GPa) = 67.84365 87.12971 65.71926
#
# Poissons Ratio (x) = 0.45638 0.32474
# Poissons Ratio (y) = 0.35536 0.23793
# Poissons Ratio (z) = 0.33524 0.31544
#
# Static dielectric constant tensor:
#      x y z
#    x 3.609980 0.000000 0.000000 
#    y 0.000000 3.737610 0.000000 
#    z 0.000000 0.000000 3.377390 
# 
# 
# High freq. dielectric constant tensor:
#      x y z
#    x 1.772370 0.000000 0.000000 
#    y 0.000000 1.782510 0.000000 
#    z 0.000000 0.000000 1.744240 
# 
# From -- ./inp_files/5052.got.cif
#   From: 2010.03.12/outbox.cif.g09.slc.cpg/sg28_3_cif.got.tgz:5052.got - 2010.04.14 03:39:34.
