data_PCOD8168563
_publ_section_title
;
Structure prediction by ZEFSAII (Michael W. Deem and Ramdas Pophale) SiO2 
 PCOD8168563
Probable space group: P C A 21
;
_chemical_formula_sum "Si O2"
_cell_formula_units_Z 32
_cell_length_a 18.314921
_cell_length_b 13.593350
_cell_length_c 5.428751
_cell_angle_alpha 90.000000
_cell_angle_beta 90.000000
_cell_angle_gamma 90.000000
_cell_volume 1351.547991
_symmetry_space_group_name_H-M "P C A 21"
_symmetry_group_IT_number 29
_symmetry_cell_setting 'orthorhombic'
loop_
_space_group_symop_operation_xyz
x,y,z
-x,-y,1/2+z
1/2-x,y,1/2+z
1/2+x,-y,z
loop_
_atom_site_type_symbol
_atom_site_label
_atom_site_fract_x
_atom_site_fract_y
_atom_site_fract_z
Si Si1 0.922846 0.692174 0.686850
Si Si2 0.928723 0.601180 0.188626
Si Si3 0.579453 0.910600 0.278656
Si Si4 0.284386 0.042771 0.014285
Si Si5 0.077304 0.898453 0.987163
Si Si6 0.088280 0.630487 0.694406
Si Si7 0.414620 0.698060 0.696446
Si Si8 0.271416 0.830223 0.398853
O O1 0.891085 0.639506 0.441652
O O2 0.900902 0.805727 0.662431
O O3 0.010215 0.684586 0.701237
O O4 0.890941 0.646070 0.942155
O O5 0.920191 0.485162 0.182030
O O6 0.014205 0.627485 0.196514
O O7 0.629285 0.928603 0.521715
O O8 0.493788 0.918258 0.326992
O O9 0.603321 0.998225 0.097502
O O10 0.249129 0.088823 0.261067
O O11 0.273771 0.925157 0.000319
O O12 0.061180 0.813086 0.191552
O O13 0.145472 0.859175 0.825868
O O14 0.129206 0.671676 0.448485
O O15 0.130128 0.667540 0.944235
O O16 0.230515 0.773437 0.169986
#
# Coordination Sequence:
#
# PCOD8168563 Si02
#       8
#     4   4   4   4   4   4   4   4
#     4  10  20  34  49  87 115 155 204 240 297 382
#     4  10  18  35  55  76 123 161 188 246 323 380
#     4  12  26  37  62  94 132 175 202 268 315 363
#     4  10  22  45  60  81 114 175 223 253 295 374
#     4  12  26  37  62  94 132 175 202 268 315 363
#     4  10  18  35  55  76 123 161 188 246 323 380
#     4  10  20  34  49  87 115 155 204 240 297 382
#     4  10  22  45  60  81 114 175 223 253 295 374
#
# _framework density 23.676556000000001
#
# number of rings (size 3 to 8) (size 9 to 14) (size 15 to 20)
#    0.000    1.500    5.000    3.750    7.000    2.000 
#    0.000    0.000    0.000    0.000    0.000    0.000 
#    0.000   34.000    0.000    0.000    0.000    0.000 
#
# Total GULP energy -396466.397888 kJ/mol
# GULP energy per Si atom -12389.574934 kJ/mol
# Density = 2.362267 g / cm^3
# Si number density = 23.676556 Si / 1000 Ang^3
#
#
#
# Elastic Constant Matrix: (Units=GPa)
#
#
# Indices 1 2 3 4 5 6 
#
# 1 49.5199 -15.2563 15.6611 0.0000 0.0000 0.0000
# 2 -15.2563 123.4959 39.1039 0.0000 0.0000 0.0000
# 3 15.6611 39.1039 213.4216 0.0000 0.0000 0.0000
# 4 0.0000 0.0000 0.0000 35.5296 0.0000 0.0000
# 5 0.0000 0.0000 0.0000 0.0000 24.3614 0.0000
# 6 0.0000 0.0000 0.0000 0.0000 0.0000 -2.7607
#
#
#
# Elastic Compliance Matrix: (Units=1/GPa)
#
#
# Indices 1 2 3 4 5 6 
#
# 1 0.021956 0.003421 -0.002238 0.000000 0.000000 0.000000
# 2 0.003421 0.009129 -0.001924 0.000000 0.000000 0.000000
# 3 -0.002238 -0.001924 0.005202 0.000000 0.000000 0.000000
# 4 0.000000 0.000000 0.000000 0.028146 0.000000 0.000000
# 5 0.000000 0.000000 0.000000 0.000000 0.041049 0.000000
# 6 0.000000 0.000000 0.000000 0.000000 0.000000 -0.362231
#
#
# Mechanical properties :
#
#
# Convention : Reuss Voigt Hill
#
# Bulk Modulus (GPa) = 28.73097 51.71719 40.22408
# Shear Modulus (GPa) = -20.51984 34.55465 7.01741
#
# Velocity S-wave (km/s) = -2.94713 3.82441 1.72345
# Velocity P-wave (km/s) = 0.76183 6.43367 4.58108
#
# Compressibility (1/GPa) = 0.03480565
#
# Stress axis : x y z
#
# Youngs Moduli (GPa) = 45.54648 109.53889 192.22438
#
# Poissons Ratio (x) = -0.37473 0.43018
# Poissons Ratio (y) = -0.15581 0.36979
# Poissons Ratio (z) = 0.10193 0.21072
#
# Static dielectric constant tensor:
#      x y z
#    x 3.949210 0.000000 0.000000 
#    y 0.000000 4.239440 0.000000 
#    z 0.000000 0.000000 5.814280 
# 
# 
# High freq. dielectric constant tensor:
#      x y z
#    x 1.882980 0.000000 0.000000 
#    y 0.000000 1.926590 0.000000 
#    z 0.000000 0.000000 1.966560 
# 
# From -- ./inp_files/572.got.cif
#   From: 2010.03.12/outbox.cif.g09.slc.cpg/sg29_1_cif.got.tgz:572.got - 2010.04.14 03:43:10.
