data_PCOD8168071
_publ_section_title
;
Structure prediction by ZEFSAII (Michael W. Deem and Ramdas Pophale) SiO2 
 PCOD8168071
Probable space group: P M A 2
;
_chemical_formula_sum "Si O2"
_cell_formula_units_Z 24
_cell_length_a 9.112407
_cell_length_b 12.971769
_cell_length_c 11.591605
_cell_angle_alpha 90.000000
_cell_angle_beta 90.000000
_cell_angle_gamma 90.000000
_cell_volume 1370.174525
_symmetry_space_group_name_H-M "P M A 2"
_symmetry_group_IT_number 28
_symmetry_cell_setting 'orthorhombic'
loop_
_space_group_symop_operation_xyz
x,y,z
-x,-y,z
1/2-x,y,z
1/2+x,-y,z
loop_
_atom_site_type_symbol
_atom_site_label
_atom_site_fract_x
_atom_site_fract_y
_atom_site_fract_z
Si Si1 0.407560 0.087659 0.907050
Si Si2 0.418627 0.897304 0.517651
Si Si3 0.918568 0.212903 0.739634
Si Si4 0.085905 0.261918 0.089338
Si Si5 0.575394 0.393030 0.909406
Si Si6 0.575364 0.108448 0.255288
O O1 0.250000 0.042547 0.871759
O O2 0.492761 0.117880 0.791982
O O3 0.500000 0.000000 0.973538
O O4 0.387932 0.183394 0.987854
O O5 0.250000 0.927996 0.521091
O O6 0.449193 0.798097 0.601772
O O7 0.463303 0.866634 0.388019
O O8 0.500000 0.000000 0.559757
O O9 0.750000 0.194659 0.769564
O O10 0.965620 0.320667 0.799089
O O11 0.250000 0.298149 0.131873
O O12 0.991750 0.354280 0.031985
O O13 0.993693 0.206222 0.189435
O O14 0.500000 0.500000 0.877610
O O15 0.750000 0.404983 0.924474
O O16 0.750000 0.101245 0.230840
O O17 0.500000 0.000000 0.218686
#
# Coordination Sequence:
#
# PCOD8168071 Si02
#       6
#     4   4   4   4   4   4
#     4  10  19  28  41  64  94 125 155 192 236 285
#     4   9  18  31  47  70 100 134 168 200 236 281
#     4   9  18  32  49  69  94 125 160 198 241 289
#     4  10  20  33  49  70  96 126 163 203 244 292
#     4  10  20  35  55  76  98 124 157 201 253 303
#     4  10  19  31  48  71 101 136 171 204 240 284
#
# _framework density 17.516016
#
# number of rings (size 3 to 8) (size 9 to 14) (size 15 to 20)
#    0.000    2.333    0.000    3.000    0.000    6.667 
#    0.000    0.000    0.000    1.000    0.000    2.333 
#    0.000    0.000    0.000    0.000    0.000    0.000 
#
# Total GULP energy -297352.807511 kJ/mol
# GULP energy per Si atom -12389.700313 kJ/mol
# Density = 1.747615 g / cm^3
# Si number density = 17.516016 Si / 1000 Ang^3
#
#
#
# Elastic Constant Matrix: (Units=GPa)
#
#
# Indices 1 2 3 4 5 6 
#
# 1 108.5262 49.1931 39.0964 0.0000 0.0000 0.0000
# 2 49.1931 84.5950 42.0838 0.0000 0.0000 0.0000
# 3 39.0964 42.0838 92.4732 0.0000 0.0000 0.0000
# 4 0.0000 0.0000 0.0000 22.7639 0.0000 0.0000
# 5 0.0000 0.0000 0.0000 0.0000 26.6258 0.0000
# 6 0.0000 0.0000 0.0000 0.0000 0.0000 28.8657
#
#
#
# Elastic Compliance Matrix: (Units=1/GPa)
#
#
# Indices 1 2 3 4 5 6 
#
# 1 0.012999 -0.006237 -0.002657 0.000000 0.000000 0.000000
# 2 -0.006237 0.018273 -0.005679 0.000000 0.000000 0.000000
# 3 -0.002657 -0.005679 0.014522 0.000000 0.000000 0.000000
# 4 0.000000 0.000000 0.000000 0.043929 0.000000 0.000000
# 5 0.000000 0.000000 0.000000 0.000000 0.037558 0.000000
# 6 0.000000 0.000000 0.000000 0.000000 0.000000 0.034643
#
#
# Mechanical properties :
#
#
# Convention : Reuss Voigt Hill
#
# Bulk Modulus (GPa) = 60.07047 60.70455 60.38751
# Shear Modulus (GPa) = 25.42984 25.99916 25.71450
#
# Velocity S-wave (km/s) = 3.81439 3.85685 3.83568
# Velocity P-wave (km/s) = 7.33270 7.38685 7.35982
#
# Compressibility (1/GPa) = 0.01664711
#
# Stress axis : x y z
#
# Youngs Moduli (GPa) = 76.93021 54.72521 68.86160
#
# Poissons Ratio (x) = 0.34132 0.18298
# Poissons Ratio (y) = 0.47982 0.39107
# Poissons Ratio (z) = 0.20443 0.31079
#
# Static dielectric constant tensor:
#      x y z
#    x 3.713090 0.000000 0.000000 
#    y 0.000000 3.158550 0.000000 
#    z 0.000000 0.000000 3.378390 
# 
# 
# High freq. dielectric constant tensor:
#      x y z
#    x 1.696010 0.000000 0.000000 
#    y 0.000000 1.646150 0.000000 
#    z 0.000000 0.000000 1.668380 
# 
# From -- ./inp_files/4678.got.cif
#   From: 2010.03.12/outbox.cif.g09.slc.cpg/sg28_3_cif.got.tgz:4678.got - 2010.04.14 03:39:34.
