data_PCOD8168836
_publ_section_title
;
Structure prediction by ZEFSAII (Michael W. Deem and Ramdas Pophale) SiO2 
 PCOD8168836
Probable space group: P C A 21
;
_chemical_formula_sum "Si O2"
_cell_formula_units_Z 20
_cell_length_a 8.211744
_cell_length_b 9.308106
_cell_length_c 11.074457
_cell_angle_alpha 90.000000
_cell_angle_beta 90.000000
_cell_angle_gamma 90.000000
_cell_volume 846.484799
_symmetry_space_group_name_H-M "P C A 21"
_symmetry_group_IT_number 29
_symmetry_cell_setting 'orthorhombic'
loop_
_space_group_symop_operation_xyz
x,y,z
-x,-y,1/2+z
1/2-x,y,1/2+z
1/2+x,-y,z
loop_
_atom_site_type_symbol
_atom_site_label
_atom_site_fract_x
_atom_site_fract_y
_atom_site_fract_z
Si Si1 0.188105 0.156132 0.604910
Si Si2 0.134379 0.694582 0.671870
Si Si3 0.533759 0.803840 0.933230
Si Si4 0.000348 0.607503 0.213712
Si Si5 0.520244 0.957897 0.244919
O O1 0.283637 0.154377 0.478482
O O2 0.126453 0.319209 0.621605
O O3 0.304047 0.109866 0.716867
O O4 0.034652 0.048186 0.623308
O O5 0.018126 0.563075 0.708571
O O6 0.319279 0.647467 0.671759
O O7 0.104618 0.824418 0.767547
O O8 0.083229 0.760987 0.543046
O O9 0.538949 0.664551 0.847645
O O10 0.465068 0.941652 0.861725
#
# Coordination Sequence:
#
# PCOD8168836 Si02
#       5
#     4   4   4   4   4
#     4  10  22  42  66  98 133 174 229 276 333 410
#     4  11  24  45  70 103 138 177 232 281 335 414
#     4  10  24  46  70  97 138 183 218 286 351 389
#     4  11  25  46  70 102 137 179 233 283 337 413
#     4  10  21  41  68 100 134 175 226 274 332 410
#
# _framework density 23.627123000000001
#
# number of rings (size 3 to 8) (size 9 to 14) (size 15 to 20)
#    0.000    1.600    0.000    4.800    0.000   12.800 
#    0.000   22.000    0.000    0.000    0.000    0.000 
#    0.000    0.000    0.000    0.000    0.000    0.000 
#
# Total GULP energy -247924.127640 kJ/mol
# GULP energy per Si atom -12396.206382 kJ/mol
# Density = 2.357335 g / cm^3
# Si number density = 23.627123 Si / 1000 Ang^3
#
#
#
# Elastic Constant Matrix: (Units=GPa)
#
#
# Indices 1 2 3 4 5 6 
#
# 1 90.6340 39.8019 25.2828 0.0000 0.0000 0.0000
# 2 39.8019 187.1919 69.1765 0.0000 0.0000 0.0000
# 3 25.2828 69.1765 85.7845 0.0000 0.0000 0.0000
# 4 0.0000 0.0000 0.0000 29.2892 0.0000 0.0000
# 5 0.0000 0.0000 0.0000 0.0000 29.7034 0.0000
# 6 0.0000 0.0000 0.0000 0.0000 0.0000 36.1473
#
#
#
# Elastic Compliance Matrix: (Units=1/GPa)
#
#
# Indices 1 2 3 4 5 6 
#
# 1 0.012451 -0.001839 -0.002186 0.000000 0.000000 0.000000
# 2 -0.001839 0.007882 -0.005814 0.000000 0.000000 0.000000
# 3 -0.002186 -0.005814 0.016990 0.000000 0.000000 0.000000
# 4 0.000000 0.000000 0.000000 0.034142 0.000000 0.000000
# 5 0.000000 0.000000 0.000000 0.000000 0.033666 0.000000
# 6 0.000000 0.000000 0.000000 0.000000 0.000000 0.027665
#
#
# Mechanical properties :
#
#
# Convention : Reuss Voigt Hill
#
# Bulk Modulus (GPa) = 56.67800 70.23696 63.45748
# Shear Modulus (GPa) = 31.57460 34.31793 32.94626
#
# Velocity S-wave (km/s) = 3.65961 3.81528 3.73825
# Velocity P-wave (km/s) = 6.47283 7.01429 6.74899
#
# Compressibility (1/GPa) = 0.01764353
#
# Stress axis : x y z
#
# Youngs Moduli (GPa) = 80.31436 126.87708 58.85976
#
# Poissons Ratio (x) = 0.23339 0.12868
# Poissons Ratio (y) = 0.14774 0.34219
# Poissons Ratio (z) = 0.17559 0.73761
#
# Static dielectric constant tensor:
#      x y z
#    x 4.315390 0.000000 0.000000 
#    y 0.000000 4.655240 0.000000 
#    z 0.000000 0.000000 4.036230 
# 
# 
# High freq. dielectric constant tensor:
#      x y z
#    x 1.947490 0.000000 0.000000 
#    y 0.000000 1.954400 0.000000 
#    z 0.000000 0.000000 1.913740 
# 
# From -- ./inp_files/2746.got.cif
#   From: 2010.03.12/outbox.cif.g09.slc.cpg/sg29_2_cif.got.tgz:2746.got - 2010.04.14 03:43:10.
