data_PCOD8168533
_publ_section_title
;
Structure prediction by ZEFSAII (Michael W. Deem and Ramdas Pophale) SiO2 
 PCOD8168533
Probable space group: P C A 21
;
_chemical_formula_sum "Si O2"
_cell_formula_units_Z 28
_cell_length_a 28.402889
_cell_length_b 10.233769
_cell_length_c 5.238280
_cell_angle_alpha 90.000000
_cell_angle_beta 90.000000
_cell_angle_gamma 90.000000
_cell_volume 1522.603540
_symmetry_space_group_name_H-M "P C A 21"
_symmetry_group_IT_number 29
_symmetry_cell_setting 'orthorhombic'
loop_
_space_group_symop_operation_xyz
x,y,z
-x,-y,1/2+z
1/2-x,y,1/2+z
1/2+x,-y,z
loop_
_atom_site_type_symbol
_atom_site_label
_atom_site_fract_x
_atom_site_fract_y
_atom_site_fract_z
Si Si1 0.765072 0.848806 0.333100
Si Si2 0.627527 0.778757 0.836907
Si Si3 0.061408 0.986421 0.829831
Si Si4 0.473965 0.547023 0.810248
Si Si5 0.224879 0.432148 0.338587
Si Si6 0.618731 0.613317 0.337869
Si Si7 0.466083 0.853401 0.830414
O O1 0.750715 0.932386 0.584326
O O2 0.816842 0.792777 0.327893
O O3 0.729657 0.724620 0.338518
O O4 0.607515 0.924561 0.837142
O O5 0.610161 0.699108 0.590930
O O6 0.611952 0.705022 0.092233
O O7 0.016896 0.080964 0.832554
O O8 0.063586 0.899733 0.575141
O O9 0.061819 0.891121 0.073833
O O10 0.494666 0.516493 0.531880
O O11 0.420618 0.497630 0.828793
O O12 0.473854 0.700764 0.849286
O O13 0.250137 0.493765 0.588181
O O14 0.169026 0.460911 0.339640
#
# Coordination Sequence:
#
# PCOD8168533 Si02
#       7
#     4   4   4   4   4   4   4
#     4  10  16  29  46  75 118 136 158 227 276 323
#     4  12  20  32  54  87 113 136 188 215 278 341
#     4  10  21  35  58  75  98 150 177 226 255 318
#     4  12  25  40  57  82 113 149 182 239 283 331
#     4  10  16  30  47  75 113 139 167 217 277 333
#     4  12  21  32  55  82 116 145 174 222 289 338
#     4  10  21  40  53  74 109 137 188 218 268 310
#
# _framework density 18.389555000000001
#
# number of rings (size 3 to 8) (size 9 to 14) (size 15 to 20)
#    0.000    1.143    5.714    4.286    0.000    2.286 
#    0.000    0.000    0.000    0.000    0.000    6.000 
#    0.000    0.000    0.000    0.000    0.000    0.000 
#
# Total GULP energy -347171.355040 kJ/mol
# GULP energy per Si atom -12398.976966 kJ/mol
# Density = 1.834770 g / cm^3
# Si number density = 18.389555 Si / 1000 Ang^3
#
#
#
# Elastic Constant Matrix: (Units=GPa)
#
#
# Indices 1 2 3 4 5 6 
#
# 1 77.5713 13.7521 22.8229 0.0000 0.0000 0.0000
# 2 13.7521 66.7748 24.8268 0.0000 0.0000 0.0000
# 3 22.8229 24.8268 163.7871 0.0000 0.0000 0.0000
# 4 0.0000 0.0000 0.0000 20.4332 0.0000 0.0000
# 5 0.0000 0.0000 0.0000 0.0000 20.1436 0.0000
# 6 0.0000 0.0000 0.0000 0.0000 0.0000 7.7307
#
#
#
# Elastic Compliance Matrix: (Units=1/GPa)
#
#
# Indices 1 2 3 4 5 6 
#
# 1 0.013753 -0.002247 -0.001576 0.000000 0.000000 0.000000
# 2 -0.002247 0.016237 -0.002148 0.000000 0.000000 0.000000
# 3 -0.001576 -0.002148 0.006651 0.000000 0.000000 0.000000
# 4 0.000000 0.000000 0.000000 0.048940 0.000000 0.000000
# 5 0.000000 0.000000 0.000000 0.000000 0.049644 0.000000
# 6 0.000000 0.000000 0.000000 0.000000 0.000000 0.129354
#
#
# Mechanical properties :
#
#
# Convention : Reuss Voigt Hill
#
# Bulk Modulus (GPa) = 40.48612 47.88185 44.18398
# Shear Modulus (GPa) = 17.55908 26.11026 21.83467
#
# Velocity S-wave (km/s) = 3.09340 3.77217 3.44952
# Velocity P-wave (km/s) = 5.90106 6.71315 6.32016
#
# Compressibility (1/GPa) = 0.02469983
#
# Stress axis : x y z
#
# Youngs Moduli (GPa) = 72.70982 61.58751 150.36005
#
# Poissons Ratio (x) = 0.13836 0.23696
# Poissons Ratio (y) = 0.16334 0.32300
# Poissons Ratio (z) = 0.11459 0.13230
#
# Static dielectric constant tensor:
#      x y z
#    x 3.409930 0.000000 0.000000 
#    y 0.000000 2.939220 0.000000 
#    z 0.000000 0.000000 4.541120 
# 
# 
# High freq. dielectric constant tensor:
#      x y z
#    x 1.716490 0.000000 0.000000 
#    y 0.000000 1.654410 0.000000 
#    z 0.000000 0.000000 1.751380 
# 
# From -- ./inp_files/671.got.cif
#   From: 2010.03.12/outbox.cif.g09.slc.cpg/sg29_1_cif.got.tgz:671.got - 2010.04.14 03:43:10.
