data_PCOD8168957
_publ_section_title
;
Structure prediction by ZEFSAII (Michael W. Deem and Ramdas Pophale) SiO2 
 PCOD8168957
Probable space group: P C A 21
;
_chemical_formula_sum "Si O2"
_cell_formula_units_Z 32
_cell_length_a 13.708110
_cell_length_b 6.529455
_cell_length_c 16.722857
_cell_angle_alpha 90.000000
_cell_angle_beta 90.000000
_cell_angle_gamma 90.000000
_cell_volume 1496.804189
_symmetry_space_group_name_H-M "P C A 21"
_symmetry_group_IT_number 29
_symmetry_cell_setting 'orthorhombic'
loop_
_space_group_symop_operation_xyz
x,y,z
-x,-y,1/2+z
1/2-x,y,1/2+z
1/2+x,-y,z
loop_
_atom_site_type_symbol
_atom_site_label
_atom_site_fract_x
_atom_site_fract_y
_atom_site_fract_z
Si Si1 0.817385 0.092230 0.346230
Si Si2 0.476992 0.036690 0.618118
Si Si3 0.162218 0.226776 0.397054
Si Si4 0.662218 0.226776 0.016826
Si Si5 0.841237 0.610688 0.621857
Si Si6 0.817385 0.907770 0.067650
Si Si7 0.658764 0.389312 0.292023
Si Si8 0.523008 0.036690 0.295761
O O1 0.853444 0.228707 0.421359
O O2 0.750322 0.232207 0.288445
O O3 0.759812 0.895777 0.377135
O O4 0.907294 0.996150 0.297613
O O5 0.440812 0.267425 0.598622
O O6 0.431593 0.875138 0.557156
O O7 0.592706 0.003849 0.616267
O O8 0.436628 1.000000 0.706940
O O9 0.146556 0.228707 0.492521
O O10 0.175018 0.455785 0.364827
O O11 0.068408 0.124862 0.356724
O O12 0.675018 0.455785 0.049053
O O13 0.759812 0.104223 0.036745
O O14 0.749678 0.767793 0.625434
O O15 0.851407 0.500000 0.706940
O O16 0.559188 0.267425 0.315258
#
# Coordination Sequence:
#
# PCOD8168957 Si02
#       8
#     4   4   4   4   4   4   4   4
#     4  10  24  41  69  94 130 176 218 263 339 391
#     4  11  23  40  65  95 136 173 214 273 328 385
#     4  10  22  45  64  96 133 169 216 278 323 386
#     4  10  22  45  64  96 133 169 216 278 323 386
#     4  11  23  42  68  96 134 170 219 279 324 389
#     4  10  24  41  69  94 130 176 218 263 339 391
#     4  11  23  42  68  96 134 170 219 279 324 389
#     4  11  23  40  65  95 136 173 214 273 328 385
#
# _framework density 21.378881
#
# number of rings (size 3 to 8) (size 9 to 14) (size 15 to 20)
#    0.000    1.500    2.500    1.500    3.500    2.000 
#    0.000    7.500    0.000    0.000    0.000    0.000 
#    0.000    0.000    0.000    0.000    0.000    0.000 
#
# Total GULP energy -396834.956842 kJ/mol
# GULP energy per Si atom -12401.092401 kJ/mol
# Density = 2.133022 g / cm^3
# Si number density = 21.378881 Si / 1000 Ang^3
#
#
#
# Elastic Constant Matrix: (Units=GPa)
#
#
# Indices 1 2 3 4 5 6 
#
# 1 122.4975 54.7338 24.9409 0.0000 0.0000 0.0000
# 2 54.7338 127.5485 29.8961 0.0000 0.0000 0.0000
# 3 24.9409 29.8961 71.4353 0.0000 0.0000 0.0000
# 4 0.0000 0.0000 0.0000 41.3051 0.0000 0.0000
# 5 0.0000 0.0000 0.0000 0.0000 30.8510 0.0000
# 6 0.0000 0.0000 0.0000 0.0000 0.0000 12.3270
#
#
#
# Elastic Compliance Matrix: (Units=1/GPa)
#
#
# Indices 1 2 3 4 5 6 
#
# 1 0.010338 -0.003981 -0.001943 0.000000 0.000000 0.000000
# 2 -0.003981 0.010226 -0.002890 0.000000 0.000000 0.000000
# 3 -0.001943 -0.002890 0.015887 0.000000 0.000000 0.000000
# 4 0.000000 0.000000 0.000000 0.024210 0.000000 0.000000
# 5 0.000000 0.000000 0.000000 0.000000 0.032414 0.000000
# 6 0.000000 0.000000 0.000000 0.000000 0.000000 0.081122
#
#
# Mechanical properties :
#
#
# Convention : Reuss Voigt Hill
#
# Bulk Modulus (GPa) = 53.12795 60.06920 56.59857
# Shear Modulus (GPa) = 25.24005 31.02400 28.13202
#
# Velocity S-wave (km/s) = 3.43972 3.81353 3.63144
# Velocity P-wave (km/s) = 6.37810 6.89559 6.64189
#
# Compressibility (1/GPa) = 0.01882248
#
# Stress axis : x y z
#
# Youngs Moduli (GPa) = 96.73311 97.79344 62.94632
#
# Poissons Ratio (x) = 0.38928 0.12233
# Poissons Ratio (y) = 0.38506 0.18190
# Poissons Ratio (z) = 0.18799 0.28259
#
# Static dielectric constant tensor:
#      x y z
#    x 3.696540 0.000000 0.000000 
#    y 0.000000 3.869230 0.000000 
#    z 0.000000 0.000000 3.869010 
# 
# 
# High freq. dielectric constant tensor:
#      x y z
#    x 1.834730 0.000000 0.000000 
#    y 0.000000 1.838010 0.000000 
#    z 0.000000 0.000000 1.844400 
# 
# From -- ./inp_files/5230.got.cif
#   From: 2010.03.12/outbox.cif.g09.slc.cpg/sg29_3_cif.got.tgz:5230.got - 2010.04.14 03:43:10.
