data_PCOD8168716
_publ_section_title
;
Structure prediction by ZEFSAII (Michael W. Deem and Ramdas Pophale) SiO2 
 PCOD8168716
Probable space group: P C A 21
;
_chemical_formula_sum "Si O2"
_cell_formula_units_Z 24
_cell_length_a 5.335198
_cell_length_b 12.696415
_cell_length_c 12.953745
_cell_angle_alpha 90.000000
_cell_angle_beta 90.000000
_cell_angle_gamma 90.000000
_cell_volume 877.459327
_symmetry_space_group_name_H-M "P C A 21"
_symmetry_group_IT_number 29
_symmetry_cell_setting 'orthorhombic'
loop_
_space_group_symop_operation_xyz
x,y,z
-x,-y,1/2+z
1/2-x,y,1/2+z
1/2+x,-y,z
loop_
_atom_site_type_symbol
_atom_site_label
_atom_site_fract_x
_atom_site_fract_y
_atom_site_fract_z
Si Si1 0.541252 0.037828 0.677070
Si Si2 0.420595 0.445965 0.881075
Si Si3 0.992623 0.872250 0.351929
Si Si4 0.821338 0.472051 0.653629
Si Si5 0.836863 0.238728 0.670891
Si Si6 0.997772 0.793592 0.947223
O O1 0.596576 0.161342 0.689916
O O2 0.277850 0.017591 0.617388
O O3 0.491111 0.983092 0.789647
O O4 0.658164 0.511106 0.929213
O O5 0.411840 0.469043 0.757908
O O6 0.471161 0.322468 0.898067
O O7 0.744393 0.864637 0.421082
O O8 0.974138 0.778760 0.266356
O O9 0.244350 0.852961 0.417742
O O10 0.591142 0.530485 0.592434
O O11 0.725029 0.354503 0.672242
O O12 0.995571 0.214263 0.569901
#
# Coordination Sequence:
#
# PCOD8168716 Si02
#       6
#     4   4   4   4   4   4
#     4  10  23  45  71 100 140 185 232 296 365 431
#     4  10  20  38  63  99 145 188 241 302 361 436
#     4  11  24  48  71 103 151 191 243 317 380 445
#     4  10  21  38  65  99 141 191 238 299 368 428
#     4  11  26  47  76 108 148 197 254 311 374 454
#     4  12  26  44  76 111 145 200 256 307 380 454
#
# _framework density 27.351696
#
# number of rings (size 3 to 8) (size 9 to 14) (size 15 to 20)
#    0.000    1.333    0.000    7.000    0.000    9.333 
#    0.000   20.000    0.000    0.000    0.000    0.000 
#    0.000    0.000    0.000    0.000    0.000    0.000 
#
# Total GULP energy -297334.426651 kJ/mol
# GULP energy per Si atom -12388.934444 kJ/mol
# Density = 2.728944 g / cm^3
# Si number density = 27.351696 Si / 1000 Ang^3
#
#
#
# Elastic Constant Matrix: (Units=GPa)
#
#
# Indices 1 2 3 4 5 6 
#
# 1 237.4629 27.3295 22.0819 0.0000 0.0000 0.0000
# 2 27.3295 118.3043 -18.1918 0.0000 0.0000 0.0000
# 3 22.0819 -18.1918 57.4936 0.0000 0.0000 0.0000
# 4 0.0000 0.0000 0.0000 25.3133 0.0000 0.0000
# 5 0.0000 0.0000 0.0000 0.0000 38.4901 0.0000
# 6 0.0000 0.0000 0.0000 0.0000 0.0000 39.8573
#
#
#
# Elastic Compliance Matrix: (Units=1/GPa)
#
#
# Indices 1 2 3 4 5 6 
#
# 1 0.004576 -0.001395 -0.002199 0.000000 0.000000 0.000000
# 2 -0.001395 0.009311 0.003482 0.000000 0.000000 0.000000
# 3 -0.002199 0.003482 0.019340 0.000000 0.000000 0.000000
# 4 0.000000 0.000000 0.000000 0.039505 0.000000 0.000000
# 5 0.000000 0.000000 0.000000 0.000000 0.025981 0.000000
# 6 0.000000 0.000000 0.000000 0.000000 0.000000 0.025089
#
#
# Mechanical properties :
#
#
# Convention : Reuss Voigt Hill
#
# Bulk Modulus (GPa) = 30.30187 52.85556 41.57871
# Shear Modulus (GPa) = 37.02961 46.20156 41.61558
#
# Velocity S-wave (km/s) = 3.68344 4.11441 3.90487
# Velocity P-wave (km/s) = 5.40305 6.47592 5.96366
#
# Compressibility (1/GPa) = 0.03300126
#
# Stress axis : x y z
#
# Youngs Moduli (GPa) = 218.51845 107.40531 51.70737
#
# Poissons Ratio (x) = 0.14987 0.11371
# Poissons Ratio (y) = 0.30491 -0.18004
# Poissons Ratio (z) = 0.48055 -0.37397
#
# Static dielectric constant tensor:
#      x y z
#    x 5.946420 0.000000 0.000000 
#    y 0.000000 4.980450 0.000000 
#    z 0.000000 0.000000 4.898430 
# 
# 
# High freq. dielectric constant tensor:
#      x y z
#    x 2.131830 0.000000 0.000000 
#    y 0.000000 2.099650 0.000000 
#    z 0.000000 0.000000 2.095220 
# 
# From -- ./inp_files/4029.got.cif
#   From: 2010.03.12/outbox.cif.g09.slc.cpg/sg29_3_cif.got.tgz:4029.got - 2010.04.14 03:43:10.
