data_PCOD8168976
_publ_section_title
;
Structure prediction by ZEFSAII (Michael W. Deem and Ramdas Pophale) SiO2 
 PCOD8168976
Probable space group: P C A 21
;
_chemical_formula_sum "Si O2"
_cell_formula_units_Z 28
_cell_length_a 12.029158
_cell_length_b 6.142517
_cell_length_c 15.764663
_cell_angle_alpha 90.000000
_cell_angle_beta 90.000000
_cell_angle_gamma 90.000000
_cell_volume 1164.840032
_symmetry_space_group_name_H-M "P C A 21"
_symmetry_group_IT_number 29
_symmetry_cell_setting 'orthorhombic'
loop_
_space_group_symop_operation_xyz
x,y,z
-x,-y,1/2+z
1/2-x,y,1/2+z
1/2+x,-y,z
loop_
_atom_site_type_symbol
_atom_site_label
_atom_site_fract_x
_atom_site_fract_y
_atom_site_fract_z
Si Si1 0.093970 0.750001 0.365160
Si Si2 0.275384 0.373538 0.782732
Si Si3 0.775382 0.873535 0.947586
Si Si4 0.969269 0.560912 0.004672
Si Si5 0.469271 0.060914 0.725648
Si Si6 0.354796 0.861045 0.571188
Si Si7 0.145206 0.638959 0.659130
O O1 0.172012 0.605658 0.305465
O O2 0.017225 0.599195 0.424425
O O3 0.172007 0.894347 0.424857
O O4 0.017223 0.900802 0.305894
O O5 0.226030 0.249997 0.865158
O O6 0.367281 0.223826 0.739240
O O7 0.178915 0.426892 0.714729
O O8 0.867275 0.723815 0.991080
O O9 0.678911 0.926890 0.015588
O O10 0.946631 0.429146 0.090582
O O11 0.086213 0.685662 0.010047
O O12 0.586216 0.185659 0.720273
O O13 0.446631 0.929151 0.639737
O O14 0.250001 0.750003 0.615159
#
# Coordination Sequence:
#
# PCOD8168976 Si02
#       7
#     4   4   4   4   4   4   4
#     4  10  22  50  68 108 144 180 248 310 372 440
#     4  10  23  48  71 105 144 189 248 305 368 445
#     4  10  23  48  71 105 144 189 248 305 368 445
#     4  11  25  46  74 106 148 188 248 311 364 448
#     4  11  25  46  74 106 148 188 248 311 364 448
#     4  12  24  47  74 104 145 198 244 301 375 448
#     4  12  24  47  74 104 145 198 244 301 375 448
#
# _framework density 24.037638000000001
#
# number of rings (size 3 to 8) (size 9 to 14) (size 15 to 20)
#    0.000    1.143    2.857    2.571    0.000    0.000 
#   10.286    0.000    0.000    0.000    0.000    0.000 
#    0.000    0.000    0.000    0.000    0.000    0.000 
#
# Total GULP energy -347403.999586 kJ/mol
# GULP energy per Si atom -12407.285700 kJ/mol
# Density = 2.398293 g / cm^3
# Si number density = 24.037638 Si / 1000 Ang^3
#
#
#
# Elastic Constant Matrix: (Units=GPa)
#
#
# Indices 1 2 3 4 5 6 
#
# 1 100.7201 45.8543 58.8168 0.0000 0.0000 0.0000
# 2 45.8543 121.7710 55.8267 0.0000 0.0000 0.0000
# 3 58.8168 55.8267 134.1934 0.0000 0.0000 0.0000
# 4 0.0000 0.0000 0.0000 57.1470 0.0000 0.0000
# 5 0.0000 0.0000 0.0000 0.0000 32.4745 0.0000
# 6 0.0000 0.0000 0.0000 0.0000 0.0000 38.8732
#
#
#
# Elastic Compliance Matrix: (Units=1/GPa)
#
#
# Indices 1 2 3 4 5 6 
#
# 1 0.014225 -0.003087 -0.004950 0.000000 0.000000 0.000000
# 2 -0.003087 0.010817 -0.003147 0.000000 0.000000 0.000000
# 3 -0.004950 -0.003147 0.010931 0.000000 0.000000 0.000000
# 4 0.000000 0.000000 0.000000 0.017499 0.000000 0.000000
# 5 0.000000 0.000000 0.000000 0.000000 0.030793 0.000000
# 6 0.000000 0.000000 0.000000 0.000000 0.000000 0.025725
#
#
# Mechanical properties :
#
#
# Convention : Reuss Voigt Hill
#
# Bulk Modulus (GPa) = 73.50818 75.29781 74.40299
# Shear Modulus (GPa) = 36.52462 38.77806 37.65134
#
# Velocity S-wave (km/s) = 3.90228 4.02085 3.96201
# Velocity P-wave (km/s) = 7.13796 7.27663 7.20763
#
# Compressibility (1/GPa) = 0.01360393
#
# Stress axis : x y z
#
# Youngs Moduli (GPa) = 70.29991 92.44343 91.48270
#
# Poissons Ratio (x) = 0.28537 0.45288
# Poissons Ratio (y) = 0.21701 0.28792
# Poissons Ratio (z) = 0.34802 0.29094
#
# Static dielectric constant tensor:
#      x y z
#    x 3.896300 0.000000 0.000000 
#    y 0.000000 4.762490 0.000000 
#    z 0.000000 0.000000 4.590000 
# 
# 
# High freq. dielectric constant tensor:
#      x y z
#    x 1.934500 0.000000 0.000000 
#    y 0.000000 1.969790 0.000000 
#    z 0.000000 0.000000 1.970300 
# 
# From -- ./inp_files/5092.got.cif
#   From: 2010.03.12/outbox.cif.g09.slc.cpg/sg29_3_cif.got.tgz:5092.got - 2010.04.14 03:43:10.
