data_PCOD8168626
_publ_section_title
;
Structure prediction by ZEFSAII (Michael W. Deem and Ramdas Pophale) SiO2 
 PCOD8168626
Probable space group: P C A 21
;
_chemical_formula_sum "Si O2"
_cell_formula_units_Z 28
_cell_length_a 16.829547
_cell_length_b 16.824110
_cell_length_c 5.063261
_cell_angle_alpha 90.000000
_cell_angle_beta 90.000000
_cell_angle_gamma 90.000000
_cell_volume 1433.622605
_symmetry_space_group_name_H-M "P C A 21"
_symmetry_group_IT_number 29
_symmetry_cell_setting 'orthorhombic'
loop_
_space_group_symop_operation_xyz
x,y,z
-x,-y,1/2+z
1/2-x,y,1/2+z
1/2+x,-y,z
loop_
_atom_site_type_symbol
_atom_site_label
_atom_site_fract_x
_atom_site_fract_y
_atom_site_fract_z
Si Si1 0.513620 0.103374 0.197270
Si Si2 0.699681 0.815896 0.282740
Si Si3 0.066576 0.313847 0.218528
Si Si4 0.418076 0.059629 0.697035
Si Si5 0.802047 0.558857 0.781141
Si Si6 0.536108 0.284078 0.219326
Si Si7 0.301167 0.625536 0.791340
O O1 0.443264 0.085220 0.403199
O O2 0.550092 0.189678 0.247823
O O3 0.582103 0.036086 0.229753
O O4 0.478673 0.099682 0.903375
O O5 0.730718 0.798041 0.575449
O O6 0.624025 0.761395 0.231616
O O7 0.670537 0.907161 0.250064
O O8 0.115691 0.394464 0.257315
O O9 0.998190 0.307514 0.435861
O O10 0.025094 0.316819 0.935080
O O11 0.758398 0.583155 0.050044
O O12 0.825082 0.466666 0.770119
O O13 0.621247 0.322969 0.250497
O O14 0.235192 0.646724 0.574348
#
# Coordination Sequence:
#
# PCOD8168626 Si02
#       7
#     4   4   4   4   4   4   4
#     4  10  19  37  58  80 110 145 194 240 279 337
#     4  12  22  35  54  83 122 152 189 238 287 340
#     4  12  23  36  58  90 118 154 199 233 292 347
#     4  10  20  36  57  78 109 156 193 225 284 347
#     4  10  21  40  59  82 122 162 193 229 288 357
#     4  12  22  38  62  89 117 146 199 252 285 346
#     4  10  23  42  62  84 114 155 193 241 305 348
#
# _framework density 19.530940999999999
#
# number of rings (size 3 to 8) (size 9 to 14) (size 15 to 20)
#    0.000    1.143    2.857    4.286    0.000    1.143 
#    0.000    1.429    0.000    0.000    0.000    0.000 
#    0.000    0.000    0.000    0.000    0.000    0.000 
#
# Total GULP energy -347329.547696 kJ/mol
# GULP energy per Si atom -12404.626703 kJ/mol
# Density = 1.948649 g / cm^3
# Si number density = 19.530941 Si / 1000 Ang^3
#
#
#
# Elastic Constant Matrix: (Units=GPa)
#
#
# Indices 1 2 3 4 5 6 
#
# 1 76.7772 51.4665 1.0492 0.0000 0.0000 0.0000
# 2 51.4665 107.9267 13.5235 0.0000 0.0000 0.0000
# 3 1.0492 13.5235 66.3323 0.0000 0.0000 0.0000
# 4 0.0000 0.0000 0.0000 21.8080 0.0000 0.0000
# 5 0.0000 0.0000 0.0000 0.0000 24.6346 0.0000
# 6 0.0000 0.0000 0.0000 0.0000 0.0000 36.0787
#
#
#
# Elastic Compliance Matrix: (Units=1/GPa)
#
#
# Indices 1 2 3 4 5 6 
#
# 1 0.019311 -0.009411 0.001613 0.000000 0.000000 0.000000
# 2 -0.009411 0.014095 -0.002725 0.000000 0.000000 0.000000
# 3 0.001613 -0.002725 0.015606 0.000000 0.000000 0.000000
# 4 0.000000 0.000000 0.000000 0.045855 0.000000 0.000000
# 5 0.000000 0.000000 0.000000 0.000000 0.040593 0.000000
# 6 0.000000 0.000000 0.000000 0.000000 0.000000 0.027717
#
#
# Mechanical properties :
#
#
# Convention : Reuss Voigt Hill
#
# Bulk Modulus (GPa) = 35.75701 42.56829 39.16265
# Shear Modulus (GPa) = 25.83397 28.83740 27.33569
#
# Velocity S-wave (km/s) = 3.64087 3.84669 3.74519
# Velocity P-wave (km/s) = 6.00185 6.44764 6.22873
#
# Compressibility (1/GPa) = 0.02796655
#
# Stress axis : x y z
#
# Youngs Moduli (GPa) = 51.78361 70.94861 64.07958
#
# Poissons Ratio (x) = 0.66769 -0.10337
# Poissons Ratio (y) = 0.48733 0.17460
# Poissons Ratio (z) = -0.08354 0.19331
#
# Static dielectric constant tensor:
#      x y z
#    x 3.352660 0.000000 0.000000 
#    y 0.000000 3.794650 0.000000 
#    z 0.000000 0.000000 3.845970 
# 
# 
# High freq. dielectric constant tensor:
#      x y z
#    x 1.739500 0.000000 0.000000 
#    y 0.000000 1.765580 0.000000 
#    z 0.000000 0.000000 1.784080 
# 
# From -- ./inp_files/225.got.cif
#   From: 2010.03.12/outbox.cif.g09.slc.cpg/sg29_1_cif.got.tgz:225.got - 2010.04.14 03:43:10.
