data_PCOD8168386
_publ_section_title
;
Structure prediction by ZEFSAII (Michael W. Deem and Ramdas Pophale) SiO2 
 PCOD8168386
Probable space group: P M A 2
;
_chemical_formula_sum "Si O2"
_cell_formula_units_Z 24
_cell_length_a 8.719478
_cell_length_b 15.270570
_cell_length_c 9.336730
_cell_angle_alpha 90.000000
_cell_angle_beta 90.000000
_cell_angle_gamma 90.000000
_cell_volume 1243.198663
_symmetry_space_group_name_H-M "P M A 2"
_symmetry_group_IT_number 28
_symmetry_cell_setting 'orthorhombic'
loop_
_space_group_symop_operation_xyz
x,y,z
-x,-y,z
1/2-x,y,z
1/2+x,-y,z
loop_
_atom_site_type_symbol
_atom_site_label
_atom_site_fract_x
_atom_site_fract_y
_atom_site_fract_z
Si Si1 0.926613 0.256053 0.451050
Si Si2 0.931598 0.906856 0.959547
Si Si3 0.928725 0.590063 0.277959
Si Si4 0.570580 0.246954 0.784288
Si Si5 0.930172 0.091701 0.262841
Si Si6 0.567806 0.592345 0.951817
O O1 0.750000 0.278786 0.422377
O O2 0.965703 0.251749 0.617139
O O3 0.970007 0.162885 0.382639
O O4 0.026885 0.331165 0.380449
O O5 0.750000 0.913637 0.967157
O O6 0.980180 0.836169 0.843229
O O7 0.000000 0.000000 0.912817
O O8 0.994561 0.877722 0.114107
O O9 0.750000 0.576407 0.282365
O O10 0.000000 0.500000 0.335837
O O11 0.982478 0.610141 0.115782
O O12 0.750000 0.235915 0.816116
O O13 0.509225 0.334631 0.855264
O O14 0.750000 0.080222 0.238232
O O15 0.000000 0.000000 0.315871
O O16 0.500000 0.500000 0.899600
O O17 0.750000 0.593710 0.931851
#
# Coordination Sequence:
#
# PCOD8168386 Si02
#       6
#     4   4   4   4   4   4
#     4  10  23  39  56  81 115 151 187 226 277 333
#     4  11  22  38  60  86 113 146 188 233 279 332
#     4  10  21  37  60  85 111 143 185 232 279 330
#     4  11  23  39  57  82 116 153 188 229 279 334
#     4  10  20  37  60  85 112 145 185 232 279 329
#     4  10  21  38  60  87 113 146 189 234 281 332
#
# _framework density 19.305040000000002
#
# number of rings (size 3 to 8) (size 9 to 14) (size 15 to 20)
#    0.000    1.667    0.000    5.500    0.000    8.667 
#    0.000    1.667    0.000    0.000    0.000    0.000 
#    0.000    0.000    0.000    0.000    0.000    0.000 
#
# Total GULP energy -297725.818541 kJ/mol
# GULP energy per Si atom -12405.242439 kJ/mol
# Density = 1.926110 g / cm^3
# Si number density = 19.305040 Si / 1000 Ang^3
#
#
#
# Elastic Constant Matrix: (Units=GPa)
#
#
# Indices 1 2 3 4 5 6 
#
# 1 109.3043 61.8553 53.3289 0.0000 0.0000 0.0000
# 2 61.8553 143.2581 80.6038 0.0000 0.0000 0.0000
# 3 53.3289 80.6038 103.8233 0.0000 0.0000 0.0000
# 4 0.0000 0.0000 0.0000 -21.0185 0.0000 0.0000
# 5 0.0000 0.0000 0.0000 0.0000 46.0100 0.0000
# 6 0.0000 0.0000 0.0000 0.0000 0.0000 39.6009
#
#
#
# Elastic Compliance Matrix: (Units=1/GPa)
#
#
# Indices 1 2 3 4 5 6 
#
# 1 0.013033 -0.003304 -0.004129 0.000000 0.000000 0.000000
# 2 -0.003304 0.013232 -0.008576 0.000000 0.000000 0.000000
# 3 -0.004129 -0.008576 0.018411 0.000000 0.000000 0.000000
# 4 0.000000 0.000000 0.000000 -0.047577 0.000000 0.000000
# 5 0.000000 0.000000 0.000000 0.000000 0.021734 0.000000
# 6 0.000000 0.000000 0.000000 0.000000 0.000000 0.025252
#
#
# Mechanical properties :
#
#
# Convention : Reuss Voigt Hill
#
# Bulk Modulus (GPa) = 79.00356 83.10684 81.05520
# Shear Modulus (GPa) = 62.24886 23.62499 42.93692
#
# Velocity S-wave (km/s) = 5.68462 3.50204 4.72118
# Velocity P-wave (km/s) = 9.17056 7.71331 8.47332
#
# Compressibility (1/GPa) = 0.01265766
#
# Stress axis : x y z
#
# Youngs Moduli (GPa) = 76.72689 75.57383 54.31644
#
# Poissons Ratio (x) = 0.24970 0.22430
# Poissons Ratio (y) = 0.25351 0.46580
# Poissons Ratio (z) = 0.31684 0.64810
#
# Static dielectric constant tensor:
#      x y z
#    x 3.620860 0.000000 0.000000 
#    y 0.000000 3.656210 0.000000 
#    z 0.000000 0.000000 3.518830 
# 
# 
# High freq. dielectric constant tensor:
#      x y z
#    x 1.765970 0.000000 0.000000 
#    y 0.000000 1.766000 0.000000 
#    z 0.000000 0.000000 1.746280 
# 
# From -- ./inp_files/2460.got.cif
#   From: 2010.03.12/outbox.cif.g09.slc.cpg/sg28_2_cif.got.tgz:2460.got - 2010.04.14 03:39:34.
