data_PCOD8168139
_publ_section_title
;
Structure prediction by ZEFSAII (Michael W. Deem and Ramdas Pophale) SiO2 
 PCOD8168139
Probable space group: P M A 2
;
_chemical_formula_sum "Si O2"
_cell_formula_units_Z 28
_cell_length_a 8.859984
_cell_length_b 9.446041
_cell_length_c 17.915188
_cell_angle_alpha 90.000000
_cell_angle_beta 90.000000
_cell_angle_gamma 90.000000
_cell_volume 1499.353832
_symmetry_space_group_name_H-M "P M A 2"
_symmetry_group_IT_number 28
_symmetry_cell_setting 'orthorhombic'
loop_
_space_group_symop_operation_xyz
x,y,z
-x,-y,z
1/2-x,y,z
1/2+x,-y,z
loop_
_atom_site_type_symbol
_atom_site_label
_atom_site_fract_x
_atom_site_fract_y
_atom_site_fract_z
Si Si1 0.073091 0.347252 0.500000
Si Si2 0.070368 0.153077 0.798174
Si Si3 0.427732 0.847835 0.216670
Si Si4 0.074388 0.348569 0.663825
Si Si5 0.571557 0.351548 0.917035
Si Si6 0.073630 0.645276 0.088099
Si Si7 0.928675 0.345282 0.354157
O O1 0.250000 0.357341 0.483145
O O2 0.041208 0.279521 0.581769
O O3 0.000000 0.500000 0.503620
O O4 0.991372 0.269635 0.430329
O O5 0.250000 0.143419 0.804247
O O6 0.015204 0.239908 0.725731
O O7 0.004222 0.225453 0.871755
O O8 0.000000 0.000000 0.790517
O O9 0.250000 0.867321 0.216554
O O10 0.483952 0.772837 0.140409
O O11 0.480672 0.752679 0.286080
O O12 0.500000 0.000000 0.223208
O O13 0.250000 0.376308 0.673699
O O14 0.000000 0.500000 0.676129
O O15 0.500000 0.500000 0.890888
O O16 0.750000 0.356560 0.903059
O O17 0.530147 0.320295 0.002975
O O18 0.250000 0.623537 0.097893
O O19 0.000000 0.500000 0.115621
O O20 0.750000 0.360411 0.358769
O O21 0.000000 0.500000 0.343224
#
# Coordination Sequence:
#
# PCOD8168139 Si02
#       7
#     4   4   4   4   4   4   4
#     4   9  16  29  50  76 103 131 167 211 258 305
#     4  11  23  38  54  76 107 142 179 217 262 313
#     4  10  22  37  52  74 105 139 175 212 253 304
#     4   9  19  34  54  78 103 133 171 214 258 308
#     4  10  20  36  58  83 109 137 173 216 261 310
#     4   9  19  36  57  81 106 134 171 213 256 305
#     4  10  19  32  52  78 104 132 170 213 257 305
#
# _framework density 18.674712
#
# number of rings (size 3 to 8) (size 9 to 14) (size 15 to 20)
#    0.000    2.286    0.000    3.429    0.000    5.714 
#    0.000    2.143    0.000    3.429    0.000    0.000 
#    0.000    0.000    0.000    0.000    0.000    0.000 
#
# Total GULP energy -347126.713134 kJ/mol
# GULP energy per Si atom -12397.382612 kJ/mol
# Density = 1.863221 g / cm^3
# Si number density = 18.674712 Si / 1000 Ang^3
#
#
#
# Elastic Constant Matrix: (Units=GPa)
#
#
# Indices 1 2 3 4 5 6 
#
# 1 66.8948 45.0067 49.5474 0.0000 0.0000 0.0000
# 2 45.0067 128.3837 83.3390 0.0000 0.0000 0.0000
# 3 49.5474 83.3390 145.3776 0.0000 0.0000 0.0000
# 4 0.0000 0.0000 0.0000 8.8667 0.0000 0.0000
# 5 0.0000 0.0000 0.0000 0.0000 30.3873 0.0000
# 6 0.0000 0.0000 0.0000 0.0000 0.0000 31.7108
#
#
#
# Elastic Compliance Matrix: (Units=1/GPa)
#
#
# Indices 1 2 3 4 5 6 
#
# 1 0.021465 -0.004421 -0.004781 0.000000 0.000000 0.000000
# 2 -0.004421 0.013316 -0.006127 0.000000 0.000000 0.000000
# 3 -0.004781 -0.006127 0.012020 0.000000 0.000000 0.000000
# 4 0.000000 0.000000 0.000000 0.112782 0.000000 0.000000
# 5 0.000000 0.000000 0.000000 0.000000 0.032908 0.000000
# 6 0.000000 0.000000 0.000000 0.000000 0.000000 0.031535
#
#
# Mechanical properties :
#
#
# Convention : Reuss Voigt Hill
#
# Bulk Modulus (GPa) = 61.94594 77.38247 69.66421
# Shear Modulus (GPa) = 19.22590 25.04384 22.13487
#
# Velocity S-wave (km/s) = 3.21209 3.66602 3.44653
# Velocity P-wave (km/s) = 6.85563 7.71016 7.29542
#
# Compressibility (1/GPa) = 0.01614311
#
# Stress axis : x y z
#
# Youngs Moduli (GPa) = 46.58836 75.09650 83.19209
#
# Poissons Ratio (x) = 0.33201 0.39775
# Poissons Ratio (y) = 0.20597 0.50970
# Poissons Ratio (z) = 0.22274 0.46010
#
# Static dielectric constant tensor:
#      x y z
#    x 3.433620 0.000000 0.000000 
#    y 0.000000 3.229730 0.000000 
#    z 0.000000 0.000000 4.182610 
# 
# 
# High freq. dielectric constant tensor:
#      x y z
#    x 1.730730 0.000000 0.000000 
#    y 0.000000 1.697700 0.000000 
#    z 0.000000 0.000000 1.748490 
# 
# From -- ./inp_files/6801.got.cif
#   From: 2010.03.12/outbox.cif.g09.slc.cpg/sg28_4_cif.got.tgz:6801.got - 2010.04.14 03:39:34.
