data_PCOD8168819
_publ_section_title
;
Structure prediction by ZEFSAII (Michael W. Deem and Ramdas Pophale) SiO2 
 PCOD8168819
Probable space group: P C A 21
;
_chemical_formula_sum "Si O2"
_cell_formula_units_Z 32
_cell_length_a 9.433916
_cell_length_b 10.704448
_cell_length_c 15.445185
_cell_angle_alpha 90.000000
_cell_angle_beta 90.000000
_cell_angle_gamma 90.000000
_cell_volume 1559.729895
_symmetry_space_group_name_H-M "P C A 21"
_symmetry_group_IT_number 29
_symmetry_cell_setting 'orthorhombic'
loop_
_space_group_symop_operation_xyz
x,y,z
-x,-y,1/2+z
1/2-x,y,1/2+z
1/2+x,-y,z
loop_
_atom_site_type_symbol
_atom_site_label
_atom_site_fract_x
_atom_site_fract_y
_atom_site_fract_z
Si Si1 0.452356 0.145851 0.910430
Si Si2 0.150271 0.691833 0.622293
Si Si3 0.538059 0.312494 0.062104
Si Si4 0.910623 0.585128 0.525065
Si Si5 0.812641 0.580690 0.177292
Si Si6 0.150098 0.881728 0.765721
Si Si7 0.686207 0.706592 0.855692
Si Si8 0.466663 0.906571 0.820707
O O1 0.586391 0.187741 0.851080
O O2 0.307148 0.191216 0.867111
O O3 0.442077 0.993359 0.907134
O O4 0.471674 0.200141 0.006020
O O5 0.304679 0.725430 0.587412
O O6 0.144367 0.564514 0.678480
O O7 0.100514 0.805581 0.681716
O O8 0.045543 0.675773 0.540000
O O9 0.536313 0.443355 0.009615
O O10 0.442745 0.330678 0.147721
O O11 0.817342 0.597061 0.611660
O O12 0.820750 0.621908 0.441338
O O13 0.772716 0.619979 0.274398
O O14 0.319823 0.885638 0.770684
O O15 0.077291 0.018928 0.757818
O O16 0.534292 0.773851 0.844768
#
# Coordination Sequence:
#
# PCOD8168819 Si02
#       8
#     4   4   4   4   4   4   4   4
#     4  10  21  40  65  84 127 165 204 256 315 356
#     4  10  22  41  60  95 128 158 207 265 310 387
#     4  10  21  42  59  94 131 159 198 268 314 376
#     4  10  23  39  63  95 131 158 209 259 317 386
#     4  10  22  41  64  94 129 158 208 259 319 379
#     4  10  21  40  66  86 125 163 205 261 311 361
#     4  12  22  41  69  90 123 174 207 257 320 370
#     4  10  22  40  62  96 120 161 220 261 294 383
#
# _framework density 20.516373999999999
#
# number of rings (size 3 to 8) (size 9 to 14) (size 15 to 20)
#    0.750    1.000    2.500    1.500    3.500    0.000 
#    2.250    3.750    0.000    0.000    0.000    0.000 
#    0.000    0.000    0.000    0.000    0.000    0.000 
#
# Total GULP energy -396695.352876 kJ/mol
# GULP energy per Si atom -12396.729777 kJ/mol
# Density = 2.046968 g / cm^3
# Si number density = 20.516374 Si / 1000 Ang^3
#
#
#
# Elastic Constant Matrix: (Units=GPa)
#
#
# Indices 1 2 3 4 5 6 
#
# 1 85.6726 -7.3126 8.9930 0.0000 0.0000 0.0000
# 2 -7.3126 53.2268 27.2024 0.0000 0.0000 0.0000
# 3 8.9930 27.2024 94.0038 0.0000 0.0000 0.0000
# 4 0.0000 0.0000 0.0000 29.8075 0.0000 0.0000
# 5 0.0000 0.0000 0.0000 0.0000 23.9285 0.0000
# 6 0.0000 0.0000 0.0000 0.0000 0.0000 29.0901
#
#
#
# Elastic Compliance Matrix: (Units=1/GPa)
#
#
# Indices 1 2 3 4 5 6 
#
# 1 0.012100 0.002645 -0.001923 0.000000 0.000000 0.000000
# 2 0.002645 0.022626 -0.006801 0.000000 0.000000 0.000000
# 3 -0.001923 -0.006801 0.012790 0.000000 0.000000 0.000000
# 4 0.000000 0.000000 0.000000 0.033549 0.000000 0.000000
# 5 0.000000 0.000000 0.000000 0.000000 0.041791 0.000000
# 6 0.000000 0.000000 0.000000 0.000000 0.000000 0.034376
#
#
# Mechanical properties :
#
#
# Convention : Reuss Voigt Hill
#
# Bulk Modulus (GPa) = 28.28111 32.29655 30.28883
# Shear Modulus (GPa) = 27.59759 30.16659 28.88209
#
# Velocity S-wave (km/s) = 3.67161 3.83870 3.75608
# Velocity P-wave (km/s) = 5.63816 5.95176 5.79708
#
# Compressibility (1/GPa) = 0.03535929
#
# Stress axis : x y z
#
# Youngs Moduli (GPa) = 82.64484 44.19600 78.18755
#
# Poissons Ratio (x) = -0.11690 0.15035
# Poissons Ratio (y) = -0.21861 0.53172
# Poissons Ratio (z) = 0.15893 0.30056
#
# Static dielectric constant tensor:
#      x y z
#    x 3.776540 0.000000 0.000000 
#    y 0.000000 3.566780 0.000000 
#    z 0.000000 0.000000 3.369380 
# 
# 
# High freq. dielectric constant tensor:
#      x y z
#    x 1.817880 0.000000 0.000000 
#    y 0.000000 1.791580 0.000000 
#    z 0.000000 0.000000 1.776250 
# 
# From -- ./inp_files/4302.got.cif
#   From: 2010.03.12/outbox.cif.g09.slc.cpg/sg29_3_cif.got.tgz:4302.got - 2010.04.14 03:43:10.
