data_PCOD8168690
_publ_section_title
;
Structure prediction by ZEFSAII (Michael W. Deem and Ramdas Pophale) SiO2 
 PCOD8168690
Probable space group: P C A 21
;
_chemical_formula_sum "Si O2"
_cell_formula_units_Z 24
_cell_length_a 9.367355
_cell_length_b 11.565602
_cell_length_c 8.467561
_cell_angle_alpha 90.000000
_cell_angle_beta 90.000000
_cell_angle_gamma 90.000000
_cell_volume 917.367936
_symmetry_space_group_name_H-M "P C A 21"
_symmetry_group_IT_number 29
_symmetry_cell_setting 'orthorhombic'
loop_
_space_group_symop_operation_xyz
x,y,z
-x,-y,1/2+z
1/2-x,y,1/2+z
1/2+x,-y,z
loop_
_atom_site_type_symbol
_atom_site_label
_atom_site_fract_x
_atom_site_fract_y
_atom_site_fract_z
Si Si1 0.881446 0.507196 0.619740
Si Si2 0.358455 0.104859 0.981278
Si Si3 0.372424 0.976286 0.670204
Si Si4 0.545140 0.659892 0.420016
Si Si5 0.368239 0.607269 0.967199
Si Si6 0.217595 0.747731 0.732068
O O1 0.896963 0.550498 0.807494
O O2 0.718288 0.500442 0.554366
O O3 0.969581 0.390239 0.575552
O O4 0.964176 0.601692 0.509817
O O5 0.480100 0.073630 0.106697
O O6 0.211427 0.045138 0.033640
O O7 0.336720 0.245175 0.972107
O O8 0.406581 0.064487 0.809095
O O9 0.282925 0.873164 0.750924
O O10 0.428928 0.735833 0.326364
O O11 0.309611 0.726187 0.047027
O O12 0.323661 0.637566 0.785201
#
# Coordination Sequence:
#
# PCOD8168690 Si02
#       6
#     4   4   4   4   4   4
#     4  10  21  38  60  89 130 169 221 276 329 395
#     4  12  26  45  72 103 139 182 232 284 349 415
#     4  12  25  47  72 103 140 181 228 290 347 414
#     4  10  22  41  64  97 132 177 227 279 338 405
#     4  10  20  36  61  90 121 170 221 269 322 393
#     4  10  20  39  65  88 124 177 223 256 329 420
#
# _framework density 26.161801000000001
#
# number of rings (size 3 to 8) (size 9 to 14) (size 15 to 20)
#    0.000    1.333    0.000    7.000    0.000    2.667 
#    0.000    5.000    0.000    0.000    0.000    0.000 
#    0.000    0.000    0.000    0.000    0.000    0.000 
#
# Total GULP energy -297491.426680 kJ/mol
# GULP energy per Si atom -12395.476112 kJ/mol
# Density = 2.610226 g / cm^3
# Si number density = 26.161801 Si / 1000 Ang^3
#
#
#
# Elastic Constant Matrix: (Units=GPa)
#
#
# Indices 1 2 3 4 5 6 
#
# 1 59.5681 8.2810 9.4996 0.0000 0.0000 0.0000
# 2 8.2810 141.9133 21.6480 0.0000 0.0000 0.0000
# 3 9.4996 21.6480 144.3195 0.0000 0.0000 0.0000
# 4 0.0000 0.0000 0.0000 38.3346 0.0000 0.0000
# 5 0.0000 0.0000 0.0000 0.0000 35.0471 0.0000
# 6 0.0000 0.0000 0.0000 0.0000 0.0000 26.5058
#
#
#
# Elastic Compliance Matrix: (Units=1/GPa)
#
#
# Indices 1 2 3 4 5 6 
#
# 1 0.017064 -0.000844 -0.000997 0.000000 0.000000 0.000000
# 2 -0.000844 0.007253 -0.001032 0.000000 0.000000 0.000000
# 3 -0.000997 -0.001032 0.007150 0.000000 0.000000 0.000000
# 4 0.000000 0.000000 0.000000 0.026086 0.000000 0.000000
# 5 0.000000 0.000000 0.000000 0.000000 0.028533 0.000000
# 6 0.000000 0.000000 0.000000 0.000000 0.000000 0.037728
#
#
# Mechanical properties :
#
#
# Convention : Reuss Voigt Hill
#
# Bulk Modulus (GPa) = 38.87874 47.18423 43.03149
# Shear Modulus (GPa) = 36.19711 40.40230 38.29971
#
# Velocity S-wave (km/s) = 3.72369 3.93405 3.83032
# Velocity P-wave (km/s) = 5.77763 6.22177 6.00381
#
# Compressibility (1/GPa) = 0.02572100
#
# Stress axis : x y z
#
# Youngs Moduli (GPa) = 58.60380 137.86862 139.86907
#
# Poissons Ratio (x) = 0.11632 0.13940
# Poissons Ratio (y) = 0.04944 0.14441
# Poissons Ratio (z) = 0.05841 0.14234
#
# Static dielectric constant tensor:
#      x y z
#    x 4.753930 0.000000 0.000000 
#    y 0.000000 4.897990 0.000000 
#    z 0.000000 0.000000 4.903170 
# 
# 
# High freq. dielectric constant tensor:
#      x y z
#    x 2.041990 0.000000 0.000000 
#    y 0.000000 2.062530 0.000000 
#    z 0.000000 0.000000 2.075290 
# 
# From -- ./inp_files/1433.got.cif
#   From: 2010.03.12/outbox.cif.g09.slc.cpg/sg29_1_cif.got.tgz:1433.got - 2010.04.14 03:43:10.
