data_PCOD8168671
_publ_section_title
;
Structure prediction by ZEFSAII (Michael W. Deem and Ramdas Pophale) SiO2 
 PCOD8168671
Probable space group: P C A 21
;
_chemical_formula_sum "Si O2"
_cell_formula_units_Z 32
_cell_length_a 12.806605
_cell_length_b 8.833154
_cell_length_c 12.817314
_cell_angle_alpha 90.000000
_cell_angle_beta 90.000000
_cell_angle_gamma 90.000000
_cell_volume 1449.929348
_symmetry_space_group_name_H-M "P C A 21"
_symmetry_group_IT_number 29
_symmetry_cell_setting 'orthorhombic'
loop_
_space_group_symop_operation_xyz
x,y,z
-x,-y,1/2+z
1/2-x,y,1/2+z
1/2+x,-y,z
loop_
_atom_site_type_symbol
_atom_site_label
_atom_site_fract_x
_atom_site_fract_y
_atom_site_fract_z
Si Si1 0.877484 0.974177 0.229490
Si Si2 0.825397 0.832496 0.677988
Si Si3 0.034667 0.316709 0.809208
Si Si4 0.184533 0.456396 0.647865
Si Si5 0.006860 0.477007 0.487978
Si Si6 0.865416 0.330449 0.644261
Si Si7 0.995363 0.812958 0.849925
Si Si8 0.541866 0.044014 0.055373
O O1 0.755245 0.969445 0.203256
O O2 0.906857 0.844432 0.314190
O O3 0.941134 0.927207 0.126622
O O4 0.909555 0.140195 0.271968
O O5 0.765393 0.682951 0.642534
O O6 0.888409 0.809240 0.785185
O O7 0.901810 0.885609 0.583957
O O8 0.106859 0.436217 0.745436
O O9 0.013261 0.366095 0.928205
O O10 0.921248 0.305233 0.755099
O O11 0.122117 0.464700 0.538312
O O12 0.246783 0.614428 0.662152
O O13 0.989478 0.349464 0.400223
O O14 0.922953 0.464574 0.580118
O O15 0.873374 0.177564 0.576049
O O16 0.996973 0.944830 0.938420
#
# Coordination Sequence:
#
# PCOD8168671 Si02
#       8
#     4   4   4   4   4   4   4   4
#     4   9  20  37  56  80 109 146 186 227 280 332
#     4  10  20  36  59  82 108 146 188 228 274 333
#     4   9  19  37  56  78 112 143 177 231 278 329
#     4  10  21  37  59  83 107 145 189 225 274 335
#     4  10  21  36  54  81 113 142 181 231 278 330
#     4   9  19  36  54  77 110 144 179 225 281 332
#     4  10  20  35  56  82 111 145 185 228 278 332
#     4   9  20  38  54  77 116 145 177 233 281 327
#
# _framework density 22.070039999999999
#
# number of rings (size 3 to 8) (size 9 to 14) (size 15 to 20)
#    0.000    2.500    0.000    3.000    0.000    7.000 
#    0.000   11.250    0.000    0.000    0.000    0.000 
#    0.000    0.000    0.000    0.000    0.000    0.000 
#
# Total GULP energy -396644.609391 kJ/mol
# GULP energy per Si atom -12395.144043 kJ/mol
# Density = 2.201981 g / cm^3
# Si number density = 22.070040 Si / 1000 Ang^3
#
#
#
# Elastic Constant Matrix: (Units=GPa)
#
#
# Indices 1 2 3 4 5 6 
#
# 1 78.9543 16.5967 14.2401 0.0000 0.0000 0.0000
# 2 16.5967 18.5268 7.9522 0.0000 0.0000 0.0000
# 3 14.2401 7.9522 63.3894 0.0000 0.0000 0.0000
# 4 0.0000 0.0000 0.0000 37.6664 0.0000 0.0000
# 5 0.0000 0.0000 0.0000 0.0000 27.3965 0.0000
# 6 0.0000 0.0000 0.0000 0.0000 0.0000 31.8181
#
#
#
# Elastic Compliance Matrix: (Units=1/GPa)
#
#
# Indices 1 2 3 4 5 6 
#
# 1 0.015812 -0.013360 -0.001876 0.000000 0.000000 0.000000
# 2 -0.013360 0.068335 -0.005571 0.000000 0.000000 0.000000
# 3 -0.001876 -0.005571 0.016896 0.000000 0.000000 0.000000
# 4 0.000000 0.000000 0.000000 0.026549 0.000000 0.000000
# 5 0.000000 0.000000 0.000000 0.000000 0.036501 0.000000
# 6 0.000000 0.000000 0.000000 0.000000 0.000000 0.031429
#
#
# Mechanical properties :
#
#
# Convention : Reuss Voigt Hill
#
# Bulk Modulus (GPa) = 16.82683 26.49426 21.66055
# Shear Modulus (GPa) = 19.45933 27.51496 23.48715
#
# Velocity S-wave (km/s) = 2.97258 3.53471 3.26576
# Velocity P-wave (km/s) = 4.40709 5.35627 4.90469
#
# Compressibility (1/GPa) = 0.05942889
#
# Stress axis : x y z
#
# Youngs Moduli (GPa) = 63.24225 14.63374 59.18587
#
# Poissons Ratio (x) = 0.19550 0.11104
# Poissons Ratio (y) = 0.84489 0.32975
# Poissons Ratio (z) = 0.11865 0.08153
#
# Static dielectric constant tensor:
#      x y z
#    x 3.894530 0.000000 0.000000 
#    y 0.000000 3.805730 0.000000 
#    z 0.000000 0.000000 3.869780 
# 
# 
# High freq. dielectric constant tensor:
#      x y z
#    x 1.858920 0.000000 0.000000 
#    y 0.000000 1.861750 0.000000 
#    z 0.000000 0.000000 1.861080 
# 
# From -- ./inp_files/3225.got.cif
#   From: 2010.03.12/outbox.cif.g09.slc.cpg/sg29_2_cif.got.tgz:3225.got - 2010.04.14 03:43:10.
