data_PCOD8168581
_publ_section_title
;
Structure prediction by ZEFSAII (Michael W. Deem and Ramdas Pophale) SiO2 
 PCOD8168581
Probable space group: P C A 21
;
_chemical_formula_sum "Si O2"
_cell_formula_units_Z 32
_cell_length_a 35.196462
_cell_length_b 8.390107
_cell_length_c 5.112915
_cell_angle_alpha 90.000000
_cell_angle_beta 90.000000
_cell_angle_gamma 90.000000
_cell_volume 1509.854446
_symmetry_space_group_name_H-M "P C A 21"
_symmetry_group_IT_number 29
_symmetry_cell_setting 'orthorhombic'
loop_
_space_group_symop_operation_xyz
x,y,z
-x,-y,1/2+z
1/2-x,y,1/2+z
1/2+x,-y,z
loop_
_atom_site_type_symbol
_atom_site_label
_atom_site_fract_x
_atom_site_fract_y
_atom_site_fract_z
Si Si1 0.012578 0.087672 0.125000
Si Si2 0.357204 0.658455 0.260285
Si Si3 0.727722 0.341658 0.768595
Si Si4 0.596476 0.965234 0.256261
Si Si5 0.727553 0.961249 0.757322
Si Si6 0.984849 0.421780 0.914870
Si Si7 0.597412 0.343959 0.261334
Si Si8 0.642252 0.963398 0.759018
O O1 0.055553 0.115568 0.219348
O O2 0.994018 0.248703 0.024731
O O3 0.988333 0.033905 0.379315
O O4 0.314845 0.588872 0.294848
O O5 0.384937 0.596097 0.488544
O O6 0.355258 0.847654 0.265125
O O7 0.373266 0.601521 0.983741
O O8 0.747191 0.406867 0.506759
O O9 0.726557 0.151449 0.762473
O O10 0.615576 0.904137 0.523199
O O11 0.590693 0.154823 0.259417
O O12 0.623872 0.903641 0.027483
O O13 0.752528 0.896135 0.517969
O O14 0.684752 0.892911 0.733515
O O15 0.989470 0.542113 0.159587
O O16 0.941913 0.433351 0.812378
#
# Coordination Sequence:
#
# PCOD8168581 Si02
#       8
#     4   4   4   4   4   4   4   4
#     4  12  24  40  64  86 112 150 197 241 290 343
#     4   9  17  27  45  67  96 138 183 220 269 325
#     4   9  15  23  36  59  93 132 174 216 258 319
#     4  10  19  32  52  76 100 137 183 240 272 326
#     4   9  15  23  36  56  91 139 176 207 256 330
#     4  12  26  42  60  86 118 152 189 246 302 349
#     4  10  19  34  51  73 102 141 185 231 270 340
#     4   9  17  27  42  69 100 131 181 229 271 314
#
# _framework density 21.194095999999998
#
# number of rings (size 3 to 8) (size 9 to 14) (size 15 to 20)
#    0.000    2.000    1.250    3.750    3.500    6.000 
#    0.000    0.000    0.000    0.000    0.000    0.000 
#    0.000    0.000    0.000   78.750    0.000   35.000 
#
# Total GULP energy -396804.385962 kJ/mol
# GULP energy per Si atom -12400.137061 kJ/mol
# Density = 2.114586 g / cm^3
# Si number density = 21.194096 Si / 1000 Ang^3
#
#
#
# Elastic Constant Matrix: (Units=GPa)
#
#
# Indices 1 2 3 4 5 6 
#
# 1 174.7167 16.7958 71.7148 0.0000 0.0000 0.0000
# 2 16.7958 17.0767 11.3924 0.0000 0.0000 0.0000
# 3 71.7148 11.3924 173.2009 0.0000 0.0000 0.0000
# 4 0.0000 0.0000 0.0000 14.2635 0.0000 0.0000
# 5 0.0000 0.0000 0.0000 0.0000 41.7511 0.0000
# 6 0.0000 0.0000 0.0000 0.0000 0.0000 8.6253
#
#
#
# Elastic Compliance Matrix: (Units=1/GPa)
#
#
# Indices 1 2 3 4 5 6 
#
# 1 0.007348 -0.005436 -0.002685 0.000000 0.000000 0.000000
# 2 -0.005436 0.065268 -0.002042 0.000000 0.000000 0.000000
# 3 -0.002685 -0.002042 0.007020 0.000000 0.000000 0.000000
# 4 0.000000 0.000000 0.000000 0.070109 0.000000 0.000000
# 5 0.000000 0.000000 0.000000 0.000000 0.023951 0.000000
# 6 0.000000 0.000000 0.000000 0.000000 0.000000 0.115938
#
#
# Mechanical properties :
#
#
# Convention : Reuss Voigt Hill
#
# Bulk Modulus (GPa) = 16.86066 62.75557 39.80812
# Shear Modulus (GPa) = 15.16386 30.60074 22.88230
#
# Velocity S-wave (km/s) = 2.67774 3.80390 3.28937
# Velocity P-wave (km/s) = 4.18724 6.99765 5.76629
#
# Compressibility (1/GPa) = 0.05930966
#
# Stress axis : x y z
#
# Youngs Moduli (GPa) = 136.08721 15.32136 142.45600
#
# Poissons Ratio (x) = 0.08329 0.38250
# Poissons Ratio (y) = 0.73978 0.29093
# Poissons Ratio (z) = 0.36540 0.03129
#
# Static dielectric constant tensor:
#      x y z
#    x 4.123590 0.000000 0.000000 
#    y 0.000000 3.111790 0.000000 
#    z 0.000000 0.000000 4.228500 
# 
# 
# High freq. dielectric constant tensor:
#      x y z
#    x 1.848000 0.000000 0.000000 
#    y 0.000000 1.754580 0.000000 
#    z 0.000000 0.000000 1.853750 
# 
# From -- ./inp_files/934.got.cif
#   From: 2010.03.12/outbox.cif.g09.slc.cpg/sg29_1_cif.got.tgz:934.got - 2010.04.14 03:43:10.
