data_PCOD8168344
_publ_section_title
;
Structure prediction by ZEFSAII (Michael W. Deem and Ramdas Pophale) SiO2 
 PCOD8168344
Probable space group: P M A 2
;
_chemical_formula_sum "Si O2"
_cell_formula_units_Z 24
_cell_length_a 8.677264
_cell_length_b 13.975454
_cell_length_c 10.119546
_cell_angle_alpha 90.000000
_cell_angle_beta 90.000000
_cell_angle_gamma 90.000000
_cell_volume 1227.184227
_symmetry_space_group_name_H-M "P M A 2"
_symmetry_group_IT_number 28
_symmetry_cell_setting 'orthorhombic'
loop_
_space_group_symop_operation_xyz
x,y,z
-x,-y,z
1/2-x,y,z
1/2+x,-y,z
loop_
_atom_site_type_symbol
_atom_site_label
_atom_site_fract_x
_atom_site_fract_y
_atom_site_fract_z
Si Si1 0.570629 0.101535 0.204620
Si Si2 0.066719 0.785248 0.953007
Si Si3 0.568305 0.600986 0.380229
Si Si4 0.567885 0.895608 0.711447
Si Si5 0.930587 0.210352 0.467984
Si Si6 0.931840 0.600909 0.075420
O O1 0.750000 0.086521 0.189874
O O2 0.529617 0.172620 0.322705
O O3 0.500000 0.000000 0.236060
O O4 0.504175 0.145784 0.069462
O O5 0.250000 0.785938 0.943515
O O6 0.995008 0.820299 0.816889
O O7 0.009761 0.678600 0.981279
O O8 0.500000 0.500000 0.427173
O O9 0.750000 0.600720 0.401261
O O10 0.492662 0.681354 0.473863
O O11 0.523060 0.620522 0.227846
O O12 0.750000 0.902625 0.720920
O O13 0.519139 0.858274 0.568336
O O14 0.500000 0.000000 0.739485
O O15 0.750000 0.207792 0.500571
O O16 0.750000 0.601606 0.055001
O O17 0.000000 0.500000 0.029366
#
# Coordination Sequence:
#
# PCOD8168344 Si02
#       6
#     4   4   4   4   4   4
#     4  10  22  36  57  86 117 150 195 248 300 354
#     4  11  22  40  62  89 121 160 203 251 304 361
#     4  10  20  35  59  91 125 162 201 248 302 360
#     4  12  26  44  63  88 121 164 208 250 304 366
#     4  11  22  40  62  89 121 160 203 251 304 361
#     4  10  20  35  59  91 125 162 201 248 302 360
#
# _framework density 19.556967
#
# number of rings (size 3 to 8) (size 9 to 14) (size 15 to 20)
#    0.000    1.333    1.667    4.500    0.000    6.667 
#    0.000    0.833    0.000    0.000    0.000    0.000 
#    0.000    0.000    0.000    0.000    0.000    0.000 
#
# Total GULP energy -297737.637716 kJ/mol
# GULP energy per Si atom -12405.734905 kJ/mol
# Density = 1.951245 g / cm^3
# Si number density = 19.556967 Si / 1000 Ang^3
#
#
#
# Elastic Constant Matrix: (Units=GPa)
#
#
# Indices 1 2 3 4 5 6 
#
# 1 100.6649 49.5166 36.9209 0.0000 0.0000 0.0000
# 2 49.5166 129.2263 19.2261 0.0000 0.0000 0.0000
# 3 36.9209 19.2261 48.5863 0.0000 0.0000 0.0000
# 4 0.0000 0.0000 0.0000 38.7835 0.0000 0.0000
# 5 0.0000 0.0000 0.0000 0.0000 31.8835 0.0000
# 6 0.0000 0.0000 0.0000 0.0000 0.0000 40.1176
#
#
#
# Elastic Compliance Matrix: (Units=1/GPa)
#
#
# Indices 1 2 3 4 5 6 
#
# 1 0.015977 -0.004586 -0.010326 0.000000 0.000000 0.000000
# 2 -0.004586 0.009539 -0.000290 0.000000 0.000000 0.000000
# 3 -0.010326 -0.000290 0.028544 0.000000 0.000000 0.000000
# 4 0.000000 0.000000 0.000000 0.025784 0.000000 0.000000
# 5 0.000000 0.000000 0.000000 0.000000 0.031364 0.000000
# 6 0.000000 0.000000 0.000000 0.000000 0.000000 0.024927
#
#
# Mechanical properties :
#
#
# Convention : Reuss Voigt Hill
#
# Bulk Modulus (GPa) = 42.27350 54.42272 48.34811
# Shear Modulus (GPa) = 28.66586 33.67783 31.17185
#
# Velocity S-wave (km/s) = 3.83268 4.15425 3.99670
# Velocity P-wave (km/s) = 6.42249 7.13432 6.78775
#
# Compressibility (1/GPa) = 0.02365548
#
# Stress axis : x y z
#
# Youngs Moduli (GPa) = 62.58977 104.83694 35.03403
#
# Poissons Ratio (x) = 0.48075 0.36178
# Poissons Ratio (y) = 0.28702 0.01015
# Poissons Ratio (z) = 0.64633 0.03039
#
# Static dielectric constant tensor:
#      x y z
#    x 3.548640 0.000000 0.000000 
#    y 0.000000 3.664180 0.000000 
#    z 0.000000 0.000000 3.482400 
# 
# 
# High freq. dielectric constant tensor:
#      x y z
#    x 1.773300 0.000000 0.000000 
#    y 0.000000 1.777680 0.000000 
#    z 0.000000 0.000000 1.747080 
# 
# From -- ./inp_files/2477.got.cif
#   From: 2010.03.12/outbox.cif.g09.slc.cpg/sg28_2_cif.got.tgz:2477.got - 2010.04.14 03:39:34.
