data_PCOD8168896
_publ_section_title
;
Structure prediction by ZEFSAII (Michael W. Deem and Ramdas Pophale) SiO2 
 PCOD8168896
Probable space group: P C A 21
;
_chemical_formula_sum "Si O2"
_cell_formula_units_Z 32
_cell_length_a 8.345567
_cell_length_b 14.911298
_cell_length_c 11.373393
_cell_angle_alpha 90.000000
_cell_angle_beta 90.000000
_cell_angle_gamma 90.000000
_cell_volume 1415.341835
_symmetry_space_group_name_H-M "P C A 21"
_symmetry_group_IT_number 29
_symmetry_cell_setting 'orthorhombic'
loop_
_space_group_symop_operation_xyz
x,y,z
-x,-y,1/2+z
1/2-x,y,1/2+z
1/2+x,-y,z
loop_
_atom_site_type_symbol
_atom_site_label
_atom_site_fract_x
_atom_site_fract_y
_atom_site_fract_z
Si Si1 0.375718 0.569106 0.694400
Si Si2 0.579112 0.642070 0.480196
Si Si3 0.490439 0.987532 0.946317
Si Si4 0.224758 0.912507 0.795742
Si Si5 0.387075 0.715555 0.258382
Si Si6 0.803849 0.584753 0.298587
Si Si7 0.245958 0.060856 0.610549
Si Si8 0.783138 0.744808 0.659185
O O1 0.468744 0.587760 0.572490
O O2 0.244702 0.644610 0.718813
O O3 0.283162 0.474111 0.695589
O O4 0.507398 0.561396 0.800838
O O5 0.462911 0.687499 0.383809
O O6 0.707118 0.572351 0.420769
O O7 0.689814 0.718259 0.540093
O O8 0.625784 0.926652 0.005818
O O9 0.425161 0.053382 0.047561
O O10 0.354430 0.920211 0.899758
O O11 0.555639 0.047728 0.839487
O O12 0.205559 0.809407 0.763793
O O13 0.281434 0.971440 0.685117
O O14 0.525892 0.723234 0.158940
O O15 0.794385 0.689558 0.265733
O O16 0.251877 0.150629 0.688722
#
# Coordination Sequence:
#
# PCOD8168896 Si02
#       8
#     4   4   4   4   4   4   4   4
#     4  11  25  44  68  99 130 168 216 265 323 393
#     4  10  24  44  68  94 135 173 210 273 324 384
#     4  10  23  37  59  88 121 169 218 257 325 383
#     4  11  23  41  61  89 129 167 213 273 317 375
#     4  11  24  42  66  99 130 170 222 267 328 395
#     4  10  23  43  66  97 129 168 215 262 327 390
#     4  11  22  39  60  88 127 168 213 268 317 378
#     4  10  22  40  64  92 125 169 217 263 325 388
#
# _framework density 22.609378
#
# number of rings (size 3 to 8) (size 9 to 14) (size 15 to 20)
#    0.000    1.500    0.000    4.500    0.000   16.000 
#    0.000    0.000    0.000    0.000    0.000    0.000 
#    0.000    0.000    0.000    0.000    0.000    0.000 
#
# Total GULP energy -396645.467805 kJ/mol
# GULP energy per Si atom -12395.170869 kJ/mol
# Density = 2.255792 g / cm^3
# Si number density = 22.609378 Si / 1000 Ang^3
#
#
#
# Elastic Constant Matrix: (Units=GPa)
#
#
# Indices 1 2 3 4 5 6 
#
# 1 101.8013 13.4781 29.1098 0.0000 0.0000 0.0000
# 2 13.4781 71.6822 14.4928 0.0000 0.0000 0.0000
# 3 29.1098 14.4928 88.0088 0.0000 0.0000 0.0000
# 4 0.0000 0.0000 0.0000 25.9485 0.0000 0.0000
# 5 0.0000 0.0000 0.0000 0.0000 47.4526 0.0000
# 6 0.0000 0.0000 0.0000 0.0000 0.0000 28.9040
#
#
#
# Elastic Compliance Matrix: (Units=1/GPa)
#
#
# Indices 1 2 3 4 5 6 
#
# 1 0.010979 -0.001376 -0.003405 0.000000 0.000000 0.000000
# 2 -0.001376 0.014603 -0.001950 0.000000 0.000000 0.000000
# 3 -0.003405 -0.001950 0.012810 0.000000 0.000000 0.000000
# 4 0.000000 0.000000 0.000000 0.038538 0.000000 0.000000
# 5 0.000000 0.000000 0.000000 0.000000 0.021074 0.000000
# 6 0.000000 0.000000 0.000000 0.000000 0.000000 0.034597
#
#
# Mechanical properties :
#
#
# Convention : Reuss Voigt Hill
#
# Bulk Modulus (GPa) = 40.11052 41.73930 40.92491
# Shear Modulus (GPa) = 32.38931 34.08846 33.23889
#
# Velocity S-wave (km/s) = 3.78902 3.88714 3.83840
# Velocity P-wave (km/s) = 6.07630 6.21672 6.14691
#
# Compressibility (1/GPa) = 0.02493112
#
# Stress axis : x y z
#
# Youngs Moduli (GPa) = 91.08457 68.47740 78.06561
#
# Poissons Ratio (x) = 0.09422 0.26580
# Poissons Ratio (y) = 0.12532 0.15220
# Poissons Ratio (z) = 0.31012 0.13351
#
# Static dielectric constant tensor:
#      x y z
#    x 4.405190 0.000000 0.000000 
#    y 0.000000 3.960650 0.000000 
#    z 0.000000 0.000000 4.030540 
# 
# 
# High freq. dielectric constant tensor:
#      x y z
#    x 1.913080 0.000000 0.000000 
#    y 0.000000 1.884010 0.000000 
#    z 0.000000 0.000000 1.879630 
# 
# From -- ./inp_files/2926.got.cif
#   From: 2010.03.12/outbox.cif.g09.slc.cpg/sg29_2_cif.got.tgz:2926.got - 2010.04.14 03:43:10.
