data_PCOD8168336
_publ_section_title
;
Structure prediction by ZEFSAII (Michael W. Deem and Ramdas Pophale) SiO2 
 PCOD8168336
Probable space group: P M A 2
;
_chemical_formula_sum "Si O2"
_cell_formula_units_Z 32
_cell_length_a 8.864755
_cell_length_b 14.635751
_cell_length_c 12.307871
_cell_angle_alpha 90.000000
_cell_angle_beta 90.000000
_cell_angle_gamma 90.000000
_cell_volume 1596.852068
_symmetry_space_group_name_H-M "P M A 2"
_symmetry_group_IT_number 28
_symmetry_cell_setting 'orthorhombic'
loop_
_space_group_symop_operation_xyz
x,y,z
-x,-y,z
1/2-x,y,z
1/2+x,-y,z
loop_
_atom_site_type_symbol
_atom_site_label
_atom_site_fract_x
_atom_site_fract_y
_atom_site_fract_z
Si Si1 0.422833 0.790486 0.498500
Si Si2 0.926894 0.635753 0.202293
Si Si3 0.428508 0.589644 0.425881
Si Si4 0.427805 0.100719 0.687942
Si Si5 0.074722 0.778289 0.871522
Si Si6 0.571143 0.408979 0.972337
Si Si7 0.081748 0.913172 0.051127
Si Si8 0.920845 0.186175 0.256210
O O1 0.250000 0.795787 0.539260
O O2 0.473497 0.683673 0.488561
O O3 0.528001 0.848905 0.576684
O O4 0.442016 0.839359 0.381689
O O5 0.750000 0.613904 0.203676
O O6 0.007845 0.587660 0.303750
O O7 0.954679 0.743229 0.215250
O O8 0.997726 0.601431 0.090529
O O9 0.500000 0.500000 0.485578
O O10 0.250000 0.580872 0.422074
O O11 0.250000 0.086876 0.691433
O O12 0.476897 0.170199 0.782049
O O13 0.500000 0.000000 0.698934
O O14 0.250000 0.788208 0.839405
O O15 0.030140 0.672308 0.887800
O O16 0.034740 0.821661 0.988418
O O17 0.500000 0.500000 0.919023
O O18 0.750000 0.416132 0.986816
O O19 0.250000 0.936640 0.021767
O O20 0.055985 0.902393 0.180525
O O21 0.000000 0.000000 0.002529
O O22 0.750000 0.226159 0.238897
#
# Coordination Sequence:
#
# PCOD8168336 Si02
#       8
#     4   4   4   4   4   4   4   4
#     4   9  20  39  63  88 119 157 200 249 303 356
#     4  11  20  31  52  83 120 163 207 247 289 348
#     4  10  20  35  57  86 123 164 204 248 296 353
#     4  12  26  44  68  92 118 151 201 255 302 362
#     4  10  22  42  65  86 118 157 198 250 303 356
#     4  11  22  38  59  86 121 160 201 247 298 356
#     4  10  20  35  56  85 118 154 191 235 297 360
#     4   9  18  36  57  82 120 161 196 240 301 356
#
# _framework density 20.039427
#
# number of rings (size 3 to 8) (size 9 to 14) (size 15 to 20)
#    0.000    1.750    1.250    4.500    0.000    6.000 
#    0.000    1.875    0.000    0.000    0.000    0.000 
#    0.000    0.000    0.000    0.000    0.000    0.000 
#
# Total GULP energy -396617.342526 kJ/mol
# GULP energy per Si atom -12394.291954 kJ/mol
# Density = 1.999382 g / cm^3
# Si number density = 20.039427 Si / 1000 Ang^3
#
#
#
# Elastic Constant Matrix: (Units=GPa)
#
#
# Indices 1 2 3 4 5 6 
#
# 1 109.7672 66.1420 47.6874 0.0000 0.0000 0.0000
# 2 66.1420 141.2414 54.1487 0.0000 0.0000 0.0000
# 3 47.6874 54.1487 89.0597 0.0000 0.0000 0.0000
# 4 0.0000 0.0000 0.0000 23.3442 0.0000 0.0000
# 5 0.0000 0.0000 0.0000 0.0000 29.3112 0.0000
# 6 0.0000 0.0000 0.0000 0.0000 0.0000 35.6421
#
#
#
# Elastic Compliance Matrix: (Units=1/GPa)
#
#
# Indices 1 2 3 4 5 6 
#
# 1 0.013987 -0.004797 -0.004573 0.000000 0.000000 0.000000
# 2 -0.004797 0.010877 -0.004045 0.000000 0.000000 0.000000
# 3 -0.004573 -0.004045 0.016136 0.000000 0.000000 0.000000
# 4 0.000000 0.000000 0.000000 0.042837 0.000000 0.000000
# 5 0.000000 0.000000 0.000000 0.000000 0.034117 0.000000
# 6 0.000000 0.000000 0.000000 0.000000 0.000000 0.028057
#
#
# Mechanical properties :
#
#
# Convention : Reuss Voigt Hill
#
# Bulk Modulus (GPa) = 70.56530 75.11382 72.83956
# Shear Modulus (GPa) = 28.15873 29.13217 28.64545
#
# Velocity S-wave (km/s) = 3.75262 3.81693 3.78491
# Velocity P-wave (km/s) = 7.35295 7.54915 7.45170
#
# Compressibility (1/GPa) = 0.01417127
#
# Stress axis : x y z
#
# Youngs Moduli (GPa) = 71.49289 91.93604 61.97197
#
# Poissons Ratio (x) = 0.44101 0.28340
# Poissons Ratio (y) = 0.34295 0.25066
# Poissons Ratio (z) = 0.32694 0.37186
#
# Static dielectric constant tensor:
#      x y z
#    x 3.643850 0.000000 0.000000 
#    y 0.000000 3.828870 0.000000 
#    z 0.000000 0.000000 3.525100 
# 
# 
# High freq. dielectric constant tensor:
#      x y z
#    x 1.779000 0.000000 0.000000 
#    y 0.000000 1.790000 0.000000 
#    z 0.000000 0.000000 1.764930 
# 
# From -- ./inp_files/5111.got.cif
#   From: 2010.03.12/outbox.cif.g09.slc.cpg/sg28_3_cif.got.tgz:5111.got - 2010.04.14 03:39:34.
