data_PCOD8168507
_publ_section_title
;
Structure prediction by ZEFSAII (Michael W. Deem and Ramdas Pophale) SiO2 
 PCOD8168507
Probable space group: P M A 2
;
_chemical_formula_sum "Si O2"
_cell_formula_units_Z 20
_cell_length_a 8.452902
_cell_length_b 14.392567
_cell_length_c 7.791739
_cell_angle_alpha 90.000000
_cell_angle_beta 90.000000
_cell_angle_gamma 90.000000
_cell_volume 947.934851
_symmetry_space_group_name_H-M "P M A 2"
_symmetry_group_IT_number 28
_symmetry_cell_setting 'orthorhombic'
loop_
_space_group_symop_operation_xyz
x,y,z
-x,-y,z
1/2-x,y,z
1/2+x,-y,z
loop_
_atom_site_type_symbol
_atom_site_label
_atom_site_fract_x
_atom_site_fract_y
_atom_site_fract_z
Si Si1 0.434651 0.714458 0.833730
Si Si2 0.434691 0.276492 0.187629
Si Si3 0.563524 0.603086 0.512279
Si Si4 0.064179 0.099264 0.701231
Si Si5 0.935032 0.095648 0.326377
O O1 0.250000 0.701600 0.858470
O O2 0.489738 0.654086 0.674142
O O3 0.476509 0.822287 0.809710
O O4 0.521137 0.677200 0.005559
O O5 0.250000 0.255205 0.199552
O O6 0.489706 0.344787 0.339160
O O7 0.530774 0.179903 0.198241
O O8 0.500000 0.500000 0.500789
O O9 0.750000 0.602921 0.534019
O O10 0.250000 0.106824 0.734470
O O11 0.029212 0.115187 0.501386
O O12 0.000000 0.000000 0.764506
O O13 0.750000 0.086711 0.367323
O O14 0.000000 0.000000 0.243337
#
# Coordination Sequence:
#
# PCOD8168507 Si02
#       5
#     4   4   4   4   4
#     4  12  25  42  67  98 133 171 217 267 323 386
#     4  11  24  43  67  96 132 172 217 266 322 383
#     4  11  25  46  72  97 128 167 212 267 329 389
#     4  11  21  37  61  92 130 173 219 264 319 379
#     4  11  21  36  61  93 130 173 219 263 318 378
#
# _framework density 21.098496999999998
#
# number of rings (size 3 to 8) (size 9 to 14) (size 15 to 20)
#    0.000    0.800    2.000    7.800    0.000    4.000 
#    0.000    6.000    0.000    0.000    0.000    0.000 
#    0.000    0.000    0.000    0.000    0.000    0.000 
#
# Total GULP energy -248131.657137 kJ/mol
# GULP energy per Si atom -12406.582857 kJ/mol
# Density = 2.105048 g / cm^3
# Si number density = 21.098497 Si / 1000 Ang^3
#
#
#
# Elastic Constant Matrix: (Units=GPa)
#
#
# Indices 1 2 3 4 5 6 
#
# 1 93.3930 40.2487 26.7276 0.0000 0.0000 0.0000
# 2 40.2487 136.2044 63.8566 0.0000 0.0000 0.0000
# 3 26.7276 63.8566 130.6615 0.0000 0.0000 0.0000
# 4 0.0000 0.0000 0.0000 2.6273 0.0000 0.0000
# 5 0.0000 0.0000 0.0000 0.0000 34.1851 0.0000
# 6 0.0000 0.0000 0.0000 0.0000 0.0000 32.0442
#
#
#
# Elastic Compliance Matrix: (Units=1/GPa)
#
#
# Indices 1 2 3 4 5 6 
#
# 1 0.012363 -0.003201 -0.000964 0.000000 0.000000 0.000000
# 2 -0.003201 0.010353 -0.004405 0.000000 0.000000 0.000000
# 3 -0.000964 -0.004405 0.010003 0.000000 0.000000 0.000000
# 4 0.000000 0.000000 0.000000 0.380615 0.000000 0.000000
# 5 0.000000 0.000000 0.000000 0.000000 0.029253 0.000000
# 6 0.000000 0.000000 0.000000 0.000000 0.000000 0.031207
#
#
# Mechanical properties :
#
#
# Convention : Reuss Voigt Hill
#
# Bulk Modulus (GPa) = 64.19134 69.10275 66.64705
# Shear Modulus (GPa) = 10.07805 29.06639 19.57222
#
# Velocity S-wave (km/s) = 2.18793 3.71570 3.04905
# Velocity P-wave (km/s) = 6.07234 7.15766 6.63722
#
# Compressibility (1/GPa) = 0.01557843
#
# Stress axis : x y z
#
# Youngs Moduli (GPa) = 80.88640 96.59053 99.96602
#
# Poissons Ratio (x) = 0.30920 0.09642
# Poissons Ratio (y) = 0.25893 0.44034
# Poissons Ratio (z) = 0.07801 0.42547
#
# Static dielectric constant tensor:
#      x y z
#    x 3.861240 0.000000 0.000000 
#    y 0.000000 3.977880 0.000000 
#    z 0.000000 0.000000 3.853390 
# 
# 
# High freq. dielectric constant tensor:
#      x y z
#    x 1.842780 0.000000 0.000000 
#    y 0.000000 1.826170 0.000000 
#    z 0.000000 0.000000 1.829440 
# 
# From -- ./inp_files/2375.got.cif
#   From: 2010.03.12/outbox.cif.g09.slc.cpg/sg28_2_cif.got.tgz:2375.got - 2010.04.14 03:39:34.
