data_PCOD8168884
_publ_section_title
;
Structure prediction by ZEFSAII (Michael W. Deem and Ramdas Pophale) SiO2 
 PCOD8168884
Probable space group: P C A 21
;
_chemical_formula_sum "Si O2"
_cell_formula_units_Z 32
_cell_length_a 13.152782
_cell_length_b 21.407191
_cell_length_c 5.096484
_cell_angle_alpha 90.000000
_cell_angle_beta 90.000000
_cell_angle_gamma 90.000000
_cell_volume 1434.987014
_symmetry_space_group_name_H-M "P C A 21"
_symmetry_group_IT_number 29
_symmetry_cell_setting 'orthorhombic'
loop_
_space_group_symop_operation_xyz
x,y,z
-x,-y,1/2+z
1/2-x,y,1/2+z
1/2+x,-y,z
loop_
_atom_site_type_symbol
_atom_site_label
_atom_site_fract_x
_atom_site_fract_y
_atom_site_fract_z
Si Si1 0.685317 0.627105 0.022430
Si Si2 0.686022 0.079741 0.395965
Si Si3 0.494921 0.849846 0.100243
Si Si4 0.552198 0.975471 0.308897
Si Si5 0.999637 0.539825 0.581699
Si Si6 0.684183 0.231678 0.732642
Si Si7 0.683410 0.770609 0.991964
Si Si8 0.313301 0.623024 0.244321
O O1 0.728082 0.612661 0.310125
O O2 0.649498 0.698455 0.987768
O O3 0.590846 0.582402 0.973063
O O4 0.739940 0.100183 0.664674
O O5 0.576241 0.114305 0.387208
O O6 0.662068 0.004930 0.389402
O O7 0.551349 0.900356 0.287601
O O8 0.422763 0.804022 0.270361
O O9 0.581298 0.810625 0.952118
O O10 0.468951 0.994392 0.523832
O O11 0.088433 0.582654 0.691965
O O12 0.962074 0.498477 0.828088
O O13 0.736077 0.212717 0.457347
O O14 0.656812 0.304507 0.733114
O O15 0.738300 0.787279 0.262937
O O16 0.273181 0.606320 0.532929
#
# Coordination Sequence:
#
# PCOD8168884 Si02
#       8
#     4   4   4   4   4   4   4   4
#     4  10  22  43  64  87 124 165 204 255 311 362
#     4  11  23  40  62  91 125 161 199 243 301 372
#     4  11  23  41  67  93 126 159 206 262 309 360
#     4  10  23  40  58  84 120 165 202 241 299 357
#     4  12  25  38  61  94 121 160 213 254 301 363
#     4  10  22  39  63  95 124 159 200 247 312 380
#     4  10  24  42  64  92 121 161 211 257 308 364
#     4  10  22  41  61  86 127 164 197 249 313 370
#
# _framework density 22.299852000000001
#
# number of rings (size 3 to 8) (size 9 to 14) (size 15 to 20)
#    0.000    1.500    0.000    4.500    0.000   10.000 
#    0.000    7.500    0.000    0.000    0.000    0.000 
#    0.000    0.000    0.000    0.000    0.000    0.000 
#
# Total GULP energy -396863.352338 kJ/mol
# GULP energy per Si atom -12401.979761 kJ/mol
# Density = 2.224910 g / cm^3
# Si number density = 22.299852 Si / 1000 Ang^3
#
#
#
# Elastic Constant Matrix: (Units=GPa)
#
#
# Indices 1 2 3 4 5 6 
#
# 1 102.3154 64.1596 18.7828 0.0000 0.0000 0.0000
# 2 64.1596 96.5586 36.1288 0.0000 0.0000 0.0000
# 3 18.7828 36.1288 108.3872 0.0000 0.0000 0.0000
# 4 0.0000 0.0000 0.0000 29.0486 0.0000 0.0000
# 5 0.0000 0.0000 0.0000 0.0000 21.1330 0.0000
# 6 0.0000 0.0000 0.0000 0.0000 0.0000 41.3411
#
#
#
# Elastic Compliance Matrix: (Units=1/GPa)
#
#
# Indices 1 2 3 4 5 6 
#
# 1 0.016836 -0.011534 0.000927 0.000000 0.000000 0.000000
# 2 -0.011534 0.019734 -0.004579 0.000000 0.000000 0.000000
# 3 0.000927 -0.004579 0.010592 0.000000 0.000000 0.000000
# 4 0.000000 0.000000 0.000000 0.034425 0.000000 0.000000
# 5 0.000000 0.000000 0.000000 0.000000 0.047319 0.000000
# 6 0.000000 0.000000 0.000000 0.000000 0.000000 0.024189
#
#
# Mechanical properties :
#
#
# Convention : Reuss Voigt Hill
#
# Bulk Modulus (GPa) = 59.56017 60.60040 60.08028
# Shear Modulus (GPa) = 26.44617 30.85054 28.64835
#
# Velocity S-wave (km/s) = 3.44748 3.72350 3.58814
# Velocity P-wave (km/s) = 6.52791 6.76167 6.64582
#
# Compressibility (1/GPa) = 0.01678974
#
# Stress axis : x y z
#
# Youngs Moduli (GPa) = 59.39612 50.67516 94.41192
#
# Poissons Ratio (x) = 0.58448 -0.08752
# Poissons Ratio (y) = 0.68506 0.43232
# Poissons Ratio (z) = -0.05506 0.23204
#
# Static dielectric constant tensor:
#      x y z
#    x 3.803850 0.000000 0.000000 
#    y 0.000000 4.366230 0.000000 
#    z 0.000000 0.000000 4.014070 
# 
# 
# High freq. dielectric constant tensor:
#      x y z
#    x 1.866790 0.000000 0.000000 
#    y 0.000000 1.896090 0.000000 
#    z 0.000000 0.000000 1.881810 
# 
# From -- ./inp_files/120.got.cif
#   From: 2010.03.12/outbox.cif.g09.slc.cpg/sg29_1_cif.got.tgz:120.got - 2010.04.14 03:43:10.
