data_PCOD8168076
_publ_section_title
;
Structure prediction by ZEFSAII (Michael W. Deem and Ramdas Pophale) SiO2 
 PCOD8168076
Probable space group: P M A 2
;
_chemical_formula_sum "Si O2"
_cell_formula_units_Z 32
_cell_length_a 9.022471
_cell_length_b 15.314238
_cell_length_c 15.177713
_cell_angle_alpha 90.000000
_cell_angle_beta 90.000000
_cell_angle_gamma 90.000000
_cell_volume 2097.139032
_symmetry_space_group_name_H-M "P M A 2"
_symmetry_group_IT_number 28
_symmetry_cell_setting 'orthorhombic'
loop_
_space_group_symop_operation_xyz
x,y,z
-x,-y,z
1/2-x,y,z
1/2+x,-y,z
loop_
_atom_site_type_symbol
_atom_site_label
_atom_site_fract_x
_atom_site_fract_y
_atom_site_fract_z
Si Si1 0.083901 0.415639 0.673540
Si Si2 0.923761 0.238428 0.880495
Si Si3 0.423083 0.093598 0.995847
Si Si4 0.922567 0.242503 0.675437
Si Si5 0.922764 0.093419 0.353794
Si Si6 0.917797 0.585610 0.883254
Si Si7 0.577552 0.092105 0.548369
Si Si8 0.421425 0.092758 0.190954
O O1 0.250000 0.416668 0.636485
O O2 0.082386 0.418687 0.778498
O O3 0.000000 0.500000 0.634992
O O4 0.004579 0.328337 0.639992
O O5 0.750000 0.240468 0.901362
O O6 0.956061 0.225045 0.777446
O O7 0.000089 0.158052 0.928158
O O8 0.994754 0.328588 0.915197
O O9 0.250000 0.082921 0.972691
O O10 0.500000 0.000000 0.987100
O O11 0.442282 0.135127 0.094203
O O12 0.750000 0.257768 0.658257
O O13 0.983530 0.160468 0.619964
O O14 0.750000 0.084627 0.333566
O O15 0.950970 0.133810 0.450836
O O16 0.999761 0.146495 0.271909
O O17 0.000000 0.000000 0.355650
O O18 0.750000 0.588601 0.919813
O O19 0.000000 0.500000 0.921634
O O20 0.750000 0.074384 0.562748
O O21 0.500000 0.000000 0.563209
O O22 0.250000 0.081310 0.214217
O O23 0.500000 0.000000 0.185519
#
# Coordination Sequence:
#
# PCOD8168076 Si02
#       8
#     4   4   4   4   4   4   4   4
#     4   9  16  26  42  62  81 104 134 170 212 252
#     4  10  19  30  44  61  83 113 146 178 210 244
#     4  10  20  32  44  59  82 112 144 177 211 248
#     4   9  18  31  43  58  83 113 144 176 207 241
#     4   9  15  24  40  59  78 101 130 166 208 249
#     4   9  16  27  43  62  83 106 135 172 213 254
#     4   9  18  30  42  58  82 112 143 174 207 242
#     4   9  16  26  41  59  78 101 130 167 211 252
#
# _framework density 15.258884
#
# number of rings (size 3 to 8) (size 9 to 14) (size 15 to 20)
#    0.000    2.750    0.000    3.000    0.000    6.500 
#    0.000    1.250    0.000    0.000    0.000    0.000 
#    0.000    1.000    0.000    7.750    0.000    4.750 
#
# Total GULP energy -396555.433795 kJ/mol
# GULP energy per Si atom -12392.357306 kJ/mol
# Density = 1.522415 g / cm^3
# Si number density = 15.258884 Si / 1000 Ang^3
#
#
#
# Elastic Constant Matrix: (Units=GPa)
#
#
# Indices 1 2 3 4 5 6 
#
# 1 112.9678 57.0144 46.9321 0.0000 0.0000 0.0000
# 2 57.0144 103.4124 48.9533 0.0000 0.0000 0.0000
# 3 46.9321 48.9533 65.4129 0.0000 0.0000 0.0000
# 4 0.0000 0.0000 0.0000 0.3632 0.0000 0.0000
# 5 0.0000 0.0000 0.0000 0.0000 37.3737 0.0000
# 6 0.0000 0.0000 0.0000 0.0000 0.0000 26.4270
#
#
#
# Elastic Compliance Matrix: (Units=1/GPa)
#
#
# Indices 1 2 3 4 5 6 
#
# 1 0.013866 -0.004546 -0.006547 0.000000 0.000000 0.000000
# 2 -0.004546 0.016465 -0.009061 0.000000 0.000000 0.000000
# 3 -0.006547 -0.009061 0.026765 0.000000 0.000000 0.000000
# 4 0.000000 0.000000 0.000000 2.753273 0.000000 0.000000
# 5 0.000000 0.000000 0.000000 0.000000 0.026757 0.000000
# 6 0.000000 0.000000 0.000000 0.000000 0.000000 0.037840
#
#
# Mechanical properties :
#
#
# Convention : Reuss Voigt Hill
#
# Bulk Modulus (GPa) = 59.55751 65.28809 62.42280
# Shear Modulus (GPa) = 1.71182 21.42566 11.56874
#
# Velocity S-wave (km/s) = 1.06032 3.75126 2.75647
# Velocity P-wave (km/s) = 6.37300 7.85127 7.15044
#
# Compressibility (1/GPa) = 0.01679049
#
# Stress axis : x y z
#
# Youngs Moduli (GPa) = 72.11843 60.73325 37.36156
#
# Poissons Ratio (x) = 0.27608 0.24459
# Poissons Ratio (y) = 0.32783 0.33853
# Poissons Ratio (z) = 0.47214 0.55030
#
# Static dielectric constant tensor:
#      x y z
#    x 3.065640 0.000000 0.000000 
#    y 0.000000 2.772390 0.000000 
#    z 0.000000 0.000000 3.418400 
# 
# 
# High freq. dielectric constant tensor:
#      x y z
#    x 1.604100 0.000000 0.000000 
#    y 0.000000 1.552720 0.000000 
#    z 0.000000 0.000000 1.561840 
# 
# From -- ./inp_files/6401.got.cif
#   From: 2010.03.12/outbox.cif.g09.slc.cpg/sg28_4_cif.got.tgz:6401.got - 2010.04.14 03:39:34.
