data_PCOD8168428
_publ_section_title
;
Structure prediction by ZEFSAII (Michael W. Deem and Ramdas Pophale) SiO2 
 PCOD8168428
Probable space group: P M A 2
;
_chemical_formula_sum "Si O2"
_cell_formula_units_Z 32
_cell_length_a 8.750242
_cell_length_b 14.334612
_cell_length_c 12.659065
_cell_angle_alpha 90.000000
_cell_angle_beta 90.000000
_cell_angle_gamma 90.000000
_cell_volume 1587.843283
_symmetry_space_group_name_H-M "P M A 2"
_symmetry_group_IT_number 28
_symmetry_cell_setting 'orthorhombic'
loop_
_space_group_symop_operation_xyz
x,y,z
-x,-y,z
1/2-x,y,z
1/2+x,-y,z
loop_
_atom_site_type_symbol
_atom_site_label
_atom_site_fract_x
_atom_site_fract_y
_atom_site_fract_z
Si Si1 0.929385 0.098472 0.188080
Si Si2 0.428023 0.399484 0.067531
Si Si3 0.928076 0.600476 0.825879
Si Si4 0.070429 0.398733 0.450711
Si Si5 0.428766 0.711719 0.640445
Si Si6 0.572398 0.099200 0.731958
Si Si7 0.070776 0.901703 0.957593
Si Si8 0.570596 0.295330 0.255134
O O1 0.750000 0.081687 0.184146
O O2 0.968014 0.184454 0.266644
O O3 0.993782 0.131454 0.071739
O O4 0.000000 0.000000 0.226340
O O5 0.500000 0.500000 0.087614
O O6 0.250000 0.402952 0.098158
O O7 0.451622 0.366949 0.946787
O O8 0.518471 0.326398 0.139063
O O9 0.750000 0.597168 0.795416
O O10 0.000000 0.500000 0.807701
O O11 0.018320 0.670254 0.751390
O O12 0.250000 0.410524 0.450095
O O13 0.000000 0.500000 0.468136
O O14 0.022126 0.330994 0.544523
O O15 0.019298 0.354683 0.340674
O O16 0.250000 0.691792 0.623515
O O17 0.464004 0.822912 0.643313
O O18 0.750000 0.077456 0.737727
O O19 0.524420 0.147520 0.846256
O O20 0.500000 0.000000 0.701322
O O21 0.250000 0.906701 0.971231
O O22 0.000000 0.000000 0.933225
O O23 0.750000 0.313401 0.269035
#
# Coordination Sequence:
#
# PCOD8168428 Si02
#       8
#     4   4   4   4   4   4   4   4
#     4   9  19  34  56  84 120 159 199 244 291 347
#     4  10  21  37  57  85 120 157 196 241 297 360
#     4  10  21  37  57  85 120 157 196 241 297 360
#     4  12  26  46  69  90 117 152 197 252 304 362
#     4  11  23  39  62  90 120 156 200 248 301 359
#     4   9  19  34  56  84 120 159 199 244 291 347
#     4   8  14  28  48  76 111 152 193 230 279 332
#     4  11  23  39  62  90 120 156 200 248 301 359
#
# _framework density 20.153123999999998
#
# number of rings (size 3 to 8) (size 9 to 14) (size 15 to 20)
#    0.000    2.000    0.000    3.375    1.750    3.500 
#    0.000    0.625    0.000    0.000    0.000    0.000 
#    0.000    0.000    0.000    0.000    0.000    0.000 
#
# Total GULP energy -396492.007415 kJ/mol
# GULP energy per Si atom -12390.375232 kJ/mol
# Density = 2.010725 g / cm^3
# Si number density = 20.153124 Si / 1000 Ang^3
#
#
#
# Elastic Constant Matrix: (Units=GPa)
#
#
# Indices 1 2 3 4 5 6 
#
# 1 84.9845 33.7727 30.8097 0.0000 0.0000 0.0000
# 2 33.7727 89.9783 37.9979 0.0000 0.0000 0.0000
# 3 30.8097 37.9979 66.2580 0.0000 0.0000 0.0000
# 4 0.0000 0.0000 0.0000 27.4835 0.0000 0.0000
# 5 0.0000 0.0000 0.0000 0.0000 33.7410 0.0000
# 6 0.0000 0.0000 0.0000 0.0000 0.0000 31.5771
#
#
#
# Elastic Compliance Matrix: (Units=1/GPa)
#
#
# Indices 1 2 3 4 5 6 
#
# 1 0.014958 -0.003533 -0.004929 0.000000 0.000000 0.000000
# 2 -0.003533 0.015500 -0.007246 0.000000 0.000000 0.000000
# 3 -0.004929 -0.007246 0.021540 0.000000 0.000000 0.000000
# 4 0.000000 0.000000 0.000000 0.036386 0.000000 0.000000
# 5 0.000000 0.000000 0.000000 0.000000 0.029637 0.000000
# 6 0.000000 0.000000 0.000000 0.000000 0.000000 0.031669
#
#
# Mechanical properties :
#
#
# Convention : Reuss Voigt Hill
#
# Bulk Modulus (GPa) = 48.58771 49.59795 49.09283
# Shear Modulus (GPa) = 26.60049 27.80302 27.20175
#
# Velocity S-wave (km/s) = 3.63701 3.71831 3.67789
# Velocity P-wave (km/s) = 6.46519 6.56494 6.51526
#
# Compressibility (1/GPa) = 0.02058134
#
# Stress axis : x y z
#
# Youngs Moduli (GPa) = 66.85480 64.51685 46.42462
#
# Poissons Ratio (x) = 0.22791 0.22885
# Poissons Ratio (y) = 0.23617 0.33641
# Poissons Ratio (z) = 0.32956 0.46751
#
# Static dielectric constant tensor:
#      x y z
#    x 3.673400 0.000000 0.000000 
#    y 0.000000 3.634290 0.000000 
#    z 0.000000 0.000000 3.749300 
# 
# 
# High freq. dielectric constant tensor:
#      x y z
#    x 1.789410 0.000000 0.000000 
#    y 0.000000 1.788360 0.000000 
#    z 0.000000 0.000000 1.780000 
# 
# From -- ./inp_files/5000.got.cif
#   From: 2010.03.12/outbox.cif.g09.slc.cpg/sg28_3_cif.got.tgz:5000.got - 2010.04.14 03:39:34.
