data_PCOD8168827
_publ_section_title
;
Structure prediction by ZEFSAII (Michael W. Deem and Ramdas Pophale) SiO2 
 PCOD8168827
Probable space group: P C A 21
;
_chemical_formula_sum "Si O2"
_cell_formula_units_Z 28
_cell_length_a 17.587951
_cell_length_b 5.522327
_cell_length_c 12.929935
_cell_angle_alpha 90.000000
_cell_angle_beta 90.000000
_cell_angle_gamma 90.000000
_cell_volume 1255.838254
_symmetry_space_group_name_H-M "P C A 21"
_symmetry_group_IT_number 29
_symmetry_cell_setting 'orthorhombic'
loop_
_space_group_symop_operation_xyz
x,y,z
-x,-y,1/2+z
1/2-x,y,1/2+z
1/2+x,-y,z
loop_
_atom_site_type_symbol
_atom_site_label
_atom_site_fract_x
_atom_site_fract_y
_atom_site_fract_z
Si Si1 0.625890 0.935484 0.341720
Si Si2 0.768556 0.718379 0.265268
Si Si3 0.422184 0.370178 0.363950
Si Si4 0.475497 0.936883 0.017026
Si Si5 0.404557 0.674419 0.552616
Si Si6 0.485318 0.346955 0.701690
Si Si7 0.279840 0.793456 0.693159
O O1 0.693398 0.734364 0.338652
O O2 0.550917 0.844335 0.280972
O O3 0.602790 0.984255 0.461049
O O4 0.657442 0.180252 0.286479
O O5 0.844399 0.757212 0.331233
O O6 0.768264 0.455426 0.208028
O O7 0.769320 0.956381 0.189695
O O8 0.473625 0.191776 0.430169
O O9 0.398104 0.598379 0.433625
O O10 0.467944 0.451970 0.263058
O O11 0.457027 0.772003 0.117134
O O12 0.521749 0.159219 0.064391
O O13 0.415837 0.454350 0.633839
O O14 0.324682 0.795633 0.583955
#
# Coordination Sequence:
#
# PCOD8168827 Si02
#       7
#     4   4   4   4   4   4   4
#     4  10  21  40  72  93 139 180 231 282 357 413
#     4  10  24  43  69  97 142 188 222 293 355 421
#     4  11  26  41  70 101 146 178 244 295 359 417
#     4  11  23  39  70 104 128 189 236 298 349 433
#     4  11  21  40  70 100 135 182 235 282 358 421
#     4  11  22  41  67 104 137 182 233 297 352 423
#     4  10  21  42  70  93 139 185 229 275 364 420
#
# _framework density 22.295866
#
# number of rings (size 3 to 8) (size 9 to 14) (size 15 to 20)
#    0.857    0.571    4.286    0.857    4.000    0.000 
#    0.000    4.286    0.000    0.000    0.000    0.000 
#    0.000    0.000    0.000    0.000    0.000    0.000 
#
# Total GULP energy -346994.250506 kJ/mol
# GULP energy per Si atom -12392.651804 kJ/mol
# Density = 2.224512 g / cm^3
# Si number density = 22.295866 Si / 1000 Ang^3
#
#
#
# Elastic Constant Matrix: (Units=GPa)
#
#
# Indices 1 2 3 4 5 6 
#
# 1 61.6512 9.4658 21.7647 0.0000 0.0000 0.0000
# 2 9.4658 103.4204 12.8936 0.0000 0.0000 0.0000
# 3 21.7647 12.8936 73.6659 0.0000 0.0000 0.0000
# 4 0.0000 0.0000 0.0000 34.9230 0.0000 0.0000
# 5 0.0000 0.0000 0.0000 0.0000 7.6604 0.0000
# 6 0.0000 0.0000 0.0000 0.0000 0.0000 20.1283
#
#
#
# Elastic Compliance Matrix: (Units=1/GPa)
#
#
# Indices 1 2 3 4 5 6 
#
# 1 0.018213 -0.001018 -0.005203 0.000000 0.000000 0.000000
# 2 -0.001018 0.009942 -0.001439 0.000000 0.000000 0.000000
# 3 -0.005203 -0.001439 0.015364 0.000000 0.000000 0.000000
# 4 0.000000 0.000000 0.000000 0.028634 0.000000 0.000000
# 5 0.000000 0.000000 0.000000 0.000000 0.130542 0.000000
# 6 0.000000 0.000000 0.000000 0.000000 0.000000 0.049681
#
#
# Mechanical properties :
#
#
# Convention : Reuss Voigt Hill
#
# Bulk Modulus (GPa) = 35.46329 36.33175 35.89752
# Shear Modulus (GPa) = 18.04417 25.51656 21.78036
#
# Velocity S-wave (km/s) = 2.84792 3.38665 3.12890
# Velocity P-wave (km/s) = 5.17247 5.62345 5.40267
#
# Compressibility (1/GPa) = 0.02819817
#
# Stress axis : x y z
#
# Youngs Moduli (GPa) = 54.90457 100.58423 65.08758
#
# Poissons Ratio (x) = 0.10243 0.33865
# Poissons Ratio (y) = 0.05591 0.09368
# Poissons Ratio (z) = 0.28566 0.14476
#
# Static dielectric constant tensor:
#      x y z
#    x 3.698010 0.000000 0.000000 
#    y 0.000000 4.007310 0.000000 
#    z 0.000000 0.000000 3.925120 
# 
# 
# High freq. dielectric constant tensor:
#      x y z
#    x 1.856700 0.000000 0.000000 
#    y 0.000000 1.880850 0.000000 
#    z 0.000000 0.000000 1.866740 
# 
# From -- ./inp_files/3780.got.cif
#   From: 2010.03.12/outbox.cif.g09.slc.cpg/sg29_2_cif.got.tgz:3780.got - 2010.04.14 03:43:10.
