data_PCOD8168008
_publ_section_title
;
Structure prediction by ZEFSAII (Michael W. Deem and Ramdas Pophale) SiO2 
 PCOD8168008
Probable space group: P M A 2
;
_chemical_formula_sum "Si O2"
_cell_formula_units_Z 32
_cell_length_a 8.666971
_cell_length_b 14.311112
_cell_length_c 15.597699
_cell_angle_alpha 90.000000
_cell_angle_beta 90.000000
_cell_angle_gamma 90.000000
_cell_volume 1934.644884
_symmetry_space_group_name_H-M "P M A 2"
_symmetry_group_IT_number 28
_symmetry_cell_setting 'orthorhombic'
loop_
_space_group_symop_operation_xyz
x,y,z
-x,-y,z
1/2-x,y,z
1/2+x,-y,z
loop_
_atom_site_type_symbol
_atom_site_label
_atom_site_fract_x
_atom_site_fract_y
_atom_site_fract_z
Si Si1 0.432505 0.896294 0.475260
Si Si2 0.567431 0.403376 0.238168
Si Si3 0.067278 0.789862 0.309592
Si Si4 0.068193 0.777191 0.982495
Si Si5 0.432388 0.402929 0.051455
Si Si6 0.070118 0.103053 0.834534
Si Si7 0.067377 0.898027 0.144298
Si Si8 0.427894 0.100848 0.644738
O O1 0.250000 0.902051 0.472177
O O2 0.497848 0.832212 0.398094
O O3 0.486311 0.847993 0.565176
O O4 0.500000 0.000000 0.465690
O O5 0.500000 0.500000 0.275853
O O6 0.750000 0.411985 0.229661
O O7 0.517978 0.318766 0.300994
O O8 0.501370 0.381112 0.144724
O O9 0.250000 0.797413 0.307523
O O10 0.000435 0.849084 0.229783
O O11 0.250000 0.760264 0.984480
O O12 0.012103 0.839392 0.062340
O O13 0.982147 0.678038 0.986160
O O14 0.020826 0.827056 0.895144
O O15 0.500000 0.500000 0.015613
O O16 0.250000 0.410201 0.058135
O O17 0.250000 0.097431 0.859373
O O18 0.049424 0.146688 0.738492
O O19 0.000000 0.000000 0.843201
O O20 0.250000 0.904467 0.147392
O O21 0.000000 0.000000 0.135529
O O22 0.250000 0.092433 0.619881
O O23 0.500000 0.000000 0.652548
#
# Coordination Sequence:
#
# PCOD8168008 Si02
#       8
#     4   4   4   4   4   4   4   4
#     4  10  18  29  47  69  94 127 161 197 238 283
#     4  10  18  33  51  69  94 123 160 202 247 289
#     4   9  18  32  47  65  95 129 158 194 241 286
#     4  11  21  34  51  70  97 131 164 202 244 287
#     4  11  21  34  52  73  96 124 162 204 247 291
#     4  10  20  33  49  71  99 131 165 202 245 291
#     4  10  20  33  45  62  93 131 163 193 230 275
#     4   9  17  30  47  67  94 125 158 201 244 283
#
# _framework density 16.540503000000001
#
# number of rings (size 3 to 8) (size 9 to 14) (size 15 to 20)
#    0.000    2.000    1.250    5.250    0.000    3.500 
#    0.000    3.125    0.000    0.000    0.000    0.875 
#    0.000    4.000    0.000    0.000    0.000    0.000 
#
# Total GULP energy -396707.315450 kJ/mol
# GULP energy per Si atom -12397.103608 kJ/mol
# Density = 1.650286 g / cm^3
# Si number density = 16.540503 Si / 1000 Ang^3
#
#
#
# Elastic Constant Matrix: (Units=GPa)
#
#
# Indices 1 2 3 4 5 6 
#
# 1 75.1555 34.0190 29.9300 0.0000 0.0000 0.0000
# 2 34.0190 111.2092 54.6634 0.0000 0.0000 0.0000
# 3 29.9300 54.6634 113.7933 0.0000 0.0000 0.0000
# 4 0.0000 0.0000 0.0000 6.1913 0.0000 0.0000
# 5 0.0000 0.0000 0.0000 0.0000 42.5250 0.0000
# 6 0.0000 0.0000 0.0000 0.0000 0.0000 24.6268
#
#
#
# Elastic Compliance Matrix: (Units=1/GPa)
#
#
# Indices 1 2 3 4 5 6 
#
# 1 0.015938 -0.003685 -0.002422 0.000000 0.000000 0.000000
# 2 -0.003685 0.012624 -0.005095 0.000000 0.000000 0.000000
# 3 -0.002422 -0.005095 0.011872 0.000000 0.000000 0.000000
# 4 0.000000 0.000000 0.000000 0.161518 0.000000 0.000000
# 5 0.000000 0.000000 0.000000 0.000000 0.023516 0.000000
# 6 0.000000 0.000000 0.000000 0.000000 0.000000 0.040606
#
#
# Mechanical properties :
#
#
# Convention : Reuss Voigt Hill
#
# Bulk Modulus (GPa) = 55.46116 59.70920 57.58518
# Shear Modulus (GPa) = 16.97864 26.77165 21.87514
#
# Velocity S-wave (km/s) = 3.20736 4.02749 3.64059
# Velocity P-wave (km/s) = 6.87892 7.60294 7.24997
#
# Compressibility (1/GPa) = 0.01803064
#
# Stress axis : x y z
#
# Youngs Moduli (GPa) = 62.74199 79.21659 84.22983
#
# Poissons Ratio (x) = 0.29192 0.20399
# Poissons Ratio (y) = 0.23121 0.42913
# Poissons Ratio (z) = 0.15195 0.40359
#
# Static dielectric constant tensor:
#      x y z
#    x 3.119370 0.000000 0.000000 
#    y 0.000000 3.168410 0.000000 
#    z 0.000000 0.000000 3.528400 
# 
# 
# High freq. dielectric constant tensor:
#      x y z
#    x 1.643780 0.000000 0.000000 
#    y 0.000000 1.616930 0.000000 
#    z 0.000000 0.000000 1.629990 
# 
# From -- ./inp_files/6439.got.cif
#   From: 2010.03.12/outbox.cif.g09.slc.cpg/sg28_4_cif.got.tgz:6439.got - 2010.04.14 03:39:34.
