data_PCOD8168996
_publ_section_title
;
Structure prediction by ZEFSAII (Michael W. Deem and Ramdas Pophale) SiO2 
 PCOD8168996
Probable space group: P C A 21
;
_chemical_formula_sum "Si O2"
_cell_formula_units_Z 24
_cell_length_a 13.020083
_cell_length_b 15.414881
_cell_length_c 5.185627
_cell_angle_alpha 90.000000
_cell_angle_beta 90.000000
_cell_angle_gamma 90.000000
_cell_volume 1040.771052
_symmetry_space_group_name_H-M "P C A 21"
_symmetry_group_IT_number 29
_symmetry_cell_setting 'orthorhombic'
loop_
_space_group_symop_operation_xyz
x,y,z
-x,-y,1/2+z
1/2-x,y,1/2+z
1/2+x,-y,z
loop_
_atom_site_type_symbol
_atom_site_label
_atom_site_fract_x
_atom_site_fract_y
_atom_site_fract_z
Si Si1 0.690023 0.647112 0.393500
Si Si2 0.869536 0.220761 0.341831
Si Si3 0.007890 0.946678 0.843673
Si Si4 0.683796 0.835643 0.478847
Si Si5 0.637545 0.298800 0.341587
Si Si6 0.560378 0.488724 0.346743
O O1 0.786105 0.641492 0.589518
O O2 0.636705 0.739146 0.451958
O O3 0.620958 0.567148 0.477579
O O4 0.891046 0.116813 0.331947
O O5 0.750595 0.253531 0.346793
O O6 0.922735 0.260935 0.595439
O O7 0.922768 0.265212 0.093921
O O8 0.910588 0.898540 0.955956
O O9 0.976191 0.978494 0.557486
O O10 0.731525 0.852587 0.759324
O O11 0.633758 0.403454 0.332142
O O12 0.470650 0.479064 0.559820
#
# Coordination Sequence:
#
# PCOD8168996 Si02
#       6
#     4   4   4   4   4   4
#     4  10  23  42  67  90 129 181 226 270 326 397
#     4  10  23  45  68 100 135 181 226 288 355 423
#     4  12  26  47  73 105 134 173 236 299 354 431
#     4  10  23  46  68  97 136 180 220 281 353 420
#     4  10  23  42  69  99 143 184 225 276 354 408
#     4  12  26  40  65 107 141 183 233 286 332 409
#
# _framework density 23.059829000000001
#
# number of rings (size 3 to 8) (size 9 to 14) (size 15 to 20)
#    0.000    1.333    0.000    4.000    9.333    0.000 
#   18.000    0.000    0.000    0.000    0.000    0.000 
#    0.000    0.000    0.000    0.000    0.000    0.000 
#
# Total GULP energy -297320.067778 kJ/mol
# GULP energy per Si atom -12388.336157 kJ/mol
# Density = 2.300734 g / cm^3
# Si number density = 23.059829 Si / 1000 Ang^3
#
#
#
# Elastic Constant Matrix: (Units=GPa)
#
#
# Indices 1 2 3 4 5 6 
#
# 1 41.6640 40.5171 -6.7237 0.0000 0.0000 0.0000
# 2 40.5171 113.1259 22.7347 0.0000 0.0000 0.0000
# 3 -6.7237 22.7347 165.0319 0.0000 0.0000 0.0000
# 4 0.0000 0.0000 0.0000 41.4128 0.0000 0.0000
# 5 0.0000 0.0000 0.0000 0.0000 13.1245 0.0000
# 6 0.0000 0.0000 0.0000 0.0000 0.0000 48.4412
#
#
#
# Elastic Compliance Matrix: (Units=1/GPa)
#
#
# Indices 1 2 3 4 5 6 
#
# 1 0.038797 -0.014618 0.003594 0.000000 0.000000 0.000000
# 2 -0.014618 0.014599 -0.002607 0.000000 0.000000 0.000000
# 3 0.003594 -0.002607 0.006565 0.000000 0.000000 0.000000
# 4 0.000000 0.000000 0.000000 0.024147 0.000000 0.000000
# 5 0.000000 0.000000 0.000000 0.000000 0.076193 0.000000
# 6 0.000000 0.000000 0.000000 0.000000 0.000000 0.020644
#
#
# Mechanical properties :
#
#
# Convention : Reuss Voigt Hill
#
# Bulk Modulus (GPa) = 30.58029 48.09755 39.33892
# Shear Modulus (GPa) = 22.82001 38.14861 30.48431
#
# Velocity S-wave (km/s) = 3.14920 4.07176 3.63983
# Velocity P-wave (km/s) = 5.14911 6.55810 5.89585
#
# Compressibility (1/GPa) = 0.03270080
#
# Stress axis : x y z
#
# Youngs Moduli (GPa) = 25.77507 68.49723 152.32337
#
# Poissons Ratio (x) = 1.00129 -0.54752
# Poissons Ratio (y) = 0.37678 0.39707
# Poissons Ratio (z) = -0.09265 0.17855
#
# Static dielectric constant tensor:
#      x y z
#    x 3.588930 0.000000 0.000000 
#    y 0.000000 4.504140 0.000000 
#    z 0.000000 0.000000 5.629810 
# 
# 
# High freq. dielectric constant tensor:
#      x y z
#    x 1.877560 0.000000 0.000000 
#    y 0.000000 1.917310 0.000000 
#    z 0.000000 0.000000 1.947740 
# 
# From -- ./inp_files/83.got.cif
#   From: 2010.03.12/outbox.cif.g09.slc.cpg/sg29_1_cif.got.tgz:83.got - 2010.04.14 03:43:10.
