data_PCOD8168687
_publ_section_title
;
Structure prediction by ZEFSAII (Michael W. Deem and Ramdas Pophale) SiO2 
 PCOD8168687
Probable space group: P C A 21
;
_chemical_formula_sum "Si O2"
_cell_formula_units_Z 32
_cell_length_a 23.212491
_cell_length_b 8.749517
_cell_length_c 7.852321
_cell_angle_alpha 90.000000
_cell_angle_beta 90.000000
_cell_angle_gamma 90.000000
_cell_volume 1594.791355
_symmetry_space_group_name_H-M "P C A 21"
_symmetry_group_IT_number 29
_symmetry_cell_setting 'orthorhombic'
loop_
_space_group_symop_operation_xyz
x,y,z
-x,-y,1/2+z
1/2-x,y,1/2+z
1/2+x,-y,z
loop_
_atom_site_type_symbol
_atom_site_label
_atom_site_fract_x
_atom_site_fract_y
_atom_site_fract_z
Si Si1 0.310919 0.532997 0.945330
Si Si2 0.429587 0.973860 0.110985
Si Si3 0.604157 0.728998 0.445120
Si Si4 0.915052 0.692080 0.572258
Si Si5 0.379617 0.682860 0.245254
Si Si6 0.319399 0.542891 0.550951
Si Si7 0.482070 0.469934 0.147236
Si Si8 0.502843 0.825995 0.836409
O O1 0.336859 0.363622 0.966011
O O2 0.321225 0.592829 0.750570
O O3 0.339400 0.646824 0.081893
O O4 0.244424 0.512547 0.986378
O O5 0.487533 0.042633 0.196072
O O6 0.395666 0.861857 0.237102
O O7 0.389922 0.116262 0.054105
O O8 0.449266 0.870136 0.952954
O O9 0.592220 0.776512 0.251495
O O10 0.550761 0.620866 0.497425
O O11 0.855221 0.612886 0.520234
O O12 0.934896 0.816789 0.433846
O O13 0.966798 0.569145 0.572412
O O14 0.346826 0.669751 0.425952
O O15 0.435988 0.574703 0.248253
O O16 0.511994 0.341738 0.265199
#
# Coordination Sequence:
#
# PCOD8168687 Si02
#       8
#     4   4   4   4   4   4   4   4
#     4  10  22  42  67  91 121 159 225 281 309 375
#     4  11  24  38  58  90 134 176 197 258 326 400
#     4   9  22  38  58  87 124 165 204 254 322 376
#     4  11  20  35  62  97 117 160 212 259 313 381
#     4  11  22  40  64  91 128 167 214 270 320 373
#     4  11  22  38  71  94 116 164 222 277 324 358
#     4  10  20  36  60  91 123 161 211 259 304 379
#     4  11  22  37  56  87 133 166 203 246 320 394
#
# _framework density 20.065322999999999
#
# number of rings (size 3 to 8) (size 9 to 14) (size 15 to 20)
#    0.000    1.500    3.750    1.500    3.500    1.000 
#    2.250    0.000    8.250    0.000    0.000    0.000 
#    0.000    0.000    0.000    0.000    0.000    0.000 
#
# Total GULP energy -396719.243001 kJ/mol
# GULP energy per Si atom -12397.476344 kJ/mol
# Density = 2.001965 g / cm^3
# Si number density = 20.065323 Si / 1000 Ang^3
#
#
#
# Elastic Constant Matrix: (Units=GPa)
#
#
# Indices 1 2 3 4 5 6 
#
# 1 94.6215 37.7081 20.8302 0.0000 0.0000 0.0000
# 2 37.7081 95.4573 32.0507 0.0000 0.0000 0.0000
# 3 20.8302 32.0507 97.6271 0.0000 0.0000 0.0000
# 4 0.0000 0.0000 0.0000 21.4005 0.0000 0.0000
# 5 0.0000 0.0000 0.0000 0.0000 29.8746 0.0000
# 6 0.0000 0.0000 0.0000 0.0000 0.0000 18.0734
#
#
#
# Elastic Compliance Matrix: (Units=1/GPa)
#
#
# Indices 1 2 3 4 5 6 
#
# 1 0.012665 -0.004603 -0.001191 0.000000 0.000000 0.000000
# 2 -0.004603 0.013447 -0.003432 0.000000 0.000000 0.000000
# 3 -0.001191 -0.003432 0.011624 0.000000 0.000000 0.000000
# 4 0.000000 0.000000 0.000000 0.046728 0.000000 0.000000
# 5 0.000000 0.000000 0.000000 0.000000 0.033473 0.000000
# 6 0.000000 0.000000 0.000000 0.000000 0.000000 0.055330
#
#
# Mechanical properties :
#
#
# Convention : Reuss Voigt Hill
#
# Bulk Modulus (GPa) = 51.86015 52.09823 51.97919
# Shear Modulus (GPa) = 25.23375 27.01084 26.12230
#
# Velocity S-wave (km/s) = 3.55008 3.67297 3.61205
# Velocity P-wave (km/s) = 6.53498 6.63387 6.58461
#
# Compressibility (1/GPa) = 0.01928263
#
# Stress axis : x y z
#
# Youngs Moduli (GPa) = 78.95749 74.36783 86.02868
#
# Poissons Ratio (x) = 0.34232 0.10247
# Poissons Ratio (y) = 0.36345 0.29528
# Poissons Ratio (z) = 0.09405 0.25526
#
# Static dielectric constant tensor:
#      x y z
#    x 3.519240 0.000000 0.000000 
#    y 0.000000 3.481280 0.000000 
#    z 0.000000 0.000000 4.087710 
# 
# 
# High freq. dielectric constant tensor:
#      x y z
#    x 1.762560 0.000000 0.000000 
#    y 0.000000 1.763930 0.000000 
#    z 0.000000 0.000000 1.806230 
# 
# From -- ./inp_files/2264.got.cif
#   From: 2010.03.12/outbox.cif.g09.slc.cpg/sg29_2_cif.got.tgz:2264.got - 2010.04.14 03:43:10.
