data_PCOD8168908
_publ_section_title
;
Structure prediction by ZEFSAII (Michael W. Deem and Ramdas Pophale) SiO2 
 PCOD8168908
Probable space group: P C A 21
;
_chemical_formula_sum "Si O2"
_cell_formula_units_Z 24
_cell_length_a 8.031622
_cell_length_b 4.690438
_cell_length_c 20.309501
_cell_angle_alpha 90.000000
_cell_angle_beta 90.000000
_cell_angle_gamma 90.000000
_cell_volume 765.095968
_symmetry_space_group_name_H-M "P C A 21"
_symmetry_group_IT_number 29
_symmetry_cell_setting 'orthorhombic'
loop_
_space_group_symop_operation_xyz
x,y,z
-x,-y,1/2+z
1/2-x,y,1/2+z
1/2+x,-y,z
loop_
_atom_site_type_symbol
_atom_site_label
_atom_site_fract_x
_atom_site_fract_y
_atom_site_fract_z
Si Si1 0.752786 0.747224 0.973350
Si Si2 0.118280 0.186580 0.221859
Si Si3 0.819525 0.352150 0.146318
Si Si4 0.839566 0.314448 0.810742
Si Si5 0.543933 0.328811 0.054779
Si Si6 0.538095 0.121771 0.889894
O O1 0.874010 0.687895 0.909334
O O2 0.627517 0.006295 0.957767
O O3 0.652290 0.465847 0.994249
O O4 0.886323 0.856802 0.028767
O O5 0.252252 0.346049 0.175533
O O6 0.173897 0.860143 0.239551
O O7 0.926591 0.171009 0.198636
O O8 0.113983 0.359915 0.292181
O O9 0.665398 0.178019 0.109842
O O10 0.956934 0.406810 0.090601
O O11 0.988373 0.163576 0.850406
O O12 0.666022 0.313915 0.849491
#
# Coordination Sequence:
#
# PCOD8168908 Si02
#       6
#     4   4   4   4   4   4
#     4  10  22  41  64  91 138 182 237 298 356 422
#     4  11  22  42  67 100 141 184 232 297 360 432
#     4   9  20  39  64  97 136 181 236 291 360 430
#     4  11  24  42  67 102 141 185 237 293 358 434
#     4   9  20  42  67  96 134 184 239 294 354 430
#     4  10  24  40  61 102 140 188 239 293 360 430
#
# _framework density 31.368614999999998
#
# number of rings (size 3 to 8) (size 9 to 14) (size 15 to 20)
#    0.000    2.000    0.000    2.000    0.000   10.667 
#    0.000   25.000    0.000    0.000    0.000    0.000 
#    0.000    0.000    0.000    0.000    0.000    0.000 
#
# Total GULP energy -297413.170781 kJ/mol
# GULP energy per Si atom -12392.215449 kJ/mol
# Density = 3.129722 g / cm^3
# Si number density = 31.368615 Si / 1000 Ang^3
#
#
#
# Elastic Constant Matrix: (Units=GPa)
#
#
# Indices 1 2 3 4 5 6 
#
# 1 174.6573 44.4862 40.6377 0.0000 0.0000 0.0000
# 2 44.4862 88.5224 -3.5268 0.0000 0.0000 0.0000
# 3 40.6377 -3.5268 97.9707 0.0000 0.0000 0.0000
# 4 0.0000 0.0000 0.0000 14.6728 0.0000 0.0000
# 5 0.0000 0.0000 0.0000 0.0000 72.7732 0.0000
# 6 0.0000 0.0000 0.0000 0.0000 0.0000 100.2370
#
#
#
# Elastic Compliance Matrix: (Units=1/GPa)
#
#
# Indices 1 2 3 4 5 6 
#
# 1 0.007467 -0.003882 -0.003237 0.000000 0.000000 0.000000
# 2 -0.003882 0.013331 0.002090 0.000000 0.000000 0.000000
# 3 -0.003237 0.002090 0.011625 0.000000 0.000000 0.000000
# 4 0.000000 0.000000 0.000000 0.068153 0.000000 0.000000
# 5 0.000000 0.000000 0.000000 0.000000 0.013741 0.000000
# 6 0.000000 0.000000 0.000000 0.000000 0.000000 0.009976
#
#
# Mechanical properties :
#
#
# Convention : Reuss Voigt Hill
#
# Bulk Modulus (GPa) = 44.71204 58.26053 51.48629
# Shear Modulus (GPa) = 35.25923 56.17348 45.71636
#
# Velocity S-wave (km/s) = 3.35629 4.23632 3.82172
# Velocity P-wave (km/s) = 5.41334 6.52240 5.99358
#
# Compressibility (1/GPa) = 0.02236534
#
# Stress axis : x y z
#
# Youngs Moduli (GPa) = 133.91611 75.01584 86.02065
#
# Poissons Ratio (x) = 0.29118 0.27846
# Poissons Ratio (y) = 0.51981 -0.17978
# Poissons Ratio (z) = 0.43351 -0.15678
#
# Static dielectric constant tensor:
#      x y z
#    x 6.300370 0.000000 0.000000 
#    y 0.000000 5.012970 0.000000 
#    z 0.000000 0.000000 7.020430 
# 
# 
# High freq. dielectric constant tensor:
#      x y z
#    x 2.327350 0.000000 0.000000 
#    y 0.000000 2.252530 0.000000 
#    z 0.000000 0.000000 2.333570 
# 
# From -- ./inp_files/5653.got.cif
#   From: 2010.03.12/outbox.cif.g09.slc.cpg/sg29_3_cif.got.tgz:5653.got - 2010.04.14 03:43:10.
