data_PCOD8168980
_publ_section_title
;
Structure prediction by ZEFSAII (Michael W. Deem and Ramdas Pophale) SiO2 
 PCOD8168980
Probable space group: P C A 21
;
_chemical_formula_sum "Si O2"
_cell_formula_units_Z 32
_cell_length_a 12.540791
_cell_length_b 5.137212
_cell_length_c 21.527001
_cell_angle_alpha 90.000000
_cell_angle_beta 90.000000
_cell_angle_gamma 90.000000
_cell_volume 1386.870625
_symmetry_space_group_name_H-M "P C A 21"
_symmetry_group_IT_number 29
_symmetry_cell_setting 'orthorhombic'
loop_
_space_group_symop_operation_xyz
x,y,z
-x,-y,1/2+z
1/2-x,y,1/2+z
1/2+x,-y,z
loop_
_atom_site_type_symbol
_atom_site_label
_atom_site_fract_x
_atom_site_fract_y
_atom_site_fract_z
Si Si1 0.556697 0.608967 0.060160
Si Si2 0.199499 0.941148 0.198973
Si Si3 0.936987 0.979065 0.404646
Si Si4 0.807078 0.106548 0.556594
Si Si5 0.309924 0.534902 0.404573
Si Si6 0.876674 0.254142 0.974059
Si Si7 0.381299 0.763808 0.285524
Si Si8 0.063655 0.437441 0.202473
O O1 0.646095 0.395053 0.045929
O O2 0.522004 0.594422 0.132002
O O3 0.603661 0.891272 0.041154
O O4 0.451093 0.570877 0.018753
O O5 0.231802 0.930875 0.127109
O O6 0.306851 0.915583 0.237980
O O7 0.113262 0.719707 0.214481
O O8 0.151491 0.219480 0.216991
O O9 0.864170 0.733686 0.423217
O O10 0.056127 0.938095 0.429609
O O11 0.880040 0.230340 0.436492
O O12 0.941772 0.026148 0.329988
O O13 0.701829 0.074408 0.514811
O O14 0.189374 0.547964 0.429912
O O15 0.310597 0.573983 0.329788
O O16 0.464666 0.587874 0.248543
#
# Coordination Sequence:
#
# PCOD8168980 Si02
#       8
#     4   4   4   4   4   4   4   4
#     4  10  23  42  64  99 127 160 217 265 317 395
#     4  10  23  41  67  97 125 166 207 267 325 380
#     4  10  26  43  58  96 126 163 223 252 307 379
#     4  10  23  42  64  99 128 159 215 263 320 388
#     4  10  26  41  60  93 128 164 218 261 297 385
#     4  12  23  43  70  87 132 178 202 267 330 360
#     4  10  25  42  65  90 132 163 218 260 310 381
#     4  10  23  40  68  95 128 165 210 265 330 376
#
# _framework density 23.073529000000001
#
# number of rings (size 3 to 8) (size 9 to 14) (size 15 to 20)
#    0.750    1.000    0.000    2.250    5.250    4.000 
#    0.000    7.500    0.000    0.000    0.000    0.000 
#    0.000    0.000    0.000    0.000    0.000    0.000 
#
# Total GULP energy -396870.739140 kJ/mol
# GULP energy per Si atom -12402.210598 kJ/mol
# Density = 2.302101 g / cm^3
# Si number density = 23.073529 Si / 1000 Ang^3
#
#
#
# Elastic Constant Matrix: (Units=GPa)
#
#
# Indices 1 2 3 4 5 6 
#
# 1 113.1118 4.5400 84.0168 0.0000 0.0000 0.0000
# 2 4.5400 80.2278 29.7237 0.0000 0.0000 0.0000
# 3 84.0168 29.7237 120.5267 0.0000 0.0000 0.0000
# 4 0.0000 0.0000 0.0000 28.0309 0.0000 0.0000
# 5 0.0000 0.0000 0.0000 0.0000 58.9954 0.0000
# 6 0.0000 0.0000 0.0000 0.0000 0.0000 20.4693
#
#
#
# Elastic Compliance Matrix: (Units=1/GPa)
#
#
# Indices 1 2 3 4 5 6 
#
# 1 0.019625 0.004356 -0.014755 0.000000 0.000000 0.000000
# 2 0.004356 0.014685 -0.006658 0.000000 0.000000 0.000000
# 3 -0.014755 -0.006658 0.020224 0.000000 0.000000 0.000000
# 4 0.000000 0.000000 0.000000 0.035675 0.000000 0.000000
# 5 0.000000 0.000000 0.000000 0.000000 0.016950 0.000000
# 6 0.000000 0.000000 0.000000 0.000000 0.000000 0.048854
#
#
# Mechanical properties :
#
#
# Convention : Reuss Voigt Hill
#
# Bulk Modulus (GPa) = 48.96967 61.15859 55.06413
# Shear Modulus (GPa) = 25.38928 34.53818 29.96373
#
# Velocity S-wave (km/s) = 3.32077 3.87314 3.60755
# Velocity P-wave (km/s) = 5.99773 6.82387 6.42409
#
# Compressibility (1/GPa) = 0.02042080
#
# Stress axis : x y z
#
# Youngs Moduli (GPa) = 50.95426 68.09811 49.44602
#
# Poissons Ratio (x) = -0.29663 0.72956
# Poissons Ratio (y) = -0.22195 0.32921
# Poissons Ratio (z) = 0.75182 0.45339
#
# Static dielectric constant tensor:
#      x y z
#    x 3.875420 0.000000 0.000000 
#    y 0.000000 3.942920 0.000000 
#    z 0.000000 0.000000 4.487560 
# 
# 
# High freq. dielectric constant tensor:
#      x y z
#    x 1.898110 0.000000 0.000000 
#    y 0.000000 1.904890 0.000000 
#    z 0.000000 0.000000 1.939500 
# 
# From -- ./inp_files/5717.got.cif
#   From: 2010.03.12/outbox.cif.g09.slc.cpg/sg29_3_cif.got.tgz:5717.got - 2010.04.14 03:43:10.
