data_PCOD8168185
_publ_section_title
;
Structure prediction by ZEFSAII (Michael W. Deem and Ramdas Pophale) SiO2 
 PCOD8168185
Probable space group: P M A 2
;
_chemical_formula_sum "Si O2"
_cell_formula_units_Z 32
_cell_length_a 8.938367
_cell_length_b 14.661354
_cell_length_c 12.403306
_cell_angle_alpha 90.000000
_cell_angle_beta 90.000000
_cell_angle_gamma 90.000000
_cell_volume 1625.435425
_symmetry_space_group_name_H-M "P M A 2"
_symmetry_group_IT_number 28
_symmetry_cell_setting 'orthorhombic'
loop_
_space_group_symop_operation_xyz
x,y,z
-x,-y,z
1/2-x,y,z
1/2+x,-y,z
loop_
_atom_site_type_symbol
_atom_site_label
_atom_site_fract_x
_atom_site_fract_y
_atom_site_fract_z
Si Si1 0.925373 0.410693 0.066790
Si Si2 0.072516 0.908446 0.163462
Si Si3 0.574586 0.910807 0.705473
Si Si4 0.928488 0.399387 0.448338
Si Si5 0.917168 0.331690 0.849642
Si Si6 0.917491 0.129255 0.921598
Si Si7 0.074589 0.289564 0.639370
Si Si8 0.072795 0.719922 0.247998
O O1 0.750000 0.419668 0.080725
O O2 0.984366 0.326954 0.138320
O O3 0.000000 0.500000 0.115951
O O4 0.969877 0.402371 0.941059
O O5 0.250000 0.915234 0.167247
O O6 0.016218 0.824774 0.239607
O O7 0.019288 0.896060 0.039494
O O8 0.000000 0.000000 0.211564
O O9 0.750000 0.921653 0.698622
O O10 0.526340 0.910550 0.830535
O O11 0.525142 0.817433 0.644376
O O12 0.500000 0.000000 0.649141
O O13 0.750000 0.410526 0.448004
O O14 0.989248 0.336838 0.349981
O O15 0.000000 0.500000 0.443905
O O16 0.978314 0.344402 0.553605
O O17 0.750000 0.353784 0.804939
O O18 0.912555 0.237364 0.913510
O O19 0.037730 0.334757 0.754567
O O20 0.750000 0.089654 0.903831
O O21 0.250000 0.300179 0.615456
O O22 0.250000 0.719739 0.255272
#
# Coordination Sequence:
#
# PCOD8168185 Si02
#       8
#     4   4   4   4   4   4   4   4
#     4  10  19  33  54  81 112 146 181 222 275 335
#     4  10  19  33  53  80 113 150 189 227 273 330
#     4  10  20  33  52  80 115 153 191 234 279 331
#     4  11  23  41  66  88 108 142 189 239 289 344
#     4   9  17  32  54  79 111 153 189 222 275 338
#     4   9  16  29  51  76 109 152 192 228 268 327
#     4  10  22  39  58  83 116 148 188 240 286 333
#     4   9  19  38  60  81 111 148 186 228 278 336
#
# _framework density 19.687031999999999
#
# number of rings (size 3 to 8) (size 9 to 14) (size 15 to 20)
#    0.000    2.250    1.250    1.875    0.000    4.000 
#    0.000    4.375    0.000    3.000    0.000    0.000 
#    0.000    0.000    0.000    0.000    0.000    0.000 
#
# Total GULP energy -396632.248923 kJ/mol
# GULP energy per Si atom -12394.757779 kJ/mol
# Density = 1.964222 g / cm^3
# Si number density = 19.687032 Si / 1000 Ang^3
#
#
#
# Elastic Constant Matrix: (Units=GPa)
#
#
# Indices 1 2 3 4 5 6 
#
# 1 50.9648 41.9314 32.9048 0.0000 0.0000 0.0000
# 2 41.9314 154.9753 67.0833 0.0000 0.0000 0.0000
# 3 32.9048 67.0833 89.5369 0.0000 0.0000 0.0000
# 4 0.0000 0.0000 0.0000 19.0956 0.0000 0.0000
# 5 0.0000 0.0000 0.0000 0.0000 14.3407 0.0000
# 6 0.0000 0.0000 0.0000 0.0000 0.0000 33.1414
#
#
#
# Elastic Compliance Matrix: (Units=1/GPa)
#
#
# Indices 1 2 3 4 5 6 
#
# 1 0.027761 -0.004581 -0.006770 0.000000 0.000000 0.000000
# 2 -0.004581 0.010306 -0.006038 0.000000 0.000000 0.000000
# 3 -0.006770 -0.006038 0.018180 0.000000 0.000000 0.000000
# 4 0.000000 0.000000 0.000000 0.052368 0.000000 0.000000
# 5 0.000000 0.000000 0.000000 0.000000 0.069732 0.000000
# 6 0.000000 0.000000 0.000000 0.000000 0.000000 0.030174
#
#
# Mechanical properties :
#
#
# Convention : Reuss Voigt Hill
#
# Bulk Modulus (GPa) = 46.57738 64.36844 55.47291
# Shear Modulus (GPa) = 19.96369 23.55272 21.75821
#
# Velocity S-wave (km/s) = 3.18787 3.46259 3.32807
# Velocity P-wave (km/s) = 6.10412 6.98233 6.55794
#
# Compressibility (1/GPa) = 0.02146965
#
# Stress axis : x y z
#
# Youngs Moduli (GPa) = 36.02130 97.03475 55.00447
#
# Poissons Ratio (x) = 0.44449 0.37240
# Poissons Ratio (y) = 0.16500 0.33211
# Poissons Ratio (z) = 0.24387 0.58588
#
# Static dielectric constant tensor:
#      x y z
#    x 3.355080 0.000000 0.000000 
#    y 0.000000 3.896750 0.000000 
#    z 0.000000 0.000000 3.488830 
# 
# 
# High freq. dielectric constant tensor:
#      x y z
#    x 1.747890 0.000000 0.000000 
#    y 0.000000 1.781470 0.000000 
#    z 0.000000 0.000000 1.747080 
# 
# From -- ./inp_files/5107.got.cif
#   From: 2010.03.12/outbox.cif.g09.slc.cpg/sg28_3_cif.got.tgz:5107.got - 2010.04.14 03:39:34.
