data_PCOD8168674
_publ_section_title
;
Structure prediction by ZEFSAII (Michael W. Deem and Ramdas Pophale) SiO2 
 PCOD8168674
Probable space group: P C A 21
;
_chemical_formula_sum "Si O2"
_cell_formula_units_Z 28
_cell_length_a 12.180390
_cell_length_b 8.963910
_cell_length_c 13.031751
_cell_angle_alpha 90.000000
_cell_angle_beta 90.000000
_cell_angle_gamma 90.000000
_cell_volume 1422.857655
_symmetry_space_group_name_H-M "P C A 21"
_symmetry_group_IT_number 29
_symmetry_cell_setting 'orthorhombic'
loop_
_space_group_symop_operation_xyz
x,y,z
-x,-y,1/2+z
1/2-x,y,1/2+z
1/2+x,-y,z
loop_
_atom_site_type_symbol
_atom_site_label
_atom_site_fract_x
_atom_site_fract_y
_atom_site_fract_z
Si Si1 0.906205 0.720962 0.364720
Si Si2 0.690910 0.870080 0.437575
Si Si3 0.363479 0.790630 0.967231
Si Si4 0.836412 0.696294 0.139853
Si Si5 0.375085 0.324408 0.762100
Si Si6 0.392614 0.630847 0.165872
Si Si7 0.229201 0.561945 0.856059
O O1 0.819088 0.828830 0.421720
O O2 0.903220 0.748486 0.241524
O O3 0.871059 0.548496 0.389004
O O4 0.027875 0.754241 0.402508
O O5 0.641252 0.799449 0.541935
O O6 0.619756 0.817404 0.339088
O O7 0.679174 0.045832 0.445537
O O8 0.262699 0.679347 0.942245
O O9 0.386774 0.768099 0.087318
O O10 0.707397 0.704146 0.167472
O O11 0.872182 0.527953 0.109984
O O12 0.489797 0.368398 0.717225
O O13 0.334357 0.460947 0.831891
O O14 0.303034 0.655251 0.254642
#
# Coordination Sequence:
#
# PCOD8168674 Si02
#       7
#     4   4   4   4   4   4   4
#     4   9  21  41  59  78 115 153 187 233 279 332
#     4  10  22  37  55  82 119 154 183 228 288 344
#     4  12  23  36  60  88 114 149 189 232 290 345
#     4   9  19  37  58  80 112 151 189 235 283 330
#     4   9  19  38  59  78 111 154 190 232 283 332
#     4  10  20  35  59  84 108 145 196 239 277 332
#     4   9  20  38  58  84 109 142 192 243 278 327
#
# _framework density 19.678706999999999
#
# number of rings (size 3 to 8) (size 9 to 14) (size 15 to 20)
#    0.000    2.857    0.000    4.286    0.000    5.714 
#    0.000    5.714    0.000    0.000    0.000    0.000 
#    0.000    0.000    0.000    0.000    0.000    0.000 
#
# Total GULP energy -347072.815255 kJ/mol
# GULP energy per Si atom -12395.457688 kJ/mol
# Density = 1.963392 g / cm^3
# Si number density = 19.678707 Si / 1000 Ang^3
#
#
#
# Elastic Constant Matrix: (Units=GPa)
#
#
# Indices 1 2 3 4 5 6 
#
# 1 46.8416 42.9968 20.9594 0.0000 0.0000 0.0000
# 2 42.9968 113.6444 43.8135 0.0000 0.0000 0.0000
# 3 20.9594 43.8135 65.7469 0.0000 0.0000 0.0000
# 4 0.0000 0.0000 0.0000 21.0956 0.0000 0.0000
# 5 0.0000 0.0000 0.0000 0.0000 17.4103 0.0000
# 6 0.0000 0.0000 0.0000 0.0000 0.0000 14.8121
#
#
#
# Elastic Compliance Matrix: (Units=1/GPa)
#
#
# Indices 1 2 3 4 5 6 
#
# 1 0.033134 -0.011390 -0.002972 0.000000 0.000000 0.000000
# 2 -0.011390 0.015757 -0.006870 0.000000 0.000000 0.000000
# 3 -0.002972 -0.006870 0.020735 0.000000 0.000000 0.000000
# 4 0.000000 0.000000 0.000000 0.047403 0.000000 0.000000
# 5 0.000000 0.000000 0.000000 0.000000 0.057437 0.000000
# 6 0.000000 0.000000 0.000000 0.000000 0.000000 0.067512
#
#
# Mechanical properties :
#
#
# Convention : Reuss Voigt Hill
#
# Bulk Modulus (GPa) = 36.81583 49.08582 42.95082
# Shear Modulus (GPa) = 17.03598 18.56116 17.79857
#
# Velocity S-wave (km/s) = 2.94548 3.07450 3.01068
# Velocity P-wave (km/s) = 5.50608 6.13198 5.82744
#
# Compressibility (1/GPa) = 0.02716223
#
# Stress axis : x y z
#
# Youngs Moduli (GPa) = 30.18082 63.46326 48.22707
#
# Poissons Ratio (x) = 0.72285 0.14335
# Poissons Ratio (y) = 0.34376 0.33130
# Poissons Ratio (z) = 0.08971 0.43596
#
# Static dielectric constant tensor:
#      x y z
#    x 3.419140 0.000000 0.000000 
#    y 0.000000 3.458040 0.000000 
#    z 0.000000 0.000000 3.674010 
# 
# 
# High freq. dielectric constant tensor:
#      x y z
#    x 1.756750 0.000000 0.000000 
#    y 0.000000 1.750010 0.000000 
#    z 0.000000 0.000000 1.773660 
# 
# From -- ./inp_files/4487.got.cif
#   From: 2010.03.12/outbox.cif.g09.slc.cpg/sg29_3_cif.got.tgz:4487.got - 2010.04.14 03:43:10.
