data_PCOD8168406
_publ_section_title
;
Structure prediction by ZEFSAII (Michael W. Deem and Ramdas Pophale) SiO2 
 PCOD8168406
Probable space group: P M A 2
;
_chemical_formula_sum "Si O2"
_cell_formula_units_Z 20
_cell_length_a 16.369777
_cell_length_b 6.656803
_cell_length_c 8.626537
_cell_angle_alpha 90.000000
_cell_angle_beta 90.000000
_cell_angle_gamma 90.000000
_cell_volume 940.037021
_symmetry_space_group_name_H-M "P M A 2"
_symmetry_group_IT_number 28
_symmetry_cell_setting 'orthorhombic'
loop_
_space_group_symop_operation_xyz
x,y,z
-x,-y,z
1/2-x,y,z
1/2+x,-y,z
loop_
_atom_site_type_symbol
_atom_site_label
_atom_site_fract_x
_atom_site_fract_y
_atom_site_fract_z
Si Si1 0.500000 0.000000 0.377401
Si Si2 0.500000 0.000000 0.877401
Si Si3 0.250000 0.596981 0.521250
Si Si4 0.750000 0.596981 0.021250
Si Si5 0.750000 0.799148 0.681968
Si Si6 0.615581 0.132940 0.634004
Si Si7 0.750000 0.200852 0.181968
Si Si8 0.384419 0.132940 0.134004
O O1 0.434758 0.878411 0.475917
O O2 0.550353 0.841121 0.272039
O O3 0.449647 0.841121 0.772039
O O4 0.565242 0.878411 0.975917
O O5 0.250000 0.355904 0.536278
O O6 0.328537 0.672165 0.617699
O O7 0.250000 0.680682 0.345922
O O8 0.750000 0.680682 0.845922
O O9 0.750000 0.355904 0.036278
O O10 0.671463 0.672165 0.117699
O O11 0.669420 0.933486 0.664436
O O12 0.669420 0.066514 0.164436
#
# Coordination Sequence:
#
# PCOD8168406 Si02
#       8
#     2   2   2   2   2   4   2   4
#     4  10  20  40  66  86 120 162 196 254 306 356
#     4  10  20  40  66  86 120 162 196 254 306 356
#     4  11  24  40  63  91 121 163 205 247 294 360
#     4  11  24  40  63  91 121 163 205 247 294 360
#     4  11  24  40  63  91 121 163 205 247 294 360
#     4  10  22  42  64  86 122 160 204 248 304 352
#     4  11  24  40  63  91 121 163 205 247 294 360
#     4  10  22  42  64  86 122 160 204 248 304 352
#
# _framework density 21.275759999999998
#
# number of rings (size 3 to 8) (size 9 to 14) (size 15 to 20)
#    0.000    1.600    4.000    0.000    5.600    0.000 
#    0.000   12.000    0.000    0.000    0.000    0.000 
#    0.000    0.000    0.000    0.000    0.000    0.000 
#
# Total GULP energy -247936.294088 kJ/mol
# GULP energy per Si atom -12396.814704 kJ/mol
# Density = 2.122734 g / cm^3
# Si number density = 21.275760 Si / 1000 Ang^3
#
#
#
# Elastic Constant Matrix: (Units=GPa)
#
#
# Indices 1 2 3 4 5 6 
#
# 1 130.2620 22.8635 50.3098 0.0000 0.0000 0.0000
# 2 22.8635 82.3630 15.6073 0.0000 0.0000 0.0000
# 3 50.3098 15.6073 111.9821 0.0000 0.0000 0.0000
# 4 0.0000 0.0000 0.0000 23.4153 0.0000 0.0000
# 5 0.0000 0.0000 0.0000 0.0000 14.3687 0.0000
# 6 0.0000 0.0000 0.0000 0.0000 0.0000 7.9234
#
#
#
# Elastic Compliance Matrix: (Units=1/GPa)
#
#
# Indices 1 2 3 4 5 6 
#
# 1 0.009567 -0.001891 -0.004035 0.000000 0.000000 0.000000
# 2 -0.001891 0.012845 -0.000941 0.000000 0.000000 0.000000
# 3 -0.004035 -0.000941 0.010874 0.000000 0.000000 0.000000
# 4 0.000000 0.000000 0.000000 0.042707 0.000000 0.000000
# 5 0.000000 0.000000 0.000000 0.000000 0.069596 0.000000
# 6 0.000000 0.000000 0.000000 0.000000 0.000000 0.126208
#
#
# Mechanical properties :
#
#
# Convention : Reuss Voigt Hill
#
# Bulk Modulus (GPa) = 51.14393 55.79648 53.47020
# Shear Modulus (GPa) = 17.12056 24.86325 20.99191
#
# Velocity S-wave (km/s) = 2.83980 3.42222 3.14452
# Velocity P-wave (km/s) = 5.90283 6.47284 6.19440
#
# Compressibility (1/GPa) = 0.01955266
#
# Stress axis : x y z
#
# Youngs Moduli (GPa) = 104.52596 77.85382 91.96528
#
# Poissons Ratio (x) = 0.14724 0.37104
# Poissons Ratio (y) = 0.19768 0.08650
# Poissons Ratio (z) = 0.42171 0.07322
#
# Static dielectric constant tensor:
#      x y z
#    x 4.393330 0.000000 0.000000 
#    y 0.000000 3.386490 0.000000 
#    z 0.000000 0.000000 4.088540 
# 
# 
# High freq. dielectric constant tensor:
#      x y z
#    x 1.861070 0.000000 0.000000 
#    y 0.000000 1.788490 0.000000 
#    z 0.000000 0.000000 1.853100 
# 
# From -- ./inp_files/3731.got.cif
#   From: 2010.03.12/outbox.cif.g09.slc.cpg/sg28_2_cif.got.tgz:3731.got - 2010.04.14 03:39:34.
