data_PCOD8168311
_publ_section_title
;
Structure prediction by ZEFSAII (Michael W. Deem and Ramdas Pophale) SiO2 
 PCOD8168311
Probable space group: P M A 2
;
_chemical_formula_sum "Si O2"
_cell_formula_units_Z 32
_cell_length_a 15.223684
_cell_length_b 10.850267
_cell_length_c 10.260057
_cell_angle_alpha 90.000000
_cell_angle_beta 90.000000
_cell_angle_gamma 90.000000
_cell_volume 1694.766846
_symmetry_space_group_name_H-M "P M A 2"
_symmetry_group_IT_number 28
_symmetry_cell_setting 'orthorhombic'
loop_
_space_group_symop_operation_xyz
x,y,z
-x,-y,z
1/2-x,y,z
1/2+x,-y,z
loop_
_atom_site_type_symbol
_atom_site_label
_atom_site_fract_x
_atom_site_fract_y
_atom_site_fract_z
Si Si1 0.599162 0.982465 0.832500
Si Si2 0.015866 0.636126 0.635127
Si Si3 0.852135 0.258121 0.127076
Si Si4 0.036247 0.634770 0.344474
Si Si5 0.150280 0.193294 0.609415
Si Si6 0.147966 0.015018 0.107447
Si Si7 0.348290 0.743355 0.836706
Si Si8 0.932643 0.885737 0.352927
O O1 0.649284 0.891352 0.736736
O O2 0.500000 0.000000 0.781707
O O3 0.652773 0.109218 0.839178
O O4 0.599284 0.928300 0.980079
O O5 0.919762 0.697075 0.625120
O O6 0.000000 0.500000 0.688383
O O7 0.066367 0.634376 0.495835
O O8 0.078597 0.703595 0.735308
O O9 0.750000 0.250170 0.151431
O O10 0.886860 0.347073 0.240127
O O11 0.891964 0.120384 0.140681
O O12 0.872474 0.308472 0.980986
O O13 0.000000 0.500000 0.309769
O O14 0.970936 0.749641 0.330570
O O15 0.250000 0.245338 0.593597
O O16 0.124762 0.110727 0.484488
O O17 0.250000 0.007380 0.074639
O O18 0.131668 0.100730 0.230764
O O19 0.250000 0.698674 0.796978
O O20 0.000000 0.000000 0.361904
#
# Coordination Sequence:
#
# PCOD8168311 Si02
#       8
#     4   4   4   4   4   4   4   4
#     4  11  20  35  58  87 120 152 187 238 299 354
#     4  10  23  41  59  82 113 158 202 240 288 352
#     4   9  19  36  57  84 115 148 188 238 292 343
#     4  10  22  39  57  83 115 153 197 237 291 348
#     4  11  23  38  57  85 120 151 189 248 303 346
#     4  10  20  34  55  88 119 148 190 240 295 352
#     4  10  21  37  59  88 119 151 193 243 291 348
#     4  11  21  36  59  86 114 151 201 241 292 350
#
# _framework density 18.881654000000001
#
# number of rings (size 3 to 8) (size 9 to 14) (size 15 to 20)
#    0.000    1.750    2.500    3.000    3.500    1.500 
#    0.000    5.625    0.000    1.500    0.000    0.000 
#    0.000    0.000    0.000    0.000    0.000    0.000 
#
# Total GULP energy -396657.937357 kJ/mol
# GULP energy per Si atom -12395.560542 kJ/mol
# Density = 1.883868 g / cm^3
# Si number density = 18.881654 Si / 1000 Ang^3
#
#
#
# Elastic Constant Matrix: (Units=GPa)
#
#
# Indices 1 2 3 4 5 6 
#
# 1 94.8238 27.9422 44.9626 0.0000 0.0000 0.0000
# 2 27.9422 90.4481 47.8594 0.0000 0.0000 0.0000
# 3 44.9626 47.8594 127.6838 0.0000 0.0000 0.0000
# 4 0.0000 0.0000 0.0000 18.5222 0.0000 0.0000
# 5 0.0000 0.0000 0.0000 0.0000 26.4905 0.0000
# 6 0.0000 0.0000 0.0000 0.0000 0.0000 12.2980
#
#
#
# Elastic Compliance Matrix: (Units=1/GPa)
#
#
# Indices 1 2 3 4 5 6 
#
# 1 0.012937 -0.001979 -0.003814 0.000000 0.000000 0.000000
# 2 -0.001979 0.014094 -0.004586 0.000000 0.000000 0.000000
# 3 -0.003814 -0.004586 0.010894 0.000000 0.000000 0.000000
# 4 0.000000 0.000000 0.000000 0.053989 0.000000 0.000000
# 5 0.000000 0.000000 0.000000 0.000000 0.037749 0.000000
# 6 0.000000 0.000000 0.000000 0.000000 0.000000 0.081314
#
#
# Mechanical properties :
#
#
# Convention : Reuss Voigt Hill
#
# Bulk Modulus (GPa) = 58.24871 61.60935 59.92903
# Shear Modulus (GPa) = 21.05631 24.27489 22.66560
#
# Velocity S-wave (km/s) = 3.34304 3.58946 3.46844
# Velocity P-wave (km/s) = 6.76887 7.06251 6.91725
#
# Compressibility (1/GPa) = 0.01716776
#
# Stress axis : x y z
#
# Youngs Moduli (GPa) = 77.29475 70.95229 91.79392
#
# Poissons Ratio (x) = 0.14038 0.35012
# Poissons Ratio (y) = 0.15293 0.42097
# Poissons Ratio (z) = 0.29482 0.32539
#
# Static dielectric constant tensor:
#      x y z
#    x 3.356480 0.000000 0.000000 
#    y 0.000000 3.393310 0.000000 
#    z 0.000000 0.000000 3.770270 
# 
# 
# High freq. dielectric constant tensor:
#      x y z
#    x 1.729290 0.000000 0.000000 
#    y 0.000000 1.710900 0.000000 
#    z 0.000000 0.000000 1.752880 
# 
# From -- ./inp_files/3540.got.cif
#   From: 2010.03.12/outbox.cif.g09.slc.cpg/sg28_2_cif.got.tgz:3540.got - 2010.04.14 03:39:34.
