data_PCOD8168510
_publ_section_title
;
Structure prediction by ZEFSAII (Michael W. Deem and Ramdas Pophale) SiO2 
 PCOD8168510
Probable space group: P M A 2
;
_chemical_formula_sum "Si O2"
_cell_formula_units_Z 32
_cell_length_a 17.328275
_cell_length_b 10.106852
_cell_length_c 10.120899
_cell_angle_alpha 90.000000
_cell_angle_beta 90.000000
_cell_angle_gamma 90.000000
_cell_volume 1772.516671
_symmetry_space_group_name_H-M "P M A 2"
_symmetry_group_IT_number 28
_symmetry_cell_setting 'orthorhombic'
loop_
_space_group_symop_operation_xyz
x,y,z
-x,-y,z
1/2-x,y,z
1/2+x,-y,z
loop_
_atom_site_type_symbol
_atom_site_label
_atom_site_fract_x
_atom_site_fract_y
_atom_site_fract_z
Si Si1 0.841556 0.777257 0.408020
Si Si2 0.158580 0.006399 0.205979
Si Si3 0.840914 0.293280 0.210533
Si Si4 0.657828 0.990032 0.912119
Si Si5 0.658138 0.486511 0.695600
Si Si6 0.158903 0.217902 0.704756
Si Si7 0.658650 0.284138 0.910691
Si Si8 0.409473 0.505576 0.414723
O O1 0.750000 0.761654 0.395107
O O2 0.875673 0.889036 0.310487
O O3 0.865038 0.821155 0.555968
O O4 0.878088 0.637017 0.370193
O O5 0.250000 0.014047 0.207471
O O6 0.134126 0.857379 0.243971
O O7 0.128643 0.045428 0.059700
O O8 0.750000 0.314475 0.233752
O O9 0.888912 0.389570 0.302716
O O10 0.864248 0.325353 0.059246
O O11 0.750000 0.987478 0.908324
O O12 0.621538 0.885199 0.808645
O O13 0.628090 0.137141 0.875530
O O14 0.750000 0.480891 0.688886
O O15 0.629640 0.633654 0.734952
O O16 0.623505 0.387148 0.805249
O O17 0.627239 0.445897 0.552187
O O18 0.250000 0.212178 0.720659
O O19 0.750000 0.284713 0.899252
O O20 0.500000 0.500000 0.433244
#
# Coordination Sequence:
#
# PCOD8168510 Si02
#       8
#     4   4   4   4   4   4   4   4
#     4   9  17  31  49  71  95 121 156 200 241 283
#     4   8  15  27  47  73  98 121 151 192 242 290
#     4   9  17  32  52  75  99 124 157 201 244 290
#     4   8  13  23  40  69 100 117 137 184 241 291
#     4   9  17  31  49  70  94 124 160 200 241 284
#     4   8  14  23  38  61  91 118 143 179 226 274
#     4   8  15  27  47  73  97 118 149 193 242 289
#     4  11  22  34  47  68  98 135 171 203 239 283
#
# _framework density 18.053426000000002
#
# number of rings (size 3 to 8) (size 9 to 14) (size 15 to 20)
#    0.000    3.250    0.000    3.375    0.000    2.000 
#    0.000    8.750    0.000    0.000    0.000    3.500 
#    0.000    0.000    0.000    0.000    0.000    0.000 
#
# Total GULP energy -396627.014463 kJ/mol
# GULP energy per Si atom -12394.594202 kJ/mol
# Density = 1.801234 g / cm^3
# Si number density = 18.053426 Si / 1000 Ang^3
#
#
#
# Elastic Constant Matrix: (Units=GPa)
#
#
# Indices 1 2 3 4 5 6 
#
# 1 22.5889 15.3541 14.9682 0.0000 0.0000 0.0000
# 2 15.3541 135.6595 109.8218 0.0000 0.0000 0.0000
# 3 14.9682 109.8218 144.3877 0.0000 0.0000 0.0000
# 4 0.0000 0.0000 0.0000 45.2872 0.0000 0.0000
# 5 0.0000 0.0000 0.0000 0.0000 3.6273 0.0000
# 6 0.0000 0.0000 0.0000 0.0000 0.0000 3.5578
#
#
#
# Elastic Compliance Matrix: (Units=1/GPa)
#
#
# Indices 1 2 3 4 5 6 
#
# 1 0.048228 -0.003672 -0.002207 0.000000 0.000000 0.000000
# 2 -0.003672 0.019463 -0.014423 0.000000 0.000000 0.000000
# 3 -0.002207 -0.014423 0.018125 0.000000 0.000000 0.000000
# 4 0.000000 0.000000 0.000000 0.022081 0.000000 0.000000
# 5 0.000000 0.000000 0.000000 0.000000 0.275685 0.000000
# 6 0.000000 0.000000 0.000000 0.000000 0.000000 0.281071
#
#
# Mechanical properties :
#
#
# Convention : Reuss Voigt Hill
#
# Bulk Modulus (GPa) = 22.11801 64.76933 43.44367
# Shear Modulus (GPa) = 6.94130 21.32728 14.13429
#
# Velocity S-wave (km/s) = 1.96296 3.44080 2.80110
# Velocity P-wave (km/s) = 4.17320 7.19304 5.88028
#
# Compressibility (1/GPa) = 0.04521202
#
# Stress axis : x y z
#
# Youngs Moduli (GPa) = 20.73500 51.37977 55.17353
#
# Poissons Ratio (x) = 0.18868 0.12174
# Poissons Ratio (y) = 0.07614 0.79576
# Poissons Ratio (z) = 0.04575 0.74104
#
# Static dielectric constant tensor:
#      x y z
#    x 2.714650 0.000000 0.000000 
#    y 0.000000 3.754750 0.000000 
#    z 0.000000 0.000000 3.684880 
# 
# 
# High freq. dielectric constant tensor:
#      x y z
#    x 1.637660 0.000000 0.000000 
#    y 0.000000 1.706420 0.000000 
#    z 0.000000 0.000000 1.706690 
# 
# From -- ./inp_files/3960.got.cif
#   From: 2010.03.12/outbox.cif.g09.slc.cpg/sg28_2_cif.got.tgz:3960.got - 2010.04.14 03:39:34.
