data_PCOD8168298
_publ_section_title
;
Structure prediction by ZEFSAII (Michael W. Deem and Ramdas Pophale) SiO2 
 PCOD8168298
Probable space group: P M A 2
;
_chemical_formula_sum "Si O2"
_cell_formula_units_Z 24
_cell_length_a 11.667683
_cell_length_b 20.862222
_cell_length_c 5.045959
_cell_angle_alpha 90.000000
_cell_angle_beta 90.000000
_cell_angle_gamma 90.000000
_cell_volume 1228.256019
_symmetry_space_group_name_H-M "P M A 2"
_symmetry_group_IT_number 28
_symmetry_cell_setting 'orthorhombic'
loop_
_space_group_symop_operation_xyz
x,y,z
-x,-y,z
1/2-x,y,z
1/2+x,-y,z
loop_
_atom_site_type_symbol
_atom_site_label
_atom_site_fract_x
_atom_site_fract_y
_atom_site_fract_z
Si Si1 0.483980 0.925632 0.773040
Si Si2 0.878687 0.805054 0.705739
Si Si3 0.375340 0.876718 0.280110
Si Si4 0.005548 0.245244 0.214076
Si Si5 0.122449 0.626383 0.289302
Si Si6 0.616476 0.458173 0.790589
O O1 0.592636 0.881235 0.692795
O O2 0.382351 0.903529 0.578358
O O3 0.500000 0.000000 0.720361
O O4 0.459795 0.914166 0.082448
O O5 0.750000 0.797366 0.801231
O O6 0.892959 0.772367 0.418363
O O7 0.957881 0.767312 0.912798
O O8 0.250000 0.888690 0.168344
O O9 0.399342 0.800824 0.285346
O O10 0.970559 0.318741 0.241992
O O11 0.250000 0.654768 0.248353
O O12 0.108464 0.600022 0.585072
O O13 0.101521 0.568392 0.086133
O O14 0.500000 0.500000 0.737735
O O15 0.750000 0.488581 0.765036
#
# Coordination Sequence:
#
# PCOD8168298 Si02
#       6
#     4   4   4   4   4   4
#     4  10  21  36  52  75 102 135 181 219 260 327
#     4  10  21  36  53  74 108 147 176 219 276 327
#     4  10  20  34  54  78 104 130 164 222 276 310
#     4  10  20  36  56  80 107 135 179 222 264 324
#     4  10  20  36  60  84 109 145 184 226 273 322
#     4  10  21  38  59  85 118 152 188 228 275 328
#
# _framework density 19.539901
#
# number of rings (size 3 to 8) (size 9 to 14) (size 15 to 20)
#    0.000    2.000    0.000    3.500    0.000    1.333 
#    0.000   10.000    0.000    0.000    0.000    0.000 
#    0.000    0.000    0.000    0.000    0.000    0.000 
#
# Total GULP energy -297410.079151 kJ/mol
# GULP energy per Si atom -12392.086631 kJ/mol
# Density = 1.949543 g / cm^3
# Si number density = 19.539901 Si / 1000 Ang^3
#
#
#
# Elastic Constant Matrix: (Units=GPa)
#
#
# Indices 1 2 3 4 5 6 
#
# 1 105.9418 43.7782 6.9334 0.0000 0.0000 0.0000
# 2 43.7782 82.1562 7.8844 0.0000 0.0000 0.0000
# 3 6.9334 7.8844 81.9560 0.0000 0.0000 0.0000
# 4 0.0000 0.0000 0.0000 23.2125 0.0000 0.0000
# 5 0.0000 0.0000 0.0000 0.0000 12.4952 0.0000
# 6 0.0000 0.0000 0.0000 0.0000 0.0000 8.5275
#
#
#
# Elastic Compliance Matrix: (Units=1/GPa)
#
#
# Indices 1 2 3 4 5 6 
#
# 1 0.012118 -0.006418 -0.000408 0.000000 0.000000 0.000000
# 2 -0.006418 0.015685 -0.000966 0.000000 0.000000 0.000000
# 3 -0.000408 -0.000966 0.012329 0.000000 0.000000 0.000000
# 4 0.000000 0.000000 0.000000 0.043080 0.000000 0.000000
# 5 0.000000 0.000000 0.000000 0.000000 0.080031 0.000000
# 6 0.000000 0.000000 0.000000 0.000000 0.000000 0.117267
#
#
# Mechanical properties :
#
#
# Convention : Reuss Voigt Hill
#
# Bulk Modulus (GPa) = 40.73633 43.02735 41.88184
# Shear Modulus (GPa) = 16.43243 22.94423 19.68833
#
# Velocity S-wave (km/s) = 2.90309 3.43041 3.17771
# Velocity P-wave (km/s) = 5.66836 6.14478 5.91137
#
# Compressibility (1/GPa) = 0.02454811
#
# Stress axis : x y z
#
# Youngs Moduli (GPa) = 82.52202 63.75674 81.10896
#
# Poissons Ratio (x) = 0.40920 0.03307
# Poissons Ratio (y) = 0.52964 0.07835
# Poissons Ratio (z) = 0.03365 0.06159
#
# Static dielectric constant tensor:
#      x y z
#    x 3.540070 0.000000 0.000000 
#    y 0.000000 3.293650 0.000000 
#    z 0.000000 0.000000 3.639140 
# 
# 
# High freq. dielectric constant tensor:
#      x y z
#    x 1.751360 0.000000 0.000000 
#    y 0.000000 1.739080 0.000000 
#    z 0.000000 0.000000 1.783420 
# 
# From -- ./inp_files/494.got.cif
#   From: 2010.03.12/outbox.cif.g09.slc.cpg/sg28_1_cif.got.tgz:494.got - 2010.04.14 03:39:34.
