data_PCOD8168292
_publ_section_title
;
Structure prediction by ZEFSAII (Michael W. Deem and Ramdas Pophale) SiO2 
 PCOD8168292
Probable space group: P M A 2
;
_chemical_formula_sum "Si O2"
_cell_formula_units_Z 28
_cell_length_a 8.715634
_cell_length_b 14.357365
_cell_length_c 12.715887
_cell_angle_alpha 90.000000
_cell_angle_beta 90.000000
_cell_angle_gamma 90.000000
_cell_volume 1591.183936
_symmetry_space_group_name_H-M "P M A 2"
_symmetry_group_IT_number 28
_symmetry_cell_setting 'orthorhombic'
loop_
_space_group_symop_operation_xyz
x,y,z
-x,-y,z
1/2-x,y,z
1/2+x,-y,z
loop_
_atom_site_type_symbol
_atom_site_label
_atom_site_fract_x
_atom_site_fract_y
_atom_site_fract_z
Si Si1 0.431949 0.599498 0.670470
Si Si2 0.431031 0.398373 0.054078
Si Si3 0.569659 0.597114 0.447364
Si Si4 0.070336 0.903912 0.175829
Si Si5 0.068299 0.281429 0.852055
Si Si6 0.429229 0.279023 0.249701
Si Si7 0.431810 0.902386 0.934589
O O1 0.500000 0.500000 0.705063
O O2 0.250000 0.592740 0.671928
O O3 0.489568 0.628136 0.555052
O O4 0.488883 0.678222 0.749069
O O5 0.500000 0.500000 0.049274
O O6 0.250000 0.408019 0.058813
O O7 0.493815 0.345084 0.157021
O O8 0.485315 0.341727 0.952020
O O9 0.500000 0.500000 0.406479
O O10 0.750000 0.583984 0.466457
O O11 0.533602 0.675181 0.361406
O O12 0.250000 0.912260 0.185948
O O13 0.011748 0.820226 0.248202
O O14 0.019214 0.885818 0.055608
O O15 0.000000 0.000000 0.218391
O O16 0.250000 0.282595 0.838253
O O17 0.009584 0.176591 0.864334
O O18 0.250000 0.262461 0.232645
O O19 0.250000 0.901231 0.919790
O O20 0.500000 0.000000 0.894610
#
# Coordination Sequence:
#
# PCOD8168292 Si02
#       7
#     4   4   4   4   4   4   4
#     4  11  22  37  56  78 107 141 184 228 268 318
#     4  10  21  33  48  73 107 142 172 210 260 314
#     4  10  20  35  56  79 106 141 182 225 267 314
#     4  10  20  33  53  78 107 142 179 220 263 316
#     4  11  21  35  55  78 108 143 179 221 268 319
#     4  10  20  35  53  77 108 141 177 219 266 317
#     4  10  20  34  53  79 108 142 180 221 266 318
#
# _framework density 17.596959999999999
#
# number of rings (size 3 to 8) (size 9 to 14) (size 15 to 20)
#    0.000    1.714    1.429    4.714    0.000    5.143 
#    0.000    0.000    0.000    0.857    0.000    2.000 
#    0.000    0.000    0.000    0.000    0.000    0.000 
#
# Total GULP energy -347336.506834 kJ/mol
# GULP energy per Si atom -12404.875244 kJ/mol
# Density = 1.755691 g / cm^3
# Si number density = 17.596960 Si / 1000 Ang^3
#
#
#
# Elastic Constant Matrix: (Units=GPa)
#
#
# Indices 1 2 3 4 5 6 
#
# 1 91.9720 58.6876 50.4645 0.0000 0.0000 0.0000
# 2 58.6876 157.8086 72.6116 0.0000 0.0000 0.0000
# 3 50.4645 72.6116 88.5701 0.0000 0.0000 0.0000
# 4 0.0000 0.0000 0.0000 8.6881 0.0000 0.0000
# 5 0.0000 0.0000 0.0000 0.0000 28.1201 0.0000
# 6 0.0000 0.0000 0.0000 0.0000 0.0000 36.3198
#
#
#
# Elastic Compliance Matrix: (Units=1/GPa)
#
#
# Indices 1 2 3 4 5 6 
#
# 1 0.016620 -0.002928 -0.007069 0.000000 0.000000 0.000000
# 2 -0.002928 0.010691 -0.007096 0.000000 0.000000 0.000000
# 3 -0.007069 -0.007096 0.021136 0.000000 0.000000 0.000000
# 4 0.000000 0.000000 0.000000 0.115101 0.000000 0.000000
# 5 0.000000 0.000000 0.000000 0.000000 0.035562 0.000000
# 6 0.000000 0.000000 0.000000 0.000000 0.000000 0.027533
#
#
# Mechanical properties :
#
#
# Convention : Reuss Voigt Hill
#
# Bulk Modulus (GPa) = 70.12654 77.98645 74.05649
# Shear Modulus (GPa) = 18.82654 25.06472 21.94563
#
# Velocity S-wave (km/s) = 3.27444 3.77819 3.53530
# Velocity P-wave (km/s) = 7.36437 7.96538 7.67076
#
# Compressibility (1/GPa) = 0.01425994
#
# Stress axis : x y z
#
# Youngs Moduli (GPa) = 60.16806 93.53741 47.31314
#
# Poissons Ratio (x) = 0.27390 0.33446
# Poissons Ratio (y) = 0.17619 0.33574
# Poissons Ratio (z) = 0.42533 0.66376
#
# Static dielectric constant tensor:
#      x y z
#    x 3.275240 0.000000 0.000000 
#    y 0.000000 3.311550 0.000000 
#    z 0.000000 0.000000 3.204810 
# 
# 
# High freq. dielectric constant tensor:
#      x y z
#    x 1.692240 0.000000 0.000000 
#    y 0.000000 1.683870 0.000000 
#    z 0.000000 0.000000 1.663950 
# 
# From -- ./inp_files/4828.got.cif
#   From: 2010.03.12/outbox.cif.g09.slc.cpg/sg28_3_cif.got.tgz:4828.got - 2010.04.14 03:39:34.
