data_PCOD8168617
_publ_section_title
;
Structure prediction by ZEFSAII (Michael W. Deem and Ramdas Pophale) SiO2 
 PCOD8168617
Probable space group: P C A 21
;
_chemical_formula_sum "Si O2"
_cell_formula_units_Z 32
_cell_length_a 32.687726
_cell_length_b 8.555544
_cell_length_c 5.184833
_cell_angle_alpha 90.000000
_cell_angle_beta 90.000000
_cell_angle_gamma 90.000000
_cell_volume 1449.997023
_symmetry_space_group_name_H-M "P C A 21"
_symmetry_group_IT_number 29
_symmetry_cell_setting 'orthorhombic'
loop_
_space_group_symop_operation_xyz
x,y,z
-x,-y,1/2+z
1/2-x,y,1/2+z
1/2+x,-y,z
loop_
_atom_site_type_symbol
_atom_site_label
_atom_site_fract_x
_atom_site_fract_y
_atom_site_fract_z
Si Si1 0.884535 0.931023 0.743670
Si Si2 0.635512 0.738156 0.743869
Si Si3 0.729834 0.658593 0.751964
Si Si4 0.521201 0.932883 0.220703
Si Si5 0.898535 0.404989 0.256617
Si Si6 0.234467 0.686642 0.277434
Si Si7 0.491017 0.594785 0.241518
Si Si8 0.358459 0.726941 0.756990
O O1 0.875351 0.863407 0.461599
O O2 0.931899 0.980211 0.766183
O O3 0.857832 0.086437 0.784056
O O4 0.871793 0.808505 0.961765
O O5 0.681597 0.679184 0.771236
O O6 0.605651 0.591237 0.780587
O O7 0.748050 0.739881 0.495776
O O8 0.740718 0.475383 0.736007
O O9 0.519002 0.746383 0.209535
O O10 0.493708 0.998093 0.450746
O O11 0.945037 0.357140 0.314315
O O12 0.871356 0.318131 0.468772
O O13 0.887463 0.350728 0.969124
O O14 0.254044 0.781713 0.517353
O O15 0.186502 0.658775 0.308195
O O16 0.510418 0.494658 0.470620
#
# Coordination Sequence:
#
# PCOD8168617 Si02
#       8
#     4   4   4   4   4   4   4   4
#     4  12  26  44  64  99 139 172 212 274 339 389
#     4  12  24  42  66  95 132 171 212 272 337 394
#     4  10  19  36  60  88 116 158 210 256 307 383
#     4  12  24  44  68  94 131 181 223 264 326 401
#     4  12  23  41  68  96 124 174 228 270 319 393
#     4  10  20  37  62  90 119 156 207 264 309 368
#     4  12  24  41  63  96 133 169 219 280 330 381
#     4  12  24  43  67  96 128 167 219 270 319 385
#
# _framework density 22.069011
#
# number of rings (size 3 to 8) (size 9 to 14) (size 15 to 20)
#    0.000    0.500    0.000   11.250    0.000    0.000 
#    0.000    3.750    0.000    0.000    0.000    0.000 
#    0.000    0.000    0.000    0.000    0.000    0.000 
#
# Total GULP energy -396963.025395 kJ/mol
# GULP energy per Si atom -12405.094544 kJ/mol
# Density = 2.201878 g / cm^3
# Si number density = 22.069011 Si / 1000 Ang^3
#
#
#
# Elastic Constant Matrix: (Units=GPa)
#
#
# Indices 1 2 3 4 5 6 
#
# 1 108.7640 13.5264 8.8110 0.0000 0.0000 0.0000
# 2 13.5264 83.0154 14.7384 0.0000 0.0000 0.0000
# 3 8.8110 14.7384 122.0894 0.0000 0.0000 0.0000
# 4 0.0000 0.0000 0.0000 36.7930 0.0000 0.0000
# 5 0.0000 0.0000 0.0000 0.0000 43.4082 0.0000
# 6 0.0000 0.0000 0.0000 0.0000 0.0000 26.8760
#
#
#
# Elastic Compliance Matrix: (Units=1/GPa)
#
#
# Indices 1 2 3 4 5 6 
#
# 1 0.009415 -0.001444 -0.000505 0.000000 0.000000 0.000000
# 2 -0.001444 0.012531 -0.001409 0.000000 0.000000 0.000000
# 3 -0.000505 -0.001409 0.008397 0.000000 0.000000 0.000000
# 4 0.000000 0.000000 0.000000 0.027179 0.000000 0.000000
# 5 0.000000 0.000000 0.000000 0.000000 0.023037 0.000000
# 6 0.000000 0.000000 0.000000 0.000000 0.000000 0.037208
#
#
# Mechanical properties :
#
#
# Convention : Reuss Voigt Hill
#
# Bulk Modulus (GPa) = 42.32375 43.11338 42.71856
# Shear Modulus (GPa) = 37.77600 39.86832 38.82216
#
# Velocity S-wave (km/s) = 4.14178 4.25494 4.19874
# Velocity P-wave (km/s) = 6.48784 6.61192 6.55017
#
# Compressibility (1/GPa) = 0.02362740
#
# Stress axis : x y z
#
# Youngs Moduli (GPa) = 106.21617 79.79978 119.08726
#
# Poissons Ratio (x) = 0.11526 0.06015
# Poissons Ratio (y) = 0.15341 0.16774
# Poissons Ratio (z) = 0.05365 0.11240
#
# Static dielectric constant tensor:
#      x y z
#    x 3.995810 0.000000 0.000000 
#    y 0.000000 3.778750 0.000000 
#    z 0.000000 0.000000 5.523300 
# 
# 
# High freq. dielectric constant tensor:
#      x y z
#    x 1.880170 0.000000 0.000000 
#    y 0.000000 1.848370 0.000000 
#    z 0.000000 0.000000 1.900580 
# 
# From -- ./inp_files/896.got.cif
#   From: 2010.03.12/outbox.cif.g09.slc.cpg/sg29_1_cif.got.tgz:896.got - 2010.04.14 03:43:10.
