data_PCOD8168792
_publ_section_title
;
Structure prediction by ZEFSAII (Michael W. Deem and Ramdas Pophale) SiO2 
 PCOD8168792
Probable space group: P C A 21
;
_chemical_formula_sum "Si O2"
_cell_formula_units_Z 32
_cell_length_a 9.111292
_cell_length_b 11.603052
_cell_length_c 14.304120
_cell_angle_alpha 90.000000
_cell_angle_beta 90.000000
_cell_angle_gamma 90.000000
_cell_volume 1512.214328
_symmetry_space_group_name_H-M "P C A 21"
_symmetry_group_IT_number 29
_symmetry_cell_setting 'orthorhombic'
loop_
_space_group_symop_operation_xyz
x,y,z
-x,-y,1/2+z
1/2-x,y,1/2+z
1/2+x,-y,z
loop_
_atom_site_type_symbol
_atom_site_label
_atom_site_fract_x
_atom_site_fract_y
_atom_site_fract_z
Si Si1 0.078363 0.200421 0.538680
Si Si2 0.407533 0.939825 0.073673
Si Si3 0.791411 0.053272 0.272680
Si Si4 0.963911 0.403192 0.005380
Si Si5 0.098636 0.153027 0.328799
Si Si6 0.139191 0.624220 0.994993
Si Si7 0.373485 0.247682 0.637395
Si Si8 0.831867 0.214095 0.904179
O O1 0.120072 0.214187 0.428813
O O2 0.206489 0.241771 0.606237
O O3 0.947684 0.289932 0.565064
O O4 0.034577 0.068094 0.554156
O O5 0.295575 0.941478 0.160929
O O6 0.551318 0.867767 0.098309
O O7 0.324823 0.884580 0.984976
O O8 0.670505 0.150270 0.304787
O O9 0.948022 0.079146 0.321255
O O10 0.737567 0.930058 0.309047
O O11 0.793845 0.422338 0.037915
O O12 0.035565 0.518607 0.963929
O O13 0.052232 0.363004 0.096636
O O14 0.968257 0.301635 0.925033
O O15 0.107049 0.252273 0.249386
O O16 0.182600 0.707335 0.907467
#
# Coordination Sequence:
#
# PCOD8168792 Si02
#       8
#     4   4   4   4   4   4   4   4
#     4  12  22  35  65  94 132 168 220 263 331 397
#     4  10  22  36  61  92 133 167 209 260 325 402
#     4  11  21  39  57  90 133 169 207 258 317 398
#     4   9  20  41  66  90 125 165 228 268 323 379
#     4  11  23  37  57  91 131 171 208 263 327 392
#     4  10  21  38  68  95 119 177 219 278 323 383
#     4  10  23  39  60  90 128 173 212 271 324 391
#     4   9  20  37  62  88 123 168 207 263 330 370
#
# _framework density 21.161021999999999
#
# number of rings (size 3 to 8) (size 9 to 14) (size 15 to 20)
#    0.750    1.000    3.750    0.750    3.500    0.000 
#    0.000    0.000    2.750    3.000    0.000    0.000 
#    0.000    0.000    0.000    0.000    0.000    0.000 
#
# Total GULP energy -396457.097480 kJ/mol
# GULP energy per Si atom -12389.284296 kJ/mol
# Density = 2.111286 g / cm^3
# Si number density = 21.161022 Si / 1000 Ang^3
#
#
#
# Elastic Constant Matrix: (Units=GPa)
#
#
# Indices 1 2 3 4 5 6 
#
# 1 58.2623 11.9002 -12.2033 0.0000 0.0000 0.0000
# 2 11.9002 85.7468 0.0714 0.0000 0.0000 0.0000
# 3 -12.2033 0.0714 55.7543 0.0000 0.0000 0.0000
# 4 0.0000 0.0000 0.0000 21.0650 0.0000 0.0000
# 5 0.0000 0.0000 0.0000 0.0000 19.0002 0.0000
# 6 0.0000 0.0000 0.0000 0.0000 0.0000 38.4537
#
#
#
# Elastic Compliance Matrix: (Units=1/GPa)
#
#
# Indices 1 2 3 4 5 6 
#
# 1 0.018541 -0.002577 0.004061 0.000000 0.000000 0.000000
# 2 -0.002577 0.012020 -0.000579 0.000000 0.000000 0.000000
# 3 0.004061 -0.000579 0.018826 0.000000 0.000000 0.000000
# 4 0.000000 0.000000 0.000000 0.047472 0.000000 0.000000
# 5 0.000000 0.000000 0.000000 0.000000 0.052631 0.000000
# 6 0.000000 0.000000 0.000000 0.000000 0.000000 0.026005
#
#
# Mechanical properties :
#
#
# Convention : Reuss Voigt Hill
#
# Bulk Modulus (GPa) = 19.53214 22.14445 20.83830
# Shear Modulus (GPa) = 26.21236 29.03679 27.62458
#
# Velocity S-wave (km/s) = 3.52335 3.70832 3.61702
# Velocity P-wave (km/s) = 5.07959 5.36870 5.22615
#
# Compressibility (1/GPa) = 0.05119766
#
# Stress axis : x y z
#
# Youngs Moduli (GPa) = 53.93541 83.19261 53.11935
#
# Poissons Ratio (x) = 0.21435 -0.21574
# Poissons Ratio (y) = 0.13896 0.03077
# Poissons Ratio (z) = -0.21905 0.04820
#
# Static dielectric constant tensor:
#      x y z
#    x 3.800040 0.000000 0.000000 
#    y 0.000000 3.796580 0.000000 
#    z 0.000000 0.000000 3.674830 
# 
# 
# High freq. dielectric constant tensor:
#      x y z
#    x 1.832270 0.000000 0.000000 
#    y 0.000000 1.821040 0.000000 
#    z 0.000000 0.000000 1.796710 
# 
# From -- ./inp_files/4264.got.cif
#   From: 2010.03.12/outbox.cif.g09.slc.cpg/sg29_3_cif.got.tgz:4264.got - 2010.04.14 03:43:10.
