data_PCOD8168015
_publ_section_title
;
Structure prediction by ZEFSAII (Michael W. Deem and Ramdas Pophale) SiO2 
 PCOD8168015
Probable space group: P M A 2
;
_chemical_formula_sum "Si O2"
_cell_formula_units_Z 32
_cell_length_a 9.456434
_cell_length_b 19.040648
_cell_length_c 9.914617
_cell_angle_alpha 90.000000
_cell_angle_beta 90.000000
_cell_angle_gamma 90.000000
_cell_volume 1785.192536
_symmetry_space_group_name_H-M "P M A 2"
_symmetry_group_IT_number 28
_symmetry_cell_setting 'orthorhombic'
loop_
_space_group_symop_operation_xyz
x,y,z
-x,-y,z
1/2-x,y,z
1/2+x,-y,z
loop_
_atom_site_type_symbol
_atom_site_label
_atom_site_fract_x
_atom_site_fract_y
_atom_site_fract_z
Si Si1 0.582541 0.571998 0.065280
Si Si2 0.584928 0.930149 0.897603
Si Si3 0.916369 0.655306 0.802334
Si Si4 0.081356 0.193188 0.400480
Si Si5 0.908885 0.660247 0.310095
Si Si6 0.408519 0.435432 0.563526
Si Si7 0.418352 0.195206 0.707217
Si Si8 0.414479 0.069128 0.206632
O O1 0.500000 0.500000 0.039135
O O2 0.750000 0.555000 0.072144
O O3 0.519798 0.608731 0.200312
O O4 0.545920 0.628966 0.950792
O O5 0.750000 0.945280 0.873675
O O6 0.527664 0.868681 0.800345
O O7 0.500000 0.000000 0.860104
O O8 0.556645 0.907390 0.052521
O O9 0.750000 0.659479 0.776987
O O10 0.977080 0.597409 0.698468
O O11 0.979868 0.732575 0.771733
O O12 0.250000 0.199457 0.404135
O O13 0.018068 0.263616 0.329674
O O14 0.025013 0.185133 0.554016
O O15 0.030555 0.128710 0.308736
O O16 0.750000 0.671999 0.256309
O O17 0.910453 0.625586 0.455116
O O18 0.500000 0.500000 0.511324
O O19 0.250000 0.463134 0.588320
O O20 0.250000 0.196606 0.709110
O O21 0.250000 0.053370 0.229733
O O22 0.500000 0.000000 0.244431
#
# Coordination Sequence:
#
# PCOD8168015 Si02
#       8
#     4   4   4   4   4   4   4   4
#     4  10  20  32  48  70  95 122 154 194 237 280
#     4   9  18  31  49  73  98 124 154 189 229 274
#     4   9  17  29  46  70  95 119 153 196 235 269
#     4   9  16  28  47  72  97 120 154 198 234 266
#     4   9  17  29  46  70  95 119 153 196 235 269
#     4  10  18  30  48  68  91 122 154 188 231 276
#     4   9  16  28  47  72  97 120 154 198 234 266
#     4   9  18  31  49  73  98 124 154 189 229 274
#
# _framework density 17.925238
#
# number of rings (size 3 to 8) (size 9 to 14) (size 15 to 20)
#    0.000    2.750    1.250    0.750    1.750    0.500 
#    0.000    0.000    0.000    3.000    0.000    0.000 
#    0.000    0.000    0.000    0.000    0.000    0.000 
#
# Total GULP energy -396663.024703 kJ/mol
# GULP energy per Si atom -12395.719522 kJ/mol
# Density = 1.788444 g / cm^3
# Si number density = 17.925238 Si / 1000 Ang^3
#
#
#
# Elastic Constant Matrix: (Units=GPa)
#
#
# Indices 1 2 3 4 5 6 
#
# 1 26.7034 36.3434 20.7540 0.0000 0.0000 0.0000
# 2 36.3434 149.6056 64.6570 0.0000 0.0000 0.0000
# 3 20.7540 64.6570 106.4202 0.0000 0.0000 0.0000
# 4 0.0000 0.0000 0.0000 36.7901 0.0000 0.0000
# 5 0.0000 0.0000 0.0000 0.0000 11.5320 0.0000
# 6 0.0000 0.0000 0.0000 0.0000 0.0000 21.2293
#
#
#
# Elastic Compliance Matrix: (Units=1/GPa)
#
#
# Indices 1 2 3 4 5 6 
#
# 1 0.056980 -0.012258 -0.003664 0.000000 0.000000 0.000000
# 2 -0.012258 0.011702 -0.004719 0.000000 0.000000 0.000000
# 3 -0.003664 -0.004719 0.012978 0.000000 0.000000 0.000000
# 4 0.000000 0.000000 0.000000 0.027181 0.000000 0.000000
# 5 0.000000 0.000000 0.000000 0.000000 0.086715 0.000000
# 6 0.000000 0.000000 0.000000 0.000000 0.000000 0.047105
#
#
# Mechanical properties :
#
#
# Convention : Reuss Voigt Hill
#
# Bulk Modulus (GPa) = 24.76675 58.47089 41.61882
# Shear Modulus (GPa) = 16.81219 24.64193 20.72706
#
# Velocity S-wave (km/s) = 3.06585 3.71173 3.40414
# Velocity P-wave (km/s) = 5.13607 7.14558 6.22248
#
# Compressibility (1/GPa) = 0.04037672
#
# Stress axis : x y z
#
# Youngs Moduli (GPa) = 17.54996 85.45887 77.05151
#
# Poissons Ratio (x) = 1.04759 0.28235
# Poissons Ratio (y) = 0.21513 0.36359
# Poissons Ratio (z) = 0.06431 0.40326
#
# Static dielectric constant tensor:
#      x y z
#    x 2.794370 0.000000 0.000000 
#    y 0.000000 3.425880 0.000000 
#    z 0.000000 0.000000 3.465590 
# 
# 
# High freq. dielectric constant tensor:
#      x y z
#    x 1.627710 0.000000 0.000000 
#    y 0.000000 1.704640 0.000000 
#    z 0.000000 0.000000 1.708150 
# 
# From -- ./inp_files/3112.got.cif
#   From: 2010.03.12/outbox.cif.g09.slc.cpg/sg28_2_cif.got.tgz:3112.got - 2010.04.14 03:39:34.
