data_PCOD8168109
_publ_section_title
;
Structure prediction by ZEFSAII (Michael W. Deem and Ramdas Pophale) SiO2 
 PCOD8168109
Probable space group: P M A 2
;
_chemical_formula_sum "Si O2"
_cell_formula_units_Z 32
_cell_length_a 9.274194
_cell_length_b 16.168853
_cell_length_c 11.028096
_cell_angle_alpha 90.000000
_cell_angle_beta 90.000000
_cell_angle_gamma 90.000000
_cell_volume 1653.696956
_symmetry_space_group_name_H-M "P M A 2"
_symmetry_group_IT_number 28
_symmetry_cell_setting 'orthorhombic'
loop_
_space_group_symop_operation_xyz
x,y,z
-x,-y,z
1/2-x,y,z
1/2+x,-y,z
loop_
_atom_site_type_symbol
_atom_site_label
_atom_site_fract_x
_atom_site_fract_y
_atom_site_fract_z
Si Si1 0.422907 0.413060 0.616430
Si Si2 0.090447 0.925378 0.361682
Si Si3 0.909044 0.614118 0.338135
Si Si4 0.412462 0.570873 0.116538
Si Si5 0.586304 0.250688 0.014438
Si Si6 0.420573 0.744263 0.735381
Si Si7 0.590482 0.795910 0.235446
Si Si8 0.089937 0.922207 0.647021
O O1 0.500000 0.500000 0.654527
O O2 0.250000 0.418284 0.640020
O O3 0.459576 0.394647 0.476523
O O4 0.489635 0.335429 0.690386
O O5 0.250000 0.925638 0.304952
O O6 0.098607 0.934571 0.504616
O O7 0.010631 0.841845 0.329658
O O8 0.000000 0.000000 0.302996
O O9 0.750000 0.573936 0.322004
O O10 0.899486 0.707549 0.295388
O O11 0.027832 0.571988 0.253952
O O12 0.500000 0.500000 0.044088
O O13 0.250000 0.542034 0.124816
O O14 0.433249 0.653370 0.042524
O O15 0.750000 0.222079 0.040908
O O16 0.478920 0.200294 0.101145
O O17 0.544273 0.238923 0.875723
O O18 0.250000 0.727685 0.713117
O O19 0.473624 0.830124 0.672542
O O20 0.750000 0.835460 0.225792
O O21 0.250000 0.927061 0.704730
O O22 0.000000 0.000000 0.702625
#
# Coordination Sequence:
#
# PCOD8168109 Si02
#       8
#     4   4   4   4   4   4   4   4
#     4  11  23  37  54  79 111 146 183 225 274 328
#     4  10  19  32  52  80 111 139 169 208 260 320
#     4   9  19  34  52  76 105 136 171 215 267 323
#     4  10  19  31  50  74  99 131 171 217 267 315
#     4   9  20  37  54  73 101 139 180 220 262 312
#     4  10  21  39  59  79 107 145 188 231 274 320
#     4  10  19  33  54  79 106 136 173 217 266 319
#     4   9  19  35  58  86 113 142 177 221 272 327
#
# _framework density 19.350581999999999
#
# number of rings (size 3 to 8) (size 9 to 14) (size 15 to 20)
#    0.000    2.250    0.000    2.625    0.000    5.000 
#    0.000    1.875    0.000    1.500    0.000    0.000 
#    0.000    0.000    0.000    0.000    0.000    0.000 
#
# Total GULP energy -396580.011949 kJ/mol
# GULP energy per Si atom -12393.125373 kJ/mol
# Density = 1.930654 g / cm^3
# Si number density = 19.350582 Si / 1000 Ang^3
#
#
#
# Elastic Constant Matrix: (Units=GPa)
#
#
# Indices 1 2 3 4 5 6 
#
# 1 126.8993 51.1871 21.0475 0.0000 0.0000 0.0000
# 2 51.1871 92.2876 19.0151 0.0000 0.0000 0.0000
# 3 21.0475 19.0151 32.6644 0.0000 0.0000 0.0000
# 4 0.0000 0.0000 0.0000 177.3091 0.0000 0.0000
# 5 0.0000 0.0000 0.0000 0.0000 -163.4738 0.0000
# 6 0.0000 0.0000 0.0000 0.0000 0.0000 36.8431
#
#
#
# Elastic Compliance Matrix: (Units=1/GPa)
#
#
# Indices 1 2 3 4 5 6 
#
# 1 0.010563 -0.005064 -0.003858 0.000000 0.000000 0.000000
# 2 -0.005064 0.014740 -0.005318 0.000000 0.000000 0.000000
# 3 -0.003858 -0.005318 0.036196 0.000000 0.000000 0.000000
# 4 0.000000 0.000000 0.000000 0.005640 0.000000 0.000000
# 5 0.000000 0.000000 0.000000 0.000000 -0.006117 0.000000
# 6 0.000000 0.000000 0.000000 0.000000 0.000000 0.027142
#
#
# Mechanical properties :
#
#
# Convention : Reuss Voigt Hill
#
# Bulk Modulus (GPa) = 30.28550 48.26121 39.27335
# Shear Modulus (GPa) = 39.16961 20.84246 30.00604
#
# Velocity S-wave (km/s) = 4.50400 3.28548 3.94211
# Velocity P-wave (km/s) = 6.53705 6.27591 6.40781
#
# Compressibility (1/GPa) = 0.03301911
#
# Stress axis : x y z
#
# Youngs Moduli (GPa) = 94.67264 67.84303 27.62710
#
# Poissons Ratio (x) = 0.34353 0.10660
# Poissons Ratio (y) = 0.47938 0.14692
# Poissons Ratio (z) = 0.36529 0.36078
#
# Static dielectric constant tensor:
#      x y z
#    x 3.978800 0.000000 0.000000 
#    y 0.000000 2.852230 0.000000 
#    z 0.000000 0.000000 3.312680 
# 
# 
# High freq. dielectric constant tensor:
#      x y z
#    x 1.762110 0.000000 0.000000 
#    y 0.000000 1.757790 0.000000 
#    z 0.000000 0.000000 1.731140 
# 
# From -- ./inp_files/5102.got.cif
#   From: 2010.03.12/outbox.cif.g09.slc.cpg/sg28_3_cif.got.tgz:5102.got - 2010.04.14 03:39:34.
