data_PCOD8168131
_publ_section_title
;
Structure prediction by ZEFSAII (Michael W. Deem and Ramdas Pophale) SiO2 
 PCOD8168131
Probable space group: P M A 2
;
_chemical_formula_sum "Si O2"
_cell_formula_units_Z 32
_cell_length_a 8.956750
_cell_length_b 14.607835
_cell_length_c 12.447175
_cell_angle_alpha 90.000000
_cell_angle_beta 90.000000
_cell_angle_gamma 90.000000
_cell_volume 1628.572521
_symmetry_space_group_name_H-M "P M A 2"
_symmetry_group_IT_number 28
_symmetry_cell_setting 'orthorhombic'
loop_
_space_group_symop_operation_xyz
x,y,z
-x,-y,z
1/2-x,y,z
1/2+x,-y,z
loop_
_atom_site_type_symbol
_atom_site_label
_atom_site_fract_x
_atom_site_fract_y
_atom_site_fract_z
Si Si1 0.573325 0.900123 0.496540
Si Si2 0.076264 0.210134 0.709400
Si Si3 0.923876 0.912578 0.115836
Si Si4 0.082194 0.838389 0.921461
Si Si5 0.079506 0.632337 0.988315
Si Si6 0.428401 0.408425 0.213495
Si Si7 0.574313 0.588381 0.768574
Si Si8 0.075183 0.219553 0.300916
O O1 0.750000 0.914413 0.485972
O O2 0.531099 0.841042 0.600879
O O3 0.505251 0.839776 0.398174
O O4 0.500000 0.000000 0.500289
O O5 0.250000 0.199322 0.736254
O O6 0.035260 0.318485 0.703306
O O7 0.984760 0.161269 0.802845
O O8 0.750000 0.929501 0.110867
O O9 0.966210 0.825184 0.187028
O O10 0.000000 0.000000 0.172061
O O11 0.985438 0.904834 0.995399
O O12 0.250000 0.876133 0.914127
O O13 0.077104 0.740657 0.977669
O O14 0.250000 0.595914 0.993268
O O15 0.994580 0.589946 0.887348
O O16 0.991303 0.603090 0.093984
O O17 0.500000 0.500000 0.264486
O O18 0.250000 0.414707 0.207670
O O19 0.480279 0.324656 0.291329
O O20 0.500000 0.500000 0.709209
O O21 0.750000 0.573979 0.776595
O O22 0.250000 0.219426 0.321427
#
# Coordination Sequence:
#
# PCOD8168131 Si02
#       8
#     4   4   4   4   4   4   4   4
#     4  10  21  41  65  88 109 141 188 236 286 339
#     4   9  20  37  58  81 112 150 188 230 282 341
#     4  11  21  35  55  82 113 148 186 226 282 343
#     4  10  20  34  54  81 115 150 186 231 280 332
#     4  10  19  32  51  78 111 150 191 232 273 326
#     4  11  21  35  54  80 113 152 190 229 276 332
#     4  10  19  32  51  78 111 151 191 229 275 330
#     4   9  20  38  60  82 112 148 185 231 283 337
#
# _framework density 19.649108999999999
#
# number of rings (size 3 to 8) (size 9 to 14) (size 15 to 20)
#    0.000    2.000    1.250    2.625    0.000    2.500 
#    0.000    3.750    0.000    0.000    0.000    0.000 
#    0.000    0.000    0.000    0.000    0.000    0.000 
#
# Total GULP energy -396711.680394 kJ/mol
# GULP energy per Si atom -12397.240012 kJ/mol
# Density = 1.960439 g / cm^3
# Si number density = 19.649109 Si / 1000 Ang^3
#
#
#
# Elastic Constant Matrix: (Units=GPa)
#
#
# Indices 1 2 3 4 5 6 
#
# 1 90.2144 55.3454 52.3827 0.0000 0.0000 0.0000
# 2 55.3454 153.7608 68.0717 0.0000 0.0000 0.0000
# 3 52.3827 68.0717 101.2563 0.0000 0.0000 0.0000
# 4 0.0000 0.0000 0.0000 24.1797 0.0000 0.0000
# 5 0.0000 0.0000 0.0000 0.0000 16.6138 0.0000
# 6 0.0000 0.0000 0.0000 0.0000 0.0000 35.4415
#
#
#
# Elastic Compliance Matrix: (Units=1/GPa)
#
#
# Indices 1 2 3 4 5 6 
#
# 1 0.016845 -0.003140 -0.006604 0.000000 0.000000 0.000000
# 2 -0.003140 0.009845 -0.004994 0.000000 0.000000 0.000000
# 3 -0.006604 -0.004994 0.016650 0.000000 0.000000 0.000000
# 4 0.000000 0.000000 0.000000 0.041357 0.000000 0.000000
# 5 0.000000 0.000000 0.000000 0.000000 0.060191 0.000000
# 6 0.000000 0.000000 0.000000 0.000000 0.000000 0.028216
#
#
# Mechanical properties :
#
#
# Convention : Reuss Voigt Hill
#
# Bulk Modulus (GPa) = 72.12683 77.42568 74.77626
# Shear Modulus (GPa) = 24.13130 26.54243 25.33687
#
# Velocity S-wave (km/s) = 3.50824 3.67934 3.59481
# Velocity P-wave (km/s) = 7.29366 7.58550 7.44101
#
# Compressibility (1/GPa) = 0.01386447
#
# Stress axis : x y z
#
# Youngs Moduli (GPa) = 59.36323 101.57783 60.06176
#
# Poissons Ratio (x) = 0.31894 0.39663
# Poissons Ratio (y) = 0.18639 0.29995
# Poissons Ratio (z) = 0.39202 0.50727
#
# Static dielectric constant tensor:
#      x y z
#    x 3.534350 0.000000 0.000000 
#    y 0.000000 3.848280 0.000000 
#    z 0.000000 0.000000 3.418560 
# 
# 
# High freq. dielectric constant tensor:
#      x y z
#    x 1.759600 0.000000 0.000000 
#    y 0.000000 1.784190 0.000000 
#    z 0.000000 0.000000 1.740990 
# 
# From -- ./inp_files/5004.got.cif
#   From: 2010.03.12/outbox.cif.g09.slc.cpg/sg28_3_cif.got.tgz:5004.got - 2010.04.14 03:39:34.
