data_PCOD8168925
_publ_section_title
;
Structure prediction by ZEFSAII (Michael W. Deem and Ramdas Pophale) SiO2 
 PCOD8168925
Probable space group: P C A 21
;
_chemical_formula_sum "Si O2"
_cell_formula_units_Z 28
_cell_length_a 21.285697
_cell_length_b 6.379417
_cell_length_c 9.243192
_cell_angle_alpha 90.000000
_cell_angle_beta 90.000000
_cell_angle_gamma 90.000000
_cell_volume 1255.136159
_symmetry_space_group_name_H-M "P C A 21"
_symmetry_group_IT_number 29
_symmetry_cell_setting 'orthorhombic'
loop_
_space_group_symop_operation_xyz
x,y,z
-x,-y,1/2+z
1/2-x,y,1/2+z
1/2+x,-y,z
loop_
_atom_site_type_symbol
_atom_site_label
_atom_site_fract_x
_atom_site_fract_y
_atom_site_fract_z
Si Si1 0.972713 0.830031 0.183510
Si Si2 0.427332 0.494930 0.696230
Si Si3 0.674132 0.210952 0.083755
Si Si4 0.719766 0.866062 0.260772
Si Si5 0.240724 0.402539 0.996632
Si Si6 0.068741 0.097783 0.006705
Si Si7 0.375743 0.287654 0.957348
O O1 0.959078 0.895228 0.346699
O O2 0.005227 0.602720 0.174739
O O3 0.907464 0.817365 0.095933
O O4 0.016593 0.005249 0.113692
O O5 0.371301 0.662406 0.689616
O O6 0.415881 0.327820 0.567800
O O7 0.427040 0.409134 0.860658
O O8 0.728405 0.089533 0.179970
O O9 0.709731 0.367472 0.971101
O O10 0.632233 0.040612 0.998856
O O11 0.773590 0.775495 0.370985
O O12 0.653924 0.888063 0.348918
O O13 0.711341 0.680484 0.144861
O O14 0.316549 0.430924 0.009169
#
# Coordination Sequence:
#
# PCOD8168925 Si02
#       7
#     4   4   4   4   4   4   4
#     4  11  25  41  71  99 136 182 223 289 360 417
#     4  11  22  44  68  97 138 178 224 290 351 421
#     4  11  21  42  73  96 140 190 222 293 363 405
#     4  10  23  42  66  95 138 172 237 284 346 424
#     4  10  22  42  66  97 136 181 236 288 351 422
#     4  11  23  42  68 102 139 177 239 280 353 440
#     4  10  22  45  64  98 137 172 231 288 346 423
#
# _framework density 22.308337999999999
#
# number of rings (size 3 to 8) (size 9 to 14) (size 15 to 20)
#    0.857    0.571    2.857    1.714    2.000    5.714 
#    0.000    1.429    0.000    0.000    0.000    0.000 
#    0.000    0.000    0.000    0.000    0.000    0.000 
#
# Total GULP energy -346867.287697 kJ/mol
# GULP energy per Si atom -12388.117418 kJ/mol
# Density = 2.225756 g / cm^3
# Si number density = 22.308338 Si / 1000 Ang^3
#
#
#
# Elastic Constant Matrix: (Units=GPa)
#
#
# Indices 1 2 3 4 5 6 
#
# 1 72.7759 42.4245 38.9094 0.0000 0.0000 0.0000
# 2 42.4245 106.1309 53.7255 0.0000 0.0000 0.0000
# 3 38.9094 53.7255 141.0412 0.0000 0.0000 0.0000
# 4 0.0000 0.0000 0.0000 30.9196 0.0000 0.0000
# 5 0.0000 0.0000 0.0000 0.0000 39.2099 0.0000
# 6 0.0000 0.0000 0.0000 0.0000 0.0000 41.1472
#
#
#
# Elastic Compliance Matrix: (Units=1/GPa)
#
#
# Indices 1 2 3 4 5 6 
#
# 1 0.018816 -0.006063 -0.002881 0.000000 0.000000 0.000000
# 2 -0.006063 0.013627 -0.003518 0.000000 0.000000 0.000000
# 3 -0.002881 -0.003518 0.009225 0.000000 0.000000 0.000000
# 4 0.000000 0.000000 0.000000 0.032342 0.000000 0.000000
# 5 0.000000 0.000000 0.000000 0.000000 0.025504 0.000000
# 6 0.000000 0.000000 0.000000 0.000000 0.000000 0.024303
#
#
# Mechanical properties :
#
#
# Convention : Reuss Voigt Hill
#
# Bulk Modulus (GPa) = 59.72608 65.56297 62.64453
# Shear Modulus (GPa) = 32.39989 34.58126 33.49057
#
# Velocity S-wave (km/s) = 3.81513 3.94146 3.87881
# Velocity P-wave (km/s) = 6.79986 7.08285 6.94280
#
# Compressibility (1/GPa) = 0.01674310
#
# Stress axis : x y z
#
# Youngs Moduli (GPa) = 53.14756 73.38480 108.39940
#
# Poissons Ratio (x) = 0.44491 0.31233
# Poissons Ratio (y) = 0.32222 0.38137
# Poissons Ratio (z) = 0.15313 0.25818
#
# Static dielectric constant tensor:
#      x y z
#    x 3.923050 0.000000 0.000000 
#    y 0.000000 4.039300 0.000000 
#    z 0.000000 0.000000 3.930980 
# 
# 
# High freq. dielectric constant tensor:
#      x y z
#    x 1.871720 0.000000 0.000000 
#    y 0.000000 1.870990 0.000000 
#    z 0.000000 0.000000 1.875760 
# 
# From -- ./inp_files/2428.got.cif
#   From: 2010.03.12/outbox.cif.g09.slc.cpg/sg29_2_cif.got.tgz:2428.got - 2010.04.14 03:43:10.
