data_PCOD8168163
_publ_section_title
;
Structure prediction by ZEFSAII (Michael W. Deem and Ramdas Pophale) SiO2 
 PCOD8168163
Probable space group: P M A 2
;
_chemical_formula_sum "Si O2"
_cell_formula_units_Z 32
_cell_length_a 13.853566
_cell_length_b 10.175244
_cell_length_c 9.526513
_cell_angle_alpha 90.000000
_cell_angle_beta 90.000000
_cell_angle_gamma 90.000000
_cell_volume 1342.889799
_symmetry_space_group_name_H-M "P M A 2"
_symmetry_group_IT_number 28
_symmetry_cell_setting 'orthorhombic'
loop_
_space_group_symop_operation_xyz
x,y,z
-x,-y,z
1/2-x,y,z
1/2+x,-y,z
loop_
_atom_site_type_symbol
_atom_site_label
_atom_site_fract_x
_atom_site_fract_y
_atom_site_fract_z
Si Si1 0.138555 0.053301 0.536830
Si Si2 0.135210 0.430647 0.742119
Si Si3 0.138074 0.143303 0.838389
Si Si4 0.642033 0.446473 0.458277
Si Si5 0.893454 0.553415 0.177359
Si Si6 0.854386 0.359521 0.956891
Si Si7 0.467695 0.819019 0.395864
Si Si8 0.981745 0.806335 0.082982
O O1 0.250000 0.086900 0.503097
O O2 0.122313 0.046601 0.705469
O O3 0.071486 0.167628 0.471493
O O4 0.109619 0.914389 0.469388
O O5 0.250000 0.426351 0.747171
O O6 0.098206 0.287972 0.791607
O O7 0.098701 0.471691 0.587866
O O8 0.095615 0.549585 0.838473
O O9 0.250000 0.145889 0.881537
O O10 0.074659 0.095288 0.974709
O O11 0.750000 0.391702 0.490649
O O12 0.647957 0.553314 0.334180
O O13 0.570979 0.328820 0.410136
O O14 0.828823 0.456718 0.085293
O O15 0.897791 0.699462 0.114829
O O16 0.000000 0.500000 0.174540
O O17 0.750000 0.300216 0.908944
O O18 0.924791 0.242874 0.998704
O O19 0.481018 0.862847 0.232159
#
# Coordination Sequence:
#
# PCOD8168163 Si02
#       8
#     4   4   4   4   4   4   4   4
#     4  10  25  49  71  93 125 173 230 290 345 392
#     4   9  20  34  55  93 136 178 220 262 322 394
#     4  10  22  42  67  98 135 179 225 272 337 410
#     4  11  22  36  61  99 141 182 221 271 333 399
#     4  10  19  33  51  90 136 173 211 256 324 400
#     4  10  19  35  55  88 140 182 214 260 323 400
#     4  11  24  44  70  98 130 170 228 286 338 399
#     4  11  23  38  64 101 135 177 222 271 338 407
#
# _framework density 23.829208000000001
#
# number of rings (size 3 to 8) (size 9 to 14) (size 15 to 20)
#    0.000    1.750    3.750    0.750    3.500    1.500 
#    0.000    2.500    0.000    0.000    0.000    0.000 
#    0.000    0.000    0.000    0.000    0.000    0.000 
#
# Total GULP energy -396548.485874 kJ/mol
# GULP energy per Si atom -12392.140184 kJ/mol
# Density = 2.377497 g / cm^3
# Si number density = 23.829208 Si / 1000 Ang^3
#
#
#
# Elastic Constant Matrix: (Units=GPa)
#
#
# Indices 1 2 3 4 5 6 
#
# 1 109.0266 14.1526 31.6664 0.0000 0.0000 0.0000
# 2 14.1526 37.6523 8.1894 0.0000 0.0000 0.0000
# 3 31.6664 8.1894 168.5404 0.0000 0.0000 0.0000
# 4 0.0000 0.0000 0.0000 26.8174 0.0000 0.0000
# 5 0.0000 0.0000 0.0000 0.0000 46.8902 0.0000
# 6 0.0000 0.0000 0.0000 0.0000 0.0000 222.2730
#
#
#
# Elastic Compliance Matrix: (Units=1/GPa)
#
#
# Indices 1 2 3 4 5 6 
#
# 1 0.010121 -0.003427 -0.001735 0.000000 0.000000 0.000000
# 2 -0.003427 0.028003 -0.000717 0.000000 0.000000 0.000000
# 3 -0.001735 -0.000717 0.006294 0.000000 0.000000 0.000000
# 4 0.000000 0.000000 0.000000 0.037289 0.000000 0.000000
# 5 0.000000 0.000000 0.000000 0.000000 0.021326 0.000000
# 6 0.000000 0.000000 0.000000 0.000000 0.000000 0.004499
#
#
# Mechanical properties :
#
#
# Convention : Reuss Voigt Hill
#
# Bulk Modulus (GPa) = 30.61815 47.02622 38.82219
# Shear Modulus (GPa) = 38.40944 76.61020 57.50982
#
# Velocity S-wave (km/s) = 4.01916 5.67622 4.91798
# Velocity P-wave (km/s) = 5.86644 7.92066 6.96965
#
# Compressibility (1/GPa) = 0.03266036
#
# Stress axis : x y z
#
# Youngs Moduli (GPa) = 98.80601 35.71080 158.87849
#
# Poissons Ratio (x) = 0.12237 0.27566
# Poissons Ratio (y) = 0.33859 0.11389
# Poissons Ratio (z) = 0.17143 0.02560
#
# Static dielectric constant tensor:
#      x y z
#    x 3.411040 0.000000 0.000000 
#    y 0.000000 4.424900 0.000000 
#    z 0.000000 0.000000 4.681440 
# 
# 
# High freq. dielectric constant tensor:
#      x y z
#    x 1.952360 0.000000 0.000000 
#    y 0.000000 1.904670 0.000000 
#    z 0.000000 0.000000 1.960390 
# 
# From -- ./inp_files/3524.got.cif
#   From: 2010.03.12/outbox.cif.g09.slc.cpg/sg28_2_cif.got.tgz:3524.got - 2010.04.14 03:39:34.
