data_PCOD8168181
_publ_section_title
;
Structure prediction by ZEFSAII (Michael W. Deem and Ramdas Pophale) SiO2 
 PCOD8168181
Probable space group: P M A 2
;
_chemical_formula_sum "Si O2"
_cell_formula_units_Z 28
_cell_length_a 8.947423
_cell_length_b 9.382761
_cell_length_c 18.015725
_cell_angle_alpha 90.000000
_cell_angle_beta 90.000000
_cell_angle_gamma 90.000000
_cell_volume 1512.447706
_symmetry_space_group_name_H-M "P M A 2"
_symmetry_group_IT_number 28
_symmetry_cell_setting 'orthorhombic'
loop_
_space_group_symop_operation_xyz
x,y,z
-x,-y,z
1/2-x,y,z
1/2+x,-y,z
loop_
_atom_site_type_symbol
_atom_site_label
_atom_site_fract_x
_atom_site_fract_y
_atom_site_fract_z
Si Si1 0.425798 0.653322 0.790940
Si Si2 0.075239 0.348543 0.375188
Si Si3 0.574464 0.852408 0.673152
Si Si4 0.573181 0.846371 0.235925
Si Si5 0.075213 0.147357 0.504169
Si Si6 0.926760 0.344010 0.112126
Si Si7 0.079385 0.647576 0.950331
O O1 0.500000 0.500000 0.792952
O O2 0.250000 0.642908 0.773489
O O3 0.506621 0.734810 0.725715
O O4 0.455920 0.729640 0.872244
O O5 0.250000 0.376439 0.378560
O O6 0.031732 0.246165 0.307669
O O7 0.017791 0.274211 0.451088
O O8 0.000000 0.500000 0.363978
O O9 0.750000 0.864871 0.685736
O O10 0.534624 0.810978 0.588494
O O11 0.500000 0.000000 0.695531
O O12 0.750000 0.862975 0.225342
O O13 0.503782 0.768655 0.165302
O O14 0.500000 0.000000 0.245798
O O15 0.250000 0.123427 0.493344
O O16 0.000000 0.000000 0.480148
O O17 0.750000 0.356412 0.129022
O O18 0.000000 0.500000 0.122103
O O19 0.957836 0.277330 0.029150
O O20 0.250000 0.604666 0.949767
O O21 0.000000 0.500000 0.949396
#
# Coordination Sequence:
#
# PCOD8168181 Si02
#       7
#     4   4   4   4   4   4   4
#     4  10  19  33  53  78 107 139 177 219 264 312
#     4  10  22  38  56  80 108 137 172 213 257 307
#     4  10  20  35  54  77 106 140 178 218 263 314
#     4  11  23  38  56  79 107 140 177 216 262 313
#     4   9  19  36  56  78 104 136 174 214 258 310
#     4  10  19  34  56  81 108 138 175 218 263 311
#     4   8  16  30  50  75 103 136 173 214 260 311
#
# _framework density 18.513038000000002
#
# number of rings (size 3 to 8) (size 9 to 14) (size 15 to 20)
#    0.000    2.286    0.000    2.571    0.000    5.143 
#    0.000    2.143    0.000    0.000    0.000    0.000 
#    0.000    0.000    0.000    0.000    0.000    0.000 
#
# Total GULP energy -346989.835019 kJ/mol
# GULP energy per Si atom -12392.494108 kJ/mol
# Density = 1.847090 g / cm^3
# Si number density = 18.513038 Si / 1000 Ang^3
#
#
#
# Elastic Constant Matrix: (Units=GPa)
#
#
# Indices 1 2 3 4 5 6 
#
# 1 76.4613 54.2700 59.0870 0.0000 0.0000 0.0000
# 2 54.2700 118.9774 80.3363 0.0000 0.0000 0.0000
# 3 59.0870 80.3363 144.7846 0.0000 0.0000 0.0000
# 4 0.0000 0.0000 0.0000 -45.3319 0.0000 0.0000
# 5 0.0000 0.0000 0.0000 0.0000 30.2027 0.0000
# 6 0.0000 0.0000 0.0000 0.0000 0.0000 34.9848
#
#
#
# Elastic Compliance Matrix: (Units=1/GPa)
#
#
# Indices 1 2 3 4 5 6 
#
# 1 0.021671 -0.006258 -0.005372 0.000000 0.000000 0.000000
# 2 -0.006258 0.015248 -0.005907 0.000000 0.000000 0.000000
# 3 -0.005372 -0.005907 0.012376 0.000000 0.000000 0.000000
# 4 0.000000 0.000000 0.000000 -0.022060 0.000000 0.000000
# 5 0.000000 0.000000 0.000000 0.000000 0.033110 0.000000
# 6 0.000000 0.000000 0.000000 0.000000 0.000000 0.028584
#
#
# Mechanical properties :
#
#
# Convention : Reuss Voigt Hill
#
# Bulk Modulus (GPa) = 70.30940 80.84555 75.57748
# Shear Modulus (GPa) = 38.83703 13.73979 26.28841
#
# Velocity S-wave (km/s) = 4.58517 2.72723 3.77237
# Velocity P-wave (km/s) = 8.12972 7.32676 7.73866
#
# Compressibility (1/GPa) = 0.01422285
#
# Stress axis : x y z
#
# Youngs Moduli (GPa) = 46.14377 65.58372 80.79870
#
# Poissons Ratio (x) = 0.41042 0.43404
# Poissons Ratio (y) = 0.28876 0.47724
# Poissons Ratio (z) = 0.24788 0.38737
#
# Static dielectric constant tensor:
#      x y z
#    x 3.536460 0.000000 0.000000 
#    y 0.000000 3.178220 0.000000 
#    z 0.000000 0.000000 4.097030 
# 
# 
# High freq. dielectric constant tensor:
#      x y z
#    x 1.728570 0.000000 0.000000 
#    y 0.000000 1.692950 0.000000 
#    z 0.000000 0.000000 1.743450 
# 
# From -- ./inp_files/6712.got.cif
#   From: 2010.03.12/outbox.cif.g09.slc.cpg/sg28_4_cif.got.tgz:6712.got - 2010.04.14 03:39:34.
