data_PCOD8168592
_publ_section_title
;
Structure prediction by ZEFSAII (Michael W. Deem and Ramdas Pophale) SiO2 
 PCOD8168592
Probable space group: P C A 21
;
_chemical_formula_sum "Si O2"
_cell_formula_units_Z 32
_cell_length_a 19.640746
_cell_length_b 9.941723
_cell_length_c 8.988195
_cell_angle_alpha 90.000000
_cell_angle_beta 90.000000
_cell_angle_gamma 90.000000
_cell_volume 1755.060628
_symmetry_space_group_name_H-M "P C A 21"
_symmetry_group_IT_number 29
_symmetry_cell_setting 'orthorhombic'
loop_
_space_group_symop_operation_xyz
x,y,z
-x,-y,1/2+z
1/2-x,y,1/2+z
1/2+x,-y,z
loop_
_atom_site_type_symbol
_atom_site_label
_atom_site_fract_x
_atom_site_fract_y
_atom_site_fract_z
Si Si1 0.561733 0.468077 0.494340
Si Si2 0.402059 0.106915 0.481344
Si Si3 0.907188 0.907492 0.827166
Si Si4 0.924897 0.454213 0.338383
Si Si5 0.173066 0.318015 0.478079
Si Si6 0.061674 0.847273 0.822101
Si Si7 0.443509 0.832926 0.979946
Si Si8 0.184548 0.329868 0.829683
O O1 0.554331 0.481162 0.669955
O O2 0.487486 0.502182 0.437823
O O3 0.617920 0.569633 0.430949
O O4 0.584011 0.316893 0.448875
O O5 0.386452 0.106777 0.655994
O O6 0.475970 0.167982 0.445660
O O7 0.345263 0.194223 0.399765
O O8 0.397244 0.955725 0.418360
O O9 0.853314 0.827676 0.927215
O O10 0.981751 0.848464 0.862722
O O11 0.904580 0.064857 0.871008
O O12 0.907538 0.297581 0.364252
O O13 0.859437 0.541933 0.382008
O O14 0.186896 0.315382 0.652795
O O15 0.240511 0.356143 0.389669
O O16 0.070466 0.880593 0.648190
#
# Coordination Sequence:
#
# PCOD8168592 Si02
#       8
#     4   4   4   4   4   4   4   4
#     4  10  20  35  57  84 112 146 187 235 285 334
#     4  10  19  33  55  82 111 145 185 228 277 331
#     4  10  19  33  55  82 111 145 185 228 277 331
#     4  10  20  35  57  84 112 146 187 235 285 334
#     4  11  23  38  57  81 113 151 189 230 283 341
#     4   9  18  33  54  82 114 143 179 230 281 329
#     4   9  18  33  54  82 114 143 179 230 281 329
#     4  11  23  38  57  81 113 151 189 230 283 341
#
# _framework density 18.232987999999999
#
# number of rings (size 3 to 8) (size 9 to 14) (size 15 to 20)
#    0.000    2.000    2.500    1.500    0.000    3.000 
#    0.000    1.250    0.000    3.000    0.000    0.000 
#    0.000    0.000    0.000    0.000    0.000    0.000 
#
# Total GULP energy -396913.950221 kJ/mol
# GULP energy per Si atom -12403.560944 kJ/mol
# Density = 1.819149 g / cm^3
# Si number density = 18.232988 Si / 1000 Ang^3
#
#
#
# Elastic Constant Matrix: (Units=GPa)
#
#
# Indices 1 2 3 4 5 6 
#
# 1 49.5707 22.1414 16.3441 0.0000 0.0000 0.0000
# 2 22.1414 87.5260 22.6825 0.0000 0.0000 0.0000
# 3 16.3441 22.6825 54.0048 0.0000 0.0000 0.0000
# 4 0.0000 0.0000 0.0000 29.2689 0.0000 0.0000
# 5 0.0000 0.0000 0.0000 0.0000 29.3885 0.0000
# 6 0.0000 0.0000 0.0000 0.0000 0.0000 24.4327
#
#
#
# Elastic Compliance Matrix: (Units=1/GPa)
#
#
# Indices 1 2 3 4 5 6 
#
# 1 0.024020 -0.004704 -0.005293 0.000000 0.000000 0.000000
# 2 -0.004704 0.013742 -0.004348 0.000000 0.000000 0.000000
# 3 -0.005293 -0.004348 0.021945 0.000000 0.000000 0.000000
# 4 0.000000 0.000000 0.000000 0.034166 0.000000 0.000000
# 5 0.000000 0.000000 0.000000 0.000000 0.034027 0.000000
# 6 0.000000 0.000000 0.000000 0.000000 0.000000 0.040929
#
#
# Mechanical properties :
#
#
# Convention : Reuss Voigt Hill
#
# Bulk Modulus (GPa) = 32.24238 34.82637 33.53438
# Shear Modulus (GPa) = 24.05477 25.28025 24.66751
#
# Velocity S-wave (km/s) = 3.63616 3.72763 3.68218
# Velocity P-wave (km/s) = 5.94565 6.13752 6.04235
#
# Compressibility (1/GPa) = 0.03101508
#
# Stress axis : x y z
#
# Youngs Moduli (GPa) = 41.63224 72.76926 45.56826
#
# Poissons Ratio (x) = 0.34234 0.24121
# Poissons Ratio (y) = 0.19586 0.19813
# Poissons Ratio (z) = 0.22038 0.31640
#
# Static dielectric constant tensor:
#      x y z
#    x 3.135670 0.000000 0.000000 
#    y 0.000000 3.562720 0.000000 
#    z 0.000000 0.000000 3.363070 
# 
# 
# High freq. dielectric constant tensor:
#      x y z
#    x 1.678990 0.000000 0.000000 
#    y 0.000000 1.718670 0.000000 
#    z 0.000000 0.000000 1.712310 
# 
# From -- ./inp_files/2288.got.cif
#   From: 2010.03.12/outbox.cif.g09.slc.cpg/sg29_2_cif.got.tgz:2288.got - 2010.04.14 03:43:10.
