data_PCOD8168050
_publ_section_title
;
Structure prediction by ZEFSAII (Michael W. Deem and Ramdas Pophale) SiO2 
 PCOD8168050
Probable space group: P M A 2
;
_chemical_formula_sum "Si O2"
_cell_formula_units_Z 32
_cell_length_a 8.746577
_cell_length_b 14.338483
_cell_length_c 15.851522
_cell_angle_alpha 90.000000
_cell_angle_beta 90.000000
_cell_angle_gamma 90.000000
_cell_volume 1987.981311
_symmetry_space_group_name_H-M "P M A 2"
_symmetry_group_IT_number 28
_symmetry_cell_setting 'orthorhombic'
loop_
_space_group_symop_operation_xyz
x,y,z
-x,-y,z
1/2-x,y,z
1/2+x,-y,z
loop_
_atom_site_type_symbol
_atom_site_label
_atom_site_fract_x
_atom_site_fract_y
_atom_site_fract_z
Si Si1 0.431301 0.096351 0.782090
Si Si2 0.430326 0.601922 0.560553
Si Si3 0.069167 0.724021 0.715803
Si Si4 0.930516 0.398872 0.875109
Si Si5 0.931141 0.397701 0.196556
Si Si6 0.931179 0.288474 0.036633
Si Si7 0.568595 0.095761 0.965323
Si Si8 0.428601 0.599966 0.378335
O O1 0.250000 0.088889 0.788435
O O2 0.481352 0.177950 0.718797
O O3 0.500862 0.117330 0.873752
O O4 0.500000 0.000000 0.746285
O O5 0.500000 0.500000 0.574405
O O6 0.250000 0.589838 0.569251
O O7 0.489980 0.672554 0.631508
O O8 0.476403 0.646605 0.468099
O O9 0.250000 0.742241 0.714841
O O10 0.019035 0.662076 0.795260
O O11 0.750000 0.408405 0.879389
O O12 0.000000 0.500000 0.865213
O O13 0.996473 0.349671 0.959225
O O14 0.750000 0.407365 0.187624
O O15 0.996936 0.328771 0.124614
O O16 0.976464 0.352403 0.288746
O O17 0.000000 0.500000 0.183787
O O18 0.750000 0.294871 0.034875
O O19 0.980327 0.180393 0.026837
O O20 0.750000 0.086865 0.956489
O O21 0.500000 0.000000 0.003002
O O22 0.500000 0.500000 0.377340
O O23 0.250000 0.585791 0.378177
#
# Coordination Sequence:
#
# PCOD8168050 Si02
#       8
#     4   4   4   4   4   4   4   4
#     4  11  21  33  50  69  88 112 146 185 226 266
#     4   9  17  28  44  65  91 121 151 186 223 260
#     4  10  19  32  46  62  89 121 150 183 220 258
#     4  10  19  30  41  57  85 119 150 179 211 251
#     4   9  16  27  43  63  88 118 149 182 217 258
#     4   9  17  29  44  61  86 118 147 178 220 261
#     4  10  18  32  49  65  87 113 146 184 226 265
#     4   8  14  25  41  62  86 113 148 184 220 258
#
# _framework density 16.096730000000001
#
# number of rings (size 3 to 8) (size 9 to 14) (size 15 to 20)
#    0.000    2.500    1.250    3.000    0.000    1.000 
#    0.000    1.250    0.000    0.000    0.000    0.875 
#    0.000    2.000    0.000    0.000    0.000    0.500 
#
# Total GULP energy -396507.638032 kJ/mol
# GULP energy per Si atom -12390.863688 kJ/mol
# Density = 1.606009 g / cm^3
# Si number density = 16.096730 Si / 1000 Ang^3
#
#
#
# Elastic Constant Matrix: (Units=GPa)
#
#
# Indices 1 2 3 4 5 6 
#
# 1 40.0543 31.0899 27.6185 0.0000 0.0000 0.0000
# 2 31.0899 121.8255 73.8287 0.0000 0.0000 0.0000
# 3 27.6185 73.8287 151.1816 0.0000 0.0000 0.0000
# 4 0.0000 0.0000 0.0000 13.0606 0.0000 0.0000
# 5 0.0000 0.0000 0.0000 0.0000 11.7133 0.0000
# 6 0.0000 0.0000 0.0000 0.0000 0.0000 25.1759
#
#
#
# Elastic Compliance Matrix: (Units=1/GPa)
#
#
# Indices 1 2 3 4 5 6 
#
# 1 0.031851 -0.006537 -0.002627 0.000000 0.000000 0.000000
# 2 -0.006537 0.013000 -0.005155 0.000000 0.000000 0.000000
# 3 -0.002627 -0.005155 0.009612 0.000000 0.000000 0.000000
# 4 0.000000 0.000000 0.000000 0.076566 0.000000 0.000000
# 5 0.000000 0.000000 0.000000 0.000000 0.085373 0.000000
# 6 0.000000 0.000000 0.000000 0.000000 0.000000 0.039721
#
#
# Mechanical properties :
#
#
# Convention : Reuss Voigt Hill
#
# Bulk Modulus (GPa) = 38.71850 64.23729 51.47789
# Shear Modulus (GPa) = 17.04350 22.02491 19.53420
#
# Velocity S-wave (km/s) = 3.25748 3.70305 3.48739
# Velocity P-wave (km/s) = 6.18499 7.63394 6.94734
#
# Compressibility (1/GPa) = 0.02582745
#
# Stress axis : x y z
#
# Youngs Moduli (GPa) = 31.39633 76.92097 104.04136
#
# Poissons Ratio (x) = 0.50280 0.27327
# Poissons Ratio (y) = 0.20523 0.53628
# Poissons Ratio (z) = 0.08246 0.39649
#
# Static dielectric constant tensor:
#      x y z
#    x 2.886080 0.000000 0.000000 
#    y 0.000000 3.043490 0.000000 
#    z 0.000000 0.000000 3.632600 
# 
# 
# High freq. dielectric constant tensor:
#      x y z
#    x 1.610200 0.000000 0.000000 
#    y 0.000000 1.598620 0.000000 
#    z 0.000000 0.000000 1.617070 
# 
# From -- ./inp_files/6389.got.cif
#   From: 2010.03.12/outbox.cif.g09.slc.cpg/sg28_4_cif.got.tgz:6389.got - 2010.04.14 03:39:34.
