data_PCOD8168707
_publ_section_title
;
Structure prediction by ZEFSAII (Michael W. Deem and Ramdas Pophale) SiO2 
 PCOD8168707
Probable space group: P C A 21
;
_chemical_formula_sum "Si O2"
_cell_formula_units_Z 12
_cell_length_a 14.797374
_cell_length_b 8.051869
_cell_length_c 4.828097
_cell_angle_alpha 90.000000
_cell_angle_beta 90.000000
_cell_angle_gamma 90.000000
_cell_volume 575.250941
_symmetry_space_group_name_H-M "P C A 21"
_symmetry_group_IT_number 29
_symmetry_cell_setting 'orthorhombic'
loop_
_space_group_symop_operation_xyz
x,y,z
-x,-y,1/2+z
1/2-x,y,1/2+z
1/2+x,-y,z
loop_
_atom_site_type_symbol
_atom_site_label
_atom_site_fract_x
_atom_site_fract_y
_atom_site_fract_z
Si Si1 0.450340 0.433822 0.184820
Si Si2 0.811809 0.323592 0.374200
Si Si3 0.515831 0.107805 0.943140
O O1 0.525075 0.444707 0.428153
O O2 0.354691 0.494406 0.310706
O O3 0.448270 0.245788 0.072973
O O4 0.775442 0.302204 0.683357
O O5 0.889754 0.186016 0.340519
O O6 0.533582 0.968442 0.175548
#
# Coordination Sequence:
#
# PCOD8168707 Si02
#       3
#     4   4   4
#     4  10  20  38  61  84 113 158 203 234 284 366
#     4  11  22  39  61  88 118 156 202 253 294 340
#     4  11  22  39  62  88 121 160 197 241 302 368
#
# _framework density 20.860461999999998
#
# number of rings (size 3 to 8) (size 9 to 14) (size 15 to 20)
#    0.000    1.333    0.000   10.000    0.000    0.000 
#    0.000   10.000    0.000    0.000    0.000    0.000 
#    0.000    0.000    0.000    0.000    0.000    0.000 
#
# Total GULP energy -148772.121062 kJ/mol
# GULP energy per Si atom -12397.676755 kJ/mol
# Density = 2.081298 g / cm^3
# Si number density = 20.860462 Si / 1000 Ang^3
#
#
#
# Elastic Constant Matrix: (Units=GPa)
#
#
# Indices 1 2 3 4 5 6 
#
# 1 84.6899 57.7478 28.8159 0.0000 0.0000 0.0000
# 2 57.7478 86.9729 25.1146 0.0000 0.0000 0.0000
# 3 28.8159 25.1146 98.7231 0.0000 0.0000 0.0000
# 4 0.0000 0.0000 0.0000 48.6664 0.0000 0.0000
# 5 0.0000 0.0000 0.0000 0.0000 40.5308 0.0000
# 6 0.0000 0.0000 0.0000 0.0000 0.0000 23.4144
#
#
#
# Elastic Compliance Matrix: (Units=1/GPa)
#
#
# Indices 1 2 3 4 5 6 
#
# 1 0.022354 -0.013985 -0.002967 0.000000 0.000000 0.000000
# 2 -0.013985 0.021159 -0.001301 0.000000 0.000000 0.000000
# 3 -0.002967 -0.001301 0.011326 0.000000 0.000000 0.000000
# 4 0.000000 0.000000 0.000000 0.020548 0.000000 0.000000
# 5 0.000000 0.000000 0.000000 0.000000 0.024673 0.000000
# 6 0.000000 0.000000 0.000000 0.000000 0.000000 0.042709
#
#
# Mechanical properties :
#
#
# Convention : Reuss Voigt Hill
#
# Bulk Modulus (GPa) = 54.54596 54.86030 54.70313
# Shear Modulus (GPa) = 26.97076 33.10280 30.03678
#
# Velocity S-wave (km/s) = 3.59961 3.98787 3.79871
# Velocity P-wave (km/s) = 6.59402 6.89637 6.74689
#
# Compressibility (1/GPa) = 0.01833316
#
# Stress axis : x y z
#
# Youngs Moduli (GPa) = 44.73551 47.26026 88.29068
#
# Poissons Ratio (x) = 0.66096 0.26195
# Poissons Ratio (y) = 0.62565 0.11484
# Poissons Ratio (z) = 0.13272 0.06147
#
# Static dielectric constant tensor:
#      x y z
#    x 3.429560 0.000000 0.000000 
#    y 0.000000 3.756480 0.000000 
#    z 0.000000 0.000000 4.181230 
# 
# 
# High freq. dielectric constant tensor:
#      x y z
#    x 1.787020 0.000000 0.000000 
#    y 0.000000 1.806580 0.000000 
#    z 0.000000 0.000000 1.850000 
# 
# From -- ./inp_files/38.got.cif
#   From: 2010.03.12/outbox.cif.g09.slc.cpg/sg29_1_cif.got.tgz:38.got - 2010.04.14 03:43:10.
