data_PCOD8168454
_publ_section_title
;
Structure prediction by ZEFSAII (Michael W. Deem and Ramdas Pophale) SiO2 
 PCOD8168454
Probable space group: P M A 2
;
_chemical_formula_sum "Si O2"
_cell_formula_units_Z 32
_cell_length_a 9.291162
_cell_length_b 23.992505
_cell_length_c 7.616991
_cell_angle_alpha 90.000000
_cell_angle_beta 90.000000
_cell_angle_gamma 90.000000
_cell_volume 1697.966310
_symmetry_space_group_name_H-M "P M A 2"
_symmetry_group_IT_number 28
_symmetry_cell_setting 'orthorhombic'
loop_
_space_group_symop_operation_xyz
x,y,z
-x,-y,z
1/2-x,y,z
1/2+x,-y,z
loop_
_atom_site_type_symbol
_atom_site_label
_atom_site_fract_x
_atom_site_fract_y
_atom_site_fract_z
Si Si1 0.084117 0.947401 0.025730
Si Si2 0.920168 0.637390 0.228379
Si Si3 0.915731 0.174235 0.530789
Si Si4 0.578064 0.763211 0.228379
Si Si5 0.918380 0.556026 0.528816
Si Si6 0.415731 0.825765 0.925969
Si Si7 0.918380 0.556026 0.927942
Si Si8 0.084117 0.947401 0.431028
O O1 0.250000 0.961228 0.999699
O O2 0.042578 0.938725 0.228379
O O3 0.040734 0.890824 0.926749
O O4 0.000000 0.000000 0.944321
O O5 0.750000 0.640146 0.228379
O O6 0.980754 0.699910 0.228379
O O7 0.974115 0.605357 0.402763
O O8 0.974115 0.605357 0.053995
O O9 0.750000 0.180651 0.467882
O O10 0.936083 0.197063 0.728379
O O11 0.959266 0.109176 0.530009
O O12 0.019184 0.208201 0.403466
O O13 0.750000 0.767011 0.228379
O O14 0.519184 0.791799 0.053292
O O15 0.750000 0.544590 0.502126
O O16 0.953832 0.573703 0.728379
O O17 0.000000 0.500000 0.475371
O O18 0.250000 0.819349 0.988877
O O19 0.750000 0.544590 0.954632
O O20 0.000000 0.500000 0.981387
O O21 0.250000 0.961228 0.457059
O O22 0.000000 0.000000 0.512437
#
# Coordination Sequence:
#
# PCOD8168454 Si02
#       8
#     4   4   4   4   4   4   4   4
#     4   9  17  31  52  78 107 137 171 215 269 328
#     4   9  19  34  52  75 103 140 177 211 260 315
#     4  10  21  39  60  79 106 146 185 222 273 333
#     4  11  23  38  57  81 110 142 186 237 274 313
#     4   9  17  31  52  77 106 137 169 208 255 308
#     4  10  21  39  60  79 106 146 185 222 273 333
#     4   9  17  31  52  77 106 137 169 208 255 308
#     4   9  17  31  52  78 107 137 171 215 269 328
#
# _framework density 18.846074000000002
#
# number of rings (size 3 to 8) (size 9 to 14) (size 15 to 20)
#    0.000    2.500    1.250    0.750    0.000    3.000 
#    0.000    5.000    0.000    3.000    0.000    0.000 
#    0.000    0.000    0.000    0.000    0.000    0.000 
#
# Total GULP energy -396797.301207 kJ/mol
# GULP energy per Si atom -12399.915663 kJ/mol
# Density = 1.880318 g / cm^3
# Si number density = 18.846074 Si / 1000 Ang^3
#
#
#
# Elastic Constant Matrix: (Units=GPa)
#
#
# Indices 1 2 3 4 5 6 
#
# 1 61.5849 57.7164 42.9029 0.0000 0.0000 0.0000
# 2 57.7164 141.1310 70.2129 0.0000 0.0000 0.0000
# 3 42.9029 70.2129 111.1251 0.0000 0.0000 0.0000
# 4 0.0000 0.0000 0.0000 -3.2974 0.0000 0.0000
# 5 0.0000 0.0000 0.0000 0.0000 16.9513 0.0000
# 6 0.0000 0.0000 0.0000 0.0000 0.0000 29.8855
#
#
#
# Elastic Compliance Matrix: (Units=1/GPa)
#
#
# Indices 1 2 3 4 5 6 
#
# 1 0.028297 -0.008951 -0.005270 0.000000 0.000000 0.000000
# 2 -0.008951 0.013165 -0.004863 0.000000 0.000000 0.000000
# 3 -0.005270 -0.004863 0.014106 0.000000 0.000000 0.000000
# 4 0.000000 0.000000 0.000000 -0.303268 0.000000 0.000000
# 5 0.000000 0.000000 0.000000 0.000000 0.058992 0.000000
# 6 0.000000 0.000000 0.000000 0.000000 0.000000 0.033461
#
#
# Mechanical properties :
#
#
# Convention : Reuss Voigt Hill
#
# Bulk Modulus (GPa) = 57.46325 72.83393 65.14859
# Shear Modulus (GPa) = -44.93178 18.24180 -13.34499
#
# Velocity S-wave (km/s) = -4.88807 3.11454 -2.66391
# Velocity P-wave (km/s) = 1.14043 7.18780 5.01816
#
# Compressibility (1/GPa) = 0.01740243
#
# Stress axis : x y z
#
# Youngs Moduli (GPa) = 35.33920 75.95776 70.89348
#
# Poissons Ratio (x) = 0.67988 0.37357
# Poissons Ratio (y) = 0.31631 0.34473
# Poissons Ratio (z) = 0.18622 0.36935
#
# Static dielectric constant tensor:
#      x y z
#    x 3.365490 0.000000 0.000000 
#    y 0.000000 3.621380 0.000000 
#    z 0.000000 0.000000 3.522820 
# 
# 
# High freq. dielectric constant tensor:
#      x y z
#    x 1.711770 0.000000 0.000000 
#    y 0.000000 1.728160 0.000000 
#    z 0.000000 0.000000 1.740040 
# 
# From -- ./inp_files/2746.got.cif
#   From: 2010.03.12/outbox.cif.g09.slc.cpg/sg28_2_cif.got.tgz:2746.got - 2010.04.14 03:39:34.
