data_PCOD8168669
_publ_section_title
;
Structure prediction by ZEFSAII (Michael W. Deem and Ramdas Pophale) SiO2 
 PCOD8168669
Probable space group: P C A 21
;
_chemical_formula_sum "Si O2"
_cell_formula_units_Z 32
_cell_length_a 12.610374
_cell_length_b 14.585059
_cell_length_c 9.051153
_cell_angle_alpha 90.000000
_cell_angle_beta 90.000000
_cell_angle_gamma 90.000000
_cell_volume 1664.715655
_symmetry_space_group_name_H-M "P C A 21"
_symmetry_group_IT_number 29
_symmetry_cell_setting 'orthorhombic'
loop_
_space_group_symop_operation_xyz
x,y,z
-x,-y,1/2+z
1/2-x,y,1/2+z
1/2+x,-y,z
loop_
_atom_site_type_symbol
_atom_site_label
_atom_site_fract_x
_atom_site_fract_y
_atom_site_fract_z
Si Si1 0.880989 0.380133 0.625000
Si Si2 0.226087 0.111236 0.270714
Si Si3 0.652559 0.784062 0.536608
Si Si4 0.039996 0.011555 0.129235
Si Si5 0.368564 0.415105 0.124756
Si Si6 0.751074 0.477355 0.375761
Si Si7 0.585320 0.179634 0.058810
Si Si8 0.370119 0.959551 0.344062
O O1 0.833836 0.418225 0.471679
O O2 0.817494 0.414689 0.766813
O O3 0.862586 0.269900 0.628648
O O4 0.003841 0.410615 0.636559
O O5 0.317159 0.140700 0.157963
O O6 0.214793 0.193733 0.386512
O O7 0.116149 0.090615 0.190565
O O8 0.261377 0.015950 0.347095
O O9 0.682871 0.684122 0.595946
O O10 0.529519 0.791037 0.499955
O O11 0.076022 0.906287 0.174622
O O12 0.043196 0.011769 0.950332
O O13 0.922220 0.039458 0.181664
O O14 0.319891 0.451398 0.278662
O O15 0.333428 0.475741 0.985023
O O16 0.649737 0.142227 0.912891
#
# Coordination Sequence:
#
# PCOD8168669 Si02
#       8
#     4   4   4   4   4   4   4   4
#     4  10  21  38  63  81 119 149 191 243 287 347
#     4  12  19  33  52  80 106 152 180 227 273 332
#     4  11  20  32  56  77 111 137 185 230 282 323
#     4  10  20  35  54  75 112 146 186 221 274 323
#     4  10  21  38  59  90 112 148 187 250 292 353
#     4  10  21  39  62  84 114 152 192 229 305 362
#     4   9  20  36  52  78 108 146 181 231 271 321
#     4  10  20  35  54  75 112 146 186 221 274 323
#
# _framework density 19.222501999999999
#
# number of rings (size 3 to 8) (size 9 to 14) (size 15 to 20)
#    0.750    1.000    3.750    1.500    0.000    1.000 
#    0.000    0.000    5.500    3.000    0.000    0.000 
#    0.000    0.000    0.000    0.000    0.000    0.000 
#
# Total GULP energy -396453.072771 kJ/mol
# GULP energy per Si atom -12389.158524 kJ/mol
# Density = 1.917875 g / cm^3
# Si number density = 19.222502 Si / 1000 Ang^3
#
#
#
# Elastic Constant Matrix: (Units=GPa)
#
#
# Indices 1 2 3 4 5 6 
#
# 1 55.7374 11.6500 9.5618 0.0000 0.0000 0.0000
# 2 11.6500 83.6057 6.8333 0.0000 0.0000 0.0000
# 3 9.5618 6.8333 66.2765 0.0000 0.0000 0.0000
# 4 0.0000 0.0000 0.0000 30.3742 0.0000 0.0000
# 5 0.0000 0.0000 0.0000 0.0000 21.3676 0.0000
# 6 0.0000 0.0000 0.0000 0.0000 0.0000 27.8029
#
#
#
# Elastic Compliance Matrix: (Units=1/GPa)
#
#
# Indices 1 2 3 4 5 6 
#
# 1 0.018873 -0.002428 -0.002472 0.000000 0.000000 0.000000
# 2 -0.002428 0.012375 -0.000926 0.000000 0.000000 0.000000
# 3 -0.002472 -0.000926 0.015540 0.000000 0.000000 0.000000
# 4 0.000000 0.000000 0.000000 0.032923 0.000000 0.000000
# 5 0.000000 0.000000 0.000000 0.000000 0.046800 0.000000
# 6 0.000000 0.000000 0.000000 0.000000 0.000000 0.035968
#
#
# Mechanical properties :
#
#
# Convention : Reuss Voigt Hill
#
# Bulk Modulus (GPa) = 28.46051 29.07887 28.76969
# Shear Modulus (GPa) = 26.90456 27.74723 27.32589
#
# Velocity S-wave (km/s) = 3.74523 3.80343 3.77445
# Velocity P-wave (km/s) = 5.79140 5.86928 5.83047
#
# Compressibility (1/GPa) = 0.03513640
#
# Stress axis : x y z
#
# Youngs Moduli (GPa) = 52.98614 80.80901 64.34820
#
# Poissons Ratio (x) = 0.19618 0.15910
# Poissons Ratio (y) = 0.12864 0.05956
# Poissons Ratio (z) = 0.13101 0.07480
#
# Static dielectric constant tensor:
#      x y z
#    x 3.293200 0.000000 0.000000 
#    y 0.000000 3.591640 0.000000 
#    z 0.000000 0.000000 3.414600 
# 
# 
# High freq. dielectric constant tensor:
#      x y z
#    x 1.739110 0.000000 0.000000 
#    y 0.000000 1.743970 0.000000 
#    z 0.000000 0.000000 1.744540 
# 
# From -- ./inp_files/1530.got.cif
#   From: 2010.03.12/outbox.cif.g09.slc.cpg/sg29_1_cif.got.tgz:1530.got - 2010.04.14 03:43:10.
