data_PCOD8168272
_publ_section_title
;
Structure prediction by ZEFSAII (Michael W. Deem and Ramdas Pophale) SiO2 
 PCOD8168272
Probable space group: P M A 2
;
_chemical_formula_sum "Si O2"
_cell_formula_units_Z 32
_cell_length_a 8.525258
_cell_length_b 14.536209
_cell_length_c 13.544798
_cell_angle_alpha 90.000000
_cell_angle_beta 90.000000
_cell_angle_gamma 90.000000
_cell_volume 1678.538172
_symmetry_space_group_name_H-M "P M A 2"
_symmetry_group_IT_number 28
_symmetry_cell_setting 'orthorhombic'
loop_
_space_group_symop_operation_xyz
x,y,z
-x,-y,z
1/2-x,y,z
1/2+x,-y,z
loop_
_atom_site_type_symbol
_atom_site_label
_atom_site_fract_x
_atom_site_fract_y
_atom_site_fract_z
Si Si1 0.436571 0.899481 0.836830
Si Si2 0.932236 0.235179 0.213073
Si Si3 0.077906 0.089189 0.558855
Si Si4 0.935375 0.900397 0.050227
Si Si5 0.936391 0.601088 0.328420
Si Si6 0.937360 0.399796 0.542066
Si Si7 0.429978 0.763335 0.670819
Si Si8 0.077259 0.089538 0.330024
O O1 0.250000 0.902543 0.830358
O O2 0.505190 0.817971 0.764606
O O3 0.500000 0.000000 0.805841
O O4 0.490363 0.872583 0.945850
O O5 0.750000 0.244579 0.187943
O O6 0.019817 0.181616 0.124840
O O7 0.002585 0.335215 0.238384
O O8 0.963325 0.175430 0.311344
O O9 0.250000 0.106943 0.605925
O O10 0.097962 0.072334 0.444222
O O11 0.960117 0.173057 0.575805
O O12 0.000000 0.000000 0.609428
O O13 0.750000 0.907625 0.038519
O O14 0.000000 0.000000 0.085151
O O15 0.750000 0.601619 0.329299
O O16 0.000000 0.500000 0.305468
O O17 0.995377 0.634312 0.436419
O O18 0.750000 0.399335 0.533485
O O19 0.996949 0.335542 0.634017
O O20 0.000000 0.500000 0.568425
O O21 0.250000 0.749358 0.694189
O O22 0.250000 0.105736 0.281714
O O23 0.000000 0.000000 0.279570
#
# Coordination Sequence:
#
# PCOD8168272 Si02
#       8
#     4   4   4   4   4   4   4   4
#     4  10  20  36  55  79 108 141 179 223 272 325
#     4  12  23  36  55  79 106 140 178 222 270 321
#     4  10  20  31  46  68 100 137 173 210 254 307
#     4  11  22  38  58  82 110 143 181 225 273 327
#     4  11  22  38  58  83 112 145 183 226 272 324
#     4  10  20  36  56  81 111 146 183 225 272 321
#     4  10  21  34  52  76 105 138 177 221 268 318
#     4  10  20  33  47  70 103 140 177 216 259 313
#
# _framework density 19.064208000000001
#
# number of rings (size 3 to 8) (size 9 to 14) (size 15 to 20)
#    0.000    1.500    0.000    7.875    0.000    6.500 
#    0.000    0.000    0.000    0.750    0.000    3.500 
#    0.000    0.000    0.000    0.000    0.000    0.000 
#
# Total GULP energy -396516.350802 kJ/mol
# GULP energy per Si atom -12391.135963 kJ/mol
# Density = 1.902082 g / cm^3
# Si number density = 19.064208 Si / 1000 Ang^3
#
#
#
# Elastic Constant Matrix: (Units=GPa)
#
#
# Indices 1 2 3 4 5 6 
#
# 1 86.5233 28.8943 32.8304 0.0000 0.0000 0.0000
# 2 28.8943 126.4508 64.1208 0.0000 0.0000 0.0000
# 3 32.8304 64.1208 96.3571 0.0000 0.0000 0.0000
# 4 0.0000 0.0000 0.0000 37.8503 0.0000 0.0000
# 5 0.0000 0.0000 0.0000 0.0000 18.1529 0.0000
# 6 0.0000 0.0000 0.0000 0.0000 0.0000 29.8983
#
#
#
# Elastic Compliance Matrix: (Units=1/GPa)
#
#
# Indices 1 2 3 4 5 6 
#
# 1 0.013379 -0.001125 -0.003810 0.000000 0.000000 0.000000
# 2 -0.001125 0.012030 -0.007622 0.000000 0.000000 0.000000
# 3 -0.003810 -0.007622 0.016748 0.000000 0.000000 0.000000
# 4 0.000000 0.000000 0.000000 0.026420 0.000000 0.000000
# 5 0.000000 0.000000 0.000000 0.000000 0.055088 0.000000
# 6 0.000000 0.000000 0.000000 0.000000 0.000000 0.033447
#
#
# Mechanical properties :
#
#
# Convention : Reuss Voigt Hill
#
# Bulk Modulus (GPa) = 58.67398 62.33580 60.50489
# Shear Modulus (GPa) = 26.60888 29.41267 28.01078
#
# Velocity S-wave (km/s) = 3.74003 3.93214 3.83729
# Velocity P-wave (km/s) = 7.03522 7.30646 7.17212
#
# Compressibility (1/GPa) = 0.01704333
#
# Stress axis : x y z
#
# Youngs Moduli (GPa) = 74.74470 83.12242 59.70780
#
# Poissons Ratio (x) = 0.09354 0.22746
# Poissons Ratio (y) = 0.08412 0.45511
# Poissons Ratio (z) = 0.28474 0.63358
#
# Static dielectric constant tensor:
#      x y z
#    x 3.766560 0.000000 0.000000 
#    y 0.000000 3.707170 0.000000 
#    z 0.000000 0.000000 3.495920 
# 
# 
# High freq. dielectric constant tensor:
#      x y z
#    x 1.755440 0.000000 0.000000 
#    y 0.000000 1.732980 0.000000 
#    z 0.000000 0.000000 1.726900 
# 
# From -- ./inp_files/6436.got.cif
#   From: 2010.03.12/outbox.cif.g09.slc.cpg/sg28_4_cif.got.tgz:6436.got - 2010.04.14 03:39:34.
