data_PCOD8168840
_publ_section_title
;
Structure prediction by ZEFSAII (Michael W. Deem and Ramdas Pophale) SiO2 
 PCOD8168840
Probable space group: P C A 21
;
_chemical_formula_sum "Si O2"
_cell_formula_units_Z 32
_cell_length_a 13.798115
_cell_length_b 8.550125
_cell_length_c 12.039492
_cell_angle_alpha 90.000000
_cell_angle_beta 90.000000
_cell_angle_gamma 90.000000
_cell_volume 1420.366389
_symmetry_space_group_name_H-M "P C A 21"
_symmetry_group_IT_number 29
_symmetry_cell_setting 'orthorhombic'
loop_
_space_group_symop_operation_xyz
x,y,z
-x,-y,1/2+z
1/2-x,y,1/2+z
1/2+x,-y,z
loop_
_atom_site_type_symbol
_atom_site_label
_atom_site_fract_x
_atom_site_fract_y
_atom_site_fract_z
Si Si1 0.875659 0.795439 0.983900
Si Si2 0.236741 0.672977 0.535015
Si Si3 0.004961 0.705801 0.319105
Si Si4 0.179216 0.478370 0.349749
Si Si5 0.158641 0.426205 0.683283
Si Si6 0.753197 0.046508 0.885744
Si Si7 0.557172 0.975226 0.965941
Si Si8 0.630386 0.117703 0.171433
O O1 0.890998 0.654845 0.897324
O O2 0.965991 0.910332 0.973273
O O3 0.779470 0.881773 0.941423
O O4 0.856474 0.725712 0.106033
O O5 0.258843 0.538277 0.442134
O O6 0.155672 0.592341 0.616463
O O7 0.197939 0.823638 0.466988
O O8 0.330327 0.728276 0.604935
O O9 0.108516 0.623841 0.330316
O O10 0.027610 0.839574 0.227397
O O11 0.924666 0.582553 0.276939
O O12 0.970823 0.798442 0.430036
O O13 0.235653 0.419577 0.240987
O O14 0.635948 0.050843 0.880515
O O15 0.790345 0.061157 0.760216
O O16 0.609002 0.974791 0.086998
#
# Coordination Sequence:
#
# PCOD8168840 Si02
#       8
#     4   4   4   4   4   4   4   4
#     4  11  24  44  67 105 141 183 254 300 364 451
#     4  10  21  41  70  97 134 190 241 289 369 440
#     4  12  23  46  70 104 145 188 248 307 372 455
#     4  11  24  44  67 100 147 186 237 304 372 445
#     4  11  24  44  69 101 143 192 238 305 369 437
#     4  11  23  45  72 103 146 186 243 310 369 448
#     4  11  25  44  72 103 143 195 246 319 366 448
#     4  11  22  44  75 101 143 192 243 302 375 448
#
# _framework density 22.529399999999999
#
# number of rings (size 3 to 8) (size 9 to 14) (size 15 to 20)
#    0.000    1.000    5.000    0.750    0.000    7.000 
#    2.250    7.500    0.000    0.000    0.000    0.000 
#    0.000    0.000    0.000    0.000    0.000    0.000 
#
# Total GULP energy -396469.312067 kJ/mol
# GULP energy per Si atom -12389.666002 kJ/mol
# Density = 2.247812 g / cm^3
# Si number density = 22.529400 Si / 1000 Ang^3
#
#
#
# Elastic Constant Matrix: (Units=GPa)
#
#
# Indices 1 2 3 4 5 6 
#
# 1 108.4080 40.7994 55.1865 0.0000 0.0000 0.0000
# 2 40.7994 82.3096 49.6741 0.0000 0.0000 0.0000
# 3 55.1865 49.6741 121.5340 0.0000 0.0000 0.0000
# 4 0.0000 0.0000 0.0000 39.5640 0.0000 0.0000
# 5 0.0000 0.0000 0.0000 0.0000 40.5045 0.0000
# 6 0.0000 0.0000 0.0000 0.0000 0.0000 39.4954
#
#
#
# Elastic Compliance Matrix: (Units=1/GPa)
#
#
# Indices 1 2 3 4 5 6 
#
# 1 0.012824 -0.003773 -0.004281 0.000000 0.000000 0.000000
# 2 -0.003773 0.017237 -0.005332 0.000000 0.000000 0.000000
# 3 -0.004281 -0.005332 0.012351 0.000000 0.000000 0.000000
# 4 0.000000 0.000000 0.000000 0.025276 0.000000 0.000000
# 5 0.000000 0.000000 0.000000 0.000000 0.024689 0.000000
# 6 0.000000 0.000000 0.000000 0.000000 0.000000 0.025319
#
#
# Mechanical properties :
#
#
# Convention : Reuss Voigt Hill
#
# Bulk Modulus (GPa) = 63.93655 67.06350 65.50002
# Shear Modulus (GPa) = 33.40431 35.01889 34.21160
#
# Velocity S-wave (km/s) = 3.85476 3.94682 3.90106
# Velocity P-wave (km/s) = 6.94644 7.11348 7.03045
#
# Compressibility (1/GPa) = 0.01564051
#
# Stress axis : x y z
#
# Youngs Moduli (GPa) = 77.98136 58.01344 80.96231
#
# Poissons Ratio (x) = 0.21888 0.34659
# Poissons Ratio (y) = 0.29421 0.43170
# Poissons Ratio (z) = 0.33383 0.30934
#
# Static dielectric constant tensor:
#      x y z
#    x 3.878810 0.000000 0.000000 
#    y 0.000000 4.093990 0.000000 
#    z 0.000000 0.000000 4.344810 
# 
# 
# High freq. dielectric constant tensor:
#      x y z
#    x 1.872620 0.000000 0.000000 
#    y 0.000000 1.881810 0.000000 
#    z 0.000000 0.000000 1.899840 
# 
# From -- ./inp_files/3473.got.cif
#   From: 2010.03.12/outbox.cif.g09.slc.cpg/sg29_2_cif.got.tgz:3473.got - 2010.04.14 03:43:10.
