data_PCOD8168429
_publ_section_title
;
Structure prediction by ZEFSAII (Michael W. Deem and Ramdas Pophale) SiO2 
 PCOD8168429
Probable space group: P M A 2
;
_chemical_formula_sum "Si O2"
_cell_formula_units_Z 28
_cell_length_a 8.739317
_cell_length_b 9.758245
_cell_length_c 17.321897
_cell_angle_alpha 90.000000
_cell_angle_beta 90.000000
_cell_angle_gamma 90.000000
_cell_volume 1477.218243
_symmetry_space_group_name_H-M "P M A 2"
_symmetry_group_IT_number 28
_symmetry_cell_setting 'orthorhombic'
loop_
_space_group_symop_operation_xyz
x,y,z
-x,-y,z
1/2-x,y,z
1/2+x,-y,z
loop_
_atom_site_type_symbol
_atom_site_label
_atom_site_fract_x
_atom_site_fract_y
_atom_site_fract_z
Si Si1 0.569417 0.643904 0.546670
Si Si2 0.074633 0.853692 0.257112
Si Si3 0.071099 0.359887 0.369809
Si Si4 0.569864 0.150379 0.664737
Si Si5 0.430245 0.645004 0.801333
Si Si6 0.930994 0.645241 0.964181
Si Si7 0.426785 0.852034 0.081900
O O1 0.500000 0.500000 0.577007
O O2 0.750000 0.638149 0.559104
O O3 0.521909 0.667900 0.457960
O O4 0.500613 0.772716 0.591472
O O5 0.250000 0.862581 0.282427
O O6 0.058428 0.798809 0.169720
O O7 0.986028 0.759540 0.315948
O O8 0.000000 0.000000 0.264308
O O9 0.250000 0.373075 0.362325
O O10 0.000000 0.500000 0.338838
O O11 0.750000 0.137333 0.652813
O O12 0.528016 0.237524 0.740488
O O13 0.500000 0.000000 0.673283
O O14 0.500000 0.500000 0.773737
O O15 0.250000 0.625622 0.811256
O O16 0.502261 0.692929 0.882068
O O17 0.750000 0.633348 0.957882
O O18 0.000000 0.500000 0.988680
O O19 0.976330 0.752123 0.029037
O O20 0.250000 0.856535 0.055824
O O21 0.500000 0.000000 0.072530
#
# Coordination Sequence:
#
# PCOD8168429 Si02
#       7
#     4   4   4   4   4   4   4
#     4  10  21  38  60  84 112 147 186 228 276 331
#     4  10  21  37  58  82 111 148 187 229 277 331
#     4  10  21  37  58  84 113 146 185 230 278 328
#     4  11  24  39  58  84 114 148 186 230 277 326
#     4  10  21  38  59  83 111 145 185 228 277 332
#     4  11  22  37  59  85 113 147 186 230 277 326
#     4  10  21  38  58  82 112 147 187 229 277 332
#
# _framework density 18.954547000000002
#
# number of rings (size 3 to 8) (size 9 to 14) (size 15 to 20)
#    0.000    1.714    0.000    5.143    0.000    8.571 
#    0.000    1.429    0.000    0.000    0.000    0.000 
#    0.000    0.000    0.000    0.000    0.000    0.000 
#
# Total GULP energy -347307.382580 kJ/mol
# GULP energy per Si atom -12403.835092 kJ/mol
# Density = 1.891141 g / cm^3
# Si number density = 18.954547 Si / 1000 Ang^3
#
#
#
# Elastic Constant Matrix: (Units=GPa)
#
#
# Indices 1 2 3 4 5 6 
#
# 1 98.9215 45.9185 47.8331 0.0000 0.0000 0.0000
# 2 45.9185 113.0590 67.5680 0.0000 0.0000 0.0000
# 3 47.8331 67.5680 94.9424 0.0000 0.0000 0.0000
# 4 0.0000 0.0000 0.0000 136.8320 0.0000 0.0000
# 5 0.0000 0.0000 0.0000 0.0000 53.9121 0.0000
# 6 0.0000 0.0000 0.0000 0.0000 0.0000 39.9299
#
#
#
# Elastic Compliance Matrix: (Units=1/GPa)
#
#
# Indices 1 2 3 4 5 6 
#
# 1 0.013764 -0.002516 -0.005144 0.000000 0.000000 0.000000
# 2 -0.002516 0.015851 -0.010013 0.000000 0.000000 0.000000
# 3 -0.005144 -0.010013 0.020250 0.000000 0.000000 0.000000
# 4 0.000000 0.000000 0.000000 0.007308 0.000000 0.000000
# 5 0.000000 0.000000 0.000000 0.000000 0.018549 0.000000
# 6 0.000000 0.000000 0.000000 0.000000 0.000000 0.025044
#
#
# Mechanical properties :
#
#
# Convention : Reuss Voigt Hill
#
# Bulk Modulus (GPa) = 68.87377 69.95136 69.41257
# Shear Modulus (GPa) = 35.47287 55.84170 45.65728
#
# Velocity S-wave (km/s) = 4.33074 5.43367 4.91325
# Velocity P-wave (km/s) = 7.83724 8.73792 8.29981
#
# Compressibility (1/GPa) = 0.01451932
#
# Stress axis : x y z
#
# Youngs Moduli (GPa) = 72.65155 63.08735 49.38176
#
# Poissons Ratio (x) = 0.15873 0.25402
# Poissons Ratio (y) = 0.18280 0.49447
# Poissons Ratio (z) = 0.37372 0.63170
#
# Static dielectric constant tensor:
#      x y z
#    x 3.650430 0.000000 0.000000 
#    y 0.000000 3.340550 0.000000 
#    z 0.000000 0.000000 3.612600 
# 
# 
# High freq. dielectric constant tensor:
#      x y z
#    x 1.758350 0.000000 0.000000 
#    y 0.000000 1.737840 0.000000 
#    z 0.000000 0.000000 1.743220 
# 
# From -- ./inp_files/6862.got.cif
#   From: 2010.03.12/outbox.cif.g09.slc.cpg/sg28_4_cif.got.tgz:6862.got - 2010.04.14 03:39:34.
