data_PCOD8168657
_publ_section_title
;
Structure prediction by ZEFSAII (Michael W. Deem and Ramdas Pophale) SiO2 
 PCOD8168657
Probable space group: P C A 21
;
_chemical_formula_sum "Si O2"
_cell_formula_units_Z 32
_cell_length_a 20.093292
_cell_length_b 8.882875
_cell_length_c 10.091287
_cell_angle_alpha 90.000000
_cell_angle_beta 90.000000
_cell_angle_gamma 90.000000
_cell_volume 1801.155482
_symmetry_space_group_name_H-M "P C A 21"
_symmetry_group_IT_number 29
_symmetry_cell_setting 'orthorhombic'
loop_
_space_group_symop_operation_xyz
x,y,z
-x,-y,1/2+z
1/2-x,y,1/2+z
1/2+x,-y,z
loop_
_atom_site_type_symbol
_atom_site_label
_atom_site_fract_x
_atom_site_fract_y
_atom_site_fract_z
Si Si1 0.552087 0.572191 0.861540
Si Si2 0.300722 0.925885 0.081154
Si Si3 0.550829 0.428071 0.586502
Si Si4 0.550829 0.071929 0.586501
Si Si5 0.307700 0.927608 0.380366
Si Si6 0.692300 0.427608 0.880366
Si Si7 0.699278 0.425885 0.581154
Si Si8 0.447913 0.072191 0.361540
O O1 0.527448 0.504911 0.722517
O O2 0.622632 0.507783 0.908130
O O3 0.557136 0.750000 0.848851
O O4 0.498204 0.522523 0.970322
O O5 0.374895 0.986651 0.050065
O O6 0.281579 0.963812 0.232530
O O7 0.246247 0.997552 0.982296
O O8 0.299780 0.750000 0.053768
O O9 0.551470 0.250000 0.610671
O O10 0.625104 0.486651 0.550066
O O11 0.501796 0.022523 0.470322
O O12 0.527448 0.995088 0.722516
O O13 0.319004 0.750000 0.399154
O O14 0.377368 0.007784 0.408130
O O15 0.718421 0.463812 0.732530
O O16 0.746247 0.497552 0.982297
#
# Coordination Sequence:
#
# PCOD8168657 Si02
#       8
#     4   4   4   4   4   4   4   4
#     4  10  20  33  51  75 101 129 162 202 249 295
#     4   8  15  29  49  69  89 121 163 200 233 276
#     4   9  19  35  52  72  99 130 167 205 239 287
#     4   9  19  35  52  72  99 130 167 205 239 287
#     4   9  17  31  50  70  95 126 162 203 241 282
#     4   9  17  31  50  70  95 126 162 203 241 282
#     4   8  15  29  49  69  89 121 163 200 233 276
#     4  10  20  33  51  75 101 129 162 202 249 295
#
# _framework density 17.766373000000002
#
# number of rings (size 3 to 8) (size 9 to 14) (size 15 to 20)
#    0.000    3.000    0.000    2.250    0.000    4.000 
#    0.000   10.000    0.000    0.000    0.000    0.000 
#    0.000    0.000    0.000    0.000    0.000    0.000 
#
# Total GULP energy -396721.287120 kJ/mol
# GULP energy per Si atom -12397.540222 kJ/mol
# Density = 1.772594 g / cm^3
# Si number density = 17.766373 Si / 1000 Ang^3
#
#
#
# Elastic Constant Matrix: (Units=GPa)
#
#
# Indices 1 2 3 4 5 6 
#
# 1 117.2477 37.1332 103.1777 0.0000 0.0000 0.0000
# 2 37.1332 35.6642 42.0314 0.0000 0.0000 0.0000
# 3 103.1777 42.0314 144.8544 0.0000 0.0000 0.0000
# 4 0.0000 0.0000 0.0000 23.3973 0.0000 0.0000
# 5 0.0000 0.0000 0.0000 0.0000 44.5965 0.0000
# 6 0.0000 0.0000 0.0000 0.0000 0.0000 24.1279
#
#
#
# Elastic Compliance Matrix: (Units=1/GPa)
#
#
# Indices 1 2 3 4 5 6 
#
# 1 0.024067 -0.007379 -0.015002 0.000000 0.000000 0.000000
# 2 -0.007379 0.044873 -0.007765 0.000000 0.000000 0.000000
# 3 -0.015002 -0.007765 0.019842 0.000000 0.000000 0.000000
# 4 0.000000 0.000000 0.000000 0.042740 0.000000 0.000000
# 5 0.000000 0.000000 0.000000 0.000000 0.022423 0.000000
# 6 0.000000 0.000000 0.000000 0.000000 0.000000 0.041446
#
#
# Mechanical properties :
#
#
# Convention : Reuss Voigt Hill
#
# Bulk Modulus (GPa) = 35.09767 73.60568 54.35167
# Shear Modulus (GPa) = 18.85516 26.11926 22.48721
#
# Velocity S-wave (km/s) = 3.26127 3.83842 3.56155
# Velocity P-wave (km/s) = 5.82917 7.82076 6.89723
#
# Compressibility (1/GPa) = 0.02849192
#
# Stress axis : x y z
#
# Youngs Moduli (GPa) = 41.54995 22.28521 50.39767
#
# Poissons Ratio (x) = 0.16443 0.75606
# Poissons Ratio (y) = 0.30658 0.39133
# Poissons Ratio (z) = 0.62333 0.17304
#
# Static dielectric constant tensor:
#      x y z
#    x 3.529600 0.000000 0.000000 
#    y 0.000000 3.014390 0.000000 
#    z 0.000000 0.000000 3.450030 
# 
# 
# High freq. dielectric constant tensor:
#      x y z
#    x 1.691900 0.000000 0.000000 
#    y 0.000000 1.659570 0.000000 
#    z 0.000000 0.000000 1.692590 
# 
# From -- ./inp_files/2323.got.cif
#   From: 2010.03.12/outbox.cif.g09.slc.cpg/sg29_2_cif.got.tgz:2323.got - 2010.04.14 03:43:10.
