data_PCOD8168366
_publ_section_title
;
Structure prediction by ZEFSAII (Michael W. Deem and Ramdas Pophale) SiO2 
 PCOD8168366
Probable space group: P M A 2
;
_chemical_formula_sum "Si O2"
_cell_formula_units_Z 24
_cell_length_a 8.809009
_cell_length_b 15.318901
_cell_length_c 9.317004
_cell_angle_alpha 90.000000
_cell_angle_beta 90.000000
_cell_angle_gamma 90.000000
_cell_volume 1257.276926
_symmetry_space_group_name_H-M "P M A 2"
_symmetry_group_IT_number 28
_symmetry_cell_setting 'orthorhombic'
loop_
_space_group_symop_operation_xyz
x,y,z
-x,-y,z
1/2-x,y,z
1/2+x,-y,z
loop_
_atom_site_type_symbol
_atom_site_label
_atom_site_fract_x
_atom_site_fract_y
_atom_site_fract_z
Si Si1 0.927163 0.250634 0.452990
Si Si2 0.928816 0.908948 0.947913
Si Si3 0.071217 0.589412 0.257049
Si Si4 0.427181 0.254932 0.758378
Si Si5 0.072349 0.909885 0.249543
Si Si6 0.071028 0.589927 0.931647
O O1 0.750000 0.259150 0.492536
O O2 0.983037 0.331450 0.356474
O O3 0.961033 0.162288 0.368048
O O4 0.028630 0.248780 0.593345
O O5 0.750000 0.920677 0.964695
O O6 0.972492 0.836014 0.832329
O O7 0.000000 0.000000 0.894669
O O8 0.997426 0.880247 0.100388
O O9 0.250000 0.579363 0.261089
O O10 0.000000 0.500000 0.316857
O O11 0.015514 0.607919 0.094562
O O12 0.250000 0.274397 0.774447
O O13 0.518719 0.332297 0.831271
O O14 0.250000 0.922942 0.222622
O O15 0.000000 0.000000 0.305243
O O16 0.250000 0.581659 0.922565
O O17 0.000000 0.500000 0.873824
#
# Coordination Sequence:
#
# PCOD8168366 Si02
#       6
#     4   4   4   4   4   4
#     4  10  22  38  55  78 111 149 183 219 271 331
#     4  10  21  37  58  83 110 142 184 231 277 328
#     4   9  19  36  58  83 107 137 179 223 268 319
#     4  11  24  38  54  81 114 148 186 227 274 327
#     4  10  20  36  59  84 109 141 183 228 276 329
#     4  10  20  37  61  85 111 143 182 228 275 326
#
# _framework density 19.088874000000001
#
# number of rings (size 3 to 8) (size 9 to 14) (size 15 to 20)
#    0.000    2.000    0.000    4.000    0.000    8.000 
#    0.000    5.000    0.000    0.000    0.000    0.000 
#    0.000    0.000    0.000    0.000    0.000    0.000 
#
# Total GULP energy -297696.838349 kJ/mol
# GULP energy per Si atom -12404.034931 kJ/mol
# Density = 1.904543 g / cm^3
# Si number density = 19.088874 Si / 1000 Ang^3
#
#
#
# Elastic Constant Matrix: (Units=GPa)
#
#
# Indices 1 2 3 4 5 6 
#
# 1 77.3295 54.6560 40.8949 0.0000 0.0000 0.0000
# 2 54.6560 141.0529 75.4553 0.0000 0.0000 0.0000
# 3 40.8949 75.4553 103.5638 0.0000 0.0000 0.0000
# 4 0.0000 0.0000 0.0000 -7.1537 0.0000 0.0000
# 5 0.0000 0.0000 0.0000 0.0000 29.7683 0.0000
# 6 0.0000 0.0000 0.0000 0.0000 0.0000 31.7757
#
#
#
# Elastic Compliance Matrix: (Units=1/GPa)
#
#
# Indices 1 2 3 4 5 6 
#
# 1 0.018518 -0.005348 -0.003416 0.000000 0.000000 0.000000
# 2 -0.005348 0.013162 -0.007478 0.000000 0.000000 0.000000
# 3 -0.003416 -0.007478 0.016453 0.000000 0.000000 0.000000
# 4 0.000000 0.000000 0.000000 -0.139788 0.000000 0.000000
# 5 0.000000 0.000000 0.000000 0.000000 0.033593 0.000000
# 6 0.000000 0.000000 0.000000 0.000000 0.000000 0.031471
#
#
# Mechanical properties :
#
#
# Convention : Reuss Voigt Hill
#
# Bulk Modulus (GPa) = 63.89959 73.77318 68.83639
# Shear Modulus (GPa) = 450.07420 20.94074 235.50747
#
# Velocity S-wave (km/s) = 15.37173 3.31571 11.11944
# Velocity P-wave (km/s) = 18.67086 7.30683 14.17728
#
# Compressibility (1/GPa) = 0.01564955
#
# Stress axis : x y z
#
# Youngs Moduli (GPa) = 54.00101 75.97518 60.77945
#
# Poissons Ratio (x) = 0.40634 0.20760
# Poissons Ratio (y) = 0.28882 0.45450
# Poissons Ratio (z) = 0.18445 0.56813
#
# Static dielectric constant tensor:
#      x y z
#    x 3.520250 0.000000 0.000000 
#    y 0.000000 3.700240 0.000000 
#    z 0.000000 0.000000 3.453260 
# 
# 
# High freq. dielectric constant tensor:
#      x y z
#    x 1.749060 0.000000 0.000000 
#    y 0.000000 1.757000 0.000000 
#    z 0.000000 0.000000 1.736930 
# 
# From -- ./inp_files/2459.got.cif
#   From: 2010.03.12/outbox.cif.g09.slc.cpg/sg28_2_cif.got.tgz:2459.got - 2010.04.14 03:39:34.
