data_PCOD8168649
_publ_section_title
;
Structure prediction by ZEFSAII (Michael W. Deem and Ramdas Pophale) SiO2 
 PCOD8168649
Probable space group: P C A 21
;
_chemical_formula_sum "Si O2"
_cell_formula_units_Z 20
_cell_length_a 14.081982
_cell_length_b 7.422983
_cell_length_c 8.620373
_cell_angle_alpha 90.000000
_cell_angle_beta 90.000000
_cell_angle_gamma 90.000000
_cell_volume 901.090288
_symmetry_space_group_name_H-M "P C A 21"
_symmetry_group_IT_number 29
_symmetry_cell_setting 'orthorhombic'
loop_
_space_group_symop_operation_xyz
x,y,z
-x,-y,1/2+z
1/2-x,y,1/2+z
1/2+x,-y,z
loop_
_atom_site_type_symbol
_atom_site_label
_atom_site_fract_x
_atom_site_fract_y
_atom_site_fract_z
Si Si1 0.388872 0.385711 0.696780
Si Si2 0.922878 0.207879 0.742006
Si Si3 0.972421 0.090279 0.085467
Si Si4 0.258544 0.487781 0.429443
Si Si5 0.791736 0.247882 0.181409
O O1 0.439227 0.580228 0.713671
O O2 0.465875 0.231213 0.686411
O O3 0.326218 0.373000 0.539835
O O4 0.318758 0.358396 0.844738
O O5 0.811068 0.162658 0.720850
O O6 0.965503 0.141914 0.905445
O O7 0.980696 0.105384 0.606044
O O8 0.869097 0.089626 0.168688
O O9 0.204009 0.648823 0.517337
O O10 0.320876 0.595903 0.302895
#
# Coordination Sequence:
#
# PCOD8168649 Si02
#       5
#     4   4   4   4   4
#     4  10  22  44  67  99 129 178 217 271 329 394
#     4  10  26  44  62 106 127 180 218 273 339 381
#     4  12  25  43  70  97 133 174 231 266 323 410
#     4   8  18  39  65  94 131 167 212 264 335 376
#     4  10  19  42  66  88 138 171 206 278 334 377
#
# _framework density 22.195333000000002
#
# number of rings (size 3 to 8) (size 9 to 14) (size 15 to 20)
#    0.000    2.400    4.000    0.000    8.400    0.000 
#    7.200    0.000    0.000    0.000    0.000    0.000 
#    0.000    0.000    0.000    0.000    0.000    0.000 
#
# Total GULP energy -247868.484695 kJ/mol
# GULP energy per Si atom -12393.424235 kJ/mol
# Density = 2.214482 g / cm^3
# Si number density = 22.195333 Si / 1000 Ang^3
#
#
#
# Elastic Constant Matrix: (Units=GPa)
#
#
# Indices 1 2 3 4 5 6 
#
# 1 77.8990 11.5747 25.3734 0.0000 0.0000 0.0000
# 2 11.5747 47.0055 7.1135 0.0000 0.0000 0.0000
# 3 25.3734 7.1135 108.8806 0.0000 0.0000 0.0000
# 4 0.0000 0.0000 0.0000 21.8073 0.0000 0.0000
# 5 0.0000 0.0000 0.0000 0.0000 33.7808 0.0000
# 6 0.0000 0.0000 0.0000 0.0000 0.0000 30.8634
#
#
#
# Elastic Compliance Matrix: (Units=1/GPa)
#
#
# Indices 1 2 3 4 5 6 
#
# 1 0.014312 -0.003050 -0.003136 0.000000 0.000000 0.000000
# 2 -0.003050 0.022136 -0.000736 0.000000 0.000000 0.000000
# 3 -0.003136 -0.000736 0.009963 0.000000 0.000000 0.000000
# 4 0.000000 0.000000 0.000000 0.045856 0.000000 0.000000
# 5 0.000000 0.000000 0.000000 0.000000 0.029603 0.000000
# 6 0.000000 0.000000 0.000000 0.000000 0.000000 0.032401
#
#
# Mechanical properties :
#
#
# Convention : Reuss Voigt Hill
#
# Bulk Modulus (GPa) = 30.70393 35.76760 33.23576
# Shear Modulus (GPa) = 27.93772 29.93853 28.93812
#
# Velocity S-wave (km/s) = 3.55169 3.67668 3.61472
# Velocity P-wave (km/s) = 5.53922 5.84584 5.69459
#
# Compressibility (1/GPa) = 0.03256912
#
# Stress axis : x y z
#
# Youngs Moduli (GPa) = 69.87289 45.17457 100.36909
#
# Poissons Ratio (x) = 0.13776 0.31475
# Poissons Ratio (y) = 0.21308 0.07383
# Poissons Ratio (z) = 0.21912 0.03323
#
# Static dielectric constant tensor:
#      x y z
#    x 3.945350 0.000000 0.000000 
#    y 0.000000 3.575210 0.000000 
#    z 0.000000 0.000000 4.296390 
# 
# 
# High freq. dielectric constant tensor:
#      x y z
#    x 1.869450 0.000000 0.000000 
#    y 0.000000 1.837730 0.000000 
#    z 0.000000 0.000000 1.893230 
# 
# From -- ./inp_files/1640.got.cif
#   From: 2010.03.12/outbox.cif.g09.slc.cpg/sg29_1_cif.got.tgz:1640.got - 2010.04.14 03:43:10.
