data_PCOD8168231
_publ_section_title
;
Structure prediction by ZEFSAII (Michael W. Deem and Ramdas Pophale) SiO2 
 PCOD8168231
Probable space group: P M A 2
;
_chemical_formula_sum "Si O2"
_cell_formula_units_Z 32
_cell_length_a 17.106224
_cell_length_b 5.059756
_cell_length_c 18.097066
_cell_angle_alpha 90.000000
_cell_angle_beta 90.000000
_cell_angle_gamma 90.000000
_cell_volume 1566.361136
_symmetry_space_group_name_H-M "P M A 2"
_symmetry_group_IT_number 28
_symmetry_cell_setting 'orthorhombic'
loop_
_space_group_symop_operation_xyz
x,y,z
-x,-y,z
1/2-x,y,z
1/2+x,-y,z
loop_
_atom_site_type_symbol
_atom_site_label
_atom_site_fract_x
_atom_site_fract_y
_atom_site_fract_z
Si Si1 0.662472 0.368315 0.316860
Si Si2 0.946960 0.738781 0.707517
Si Si3 0.592318 0.501417 0.164667
Si Si4 0.837584 0.880900 0.411137
Si Si5 0.448770 0.251452 0.542892
Si Si6 0.908568 0.054604 0.911699
Si Si7 0.091883 0.989363 0.081698
Si Si8 0.341244 0.424856 0.836080
O O1 0.750000 0.304581 0.288470
O O2 0.612045 0.492575 0.251102
O O3 0.663178 0.592177 0.377890
O O4 0.625893 0.102433 0.355029
O O5 0.914164 0.687376 0.624305
O O6 0.872508 0.714371 0.760992
O O7 0.000000 0.500000 0.733016
O O8 0.000000 0.000000 0.718369
O O9 0.500000 0.500000 0.155905
O O10 0.628289 0.743949 0.117064
O O11 0.630286 0.241064 0.129961
O O12 0.750000 0.977883 0.430455
O O13 0.883457 0.847108 0.486890
O O14 0.500000 0.500000 0.512849
O O15 0.500000 0.000000 0.557652
O O16 0.883723 0.305972 0.862503
O O17 0.856553 0.797356 0.896816
O O18 0.000000 0.000000 0.895893
O O19 0.890227 0.090598 0.997867
O O20 0.000000 0.000000 0.093875
O O21 0.250000 0.486913 0.826442
#
# Coordination Sequence:
#
# PCOD8168231 Si02
#       8
#     4   4   4   4   4   4   4   4
#     4  10  21  36  53  78 110 148 187 223 273 343
#     4  10  21  39  61  84 114 154 195 232 284 354
#     4  10  19  34  55  80 107 138 182 237 283 326
#     4  10  21  37  56  78 112 151 186 225 279 344
#     4  10  21  37  59  87 114 143 189 243 283 330
#     4  11  22  40  64  85 113 159 200 235 290 360
#     4   9  19  35  56  80 106 140 188 235 279 335
#     4  12  24  38  58  90 124 151 191 248 294 340
#
# _framework density 20.429517000000001
#
# number of rings (size 3 to 8) (size 9 to 14) (size 15 to 20)
#    0.000    1.750    0.000    4.875    0.000    4.000 
#    0.000    3.750    0.000    7.500    0.000    0.000 
#    0.000    0.000    0.000    0.000    0.000    0.000 
#
# Total GULP energy -396523.557279 kJ/mol
# GULP energy per Si atom -12391.361165 kJ/mol
# Density = 2.038302 g / cm^3
# Si number density = 20.429517 Si / 1000 Ang^3
#
#
#
# Elastic Constant Matrix: (Units=GPa)
#
#
# Indices 1 2 3 4 5 6 
#
# 1 63.3111 30.8761 44.3381 0.0000 0.0000 0.0000
# 2 30.8761 132.4973 35.2170 0.0000 0.0000 0.0000
# 3 44.3381 35.2170 111.3839 0.0000 0.0000 0.0000
# 4 0.0000 0.0000 0.0000 40.5727 0.0000 0.0000
# 5 0.0000 0.0000 0.0000 0.0000 -2.8317 0.0000
# 6 0.0000 0.0000 0.0000 0.0000 0.0000 20.6408
#
#
#
# Elastic Compliance Matrix: (Units=1/GPa)
#
#
# Indices 1 2 3 4 5 6 
#
# 1 0.023084 -0.003206 -0.008175 0.000000 0.000000 0.000000
# 2 -0.003206 0.008685 -0.001470 0.000000 0.000000 0.000000
# 3 -0.008175 -0.001470 0.012697 0.000000 0.000000 0.000000
# 4 0.000000 0.000000 0.000000 0.024647 0.000000 0.000000
# 5 0.000000 0.000000 0.000000 0.000000 -0.353141 0.000000
# 6 0.000000 0.000000 0.000000 0.000000 0.000000 0.048448
#
#
# Mechanical properties :
#
#
# Convention : Reuss Voigt Hill
#
# Bulk Modulus (GPa) = 53.29483 58.67272 55.98377
# Shear Modulus (GPa) = -24.55513 24.79377 0.11932
#
# Velocity S-wave (km/s) = -3.47067 3.48749 0.24193
# Velocity P-wave (km/s) = 3.17539 6.70811 5.24794
#
# Compressibility (1/GPa) = 0.01876355
#
# Stress axis : x y z
#
# Youngs Moduli (GPa) = 43.32019 115.13904 78.75951
#
# Poissons Ratio (x) = 0.36918 0.64387
# Poissons Ratio (y) = 0.13890 0.11575
# Poissons Ratio (z) = 0.35415 0.16922
#
# Static dielectric constant tensor:
#      x y z
#    x 3.446910 0.000000 0.000000 
#    y 0.000000 4.079690 0.000000 
#    z 0.000000 0.000000 3.755350 
# 
# 
# High freq. dielectric constant tensor:
#      x y z
#    x 1.763400 0.000000 0.000000 
#    y 0.000000 1.822780 0.000000 
#    z 0.000000 0.000000 1.809300 
# 
# From -- ./inp_files/6984.got.cif
#   From: 2010.03.12/outbox.cif.g09.slc.cpg/sg28_4_cif.got.tgz:6984.got - 2010.04.14 03:39:34.
