data_PCOD8168017
_publ_section_title
;
Structure prediction by ZEFSAII (Michael W. Deem and Ramdas Pophale) SiO2 
 PCOD8168017
Probable space group: P M A 2
;
_chemical_formula_sum "Si O2"
_cell_formula_units_Z 32
_cell_length_a 8.829304
_cell_length_b 14.362961
_cell_length_c 15.447156
_cell_angle_alpha 90.000000
_cell_angle_beta 90.000000
_cell_angle_gamma 90.000000
_cell_volume 1958.930300
_symmetry_space_group_name_H-M "P M A 2"
_symmetry_group_IT_number 28
_symmetry_cell_setting 'orthorhombic'
loop_
_space_group_symop_operation_xyz
x,y,z
-x,-y,z
1/2-x,y,z
1/2+x,-y,z
loop_
_atom_site_type_symbol
_atom_site_label
_atom_site_fract_x
_atom_site_fract_y
_atom_site_fract_z
Si Si1 0.925622 0.208615 0.044900
Si Si2 0.927453 0.100086 0.527812
Si Si3 0.573993 0.207373 0.354155
Si Si4 0.572257 0.899981 0.198813
Si Si5 0.574128 0.408247 0.099734
Si Si6 0.572322 0.406577 0.296037
Si Si7 0.569424 0.897390 0.699989
Si Si8 0.571923 0.100315 0.871960
O O1 0.750000 0.193068 0.069896
O O2 0.965747 0.318173 0.042270
O O3 0.027996 0.161548 0.116942
O O4 0.964347 0.167503 0.951582
O O5 0.750000 0.085276 0.545017
O O6 0.958933 0.170460 0.449842
O O7 0.005526 0.148713 0.611862
O O8 0.000000 0.000000 0.506138
O O9 0.750000 0.197877 0.328647
O O10 0.479595 0.146449 0.287580
O O11 0.522481 0.315361 0.350109
O O12 0.750000 0.912558 0.201549
O O13 0.500000 0.000000 0.187580
O O14 0.500000 0.500000 0.057487
O O15 0.750000 0.427316 0.102106
O O16 0.513826 0.392360 0.197616
O O17 0.500000 0.500000 0.336953
O O18 0.750000 0.419843 0.299633
O O19 0.750000 0.897183 0.700298
O O20 0.504925 0.850558 0.787772
O O21 0.500000 0.000000 0.700339
O O22 0.750000 0.087563 0.856107
O O23 0.500000 0.000000 0.891964
#
# Coordination Sequence:
#
# PCOD8168017 Si02
#       8
#     4   4   4   4   4   4   4   4
#     4  10  20  35  51  69  96 129 162 200 240 282
#     4  10  19  31  49  70  95 126 161 196 236 281
#     4  10  20  35  51  69  96 129 162 200 240 282
#     4  12  24  34  47  66  95 132 167 198 232 280
#     4   9  17  31  50  69  94 123 157 199 242 284
#     4   9  17  31  50  69  94 123 157 199 242 284
#     4  10  18  30  48  68  95 124 155 196 239 278
#     4  10  19  31  49  70  95 126 161 196 236 281
#
# _framework density 16.335446000000001
#
# number of rings (size 3 to 8) (size 9 to 14) (size 15 to 20)
#    0.000    2.000    1.250    5.250    0.000    5.000 
#    0.000    0.000    0.000    0.000    0.000    0.875 
#    0.000    0.000    0.000    0.000    0.000    0.000 
#
# Total GULP energy -396750.528922 kJ/mol
# GULP energy per Si atom -12398.454029 kJ/mol
# Density = 1.629827 g / cm^3
# Si number density = 16.335446 Si / 1000 Ang^3
#
#
#
# Elastic Constant Matrix: (Units=GPa)
#
#
# Indices 1 2 3 4 5 6 
#
# 1 87.7762 30.8884 48.4970 0.0000 0.0000 0.0000
# 2 30.8884 91.8516 44.1526 0.0000 0.0000 0.0000
# 3 48.4970 44.1526 106.4848 0.0000 0.0000 0.0000
# 4 0.0000 0.0000 0.0000 -6.0216 0.0000 0.0000
# 5 0.0000 0.0000 0.0000 0.0000 22.4285 0.0000
# 6 0.0000 0.0000 0.0000 0.0000 0.0000 24.9255
#
#
#
# Elastic Compliance Matrix: (Units=1/GPa)
#
#
# Indices 1 2 3 4 5 6 
#
# 1 0.015598 -0.002286 -0.006156 0.000000 0.000000 0.000000
# 2 -0.002286 0.013932 -0.004736 0.000000 0.000000 0.000000
# 3 -0.006156 -0.004736 0.014158 0.000000 0.000000 0.000000
# 4 0.000000 0.000000 0.000000 -0.166069 0.000000 0.000000
# 5 0.000000 0.000000 0.000000 0.000000 0.044586 0.000000
# 6 0.000000 0.000000 0.000000 0.000000 0.000000 0.040120
#
#
# Mechanical properties :
#
#
# Convention : Reuss Voigt Hill
#
# Bulk Modulus (GPa) = 57.69329 59.24315 58.46822
# Shear Modulus (GPa) = -902.47738 19.10480 -441.68629
#
# Velocity S-wave (km/s) = -23.53009 3.42355 -16.46123
# Velocity P-wave (km/s) = 26.51086 7.20923 18.03958
#
# Compressibility (1/GPa) = 0.01733304
#
# Stress axis : x y z
#
# Youngs Moduli (GPa) = 64.10892 71.77536 70.63009
#
# Poissons Ratio (x) = 0.16410 0.43481
# Poissons Ratio (y) = 0.14657 0.33448
# Poissons Ratio (z) = 0.39466 0.33990
#
# Static dielectric constant tensor:
#      x y z
#    x 3.156040 0.000000 0.000000 
#    y 0.000000 3.111960 0.000000 
#    z 0.000000 0.000000 3.416400 
# 
# 
# High freq. dielectric constant tensor:
#      x y z
#    x 1.637700 0.000000 0.000000 
#    y 0.000000 1.608170 0.000000 
#    z 0.000000 0.000000 1.619970 
# 
# From -- ./inp_files/6441.got.cif
#   From: 2010.03.12/outbox.cif.g09.slc.cpg/sg28_4_cif.got.tgz:6441.got - 2010.04.14 03:39:34.
