data_PCOD8168446
_publ_section_title
;
Structure prediction by ZEFSAII (Michael W. Deem and Ramdas Pophale) SiO2 
 PCOD8168446
Probable space group: P M A 2
;
_chemical_formula_sum "Si O2"
_cell_formula_units_Z 20
_cell_length_a 8.956829
_cell_length_b 14.722543
_cell_length_c 7.425224
_cell_angle_alpha 90.000000
_cell_angle_beta 90.000000
_cell_angle_gamma 90.000000
_cell_volume 979.144241
_symmetry_space_group_name_H-M "P M A 2"
_symmetry_group_IT_number 28
_symmetry_cell_setting 'orthorhombic'
loop_
_space_group_symop_operation_xyz
x,y,z
-x,-y,z
1/2-x,y,z
1/2+x,-y,z
loop_
_atom_site_type_symbol
_atom_site_label
_atom_site_fract_x
_atom_site_fract_y
_atom_site_fract_z
Si Si1 0.086426 0.085496 0.602790
Si Si2 0.428895 0.284517 0.580654
Si Si3 0.083192 0.087502 0.176016
Si Si4 0.077062 0.594934 0.878640
Si Si5 0.422491 0.730682 0.204731
O O1 0.250000 0.079813 0.687522
O O2 0.016669 0.184376 0.649413
O O3 0.092238 0.076901 0.389132
O O4 0.000000 0.000000 0.688363
O O5 0.250000 0.288836 0.573137
O O6 0.493923 0.360060 0.710711
O O7 0.490533 0.302912 0.381206
O O8 0.250000 0.094428 0.094772
O O9 0.991916 0.177275 0.123116
O O10 0.000000 0.000000 0.092083
O O11 0.250000 0.581569 0.828160
O O12 0.000000 0.500000 0.919930
O O13 0.057597 0.653683 0.056860
O O14 0.250000 0.748297 0.253367
#
# Coordination Sequence:
#
# PCOD8168446 Si02
#       5
#     4   4   4   4   4
#     4   8  15  27  47  78 112 148 186 225 272 325
#     4  10  21  38  61  88 119 155 194 238 289 343
#     4   9  16  28  50  81 116 154 194 235 282 337
#     4  11  25  43  63  86 113 148 191 243 298 350
#     4  10  21  38  60  87 119 155 196 239 287 345
#
# _framework density 20.425999999999998
#
# number of rings (size 3 to 8) (size 9 to 14) (size 15 to 20)
#    0.000    2.400    0.000    3.600    0.000    9.600 
#    0.000    3.000    0.000    2.400    0.000    0.000 
#    0.000    0.000    0.000    0.000    0.000    0.000 
#
# Total GULP energy -247961.088310 kJ/mol
# GULP energy per Si atom -12398.054416 kJ/mol
# Density = 2.037951 g / cm^3
# Si number density = 20.426000 Si / 1000 Ang^3
#
#
#
# Elastic Constant Matrix: (Units=GPa)
#
#
# Indices 1 2 3 4 5 6 
#
# 1 152.3612 81.4402 45.8480 0.0000 0.0000 0.0000
# 2 81.4402 152.9013 42.5078 0.0000 0.0000 0.0000
# 3 45.8480 42.5078 66.8305 0.0000 0.0000 0.0000
# 4 0.0000 0.0000 0.0000 40.6444 0.0000 0.0000
# 5 0.0000 0.0000 0.0000 0.0000 -3.0533 0.0000
# 6 0.0000 0.0000 0.0000 0.0000 0.0000 41.3395
#
#
#
# Elastic Compliance Matrix: (Units=1/GPa)
#
#
# Indices 1 2 3 4 5 6 
#
# 1 0.010081 -0.004187 -0.004253 0.000000 0.000000 0.000000
# 2 -0.004187 0.009684 -0.003287 0.000000 0.000000 0.000000
# 3 -0.004253 -0.003287 0.019972 0.000000 0.000000 0.000000
# 4 0.000000 0.000000 0.000000 0.024604 0.000000 0.000000
# 5 0.000000 0.000000 0.000000 0.000000 -0.327518 0.000000
# 6 0.000000 0.000000 0.000000 0.000000 0.000000 0.024190
#
#
# Mechanical properties :
#
#
# Convention : Reuss Voigt Hill
#
# Bulk Modulus (GPa) = 61.41450 79.07609 70.24530
# Shear Modulus (GPa) = -23.79757 29.27258 2.73751
#
# Velocity S-wave (km/s) = -3.41700 3.78974 1.15893
# Velocity P-wave (km/s) = 3.81631 7.61229 6.02126
#
# Compressibility (1/GPa) = 0.01628280
#
# Stress axis : x y z
#
# Youngs Moduli (GPa) = 99.19368 103.25976 50.07132
#
# Poissons Ratio (x) = 0.43238 0.21294
# Poissons Ratio (y) = 0.41536 0.16459
# Poissons Ratio (z) = 0.42184 0.33942
#
# Static dielectric constant tensor:
#      x y z
#    x 3.993160 0.000000 0.000000 
#    y 0.000000 3.859610 0.000000 
#    z 0.000000 0.000000 3.344170 
# 
# 
# High freq. dielectric constant tensor:
#      x y z
#    x 1.808970 0.000000 0.000000 
#    y 0.000000 1.803870 0.000000 
#    z 0.000000 0.000000 1.780720 
# 
# From -- ./inp_files/2337.got.cif
#   From: 2010.03.12/outbox.cif.g09.slc.cpg/sg28_2_cif.got.tgz:2337.got - 2010.04.14 03:39:34.
