data_PCOD8168228
_publ_section_title
;
Structure prediction by ZEFSAII (Michael W. Deem and Ramdas Pophale) SiO2 
 PCOD8168228
Probable space group: P M A 2
;
_chemical_formula_sum "Si O2"
_cell_formula_units_Z 32
_cell_length_a 8.883074
_cell_length_b 14.476892
_cell_length_c 12.372751
_cell_angle_alpha 90.000000
_cell_angle_beta 90.000000
_cell_angle_gamma 90.000000
_cell_volume 1591.127154
_symmetry_space_group_name_H-M "P M A 2"
_symmetry_group_IT_number 28
_symmetry_cell_setting 'orthorhombic'
loop_
_space_group_symop_operation_xyz
x,y,z
-x,-y,z
1/2-x,y,z
1/2+x,-y,z
loop_
_atom_site_type_symbol
_atom_site_label
_atom_site_fract_x
_atom_site_fract_y
_atom_site_fract_z
Si Si1 0.076924 0.649030 0.305700
Si Si2 0.581038 0.409685 0.542608
Si Si3 0.422456 0.914265 0.184257
Si Si4 0.572435 0.834392 0.379101
Si Si5 0.572604 0.100659 0.809716
Si Si6 0.070515 0.407578 0.086173
Si Si7 0.428159 0.792899 0.593640
Si Si8 0.076447 0.769735 0.003427
O O1 0.250000 0.676589 0.277733
O O2 0.072971 0.585635 0.412299
O O3 0.978620 0.737777 0.330250
O O4 0.002381 0.597646 0.205108
O O5 0.500000 0.500000 0.590789
O O6 0.750000 0.416370 0.584712
O O7 0.511923 0.313526 0.589429
O O8 0.250000 0.937588 0.203813
O O9 0.507748 0.911030 0.298748
O O10 0.442218 0.820137 0.118047
O O11 0.500000 0.000000 0.120284
O O12 0.750000 0.840506 0.385202
O O13 0.504793 0.850969 0.497962
O O14 0.750000 0.086019 0.815971
O O15 0.524417 0.157640 0.703862
O O16 0.500000 0.000000 0.810848
O O17 0.515722 0.162019 0.910370
O O18 0.250000 0.413635 0.094546
O O19 0.000000 0.500000 0.032886
O O20 0.023782 0.322275 0.009292
O O21 0.250000 0.792996 0.573645
O O22 0.250000 0.743005 0.981083
#
# Coordination Sequence:
#
# PCOD8168228 Si02
#       8
#     4   4   4   4   4   4   4   4
#     4  10  19  34  54  80 118 160 200 244 296 352
#     4   9  18  31  51  79 113 154 194 235 286 344
#     4  11  22  36  57  84 119 156 194 242 302 365
#     4  11  21  34  55  85 120 158 200 243 298 358
#     4  10  22  42  68  92 115 151 199 252 308 364
#     4  12  24  37  58  87 121 162 205 248 296 355
#     4   9  20  39  59  82 118 159 197 244 303 358
#     4  10  22  41  63  87 119 156 196 249 306 359
#
# _framework density 20.111528
#
# number of rings (size 3 to 8) (size 9 to 14) (size 15 to 20)
#    0.000    1.750    1.250    4.500    0.000    5.500 
#    0.000    1.875    0.000    1.500    0.000    0.000 
#    0.000    0.000    0.000    0.000    0.000    0.000 
#
# Total GULP energy -396766.812688 kJ/mol
# GULP energy per Si atom -12398.962897 kJ/mol
# Density = 2.006575 g / cm^3
# Si number density = 20.111528 Si / 1000 Ang^3
#
#
#
# Elastic Constant Matrix: (Units=GPa)
#
#
# Indices 1 2 3 4 5 6 
#
# 1 96.4685 48.9498 45.9840 0.0000 0.0000 0.0000
# 2 48.9498 127.6776 52.8084 0.0000 0.0000 0.0000
# 3 45.9840 52.8084 107.4567 0.0000 0.0000 0.0000
# 4 0.0000 0.0000 0.0000 27.4640 0.0000 0.0000
# 5 0.0000 0.0000 0.0000 0.0000 20.6964 0.0000
# 6 0.0000 0.0000 0.0000 0.0000 0.0000 37.6733
#
#
#
# Elastic Compliance Matrix: (Units=1/GPa)
#
#
# Indices 1 2 3 4 5 6 
#
# 1 0.014293 -0.003703 -0.004297 0.000000 0.000000 0.000000
# 2 -0.003703 0.010789 -0.003718 0.000000 0.000000 0.000000
# 3 -0.004297 -0.003718 0.012972 0.000000 0.000000 0.000000
# 4 0.000000 0.000000 0.000000 0.036411 0.000000 0.000000
# 5 0.000000 0.000000 0.000000 0.000000 0.048318 0.000000
# 6 0.000000 0.000000 0.000000 0.000000 0.000000 0.026544
#
#
# Mechanical properties :
#
#
# Convention : Reuss Voigt Hill
#
# Bulk Modulus (GPa) = 68.40029 69.67633 69.03831
# Shear Modulus (GPa) = 28.14755 29.42410 28.78582
#
# Velocity S-wave (km/s) = 3.74514 3.82913 3.78737
# Velocity P-wave (km/s) = 7.26538 7.36681 7.31627
#
# Compressibility (1/GPa) = 0.01461982
#
# Stress axis : x y z
#
# Youngs Moduli (GPa) = 69.96431 92.68271 77.08935
#
# Poissons Ratio (x) = 0.34316 0.33124
# Poissons Ratio (y) = 0.25905 0.28661
# Poissons Ratio (z) = 0.30063 0.34459
#
# Static dielectric constant tensor:
#      x y z
#    x 3.565160 0.000000 0.000000 
#    y 0.000000 3.718690 0.000000 
#    z 0.000000 0.000000 3.622710 
# 
# 
# High freq. dielectric constant tensor:
#      x y z
#    x 1.780630 0.000000 0.000000 
#    y 0.000000 1.795750 0.000000 
#    z 0.000000 0.000000 1.764760 
# 
# From -- ./inp_files/5082.got.cif
#   From: 2010.03.12/outbox.cif.g09.slc.cpg/sg28_3_cif.got.tgz:5082.got - 2010.04.14 03:39:34.
