data_PCOD8168371
_publ_section_title
;
Structure prediction by ZEFSAII (Michael W. Deem and Ramdas Pophale) SiO2 
 PCOD8168371
Probable space group: P M A 2
;
_chemical_formula_sum "Si O2"
_cell_formula_units_Z 16
_cell_length_a 7.736545
_cell_length_b 16.925364
_cell_length_c 5.172566
_cell_angle_alpha 90.000000
_cell_angle_beta 90.000000
_cell_angle_gamma 90.000000
_cell_volume 677.315656
_symmetry_space_group_name_H-M "P M A 2"
_symmetry_group_IT_number 28
_symmetry_cell_setting 'orthorhombic'
loop_
_space_group_symop_operation_xyz
x,y,z
-x,-y,z
1/2-x,y,z
1/2+x,-y,z
loop_
_atom_site_type_symbol
_atom_site_label
_atom_site_fract_x
_atom_site_fract_y
_atom_site_fract_z
Si Si1 0.953414 0.909321 0.848130
Si Si2 0.544886 0.822966 0.347228
Si Si3 0.250000 0.471252 0.224356
Si Si4 0.250000 0.574097 0.720863
Si Si5 0.058152 0.348337 0.501656
O O1 0.750000 0.898380 0.846566
O O2 0.032503 0.872973 0.586392
O O3 0.034520 0.860377 0.087204
O O4 0.000000 0.000000 0.876883
O O5 0.750000 0.829854 0.341511
O O6 0.487817 0.731624 0.370375
O O7 0.250000 0.505016 0.933476
O O8 0.250000 0.540689 0.431502
O O9 0.079490 0.416150 0.277834
O O10 0.425920 0.625928 0.730133
O O11 0.250000 0.334591 0.630377
#
# Coordination Sequence:
#
# PCOD8168371 Si02
#       5
#     4   4   2   2   4
#     4  10  20  36  59  89 123 161 204 256 310 382
#     4   9  19  38  62  86 123 165 206 252 318 381
#     4  10  26  42  68  94 133 170 221 278 332 396
#     4  12  24  46  64 102 129 170 225 276 332 400
#     4   9  23  46  66  98 130 178 217 278 332 396
#
# _framework density 23.622664
#
# number of rings (size 3 to 8) (size 9 to 14) (size 15 to 20)
#    0.750    1.500    0.000    1.500    0.000    8.000 
#    6.750    0.000    0.000    0.000    0.000    0.000 
#    0.000    0.000    0.000    0.000    0.000    0.000 
#
# Total GULP energy -198289.860571 kJ/mol
# GULP energy per Si atom -12393.116286 kJ/mol
# Density = 2.356890 g / cm^3
# Si number density = 23.622664 Si / 1000 Ang^3
#
#
#
# Elastic Constant Matrix: (Units=GPa)
#
#
# Indices 1 2 3 4 5 6 
#
# 1 67.8845 3.5740 19.7844 0.0000 0.0000 0.0000
# 2 3.5740 90.0429 22.5711 0.0000 0.0000 0.0000
# 3 19.7844 22.5711 121.4550 0.0000 0.0000 0.0000
# 4 0.0000 0.0000 0.0000 46.5678 0.0000 0.0000
# 5 0.0000 0.0000 0.0000 0.0000 -0.9071 0.0000
# 6 0.0000 0.0000 0.0000 0.0000 0.0000 28.4179
#
#
#
# Elastic Compliance Matrix: (Units=1/GPa)
#
#
# Indices 1 2 3 4 5 6 
#
# 1 0.015465 0.000019 -0.002523 0.000000 0.000000 0.000000
# 2 0.000019 0.011648 -0.002168 0.000000 0.000000 0.000000
# 3 -0.002523 -0.002168 0.009047 0.000000 0.000000 0.000000
# 4 0.000000 0.000000 0.000000 0.021474 0.000000 0.000000
# 5 0.000000 0.000000 0.000000 0.000000 -1.102408 0.000000
# 6 0.000000 0.000000 0.000000 0.000000 0.000000 0.035189
#
#
# Mechanical properties :
#
#
# Convention : Reuss Voigt Hill
#
# Bulk Modulus (GPa) = 37.28962 41.24905 39.26933
# Shear Modulus (GPa) = -5.04387 30.37923 12.66768
#
# Velocity S-wave (km/s) = -1.46281 3.59000 2.31822
# Velocity P-wave (km/s) = 3.60093 5.88929 4.88111
#
# Compressibility (1/GPa) = 0.02681711
#
# Stress axis : x y z
#
# Youngs Moduli (GPa) = 64.66160 85.84817 110.53047
#
# Poissons Ratio (x) = -0.00159 0.27883
# Poissons Ratio (y) = -0.00120 0.23960
# Poissons Ratio (z) = 0.16312 0.18610
#
# Static dielectric constant tensor:
#      x y z
#    x 4.087900 0.000000 0.000000 
#    y 0.000000 4.216260 0.000000 
#    z 0.000000 0.000000 4.224790 
# 
# 
# High freq. dielectric constant tensor:
#      x y z
#    x 1.912380 0.000000 0.000000 
#    y 0.000000 1.944730 0.000000 
#    z 0.000000 0.000000 1.918460 
# 
# From -- ./inp_files/154.got.cif
#   From: 2010.03.12/outbox.cif.g09.slc.cpg/sg28_1_cif.got.tgz:154.got - 2010.04.14 03:39:34.
