data_PCOD8168929
_publ_section_title
;
Structure prediction by ZEFSAII (Michael W. Deem and Ramdas Pophale) SiO2 
 PCOD8168929
Probable space group: P C A 21
;
_chemical_formula_sum "Si O2"
_cell_formula_units_Z 20
_cell_length_a 8.727873
_cell_length_b 11.463243
_cell_length_c 8.998015
_cell_angle_alpha 90.000000
_cell_angle_beta 90.000000
_cell_angle_gamma 90.000000
_cell_volume 900.248963
_symmetry_space_group_name_H-M "P C A 21"
_symmetry_group_IT_number 29
_symmetry_cell_setting 'orthorhombic'
loop_
_space_group_symop_operation_xyz
x,y,z
-x,-y,1/2+z
1/2-x,y,1/2+z
1/2+x,-y,z
loop_
_atom_site_type_symbol
_atom_site_label
_atom_site_fract_x
_atom_site_fract_y
_atom_site_fract_z
Si Si1 0.595248 0.783008 0.986050
Si Si2 0.449889 0.547288 0.010279
Si Si3 0.407507 0.860582 0.234130
Si Si4 0.346117 0.608742 0.334626
Si Si5 0.742873 0.901280 0.239477
O O1 0.587309 0.642845 0.994448
O O2 0.624250 0.828170 0.821109
O O3 0.436238 0.829688 0.059317
O O4 0.737744 0.838622 0.078810
O O5 0.528672 0.425891 0.960614
O O6 0.321170 0.572976 0.887955
O O7 0.384487 0.544014 0.178008
O O8 0.343237 0.748067 0.318780
O O9 0.571081 0.894862 0.309750
O O10 0.284791 0.963012 0.236909
#
# Coordination Sequence:
#
# PCOD8168929 Si02
#       5
#     4   4   4   4   4
#     4   9  24  41  65 100 132 182 229 285 347 415
#     4  11  25  46  69 101 140 184 241 284 361 409
#     4   9  24  40  68 101 136 181 232 288 351 418
#     4  11  25  47  70 103 141 185 235 295 348 431
#     4  10  22  42  68  95 143 172 235 280 357 413
#
# _framework density 22.216076999999999
#
# number of rings (size 3 to 8) (size 9 to 14) (size 15 to 20)
#    1.200    0.800    0.000    1.200    8.400    3.200 
#    3.600    0.000    0.000    0.000    0.000    0.000 
#    0.000    0.000    0.000    0.000    0.000    0.000 
#
# Total GULP energy -247793.261464 kJ/mol
# GULP energy per Si atom -12389.663073 kJ/mol
# Density = 2.216551 g / cm^3
# Si number density = 22.216077 Si / 1000 Ang^3
#
#
#
# Elastic Constant Matrix: (Units=GPa)
#
#
# Indices 1 2 3 4 5 6 
#
# 1 70.7684 36.4019 12.2266 0.0000 0.0000 0.0000
# 2 36.4019 91.5057 34.6867 0.0000 0.0000 0.0000
# 3 12.2266 34.6867 81.4611 0.0000 0.0000 0.0000
# 4 0.0000 0.0000 0.0000 29.5903 0.0000 0.0000
# 5 0.0000 0.0000 0.0000 0.0000 24.3295 0.0000
# 6 0.0000 0.0000 0.0000 0.0000 0.0000 42.8362
#
#
#
# Elastic Compliance Matrix: (Units=1/GPa)
#
#
# Indices 1 2 3 4 5 6 
#
# 1 0.017777 -0.007227 0.000409 0.000000 0.000000 0.000000
# 2 -0.007227 0.015970 -0.005715 0.000000 0.000000 0.000000
# 3 0.000409 -0.005715 0.014648 0.000000 0.000000 0.000000
# 4 0.000000 0.000000 0.000000 0.033795 0.000000 0.000000
# 5 0.000000 0.000000 0.000000 0.000000 0.041102 0.000000
# 6 0.000000 0.000000 0.000000 0.000000 0.000000 0.023345
#
#
# Mechanical properties :
#
#
# Convention : Reuss Voigt Hill
#
# Bulk Modulus (GPa) = 42.86587 45.59618 44.23102
# Shear Modulus (GPa) = 27.85826 30.04586 28.95206
#
# Velocity S-wave (km/s) = 3.54498 3.68154 3.61391
# Velocity P-wave (km/s) = 6.00772 6.21612 6.11281
#
# Compressibility (1/GPa) = 0.02332858
#
# Stress axis : x y z
#
# Youngs Moduli (GPa) = 56.25116 62.61822 68.26860
#
# Poissons Ratio (x) = 0.45255 -0.02793
# Poissons Ratio (y) = 0.40653 0.39018
# Poissons Ratio (z) = -0.02301 0.35788
#
# Static dielectric constant tensor:
#      x y z
#    x 3.731910 0.000000 0.000000 
#    y 0.000000 3.909700 0.000000 
#    z 0.000000 0.000000 3.874740 
# 
# 
# High freq. dielectric constant tensor:
#      x y z
#    x 1.863760 0.000000 0.000000 
#    y 0.000000 1.875140 0.000000 
#    z 0.000000 0.000000 1.864850 
# 
# From -- ./inp_files/1070.got.cif
#   From: 2010.03.12/outbox.cif.g09.slc.cpg/sg29_1_cif.got.tgz:1070.got - 2010.04.14 03:43:10.
