data_PCOD8168620
_publ_section_title
;
Structure prediction by ZEFSAII (Michael W. Deem and Ramdas Pophale) SiO2 
 PCOD8168620
Probable space group: P C A 21
;
_chemical_formula_sum "Si O2"
_cell_formula_units_Z 32
_cell_length_a 30.919449
_cell_length_b 8.296342
_cell_length_c 4.892910
_cell_angle_alpha 90.000000
_cell_angle_beta 90.000000
_cell_angle_gamma 90.000000
_cell_volume 1255.121070
_symmetry_space_group_name_H-M "P C A 21"
_symmetry_group_IT_number 29
_symmetry_cell_setting 'orthorhombic'
loop_
_space_group_symop_operation_xyz
x,y,z
-x,-y,1/2+z
1/2-x,y,1/2+z
1/2+x,-y,z
loop_
_atom_site_type_symbol
_atom_site_label
_atom_site_fract_x
_atom_site_fract_y
_atom_site_fract_z
Si Si1 0.391196 0.088348 0.602390
Si Si2 0.719465 0.903650 0.580273
Si Si3 0.158753 0.822909 0.369703
Si Si4 0.487346 0.596649 0.773140
Si Si5 0.174069 0.331524 0.220773
Si Si6 0.934514 0.770537 0.117424
Si Si7 0.777434 0.381049 0.525417
Si Si8 0.103557 0.545380 0.461854
O O1 0.344790 0.178547 0.554345
O O2 0.415278 0.090657 0.312078
O O3 0.380285 0.911460 0.708600
O O4 0.423123 0.180827 0.810544
O O5 0.737873 0.909311 0.886271
O O6 0.693201 0.739438 0.507290
O O7 0.687911 0.057375 0.548251
O O8 0.186094 0.738749 0.130081
O O9 0.134932 0.690723 0.570356
O O10 0.493327 0.446360 0.569485
O O11 0.513598 0.753437 0.659787
O O12 0.436250 0.630131 0.801393
O O13 0.210630 0.429746 0.058382
O O14 0.133824 0.449170 0.254924
O O15 0.914539 0.588577 0.178200
O O16 0.766064 0.348700 0.208482
#
# Coordination Sequence:
#
# PCOD8168620 Si02
#       8
#     4   4   4   4   4   4   4   4
#     4  10  22  39  60  87 119 159 199 240 296 359
#     4  11  23  40  60  83 114 158 200 241 297 360
#     4  10  23  41  61  87 123 157 195 250 306 359
#     4  10  19  36  62  91 121 154 196 244 294 349
#     4   9  20  36  59  84 114 150 197 246 290 351
#     4  10  20  39  63  88 119 158 202 243 289 357
#     4  11  23  38  57  83 113 149 193 247 301 352
#     4   9  20  39  62  93 121 155 200 249 303 353
#
# _framework density 25.495549
#
# number of rings (size 3 to 8) (size 9 to 14) (size 15 to 20)
#    0.000    2.000    0.000    3.750    0.000   10.000 
#    0.000   13.750    0.000    0.000    0.000    0.000 
#    0.000    0.000    0.000    0.000    0.000    0.000 
#
# Total GULP energy -396517.860974 kJ/mol
# GULP energy per Si atom -12391.183155 kJ/mol
# Density = 2.543752 g / cm^3
# Si number density = 25.495549 Si / 1000 Ang^3
#
#
#
# Elastic Constant Matrix: (Units=GPa)
#
#
# Indices 1 2 3 4 5 6 
#
# 1 108.6578 14.0817 -3.1282 0.0000 0.0000 0.0000
# 2 14.0817 72.6642 -12.2121 0.0000 0.0000 0.0000
# 3 -3.1282 -12.2121 47.8053 0.0000 0.0000 0.0000
# 4 0.0000 0.0000 0.0000 22.0715 0.0000 0.0000
# 5 0.0000 0.0000 0.0000 0.0000 16.2387 0.0000
# 6 0.0000 0.0000 0.0000 0.0000 0.0000 27.3431
#
#
#
# Elastic Compliance Matrix: (Units=1/GPa)
#
#
# Indices 1 2 3 4 5 6 
#
# 1 0.009441 -0.001803 0.000157 0.000000 0.000000 0.000000
# 2 -0.001803 0.014724 0.003643 0.000000 0.000000 0.000000
# 3 0.000157 0.003643 0.021859 0.000000 0.000000 0.000000
# 4 0.000000 0.000000 0.000000 0.045307 0.000000 0.000000
# 5 0.000000 0.000000 0.000000 0.000000 0.061581 0.000000
# 6 0.000000 0.000000 0.000000 0.000000 0.000000 0.036572
#
#
# Mechanical properties :
#
#
# Convention : Reuss Voigt Hill
#
# Bulk Modulus (GPa) = 19.99256 25.17888 22.58572
# Shear Modulus (GPa) = 24.73243 28.48972 26.61108
#
# Velocity S-wave (km/s) = 3.11797 3.34644 3.23422
# Velocity P-wave (km/s) = 4.56300 4.98285 4.77754
#
# Compressibility (1/GPa) = 0.05001861
#
# Stress axis : x y z
#
# Youngs Moduli (GPa) = 105.91620 67.91775 45.74741
#
# Poissons Ratio (x) = 0.12247 -0.00719
# Poissons Ratio (y) = 0.19099 -0.16667
# Poissons Ratio (z) = -0.01665 -0.24744
#
# Static dielectric constant tensor:
#      x y z
#    x 4.913640 0.000000 0.000000 
#    y 0.000000 4.842970 0.000000 
#    z 0.000000 0.000000 4.042650 
# 
# 
# High freq. dielectric constant tensor:
#      x y z
#    x 2.030460 0.000000 0.000000 
#    y 0.000000 2.007800 0.000000 
#    z 0.000000 0.000000 1.988100 
# 
# From -- ./inp_files/945.got.cif
#   From: 2010.03.12/outbox.cif.g09.slc.cpg/sg29_1_cif.got.tgz:945.got - 2010.04.14 03:43:10.
