data_PCOD8168886
_publ_section_title
;
Structure prediction by ZEFSAII (Michael W. Deem and Ramdas Pophale) SiO2 
 PCOD8168886
Probable space group: P C A 21
;
_chemical_formula_sum "Si O2"
_cell_formula_units_Z 32
_cell_length_a 26.852273
_cell_length_b 5.976375
_cell_length_c 8.879386
_cell_angle_alpha 90.000000
_cell_angle_beta 90.000000
_cell_angle_gamma 90.000000
_cell_volume 1424.957233
_symmetry_space_group_name_H-M "P C A 21"
_symmetry_group_IT_number 29
_symmetry_cell_setting 'orthorhombic'
loop_
_space_group_symop_operation_xyz
x,y,z
-x,-y,1/2+z
1/2-x,y,1/2+z
1/2+x,-y,z
loop_
_atom_site_type_symbol
_atom_site_label
_atom_site_fract_x
_atom_site_fract_y
_atom_site_fract_z
Si Si1 0.234053 0.162025 0.914060
Si Si2 0.776128 0.148178 0.154560
Si Si3 0.953883 0.501056 0.006358
Si Si4 0.467206 0.152697 0.532586
Si Si5 0.107058 0.240077 0.281030
Si Si6 0.373675 0.871568 0.010742
Si Si7 0.796787 0.558993 0.676899
Si Si8 0.552691 0.888043 0.701602
O O1 0.210321 0.953926 0.819808
O O2 0.263357 0.309064 0.794915
O O3 0.268188 0.060924 0.044233
O O4 0.197597 0.324526 0.011149
O O5 0.824705 0.258268 0.075245
O O6 0.728230 0.313012 0.161149
O O7 0.941296 0.683042 0.877323
O O8 0.913938 0.312030 0.972327
O O9 0.948590 0.620693 0.169130
O O10 0.009179 0.398290 0.999454
O O11 0.415877 0.161719 0.623608
O O12 0.452367 0.046230 0.374112
O O13 0.507028 0.995309 0.611429
O O14 0.147440 0.438868 0.248123
O O15 0.134653 0.030173 0.363357
O O16 0.393970 0.024546 0.146467
#
# Coordination Sequence:
#
# PCOD8168886 Si02
#       8
#     4   4   4   4   4   4   4   4
#     4  10  24  42  65  93 136 171 229 283 347 400
#     4  11  23  43  67  94 138 178 227 288 345 408
#     4  10  22  39  66  98 129 180 216 268 347 402
#     4  11  22  42  67  97 135 170 219 281 335 408
#     4  11  24  42  69  97 134 176 232 278 339 421
#     4  10  23  42  66  94 130 181 222 277 340 408
#     4  11  24  42  69 100 130 183 231 283 350 412
#     4  10  22  40  65  95 132 173 218 270 341 399
#
# _framework density 22.456814999999999
#
# number of rings (size 3 to 8) (size 9 to 14) (size 15 to 20)
#    0.000    1.500    1.250    3.750    5.250    2.000 
#    2.250    0.000    0.000    0.000    0.000    0.000 
#    0.000    0.000    0.000    0.000    0.000    0.000 
#
# Total GULP energy -396468.006444 kJ/mol
# GULP energy per Si atom -12389.625201 kJ/mol
# Density = 2.240570 g / cm^3
# Si number density = 22.456815 Si / 1000 Ang^3
#
#
#
# Elastic Constant Matrix: (Units=GPa)
#
#
# Indices 1 2 3 4 5 6 
#
# 1 90.9558 13.4720 35.0927 0.0000 0.0000 0.0000
# 2 13.4720 73.8483 29.7156 0.0000 0.0000 0.0000
# 3 35.0927 29.7156 150.1414 0.0000 0.0000 0.0000
# 4 0.0000 0.0000 0.0000 27.1575 0.0000 0.0000
# 5 0.0000 0.0000 0.0000 0.0000 33.8333 0.0000
# 6 0.0000 0.0000 0.0000 0.0000 0.0000 33.0817
#
#
#
# Elastic Compliance Matrix: (Units=1/GPa)
#
#
# Indices 1 2 3 4 5 6 
#
# 1 0.012176 -0.001169 -0.002615 0.000000 0.000000 0.000000
# 2 -0.001169 0.014825 -0.002661 0.000000 0.000000 0.000000
# 3 -0.002615 -0.002661 0.007798 0.000000 0.000000 0.000000
# 4 0.000000 0.000000 0.000000 0.036822 0.000000 0.000000
# 5 0.000000 0.000000 0.000000 0.000000 0.029557 0.000000
# 6 0.000000 0.000000 0.000000 0.000000 0.000000 0.030228
#
#
# Mechanical properties :
#
#
# Convention : Reuss Voigt Hill
#
# Bulk Modulus (GPa) = 45.64057 52.38956 49.01507
# Shear Modulus (GPa) = 32.98159 34.59217 33.78688
#
# Velocity S-wave (km/s) = 3.83648 3.92903 3.88303
# Velocity P-wave (km/s) = 6.32397 6.63044 6.47902
#
# Compressibility (1/GPa) = 0.02191033
#
# Stress axis : x y z
#
# Youngs Moduli (GPa) = 82.12685 67.45230 128.23586
#
# Poissons Ratio (x) = 0.07887 0.33528
# Poissons Ratio (y) = 0.09602 0.34122
# Poissons Ratio (z) = 0.21473 0.17948
#
# Static dielectric constant tensor:
#      x y z
#    x 3.985170 0.000000 0.000000 
#    y 0.000000 4.097910 0.000000 
#    z 0.000000 0.000000 4.321940 
# 
# 
# High freq. dielectric constant tensor:
#      x y z
#    x 1.867730 0.000000 0.000000 
#    y 0.000000 1.877020 0.000000 
#    z 0.000000 0.000000 1.897290 
# 
# From -- ./inp_files/2613.got.cif
#   From: 2010.03.12/outbox.cif.g09.slc.cpg/sg29_2_cif.got.tgz:2613.got - 2010.04.14 03:43:10.
