data_PCOD8168161
_publ_section_title
;
Structure prediction by ZEFSAII (Michael W. Deem and Ramdas Pophale) SiO2 
 PCOD8168161
Probable space group: P M A 2
;
_chemical_formula_sum "Si O2"
_cell_formula_units_Z 32
_cell_length_a 8.753883
_cell_length_b 14.262287
_cell_length_c 15.612194
_cell_angle_alpha 90.000000
_cell_angle_beta 90.000000
_cell_angle_gamma 90.000000
_cell_volume 1949.188536
_symmetry_space_group_name_H-M "P M A 2"
_symmetry_group_IT_number 28
_symmetry_cell_setting 'orthorhombic'
loop_
_space_group_symop_operation_xyz
x,y,z
-x,-y,z
1/2-x,y,z
1/2+x,-y,z
loop_
_atom_site_type_symbol
_atom_site_label
_atom_site_fract_x
_atom_site_fract_y
_atom_site_fract_z
Si Si1 0.428841 0.601534 0.221870
Si Si2 0.429901 0.601824 0.712724
Si Si3 0.930959 0.603795 0.391873
Si Si4 0.431124 0.719675 0.874826
Si Si5 0.429288 0.097219 0.809036
Si Si6 0.572089 0.398549 0.034087
Si Si7 0.569199 0.901595 0.612076
Si Si8 0.068882 0.716919 0.546765
O O1 0.500000 0.500000 0.214333
O O2 0.250000 0.595825 0.243063
O O3 0.514430 0.651154 0.301600
O O4 0.459358 0.647560 0.128304
O O5 0.500000 0.500000 0.708587
O O6 0.250000 0.591158 0.715061
O O7 0.489853 0.655187 0.796835
O O8 0.483937 0.659528 0.630117
O O9 0.750000 0.596738 0.395270
O O10 0.000000 0.500000 0.402808
O O11 0.990350 0.670551 0.465659
O O12 0.250000 0.731675 0.872107
O O13 0.506027 0.821378 0.869013
O O14 0.490381 0.673176 0.962930
O O15 0.250000 0.090987 0.819600
O O16 0.476884 0.116647 0.710778
O O17 0.500000 0.000000 0.841458
O O18 0.500000 0.500000 0.021440
O O19 0.750000 0.414741 0.020192
O O20 0.750000 0.901644 0.598755
O O21 0.491868 0.822433 0.554048
O O22 0.500000 0.000000 0.580922
O O23 0.250000 0.716907 0.535389
#
# Coordination Sequence:
#
# PCOD8168161 Si02
#       8
#     4   4   4   4   4   4   4   4
#     4   9  16  29  47  69  94 125 162 202 246 289
#     4  10  21  32  45  64  94 132 166 196 232 276
#     4  11  21  33  49  71  98 131 166 205 247 292
#     4  10  19  33  48  69  98 130 164 201 241 287
#     4  10  20  33  51  72  94 125 162 205 248 288
#     4   9  18  30  48  71  99 131 164 202 243 286
#     4  10  20  34  52  73  96 125 162 206 249 292
#     4  11  21  34  50  71  97 131 166 203 244 288
#
# _framework density 16.417086999999999
#
# number of rings (size 3 to 8) (size 9 to 14) (size 15 to 20)
#    0.000    2.000    1.250    4.125    0.000    4.500 
#    0.000    0.000    0.000    0.000    0.000    0.875 
#    0.000    2.000    0.000    0.000    0.000    0.000 
#
# Total GULP energy -396764.632412 kJ/mol
# GULP energy per Si atom -12398.894763 kJ/mol
# Density = 1.637972 g / cm^3
# Si number density = 16.417087 Si / 1000 Ang^3
#
#
#
# Elastic Constant Matrix: (Units=GPa)
#
#
# Indices 1 2 3 4 5 6 
#
# 1 75.0177 45.1202 50.1195 0.0000 0.0000 0.0000
# 2 45.1202 118.5096 68.5369 0.0000 0.0000 0.0000
# 3 50.1195 68.5369 140.6595 0.0000 0.0000 0.0000
# 4 0.0000 0.0000 0.0000 12.8120 0.0000 0.0000
# 5 0.0000 0.0000 0.0000 0.0000 19.0027 0.0000
# 6 0.0000 0.0000 0.0000 0.0000 0.0000 29.5484
#
#
#
# Elastic Compliance Matrix: (Units=1/GPa)
#
#
# Indices 1 2 3 4 5 6 
#
# 1 0.019185 -0.004666 -0.004562 0.000000 0.000000 0.000000
# 2 -0.004666 0.012883 -0.004615 0.000000 0.000000 0.000000
# 3 -0.004562 -0.004615 0.010984 0.000000 0.000000 0.000000
# 4 0.000000 0.000000 0.000000 0.078052 0.000000 0.000000
# 5 0.000000 0.000000 0.000000 0.000000 0.052624 0.000000
# 6 0.000000 0.000000 0.000000 0.000000 0.000000 0.033843
#
#
# Mechanical properties :
#
#
# Convention : Reuss Voigt Hill
#
# Bulk Modulus (GPa) = 65.08075 73.52666 69.30371
# Shear Modulus (GPa) = 20.80053 23.63330 22.21691
#
# Velocity S-wave (km/s) = 3.56336 3.79826 3.68269
# Velocity P-wave (km/s) = 7.52716 8.00747 7.77103
#
# Compressibility (1/GPa) = 0.01536553
#
# Stress axis : x y z
#
# Youngs Moduli (GPa) = 52.12530 77.61879 91.04321
#
# Poissons Ratio (x) = 0.36213 0.41538
# Poissons Ratio (y) = 0.24319 0.42017
# Poissons Ratio (z) = 0.23782 0.35822
#
# Static dielectric constant tensor:
#      x y z
#    x 3.090400 0.000000 0.000000 
#    y 0.000000 2.942260 0.000000 
#    z 0.000000 0.000000 3.586810 
# 
# 
# High freq. dielectric constant tensor:
#      x y z
#    x 1.643010 0.000000 0.000000 
#    y 0.000000 1.610220 0.000000 
#    z 0.000000 0.000000 1.627800 
# 
# From -- ./inp_files/6390.got.cif
#   From: 2010.03.12/outbox.cif.g09.slc.cpg/sg28_4_cif.got.tgz:6390.got - 2010.04.14 03:39:34.
