data_PCOD8168584
_publ_section_title
;
Structure prediction by ZEFSAII (Michael W. Deem and Ramdas Pophale) SiO2 
 PCOD8168584
Probable space group: P C A 21
;
_chemical_formula_sum "Si O2"
_cell_formula_units_Z 28
_cell_length_a 5.115162
_cell_length_b 15.538645
_cell_length_c 16.236804
_cell_angle_alpha 90.000000
_cell_angle_beta 90.000000
_cell_angle_gamma 90.000000
_cell_volume 1290.544801
_symmetry_space_group_name_H-M "P C A 21"
_symmetry_group_IT_number 29
_symmetry_cell_setting 'orthorhombic'
loop_
_space_group_symop_operation_xyz
x,y,z
-x,-y,1/2+z
1/2-x,y,1/2+z
1/2+x,-y,z
loop_
_atom_site_type_symbol
_atom_site_label
_atom_site_fract_x
_atom_site_fract_y
_atom_site_fract_z
Si Si1 0.095518 0.954410 0.759980
Si Si2 0.570752 0.969145 0.940487
Si Si3 0.964077 0.443939 0.512588
Si Si4 0.352081 0.223513 0.449052
Si Si5 0.624827 0.243429 0.714829
Si Si6 0.626307 0.717988 0.615118
Si Si7 0.639703 0.308948 0.885877
O O1 0.069887 0.853071 0.744853
O O2 0.353344 0.995280 0.718773
O O3 0.110560 0.973390 0.857753
O O4 0.541461 0.868985 0.921961
O O5 0.329840 0.007706 0.992621
O O6 0.172007 0.520122 0.522228
O O7 0.037298 0.375284 0.582751
O O8 0.969383 0.399458 0.421836
O O9 0.246816 0.224276 0.542151
O O10 0.602157 0.286216 0.439373
O O11 0.105462 0.243891 0.391427
O O12 0.359464 0.287129 0.681189
O O13 0.715834 0.306501 0.789713
O O14 0.863831 0.238890 0.650593
#
# Coordination Sequence:
#
# PCOD8168584 Si02
#       7
#     4   4   4   4   4   4   4
#     4  10  19  34  56  85 121 167 214 265 319 366
#     4  10  19  32  55  85 114 158 219 273 311 354
#     4  11  23  45  70  95 124 164 211 260 317 394
#     4  11  21  41  63  90 124 172 224 263 313 400
#     4  12  23  41  64  98 134 171 217 270 332 400
#     4  11  25  42  65  94 133 176 208 260 341 408
#     4  11  22  39  69  95 122 164 215 267 319 388
#
# _framework density 21.696263999999999
#
# number of rings (size 3 to 8) (size 9 to 14) (size 15 to 20)
#    0.000    1.143    0.000   10.286    0.000    0.000 
#    0.000    8.571    0.000    0.000    0.000    0.000 
#    0.000    0.000    0.000    0.000    0.000    0.000 
#
# Total GULP energy -347001.642880 kJ/mol
# GULP energy per Si atom -12392.915817 kJ/mol
# Density = 2.164688 g / cm^3
# Si number density = 21.696264 Si / 1000 Ang^3
#
#
#
# Elastic Constant Matrix: (Units=GPa)
#
#
# Indices 1 2 3 4 5 6 
#
# 1 161.0885 35.9882 22.9351 0.0000 0.0000 0.0000
# 2 35.9882 100.3356 40.8377 0.0000 0.0000 0.0000
# 3 22.9351 40.8377 78.2068 0.0000 0.0000 0.0000
# 4 0.0000 0.0000 0.0000 24.0338 0.0000 0.0000
# 5 0.0000 0.0000 0.0000 0.0000 28.3243 0.0000
# 6 0.0000 0.0000 0.0000 0.0000 0.0000 45.6836
#
#
#
# Elastic Compliance Matrix: (Units=1/GPa)
#
#
# Indices 1 2 3 4 5 6 
#
# 1 0.006800 -0.002066 -0.000915 0.000000 0.000000 0.000000
# 2 -0.002066 0.013284 -0.006331 0.000000 0.000000 0.000000
# 3 -0.000915 -0.006331 0.016361 0.000000 0.000000 0.000000
# 4 0.000000 0.000000 0.000000 0.041608 0.000000 0.000000
# 5 0.000000 0.000000 0.000000 0.000000 0.035305 0.000000
# 6 0.000000 0.000000 0.000000 0.000000 0.000000 0.021890
#
#
# Mechanical properties :
#
#
# Convention : Reuss Voigt Hill
#
# Bulk Modulus (GPa) = 56.11581 59.90589 58.01085
# Shear Modulus (GPa) = 31.28661 35.59966 33.44314
#
# Velocity S-wave (km/s) = 3.80152 4.05510 3.93036
# Velocity P-wave (km/s) = 6.72229 7.04246 6.88424
#
# Compressibility (1/GPa) = 0.01782029
#
# Stress axis : x y z
#
# Youngs Moduli (GPa) = 147.06508 75.27596 61.12190
#
# Poissons Ratio (x) = 0.15556 0.05593
# Poissons Ratio (y) = 0.30391 0.38695
# Poissons Ratio (z) = 0.13457 0.47656
#
# Static dielectric constant tensor:
#      x y z
#    x 5.913540 0.000000 0.000000 
#    y 0.000000 3.713770 0.000000 
#    z 0.000000 0.000000 3.771700 
# 
# 
# High freq. dielectric constant tensor:
#      x y z
#    x 1.892600 0.000000 0.000000 
#    y 0.000000 1.840340 0.000000 
#    z 0.000000 0.000000 1.822430 
# 
# From -- ./inp_files/4067.got.cif
#   From: 2010.03.12/outbox.cif.g09.slc.cpg/sg29_3_cif.got.tgz:4067.got - 2010.04.14 03:43:10.
