data_PCOD8168481
_publ_section_title
;
Structure prediction by ZEFSAII (Michael W. Deem and Ramdas Pophale) SiO2 
 PCOD8168481
Probable space group: P M A 2
;
_chemical_formula_sum "Si O2"
_cell_formula_units_Z 24
_cell_length_a 13.242474
_cell_length_b 10.562275
_cell_length_c 8.919748
_cell_angle_alpha 90.000000
_cell_angle_beta 90.000000
_cell_angle_gamma 90.000000
_cell_volume 1247.610969
_symmetry_space_group_name_H-M "P M A 2"
_symmetry_group_IT_number 28
_symmetry_cell_setting 'orthorhombic'
loop_
_space_group_symop_operation_xyz
x,y,z
-x,-y,z
1/2-x,y,z
1/2+x,-y,z
loop_
_atom_site_type_symbol
_atom_site_label
_atom_site_fract_x
_atom_site_fract_y
_atom_site_fract_z
Si Si1 0.030562 0.859831 0.662970
Si Si2 0.431568 0.376354 0.152494
Si Si3 0.250000 0.774692 0.316831
Si Si4 0.536057 0.140918 0.311067
Si Si5 0.750000 0.509005 0.319169
Si Si6 0.750000 0.222345 0.670086
Si Si7 0.250000 0.499399 0.672395
Si Si8 0.861730 0.699349 0.827419
O O1 0.018694 0.830236 0.486799
O O2 0.146365 0.846108 0.720304
O O3 0.954032 0.774707 0.756875
O O4 0.000000 0.000000 0.701969
O O5 0.500000 0.500000 0.129486
O O6 0.484752 0.251934 0.217544
O O7 0.347142 0.413453 0.270964
O O8 0.383108 0.335689 0.997339
O O9 0.346592 0.854606 0.265221
O O10 0.250000 0.632608 0.248106
O O11 0.250000 0.762733 0.493745
O O12 0.500000 0.000000 0.266699
O O13 0.750000 0.500048 0.495691
O O14 0.750000 0.361012 0.742799
O O15 0.148685 0.430626 0.732599
O O16 0.750000 0.768807 0.818741
#
# Coordination Sequence:
#
# PCOD8168481 Si02
#       8
#     4   4   2   4   2   2   2   4
#     4  10  22  41  66  93 127 164 217 264 315 376
#     4  12  24  39  64  91 132 169 212 258 317 388
#     4   9  18  38  57  92 130 154 207 265 310 379
#     4  10  22  41  66  96 124 169 213 267 318 373
#     4  11  19  40  63  92 122 164 213 263 322 359
#     4   9  20  34  61  94 120 161 204 262 317 366
#     4   9  21  38  63  90 124 159 212 266 313 374
#     4  10  24  41  58  90 131 165 205 258 316 380
#
# _framework density 19.236764999999998
#
# number of rings (size 3 to 8) (size 9 to 14) (size 15 to 20)
#    0.500    1.333    2.500    1.000    3.500    1.333 
#    1.500    0.833    0.000    0.000    0.000    0.000 
#    0.000    0.000    0.000    0.000    0.000    0.000 
#
# Total GULP energy -297409.936171 kJ/mol
# GULP energy per Si atom -12392.080674 kJ/mol
# Density = 1.919298 g / cm^3
# Si number density = 19.236765 Si / 1000 Ang^3
#
#
#
# Elastic Constant Matrix: (Units=GPa)
#
#
# Indices 1 2 3 4 5 6 
#
# 1 173.4188 82.3749 41.7928 0.0000 0.0000 0.0000
# 2 82.3749 141.9309 41.8704 0.0000 0.0000 0.0000
# 3 41.7928 41.8704 66.3925 0.0000 0.0000 0.0000
# 4 0.0000 0.0000 0.0000 5.8787 0.0000 0.0000
# 5 0.0000 0.0000 0.0000 0.0000 13.9453 0.0000
# 6 0.0000 0.0000 0.0000 0.0000 0.0000 25.9384
#
#
#
# Elastic Compliance Matrix: (Units=1/GPa)
#
#
# Indices 1 2 3 4 5 6 
#
# 1 0.008337 -0.004043 -0.002698 0.000000 0.000000 0.000000
# 2 -0.004043 0.010616 -0.004150 0.000000 0.000000 0.000000
# 3 -0.002698 -0.004150 0.019378 0.000000 0.000000 0.000000
# 4 0.000000 0.000000 0.000000 0.170105 0.000000 0.000000
# 5 0.000000 0.000000 0.000000 0.000000 0.071709 0.000000
# 6 0.000000 0.000000 0.000000 0.000000 0.000000 0.038553
#
#
# Mechanical properties :
#
#
# Convention : Reuss Voigt Hill
#
# Bulk Modulus (GPa) = 60.42920 79.31315 69.87118
# Shear Modulus (GPa) = 14.45099 23.53276 18.99188
#
# Velocity S-wave (km/s) = 2.74381 3.50140 3.14549
# Velocity P-wave (km/s) = 6.44357 7.59380 7.04221
#
# Compressibility (1/GPa) = 0.01654829
#
# Stress axis : x y z
#
# Youngs Moduli (GPa) = 119.94773 94.19422 51.60472
#
# Poissons Ratio (x) = 0.38079 0.13925
# Poissons Ratio (y) = 0.48490 0.21418
# Poissons Ratio (z) = 0.32368 0.39095
#
# Static dielectric constant tensor:
#      x y z
#    x 3.818380 0.000000 0.000000 
#    y 0.000000 3.602690 0.000000 
#    z 0.000000 0.000000 3.321950 
# 
# 
# High freq. dielectric constant tensor:
#      x y z
#    x 1.763040 0.000000 0.000000 
#    y 0.000000 1.749890 0.000000 
#    z 0.000000 0.000000 1.734690 
# 
# From -- ./inp_files/3036.got.cif
#   From: 2010.03.12/outbox.cif.g09.slc.cpg/sg28_2_cif.got.tgz:3036.got - 2010.04.14 03:39:34.
