data_PCOD8168263
_publ_section_title
;
Structure prediction by ZEFSAII (Michael W. Deem and Ramdas Pophale) SiO2 
 PCOD8168263
Probable space group: P M A 2
;
_chemical_formula_sum "Si O2"
_cell_formula_units_Z 32
_cell_length_a 8.951679
_cell_length_b 23.745579
_cell_length_c 7.573673
_cell_angle_alpha 90.000000
_cell_angle_beta 90.000000
_cell_angle_gamma 90.000000
_cell_volume 1609.881146
_symmetry_space_group_name_H-M "P M A 2"
_symmetry_group_IT_number 28
_symmetry_cell_setting 'orthorhombic'
loop_
_space_group_symop_operation_xyz
x,y,z
-x,-y,z
1/2-x,y,z
1/2+x,-y,z
loop_
_atom_site_type_symbol
_atom_site_label
_atom_site_fract_x
_atom_site_fract_y
_atom_site_fract_z
Si Si1 0.074335 0.645779 0.170750
Si Si2 0.421589 0.240386 0.189629
Si Si3 0.424205 0.642294 0.571829
Si Si4 0.075358 0.559912 0.878935
Si Si5 0.075472 0.121092 0.042892
Si Si6 0.074234 0.059471 0.399129
Si Si7 0.922783 0.755864 0.601760
Si Si8 0.926745 0.133700 0.694364
O O1 0.250000 0.649853 0.150673
O O2 0.026267 0.629400 0.370399
O O3 0.011741 0.706565 0.114674
O O4 0.011060 0.598688 0.037368
O O5 0.250000 0.251964 0.147089
O O6 0.477794 0.183421 0.098754
O O7 0.448529 0.232716 0.396448
O O8 0.250000 0.658175 0.580617
O O9 0.461247 0.587969 0.689878
O O10 0.516584 0.694307 0.651602
O O11 0.250000 0.551002 0.903913
O O12 0.000000 0.500000 0.888189
O O13 0.250000 0.120629 0.995345
O O14 0.040592 0.077179 0.198416
O O15 0.979472 0.102130 0.873092
O O16 0.250000 0.056572 0.436715
O O17 0.003196 0.105464 0.526588
O O18 0.000000 0.000000 0.439245
O O19 0.750000 0.760426 0.657009
O O20 0.016613 0.802008 0.709248
O O21 0.750000 0.130585 0.674599
#
# Coordination Sequence:
#
# PCOD8168263 Si02
#       8
#     4   4   4   4   4   4   4   4
#     4   9  19  35  54  79 112 148 183 234 292 345
#     4   9  18  35  59  87 118 154 194 240 298 358
#     4   9  19  36  55  80 113 149 188 238 296 352
#     4  10  22  38  55  78 110 147 193 238 288 350
#     4  10  22  41  63  90 126 164 203 254 308 358
#     4  11  24  46  70  92 124 165 208 257 306 358
#     4  10  19  36  60  88 122 158 198 246 303 361
#     4  12  25  39  61  94 128 166 208 250 303 364
#
# _framework density 19.877244000000001
#
# number of rings (size 3 to 8) (size 9 to 14) (size 15 to 20)
#    0.000    2.000    1.250    1.875    1.750    4.000 
#    0.000    1.250    0.000    0.000    0.000    0.000 
#    0.000    0.000    0.000    0.000    0.000    0.000 
#
# Total GULP energy -396893.571663 kJ/mol
# GULP energy per Si atom -12402.924114 kJ/mol
# Density = 1.983200 g / cm^3
# Si number density = 19.877244 Si / 1000 Ang^3
#
#
#
# Elastic Constant Matrix: (Units=GPa)
#
#
# Indices 1 2 3 4 5 6 
#
# 1 79.0369 33.6985 29.8849 0.0000 0.0000 0.0000
# 2 33.6985 92.3877 16.5165 0.0000 0.0000 0.0000
# 3 29.8849 16.5165 62.5868 0.0000 0.0000 0.0000
# 4 0.0000 0.0000 0.0000 23.6803 0.0000 0.0000
# 5 0.0000 0.0000 0.0000 0.0000 22.1629 0.0000
# 6 0.0000 0.0000 0.0000 0.0000 0.0000 35.1052
#
#
#
# Elastic Compliance Matrix: (Units=1/GPa)
#
#
# Indices 1 2 3 4 5 6 
#
# 1 0.017483 -0.005126 -0.006995 0.000000 0.000000 0.000000
# 2 -0.005126 0.012863 -0.000947 0.000000 0.000000 0.000000
# 3 -0.006995 -0.000947 0.019568 0.000000 0.000000 0.000000
# 4 0.000000 0.000000 0.000000 0.042229 0.000000 0.000000
# 5 0.000000 0.000000 0.000000 0.000000 0.045120 0.000000
# 6 0.000000 0.000000 0.000000 0.000000 0.000000 0.028486
#
#
# Mechanical properties :
#
#
# Convention : Reuss Voigt Hill
#
# Bulk Modulus (GPa) = 42.05694 43.80124 42.92909
# Shear Modulus (GPa) = 25.02358 26.45046 25.73702
#
# Velocity S-wave (km/s) = 3.55196 3.65182 3.60223
# Velocity P-wave (km/s) = 6.16653 6.31386 6.24063
#
# Compressibility (1/GPa) = 0.02377729
#
# Stress axis : x y z
#
# Youngs Moduli (GPa) = 57.19843 77.74209 51.10430
#
# Poissons Ratio (x) = 0.39854 0.35749
# Poissons Ratio (y) = 0.29322 0.04838
# Poissons Ratio (z) = 0.40012 0.07360
#
# Static dielectric constant tensor:
#      x y z
#    x 3.531950 0.000000 0.000000 
#    y 0.000000 3.597580 0.000000 
#    z 0.000000 0.000000 3.816310 
# 
# 
# High freq. dielectric constant tensor:
#      x y z
#    x 1.767570 0.000000 0.000000 
#    y 0.000000 1.769740 0.000000 
#    z 0.000000 0.000000 1.785660 
# 
# From -- ./inp_files/2743.got.cif
#   From: 2010.03.12/outbox.cif.g09.slc.cpg/sg28_2_cif.got.tgz:2743.got - 2010.04.14 03:39:34.
