data_PCOD8168825
_publ_section_title
;
Structure prediction by ZEFSAII (Michael W. Deem and Ramdas Pophale) SiO2 
 PCOD8168825
Probable space group: P C A 21
;
_chemical_formula_sum "Si O2"
_cell_formula_units_Z 28
_cell_length_a 9.991187
_cell_length_b 10.889373
_cell_length_c 12.475157
_cell_angle_alpha 90.000000
_cell_angle_beta 90.000000
_cell_angle_gamma 90.000000
_cell_volume 1357.269162
_symmetry_space_group_name_H-M "P C A 21"
_symmetry_group_IT_number 29
_symmetry_cell_setting 'orthorhombic'
loop_
_space_group_symop_operation_xyz
x,y,z
-x,-y,1/2+z
1/2-x,y,1/2+z
1/2+x,-y,z
loop_
_atom_site_type_symbol
_atom_site_label
_atom_site_fract_x
_atom_site_fract_y
_atom_site_fract_z
Si Si1 0.937173 0.199213 0.362640
Si Si2 0.769635 0.808365 0.888793
Si Si3 0.304020 0.970417 0.515637
Si Si4 0.479642 0.522363 0.351891
Si Si5 0.399011 0.353676 0.534783
Si Si6 0.966193 0.113520 0.123803
Si Si7 0.258757 0.398951 0.745675
O O1 0.834387 0.154592 0.453063
O O2 0.913305 0.343511 0.351537
O O3 0.929918 0.129503 0.248551
O O4 0.077695 0.166562 0.417123
O O5 0.758794 0.750711 0.768112
O O6 0.716925 0.697678 0.960466
O O7 0.690965 0.931799 0.916602
O O8 0.161525 0.950630 0.569987
O O9 0.409708 0.018895 0.605086
O O10 0.478252 0.456831 0.467712
O O11 0.635786 0.530157 0.322245
O O12 0.391336 0.449456 0.262714
O O13 0.500935 0.248125 0.575173
O O14 0.316385 0.420260 0.628167
#
# Coordination Sequence:
#
# PCOD8168825 Si02
#       7
#     4   4   4   4   4   4   4
#     4  11  23  43  63  94 132 158 213 269 307 369
#     4   9  20  41  60  89 121 170 201 255 314 371
#     4  11  24  40  66  95 125 166 213 259 314 376
#     4  10  23  38  63  91 124 163 203 261 312 374
#     4  10  21  40  67  87 127 166 209 251 323 380
#     4  11  24  41  68  93 127 169 209 259 319 374
#     4  10  21  41  63  89 126 164 206 256 315 374
#
# _framework density 20.629657999999999
#
# number of rings (size 3 to 8) (size 9 to 14) (size 15 to 20)
#    0.000    1.714    4.286    0.000    4.000    4.571 
#    0.000    0.000    3.143    0.000    0.000    0.000 
#    0.000    0.000    0.000    0.000    0.000    0.000 
#
# Total GULP energy -346937.184864 kJ/mol
# GULP energy per Si atom -12390.613745 kJ/mol
# Density = 2.058270 g / cm^3
# Si number density = 20.629658 Si / 1000 Ang^3
#
#
#
# Elastic Constant Matrix: (Units=GPa)
#
#
# Indices 1 2 3 4 5 6 
#
# 1 71.3092 12.4836 4.4432 0.0000 0.0000 0.0000
# 2 12.4836 70.0965 18.2493 0.0000 0.0000 0.0000
# 3 4.4432 18.2493 72.1030 0.0000 0.0000 0.0000
# 4 0.0000 0.0000 0.0000 22.2020 0.0000 0.0000
# 5 0.0000 0.0000 0.0000 0.0000 18.8008 0.0000
# 6 0.0000 0.0000 0.0000 0.0000 0.0000 26.8329
#
#
#
# Elastic Compliance Matrix: (Units=1/GPa)
#
#
# Indices 1 2 3 4 5 6 
#
# 1 0.014479 -0.002512 -0.000256 0.000000 0.000000 0.000000
# 2 -0.002512 0.015708 -0.003821 0.000000 0.000000 0.000000
# 3 -0.000256 -0.003821 0.014852 0.000000 0.000000 0.000000
# 4 0.000000 0.000000 0.000000 0.045041 0.000000 0.000000
# 5 0.000000 0.000000 0.000000 0.000000 0.053189 0.000000
# 6 0.000000 0.000000 0.000000 0.000000 0.000000 0.037268
#
#
# Mechanical properties :
#
#
# Convention : Reuss Voigt Hill
#
# Bulk Modulus (GPa) = 31.38668 31.54011 31.46339
# Shear Modulus (GPa) = 24.46952 25.45598 24.96275
#
# Velocity S-wave (km/s) = 3.44776 3.51657 3.48234
# Velocity P-wave (km/s) = 5.57645 5.64006 5.60835
#
# Compressibility (1/GPa) = 0.03186065
#
# Stress axis : x y z
#
# Youngs Moduli (GPa) = 69.06478 63.66120 67.33122
#
# Poissons Ratio (x) = 0.15991 0.01727
# Poissons Ratio (y) = 0.17348 0.25727
# Poissons Ratio (z) = 0.01772 0.24325
#
# Static dielectric constant tensor:
#      x y z
#    x 3.668210 0.000000 0.000000 
#    y 0.000000 3.821170 0.000000 
#    z 0.000000 0.000000 3.832510 
# 
# 
# High freq. dielectric constant tensor:
#      x y z
#    x 1.805870 0.000000 0.000000 
#    y 0.000000 1.806710 0.000000 
#    z 0.000000 0.000000 1.803800 
# 
# From -- ./inp_files/3173.got.cif
#   From: 2010.03.12/outbox.cif.g09.slc.cpg/sg29_2_cif.got.tgz:3173.got - 2010.04.14 03:43:10.
