data_PCOD8168380
_publ_section_title
;
Structure prediction by ZEFSAII (Michael W. Deem and Ramdas Pophale) SiO2 
 PCOD8168380
Probable space group: P M A 2
;
_chemical_formula_sum "Si O2"
_cell_formula_units_Z 32
_cell_length_a 8.638858
_cell_length_b 9.187978
_cell_length_c 20.459962
_cell_angle_alpha 90.000000
_cell_angle_beta 90.000000
_cell_angle_gamma 90.000000
_cell_volume 1623.981602
_symmetry_space_group_name_H-M "P M A 2"
_symmetry_group_IT_number 28
_symmetry_cell_setting 'orthorhombic'
loop_
_space_group_symop_operation_xyz
x,y,z
-x,-y,z
1/2-x,y,z
1/2+x,-y,z
loop_
_atom_site_type_symbol
_atom_site_label
_atom_site_fract_x
_atom_site_fract_y
_atom_site_fract_z
Si Si1 0.933677 0.839552 0.159250
Si Si2 0.067193 0.659852 0.276101
Si Si3 0.566070 0.339630 0.039956
Si Si4 0.567710 0.159344 0.914109
Si Si5 0.430740 0.848148 0.396635
Si Si6 0.433965 0.660553 0.789505
Si Si7 0.066763 0.340504 0.656965
Si Si8 0.566683 0.153881 0.543647
O O1 0.750000 0.847414 0.158337
O O2 0.990499 0.774068 0.227385
O O3 0.992951 0.735235 0.102671
O O4 0.000000 0.000000 0.148994
O O5 0.250000 0.655863 0.264093
O O6 0.023844 0.715905 0.348783
O O7 0.000000 0.500000 0.265467
O O8 0.500000 0.500000 0.033212
O O9 0.750000 0.344707 0.047595
O O10 0.511770 0.251079 0.976416
O O11 0.750000 0.146529 0.913412
O O12 0.508369 0.238916 0.848856
O O13 0.500000 0.000000 0.918740
O O14 0.250000 0.873630 0.397352
O O15 0.488537 0.809498 0.469745
O O16 0.500000 0.000000 0.371262
O O17 0.500000 0.500000 0.801222
O O18 0.250000 0.651353 0.784959
O O19 0.501466 0.734365 0.723151
O O20 0.250000 0.339950 0.658213
O O21 0.000000 0.500000 0.657806
O O22 0.007228 0.270618 0.590847
O O23 0.750000 0.154888 0.550751
O O24 0.500000 0.000000 0.565881
#
# Coordination Sequence:
#
# PCOD8168380 Si02
#       8
#     4   4   4   4   4   4   4   4
#     4  12  25  42  63  89 119 155 194 238 286 340
#     4  11  23  40  60  87 119 154 193 238 287 340
#     4  11  23  41  63  90 120 155 194 237 286 340
#     4  10  23  39  59  86 117 150 190 235 285 340
#     4   9  20  37  59  84 113 148 190 235 286 342
#     4  10  20  37  58  83 112 147 189 236 285 342
#     4  11  22  37  57  83 113 151 192 237 288 343
#     4  10  20  37  58  84 115 150 190 236 286 343
#
# _framework density 19.704657999999998
#
# number of rings (size 3 to 8) (size 9 to 14) (size 15 to 20)
#    0.000    1.500    0.000    6.000    0.000    6.500 
#    0.000    2.500    0.000    0.000    0.000    0.000 
#    0.000    0.000    0.000    0.000    0.000    0.000 
#
# Total GULP energy -396879.889822 kJ/mol
# GULP energy per Si atom -12402.496557 kJ/mol
# Density = 1.965981 g / cm^3
# Si number density = 19.704658 Si / 1000 Ang^3
#
#
#
# Elastic Constant Matrix: (Units=GPa)
#
#
# Indices 1 2 3 4 5 6 
#
# 1 105.7324 37.8925 46.1676 0.0000 0.0000 0.0000
# 2 37.8925 106.1325 52.6531 0.0000 0.0000 0.0000
# 3 46.1676 52.6531 125.0595 0.0000 0.0000 0.0000
# 4 0.0000 0.0000 0.0000 39.0977 0.0000 0.0000
# 5 0.0000 0.0000 0.0000 0.0000 -1.6461 0.0000
# 6 0.0000 0.0000 0.0000 0.0000 0.0000 36.7302
#
#
#
# Elastic Compliance Matrix: (Units=1/GPa)
#
#
# Indices 1 2 3 4 5 6 
#
# 1 0.011816 -0.002597 -0.003269 0.000000 0.000000 0.000000
# 2 -0.002597 0.012481 -0.004296 0.000000 0.000000 0.000000
# 3 -0.003269 -0.004296 0.011012 0.000000 0.000000 0.000000
# 4 0.000000 0.000000 0.000000 0.025577 0.000000 0.000000
# 5 0.000000 0.000000 0.000000 0.000000 -0.607480 0.000000
# 6 0.000000 0.000000 0.000000 0.000000 0.000000 0.027226
#
#
# Mechanical properties :
#
#
# Convention : Reuss Voigt Hill
#
# Bulk Modulus (GPa) = 66.73378 67.81674 67.27526
# Shear Modulus (GPa) = -10.12039 28.18377 9.03169
#
# Velocity S-wave (km/s) = -2.26874 3.78605 2.14324
# Velocity P-wave (km/s) = 5.20362 7.32144 6.35142
#
# Compressibility (1/GPa) = 0.01498491
#
# Stress axis : x y z
#
# Youngs Moduli (GPa) = 84.63267 80.12408 90.81405
#
# Poissons Ratio (x) = 0.20809 0.29683
# Poissons Ratio (y) = 0.21979 0.39013
# Poissons Ratio (z) = 0.27663 0.34421
#
# Static dielectric constant tensor:
#      x y z
#    x 3.725470 0.000000 0.000000 
#    y 0.000000 3.597970 0.000000 
#    z 0.000000 0.000000 4.129730 
# 
# 
# High freq. dielectric constant tensor:
#      x y z
#    x 1.779110 0.000000 0.000000 
#    y 0.000000 1.768930 0.000000 
#    z 0.000000 0.000000 1.788580 
# 
# From -- ./inp_files/7076.got.cif
#   From: 2010.03.12/outbox.cif.g09.slc.cpg/sg28_4_cif.got.tgz:7076.got - 2010.04.14 03:39:34.
