data_PCOD8168396
_publ_section_title
;
Structure prediction by ZEFSAII (Michael W. Deem and Ramdas Pophale) SiO2 
 PCOD8168396
Probable space group: P M A 2
;
_chemical_formula_sum "Si O2"
_cell_formula_units_Z 32
_cell_length_a 8.414338
_cell_length_b 15.380709
_cell_length_c 11.852173
_cell_angle_alpha 90.000000
_cell_angle_beta 90.000000
_cell_angle_gamma 90.000000
_cell_volume 1533.890264
_symmetry_space_group_name_H-M "P M A 2"
_symmetry_group_IT_number 28
_symmetry_cell_setting 'orthorhombic'
loop_
_space_group_symop_operation_xyz
x,y,z
-x,-y,z
1/2-x,y,z
1/2+x,-y,z
loop_
_atom_site_type_symbol
_atom_site_label
_atom_site_fract_x
_atom_site_fract_y
_atom_site_fract_z
Si Si1 0.431709 0.841364 0.519880
Si Si2 0.935388 0.910646 0.295537
Si Si3 0.935447 0.752368 0.907018
Si Si4 0.560922 0.593450 0.279753
Si Si5 0.065330 0.907107 0.764524
Si Si6 0.933954 0.243754 0.151374
Si Si7 0.938321 0.592423 0.756360
Si Si8 0.434618 0.345729 0.519283
O O1 0.250000 0.810095 0.513327
O O2 0.473241 0.900345 0.413385
O O3 0.463830 0.897391 0.631270
O O4 0.541949 0.757107 0.519242
O O5 0.750000 0.917079 0.319619
O O6 0.966249 0.831062 0.212132
O O7 0.000000 0.000000 0.239762
O O8 0.750000 0.745510 0.937846
O O9 0.996916 0.666379 0.842310
O O10 0.963488 0.834778 0.827966
O O11 0.038846 0.762454 0.018598
O O12 0.500000 0.500000 0.239448
O O13 0.750000 0.598817 0.275499
O O14 0.490132 0.662586 0.193357
O O15 0.492500 0.612446 0.405629
O O16 0.250000 0.897945 0.796525
O O17 0.000000 0.000000 0.803987
O O18 0.750000 0.229762 0.179721
O O19 0.750000 0.593287 0.750739
O O20 0.011722 0.611839 0.631689
O O21 0.000000 0.500000 0.800711
O O22 0.250000 0.365735 0.520174
#
# Coordination Sequence:
#
# PCOD8168396 Si02
#       8
#     4   4   4   4   4   4   4   4
#     4  11  22  37  63  97 131 169 209 254 314 377
#     4  12  25  43  67  96 130 167 210 259 315 381
#     4  11  24  44  67  91 124 167 214 264 317 374
#     4  11  23  40  65  96 130 170 213 260 316 379
#     4  11  24  41  64  96 129 167 210 258 313 375
#     4  12  26  45  67  93 126 165 214 268 320 379
#     4  10  22  39  63  94 127 166 208 255 312 370
#     4  10  20  37  62  93 129 169 206 254 315 375
#
# _framework density 20.861989000000001
#
# number of rings (size 3 to 8) (size 9 to 14) (size 15 to 20)
#    0.000    1.000    2.500    4.500    0.000    5.500 
#    0.000    3.750    0.000    0.000    0.000    0.000 
#    0.000    0.000    0.000    0.000    0.000    0.000 
#
# Total GULP energy -396999.477093 kJ/mol
# GULP energy per Si atom -12406.233659 kJ/mol
# Density = 2.081451 g / cm^3
# Si number density = 20.861989 Si / 1000 Ang^3
#
#
#
# Elastic Constant Matrix: (Units=GPa)
#
#
# Indices 1 2 3 4 5 6 
#
# 1 46.3605 10.7148 23.8549 0.0000 0.0000 0.0000
# 2 10.7148 148.1539 37.7253 0.0000 0.0000 0.0000
# 3 23.8549 37.7253 107.5578 0.0000 0.0000 0.0000
# 4 0.0000 0.0000 0.0000 15.3635 0.0000 0.0000
# 5 0.0000 0.0000 0.0000 0.0000 26.8951 0.0000
# 6 0.0000 0.0000 0.0000 0.0000 0.0000 34.0944
#
#
#
# Elastic Compliance Matrix: (Units=1/GPa)
#
#
# Indices 1 2 3 4 5 6 
#
# 1 0.024373 -0.000424 -0.005257 0.000000 0.000000 0.000000
# 2 -0.000424 0.007419 -0.002508 0.000000 0.000000 0.000000
# 3 -0.005257 -0.002508 0.011343 0.000000 0.000000 0.000000
# 4 0.000000 0.000000 0.000000 0.065089 0.000000 0.000000
# 5 0.000000 0.000000 0.000000 0.000000 0.037181 0.000000
# 6 0.000000 0.000000 0.000000 0.000000 0.000000 0.029330
#
#
# Mechanical properties :
#
#
# Convention : Reuss Voigt Hill
#
# Bulk Modulus (GPa) = 37.37368 49.62914 43.50141
# Shear Modulus (GPa) = 24.99585 30.58909 27.79247
#
# Velocity S-wave (km/s) = 3.46519 3.83333 3.65390
# Velocity P-wave (km/s) = 5.82784 6.59041 6.22082
#
# Compressibility (1/GPa) = 0.02675680
#
# Stress axis : x y z
#
# Youngs Moduli (GPa) = 41.02896 134.78773 88.16057
#
# Poissons Ratio (x) = 0.05717 0.46345
# Poissons Ratio (y) = 0.01740 0.22112
# Poissons Ratio (z) = 0.21568 0.33807
#
# Static dielectric constant tensor:
#      x y z
#    x 3.684870 0.000000 0.000000 
#    y 0.000000 3.881570 0.000000 
#    z 0.000000 0.000000 3.853970 
# 
# 
# High freq. dielectric constant tensor:
#      x y z
#    x 1.816910 0.000000 0.000000 
#    y 0.000000 1.828600 0.000000 
#    z 0.000000 0.000000 1.815910 
# 
# From -- ./inp_files/5014.got.cif
#   From: 2010.03.12/outbox.cif.g09.slc.cpg/sg28_3_cif.got.tgz:5014.got - 2010.04.14 03:39:34.
