data_PCOD8168907
_publ_section_title
;
Structure prediction by ZEFSAII (Michael W. Deem and Ramdas Pophale) SiO2 
 PCOD8168907
Probable space group: P C A 21
;
_chemical_formula_sum "Si O2"
_cell_formula_units_Z 24
_cell_length_a 8.580736
_cell_length_b 14.009366
_cell_length_c 8.259830
_cell_angle_alpha 90.000000
_cell_angle_beta 90.000000
_cell_angle_gamma 90.000000
_cell_volume 992.919708
_symmetry_space_group_name_H-M "P C A 21"
_symmetry_group_IT_number 29
_symmetry_cell_setting 'orthorhombic'
loop_
_space_group_symop_operation_xyz
x,y,z
-x,-y,1/2+z
1/2-x,y,1/2+z
1/2+x,-y,z
loop_
_atom_site_type_symbol
_atom_site_label
_atom_site_fract_x
_atom_site_fract_y
_atom_site_fract_z
Si Si1 0.181784 0.240027 0.729230
Si Si2 0.163207 0.561654 0.449735
Si Si3 0.719998 0.968120 0.225666
Si Si4 0.530536 0.727157 0.039242
Si Si5 0.020310 0.602175 0.096644
Si Si6 0.936383 0.070791 0.019588
O O1 0.165820 0.124740 0.748994
O O2 0.365250 0.256713 0.697331
O O3 0.052116 0.289822 0.610292
O O4 0.157251 0.292261 0.899257
O O5 0.098462 0.568365 0.266674
O O6 0.347030 0.587837 0.458735
O O7 0.079542 0.638160 0.566128
O O8 0.126532 0.461478 0.537968
O O9 0.615288 0.950462 0.065748
O O10 0.833177 0.054826 0.180519
O O11 0.616497 0.998252 0.379012
O O12 0.423512 0.816815 0.981717
#
# Coordination Sequence:
#
# PCOD8168907 Si02
#       6
#     4   4   4   4   4   4
#     4  10  22  41  63  89 126 167 216 265 326 387
#     4  11  24  42  66  96 129 169 218 270 329 391
#     4  11  22  41  64  93 128 171 215 268 324 389
#     4  10  23  40  62  92 123 166 214 267 324 387
#     4  11  24  43  66  95 130 171 218 273 330 392
#     4  11  23  39  63  91 126 166 213 263 323 386
#
# _framework density 24.171139
#
# number of rings (size 3 to 8) (size 9 to 14) (size 15 to 20)
#    0.000    1.333    0.000    6.000    0.000    9.333 
#    0.000    1.667    0.000    0.000    0.000    0.000 
#    0.000    0.000    0.000    0.000    0.000    0.000 
#
# Total GULP energy -297404.403603 kJ/mol
# GULP energy per Si atom -12391.850150 kJ/mol
# Density = 2.411612 g / cm^3
# Si number density = 24.171139 Si / 1000 Ang^3
#
#
#
# Elastic Constant Matrix: (Units=GPa)
#
#
# Indices 1 2 3 4 5 6 
#
# 1 85.8888 42.0349 14.1907 0.0000 0.0000 0.0000
# 2 42.0349 111.2395 30.0326 0.0000 0.0000 0.0000
# 3 14.1907 30.0326 53.4151 0.0000 0.0000 0.0000
# 4 0.0000 0.0000 0.0000 27.2959 0.0000 0.0000
# 5 0.0000 0.0000 0.0000 0.0000 35.9993 0.0000
# 6 0.0000 0.0000 0.0000 0.0000 0.0000 50.2153
#
#
#
# Elastic Compliance Matrix: (Units=1/GPa)
#
#
# Indices 1 2 3 4 5 6 
#
# 1 0.014321 -0.005169 -0.000898 0.000000 0.000000 0.000000
# 2 -0.005169 0.012464 -0.005635 0.000000 0.000000 0.000000
# 3 -0.000898 -0.005635 0.022128 0.000000 0.000000 0.000000
# 4 0.000000 0.000000 0.000000 0.036636 0.000000 0.000000
# 5 0.000000 0.000000 0.000000 0.000000 0.027778 0.000000
# 6 0.000000 0.000000 0.000000 0.000000 0.000000 0.019914
#
#
# Mechanical properties :
#
#
# Convention : Reuss Voigt Hill
#
# Bulk Modulus (GPa) = 39.20170 47.00664 43.10417
# Shear Modulus (GPa) = 30.27567 33.65441 31.96504
#
# Velocity S-wave (km/s) = 3.54298 3.73545 3.64049
# Velocity P-wave (km/s) = 5.74374 6.17207 5.96176
#
# Compressibility (1/GPa) = 0.02550910
#
# Stress axis : x y z
#
# Youngs Moduli (GPa) = 69.82645 80.22994 45.19140
#
# Poissons Ratio (x) = 0.41472 0.04060
# Poissons Ratio (y) = 0.36094 0.25464
# Poissons Ratio (z) = 0.06273 0.45207
#
# Static dielectric constant tensor:
#      x y z
#    x 4.372610 0.000000 0.000000 
#    y 0.000000 4.371180 0.000000 
#    z 0.000000 0.000000 4.242830 
# 
# 
# High freq. dielectric constant tensor:
#      x y z
#    x 1.962130 0.000000 0.000000 
#    y 0.000000 1.953670 0.000000 
#    z 0.000000 0.000000 1.957720 
# 
# From -- ./inp_files/1182.got.cif
#   From: 2010.03.12/outbox.cif.g09.slc.cpg/sg29_1_cif.got.tgz:1182.got - 2010.04.14 03:43:10.
