data_PCOD8168073
_publ_section_title
;
Structure prediction by ZEFSAII (Michael W. Deem and Ramdas Pophale) SiO2 
 PCOD8168073
Probable space group: P M A 2
;
_chemical_formula_sum "Si O2"
_cell_formula_units_Z 24
_cell_length_a 8.684590
_cell_length_b 13.116612
_cell_length_c 11.524986
_cell_angle_alpha 90.000000
_cell_angle_beta 90.000000
_cell_angle_gamma 90.000000
_cell_volume 1312.838785
_symmetry_space_group_name_H-M "P M A 2"
_symmetry_group_IT_number 28
_symmetry_cell_setting 'orthorhombic'
loop_
_space_group_symop_operation_xyz
x,y,z
-x,-y,z
1/2-x,y,z
1/2+x,-y,z
loop_
_atom_site_type_symbol
_atom_site_label
_atom_site_fract_x
_atom_site_fract_y
_atom_site_fract_z
Si Si1 0.071360 0.778986 0.777470
Si Si2 0.932696 0.108124 0.230230
Si Si3 0.432388 0.107281 0.978247
Si Si4 0.917555 0.906250 0.597890
Si Si5 0.432362 0.609578 0.594211
Si Si6 0.080180 0.259722 0.406149
O O1 0.250000 0.772145 0.808313
O O2 0.016035 0.680497 0.703211
O O3 0.976821 0.796453 0.896342
O O4 0.035126 0.877329 0.699797
O O5 0.750000 0.099137 0.231175
O O6 0.981769 0.206377 0.305563
O O7 0.000000 0.000000 0.276789
O O8 0.994050 0.130440 0.102392
O O9 0.250000 0.098532 0.990349
O O10 0.500000 0.000000 0.929993
O O11 0.750000 0.934453 0.650454
O O12 0.893839 0.819681 0.506516
O O13 0.000000 0.000000 0.533049
O O14 0.500000 0.500000 0.623156
O O15 0.250000 0.606521 0.585793
O O16 0.493387 0.645785 0.467591
O O17 0.250000 0.293781 0.359715
#
# Coordination Sequence:
#
# PCOD8168073 Si02
#       6
#     4   4   4   4   4   4
#     4  10  20  34  51  73 101 133 170 211 257 308
#     4  11  21  34  52  76 108 144 181 216 255 304
#     4  11  21  34  52  75 106 143 180 215 254 302
#     4  10  19  29  44  68  99 133 166 204 249 301
#     4  10  21  37  58  81 105 134 170 216 268 319
#     4  10  20  34  52  75 103 135 173 214 259 310
#
# _framework density 18.280995000000001
#
# number of rings (size 3 to 8) (size 9 to 14) (size 15 to 20)
#    0.000    1.667    0.000    7.000    0.000    5.333 
#    0.000    0.000    0.000    1.000    0.000    4.667 
#    0.000    0.000    0.000    0.000    0.000    0.000 
#
# Total GULP energy -297442.720048 kJ/mol
# GULP energy per Si atom -12393.446669 kJ/mol
# Density = 1.823939 g / cm^3
# Si number density = 18.280995 Si / 1000 Ang^3
#
#
#
# Elastic Constant Matrix: (Units=GPa)
#
#
# Indices 1 2 3 4 5 6 
#
# 1 136.0226 51.1598 44.6562 0.0000 0.0000 0.0000
# 2 51.1598 87.8420 41.7868 0.0000 0.0000 0.0000
# 3 44.6562 41.7868 88.9772 0.0000 0.0000 0.0000
# 4 0.0000 0.0000 0.0000 27.3148 0.0000 0.0000
# 5 0.0000 0.0000 0.0000 0.0000 32.3144 0.0000
# 6 0.0000 0.0000 0.0000 0.0000 0.0000 28.1637
#
#
#
# Elastic Compliance Matrix: (Units=1/GPa)
#
#
# Indices 1 2 3 4 5 6 
#
# 1 0.009975 -0.004414 -0.002933 0.000000 0.000000 0.000000
# 2 -0.004414 0.016612 -0.005586 0.000000 0.000000 0.000000
# 3 -0.002933 -0.005586 0.015335 0.000000 0.000000 0.000000
# 4 0.000000 0.000000 0.000000 0.036610 0.000000 0.000000
# 5 0.000000 0.000000 0.000000 0.000000 0.030946 0.000000
# 6 0.000000 0.000000 0.000000 0.000000 0.000000 0.035507
#
#
# Mechanical properties :
#
#
# Convention : Reuss Voigt Hill
#
# Bulk Modulus (GPa) = 62.28833 65.33862 63.81348
# Shear Modulus (GPa) = 28.37629 29.24117 28.80873
#
# Velocity S-wave (km/s) = 3.94411 4.00376 3.97405
# Velocity P-wave (km/s) = 7.40864 7.56256 7.48600
#
# Compressibility (1/GPa) = 0.01605437
#
# Stress axis : x y z
#
# Youngs Moduli (GPa) = 100.25168 60.19626 65.21239
#
# Poissons Ratio (x) = 0.26571 0.19128
# Poissons Ratio (y) = 0.44252 0.36430
# Poissons Ratio (z) = 0.29406 0.33628
#
# Static dielectric constant tensor:
#      x y z
#    x 3.677050 0.000000 0.000000 
#    y 0.000000 3.613550 0.000000 
#    z 0.000000 0.000000 3.420920 
# 
# 
# High freq. dielectric constant tensor:
#      x y z
#    x 1.731630 0.000000 0.000000 
#    y 0.000000 1.679220 0.000000 
#    z 0.000000 0.000000 1.699740 
# 
# From -- ./inp_files/4694.got.cif
#   From: 2010.03.12/outbox.cif.g09.slc.cpg/sg28_3_cif.got.tgz:4694.got - 2010.04.14 03:39:34.
