data_PCOD8168616
_publ_section_title
;
Structure prediction by ZEFSAII (Michael W. Deem and Ramdas Pophale) SiO2 
 PCOD8168616
Probable space group: P C A 21
;
_chemical_formula_sum "Si O2"
_cell_formula_units_Z 32
_cell_length_a 8.585986
_cell_length_b 18.866685
_cell_length_c 10.657290
_cell_angle_alpha 90.000000
_cell_angle_beta 90.000000
_cell_angle_gamma 90.000000
_cell_volume 1726.364744
_symmetry_space_group_name_H-M "P C A 21"
_symmetry_group_IT_number 29
_symmetry_cell_setting 'orthorhombic'
loop_
_space_group_symop_operation_xyz
x,y,z
-x,-y,1/2+z
1/2-x,y,1/2+z
1/2+x,-y,z
loop_
_atom_site_type_symbol
_atom_site_label
_atom_site_fract_x
_atom_site_fract_y
_atom_site_fract_z
Si Si1 0.233752 0.295040 0.531990
Si Si2 0.966264 0.591767 0.145817
Si Si3 0.450868 0.093386 0.386468
Si Si4 0.266248 0.204960 0.783496
Si Si5 0.033736 0.091767 0.169669
Si Si6 0.241943 0.525204 0.538540
Si Si7 0.549132 0.593386 0.929018
Si Si8 0.241943 0.974796 0.276945
O O1 0.087688 0.347953 0.548338
O O2 0.250000 0.250000 0.657743
O O3 0.198710 0.250000 0.407743
O O4 0.390333 0.341915 0.515125
O O5 0.862709 0.521238 0.131777
O O6 0.146403 0.574549 0.121637
O O7 0.941501 0.619825 0.286273
O O8 0.390333 0.158085 0.300360
O O9 0.441501 0.119825 0.529212
O O10 0.629920 0.076346 0.356385
O O11 0.344346 0.023550 0.369553
O O12 0.412312 0.152047 0.767148
O O13 0.853597 0.074549 0.193848
O O14 0.137291 0.021238 0.183708
O O15 0.344346 0.476450 0.445933
O O16 0.129920 0.576346 0.459101
#
# Coordination Sequence:
#
# PCOD8168616 Si02
#       8
#     4   4   4   4   4   4   4   4
#     4  11  22  40  60  80 111 156 195 230 281 338
#     4  10  19  36  59  83 115 146 187 237 280 338
#     4  10  19  36  59  83 117 145 186 239 277 339
#     4  11  22  40  60  80 111 156 195 230 281 338
#     4  10  19  36  59  83 115 146 187 237 280 338
#     4   9  20  34  56  91 110 146 182 232 294 333
#     4  10  19  36  59  83 117 145 186 239 277 339
#     4   9  20  34  56  91 110 146 182 232 294 333
#
# _framework density 18.536061
#
# number of rings (size 3 to 8) (size 9 to 14) (size 15 to 20)
#    0.000    2.000    2.500    1.500    0.000    0.000 
#    9.000    2.500    0.000    0.000    0.000    0.000 
#    0.000    0.000    0.000    0.000    0.000    0.000 
#
# Total GULP energy -396827.794524 kJ/mol
# GULP energy per Si atom -12400.868579 kJ/mol
# Density = 1.849387 g / cm^3
# Si number density = 18.536061 Si / 1000 Ang^3
#
#
#
# Elastic Constant Matrix: (Units=GPa)
#
#
# Indices 1 2 3 4 5 6 
#
# 1 126.5425 47.5133 44.2333 0.0000 0.0000 0.0000
# 2 47.5133 95.2290 51.2844 0.0000 0.0000 0.0000
# 3 44.2333 51.2844 128.4309 0.0000 0.0000 0.0000
# 4 0.0000 0.0000 0.0000 37.0203 0.0000 0.0000
# 5 0.0000 0.0000 0.0000 0.0000 22.2864 0.0000
# 6 0.0000 0.0000 0.0000 0.0000 0.0000 15.9022
#
#
#
# Elastic Compliance Matrix: (Units=1/GPa)
#
#
# Indices 1 2 3 4 5 6 
#
# 1 0.010062 -0.004018 -0.001861 0.000000 0.000000 0.000000
# 2 -0.004018 0.014982 -0.004599 0.000000 0.000000 0.000000
# 3 -0.001861 -0.004599 0.010264 0.000000 0.000000 0.000000
# 4 0.000000 0.000000 0.000000 0.027012 0.000000 0.000000
# 5 0.000000 0.000000 0.000000 0.000000 0.044871 0.000000
# 6 0.000000 0.000000 0.000000 0.000000 0.000000 0.062884
#
#
# Mechanical properties :
#
#
# Convention : Reuss Voigt Hill
#
# Bulk Modulus (GPa) = 69.67601 70.69605 70.18603
# Shear Modulus (GPa) = 25.53444 28.85321 27.19383
#
# Velocity S-wave (km/s) = 3.71557 3.94966 3.83440
# Velocity P-wave (km/s) = 7.48855 7.68259 7.58619
#
# Compressibility (1/GPa) = 0.01435214
#
# Stress axis : x y z
#
# Youngs Moduli (GPa) = 99.38781 66.74513 97.43157
#
# Poissons Ratio (x) = 0.26818 0.18131
# Poissons Ratio (y) = 0.39933 0.44807
# Poissons Ratio (z) = 0.18495 0.30695
#
# Static dielectric constant tensor:
#      x y z
#    x 3.424810 0.000000 0.000000 
#    y 0.000000 3.410580 0.000000 
#    z 0.000000 0.000000 3.347080 
# 
# 
# High freq. dielectric constant tensor:
#      x y z
#    x 1.715140 0.000000 0.000000 
#    y 0.000000 1.712560 0.000000 
#    z 0.000000 0.000000 1.720000 
# 
# From -- ./inp_files/1257.got.cif
#   From: 2010.03.12/outbox.cif.g09.slc.cpg/sg29_1_cif.got.tgz:1257.got - 2010.04.14 03:43:10.
