data_PCOD8168696
_publ_section_title
;
Structure prediction by ZEFSAII (Michael W. Deem and Ramdas Pophale) SiO2 
 PCOD8168696
Probable space group: P C A 21
;
_chemical_formula_sum "Si O2"
_cell_formula_units_Z 24
_cell_length_a 8.691233
_cell_length_b 9.339903
_cell_length_c 14.967400
_cell_angle_alpha 90.000000
_cell_angle_beta 90.000000
_cell_angle_gamma 90.000000
_cell_volume 1214.982784
_symmetry_space_group_name_H-M "P C A 21"
_symmetry_group_IT_number 29
_symmetry_cell_setting 'orthorhombic'
loop_
_space_group_symop_operation_xyz
x,y,z
-x,-y,1/2+z
1/2-x,y,1/2+z
1/2+x,-y,z
loop_
_atom_site_type_symbol
_atom_site_label
_atom_site_fract_x
_atom_site_fract_y
_atom_site_fract_z
Si Si1 0.336713 0.385336 0.614920
Si Si2 0.159831 0.882780 0.261422
Si Si3 0.143293 0.895598 0.465494
Si Si4 0.303871 0.181372 0.256398
Si Si5 0.296430 0.182666 0.459685
Si Si6 0.692420 0.313046 0.619821
O O1 0.244199 0.314102 0.695889
O O2 0.274760 0.320390 0.521883
O O3 0.517520 0.363544 0.627020
O O4 0.305764 0.553162 0.612217
O O5 0.201699 0.860604 0.365568
O O6 0.267002 0.772480 0.209227
O O7 0.981673 0.856490 0.240474
O O8 0.200420 0.044094 0.231363
O O9 0.223777 0.785698 0.533401
O O10 0.962002 0.886485 0.473173
O O11 0.178918 0.059662 0.490566
O O12 0.271593 0.230641 0.357786
#
# Coordination Sequence:
#
# PCOD8168696 Si02
#       6
#     4   4   4   4   4   4
#     4  11  23  38  55  80 112 148 184 224 273 326
#     4  10  20  37  59  84 111 143 182 226 271 322
#     4   9  20  37  58  82 109 141 181 224 271 322
#     4  10  20  37  59  84 111 143 182 226 271 322
#     4   9  20  37  58  82 109 141 181 224 271 322
#     4  11  23  38  55  80 112 148 184 224 273 326
#
# _framework density 19.753366
#
# number of rings (size 3 to 8) (size 9 to 14) (size 15 to 20)
#    0.000    2.000    0.000    3.000    0.000    8.000 
#    0.000    3.333    0.000    0.000    0.000    0.000 
#    0.000    0.000    0.000    0.000    0.000    0.000 
#
# Total GULP energy -297713.579492 kJ/mol
# GULP energy per Si atom -12404.732479 kJ/mol
# Density = 1.970841 g / cm^3
# Si number density = 19.753366 Si / 1000 Ang^3
#
#
#
# Elastic Constant Matrix: (Units=GPa)
#
#
# Indices 1 2 3 4 5 6 
#
# 1 40.5078 -0.2425 22.5728 0.0000 0.0000 0.0000
# 2 -0.2425 51.7713 30.4434 0.0000 0.0000 0.0000
# 3 22.5728 30.4434 85.3675 0.0000 0.0000 0.0000
# 4 0.0000 0.0000 0.0000 20.5632 0.0000 0.0000
# 5 0.0000 0.0000 0.0000 0.0000 29.1577 0.0000
# 6 0.0000 0.0000 0.0000 0.0000 0.0000 36.4222
#
#
#
# Elastic Compliance Matrix: (Units=1/GPa)
#
#
# Indices 1 2 3 4 5 6 
#
# 1 0.030434 0.006168 -0.010247 0.000000 0.000000 0.000000
# 2 0.006168 0.025691 -0.010793 0.000000 0.000000 0.000000
# 3 -0.010247 -0.010793 0.018272 0.000000 0.000000 0.000000
# 4 0.000000 0.000000 0.000000 0.048631 0.000000 0.000000
# 5 0.000000 0.000000 0.000000 0.000000 0.034296 0.000000
# 6 0.000000 0.000000 0.000000 0.000000 0.000000 0.027456
#
#
# Mechanical properties :
#
#
# Convention : Reuss Voigt Hill
#
# Bulk Modulus (GPa) = 22.39442 31.46600 26.93021
# Shear Modulus (GPa) = 21.79524 25.55348 23.67436
#
# Velocity S-wave (km/s) = 3.32530 3.60060 3.46569
# Velocity P-wave (km/s) = 5.10932 5.76627 5.44770
#
# Compressibility (1/GPa) = 0.04465399
#
# Stress axis : x y z
#
# Youngs Moduli (GPa) = 32.85840 38.92381 54.72717
#
# Poissons Ratio (x) = -0.24009 0.56078
# Poissons Ratio (y) = -0.20267 0.59066
# Poissons Ratio (z) = 0.33670 0.42010
#
# Static dielectric constant tensor:
#      x y z
#    x 3.576660 0.000000 0.000000 
#    y 0.000000 3.560750 0.000000 
#    z 0.000000 0.000000 3.848030 
# 
# 
# High freq. dielectric constant tensor:
#      x y z
#    x 1.775430 0.000000 0.000000 
#    y 0.000000 1.763080 0.000000 
#    z 0.000000 0.000000 1.781680 
# 
# From -- ./inp_files/4180.got.cif
#   From: 2010.03.12/outbox.cif.g09.slc.cpg/sg29_3_cif.got.tgz:4180.got - 2010.04.14 03:43:10.
