data_PCOD8168494
_publ_section_title
;
Structure prediction by ZEFSAII (Michael W. Deem and Ramdas Pophale) SiO2 
 PCOD8168494
Probable space group: P M A 2
;
_chemical_formula_sum "Si O2"
_cell_formula_units_Z 24
_cell_length_a 27.939249
_cell_length_b 8.211966
_cell_length_c 5.041416
_cell_angle_alpha 90.000000
_cell_angle_beta 90.000000
_cell_angle_gamma 90.000000
_cell_volume 1156.683142
_symmetry_space_group_name_H-M "P M A 2"
_symmetry_group_IT_number 28
_symmetry_cell_setting 'orthorhombic'
loop_
_space_group_symop_operation_xyz
x,y,z
-x,-y,z
1/2-x,y,z
1/2+x,-y,z
loop_
_atom_site_type_symbol
_atom_site_label
_atom_site_fract_x
_atom_site_fract_y
_atom_site_fract_z
Si Si1 0.124020 0.018054 0.595470
Si Si2 0.806182 0.489085 0.024403
Si Si3 0.984375 0.324358 0.079322
Si Si4 0.620618 0.204781 0.094692
Si Si5 0.523819 0.836277 0.584669
Si Si6 0.194222 0.301646 0.527842
O O1 0.120893 0.870868 0.387685
O O2 0.080557 0.144528 0.564210
O O3 0.171310 0.123938 0.553600
O O4 0.123994 0.942256 0.887552
O O5 0.750000 0.446214 0.028163
O O6 0.822891 0.571986 0.751921
O O7 0.833867 0.320938 0.063417
O O8 0.819790 0.618281 0.249966
O O9 0.002975 0.195316 0.293381
O O10 0.000000 0.500000 0.186479
O O11 0.927304 0.309711 0.049622
O O12 0.009988 0.302272 0.795154
O O13 0.500000 0.000000 0.697645
O O14 0.250000 0.268656 0.556056
#
# Coordination Sequence:
#
# PCOD8168494 Si02
#       6
#     4   4   4   4   4   4
#     4  12  25  39  66  92 123 166 203 255 305 364
#     4  10  23  43  66  90 125 162 200 256 312 363
#     4  12  26  41  62  92 125 165 207 255 298 367
#     4  12  24  41  61  95 124 160 209 250 306 362
#     4  12  23  44  62  87 130 165 201 248 311 357
#     4  10  23  43  65  92 121 159 206 251 308 371
#
# _framework density 20.748982999999999
#
# number of rings (size 3 to 8) (size 9 to 14) (size 15 to 20)
#    0.000    0.667    3.333    4.000    4.667    1.333 
#    0.000    0.000    0.000    0.000    0.000    0.000 
#    0.000    0.000    0.000    0.000    0.000    0.000 
#
# Total GULP energy -297805.577912 kJ/mol
# GULP energy per Si atom -12408.565746 kJ/mol
# Density = 2.070176 g / cm^3
# Si number density = 20.748983 Si / 1000 Ang^3
#
#
#
# Elastic Constant Matrix: (Units=GPa)
#
#
# Indices 1 2 3 4 5 6 
#
# 1 92.3549 49.1261 24.9993 0.0000 0.0000 0.0000
# 2 49.1261 82.5053 7.5946 0.0000 0.0000 0.0000
# 3 24.9993 7.5946 81.4545 0.0000 0.0000 0.0000
# 4 0.0000 0.0000 0.0000 21.5965 0.0000 0.0000
# 5 0.0000 0.0000 0.0000 0.0000 23.0503 0.0000
# 6 0.0000 0.0000 0.0000 0.0000 0.0000 45.2643
#
#
#
# Elastic Compliance Matrix: (Units=1/GPa)
#
#
# Indices 1 2 3 4 5 6 
#
# 1 0.017268 -0.009879 -0.004379 0.000000 0.000000 0.000000
# 2 -0.009879 0.017877 0.001365 0.000000 0.000000 0.000000
# 3 -0.004379 0.001365 0.013493 0.000000 0.000000 0.000000
# 4 0.000000 0.000000 0.000000 0.046304 0.000000 0.000000
# 5 0.000000 0.000000 0.000000 0.000000 0.043383 0.000000
# 6 0.000000 0.000000 0.000000 0.000000 0.000000 0.022092
#
#
# Mechanical properties :
#
#
# Convention : Reuss Voigt Hill
#
# Bulk Modulus (GPa) = 43.75687 46.63941 45.19814
# Shear Modulus (GPa) = 25.79715 29.62188 27.70952
#
# Velocity S-wave (km/s) = 3.52987 3.78250 3.65836
# Velocity P-wave (km/s) = 6.14392 6.45005 6.29884
#
# Compressibility (1/GPa) = 0.02285355
#
# Stress axis : x y z
#
# Youngs Moduli (GPa) = 57.91138 55.93831 74.11057
#
# Poissons Ratio (x) = 0.55260 0.32450
# Poissons Ratio (y) = 0.57209 -0.10117
# Poissons Ratio (z) = 0.25357 -0.07636
#
# Static dielectric constant tensor:
#      x y z
#    x 3.820630 0.000000 0.000000 
#    y 0.000000 3.523860 0.000000 
#    z 0.000000 0.000000 3.901680 
# 
# 
# High freq. dielectric constant tensor:
#      x y z
#    x 1.817170 0.000000 0.000000 
#    y 0.000000 1.810660 0.000000 
#    z 0.000000 0.000000 1.830470 
# 
# From -- ./inp_files/1732.got.cif
#   From: 2010.03.12/outbox.cif.g09.slc.cpg/sg28_1_cif.got.tgz:1732.got - 2010.04.14 03:39:34.
