data_PCOD8168101
_publ_section_title
;
Structure prediction by ZEFSAII (Michael W. Deem and Ramdas Pophale) SiO2 
 PCOD8168101
Probable space group: P M A 2
;
_chemical_formula_sum "Si O2"
_cell_formula_units_Z 24
_cell_length_a 8.411985
_cell_length_b 26.735668
_cell_length_c 5.156742
_cell_angle_alpha 90.000000
_cell_angle_beta 90.000000
_cell_angle_gamma 90.000000
_cell_volume 1159.751473
_symmetry_space_group_name_H-M "P M A 2"
_symmetry_group_IT_number 28
_symmetry_cell_setting 'orthorhombic'
loop_
_space_group_symop_operation_xyz
x,y,z
-x,-y,z
1/2-x,y,z
1/2+x,-y,z
loop_
_atom_site_type_symbol
_atom_site_label
_atom_site_fract_x
_atom_site_fract_y
_atom_site_fract_z
Si Si1 0.938486 0.944212 0.747000
Si Si2 0.934499 0.394816 0.676396
Si Si3 0.439674 0.114002 0.246552
Si Si4 0.435935 0.446087 0.180636
Si Si5 0.061770 0.226091 0.221142
Si Si6 0.938630 0.713871 0.718419
O O1 0.750000 0.944863 0.746901
O O2 0.004186 0.913437 0.502045
O O3 0.005228 0.916873 0.001827
O O4 0.000000 0.000000 0.734529
O O5 0.750000 0.401251 0.613356
O O6 0.031200 0.408543 0.417537
O O7 0.974254 0.338449 0.754312
O O8 0.977970 0.429926 0.917191
O O9 0.250000 0.115620 0.242969
O O10 0.509444 0.170215 0.238368
O O11 0.500000 0.500000 0.265894
O O12 0.250000 0.447533 0.124109
O O13 0.250000 0.222716 0.237723
O O14 0.999130 0.259629 0.458097
O O15 0.006900 0.251041 0.954283
O O16 0.750000 0.704940 0.717849
#
# Coordination Sequence:
#
# PCOD8168101 Si02
#       6
#     4   4   4   4   4   4
#     4  10  19  31  49  71  99 132 171 216 269 325
#     4  12  25  42  63  91 126 164 201 242 294 355
#     4   9  17  30  49  74 100 132 173 222 270 320
#     4  12  25  44  67  93 124 160 203 250 298 351
#     4   9  17  30  52  79 105 134 179 230 277 327
#     4  10  19  33  55  82 109 142 183 232 281 332
#
# _framework density 20.694088000000001
#
# number of rings (size 3 to 8) (size 9 to 14) (size 15 to 20)
#    0.000    1.667    0.000    6.000    0.000    5.333 
#    0.000    0.000    0.000    6.000    0.000    0.000 
#    0.000    0.000    0.000    0.000    0.000    0.000 
#
# Total GULP energy -297708.656347 kJ/mol
# GULP energy per Si atom -12404.527348 kJ/mol
# Density = 2.064699 g / cm^3
# Si number density = 20.694088 Si / 1000 Ang^3
#
#
#
# Elastic Constant Matrix: (Units=GPa)
#
#
# Indices 1 2 3 4 5 6 
#
# 1 41.9149 24.7281 16.8440 0.0000 0.0000 0.0000
# 2 24.7281 125.0198 29.6031 0.0000 0.0000 0.0000
# 3 16.8440 29.6031 133.5742 0.0000 0.0000 0.0000
# 4 0.0000 0.0000 0.0000 37.4249 0.0000 0.0000
# 5 0.0000 0.0000 0.0000 0.0000 21.0088 0.0000
# 6 0.0000 0.0000 0.0000 0.0000 0.0000 27.4397
#
#
#
# Elastic Compliance Matrix: (Units=1/GPa)
#
#
# Indices 1 2 3 4 5 6 
#
# 1 0.027724 -0.004914 -0.002407 0.000000 0.000000 0.000000
# 2 -0.004914 0.009313 -0.001444 0.000000 0.000000 0.000000
# 3 -0.002407 -0.001444 0.008110 0.000000 0.000000 0.000000
# 4 0.000000 0.000000 0.000000 0.026720 0.000000 0.000000
# 5 0.000000 0.000000 0.000000 0.000000 0.047599 0.000000
# 6 0.000000 0.000000 0.000000 0.000000 0.000000 0.036444
#
#
# Mechanical properties :
#
#
# Convention : Reuss Voigt Hill
#
# Bulk Modulus (GPa) = 36.20993 49.20658 42.70826
# Shear Modulus (GPa) = 27.37548 32.46359 29.91954
#
# Velocity S-wave (km/s) = 3.64107 3.96503 3.80649
# Velocity P-wave (km/s) = 5.93399 6.69265 6.32471
#
# Compressibility (1/GPa) = 0.02761674
#
# Stress axis : x y z
#
# Youngs Moduli (GPa) = 36.06979 107.38136 123.30316
#
# Poissons Ratio (x) = 0.52764 0.29680
# Poissons Ratio (y) = 0.17723 0.17808
# Poissons Ratio (z) = 0.08682 0.15509
#
# Static dielectric constant tensor:
#      x y z
#    x 3.330870 0.000000 0.000000 
#    y 0.000000 3.974330 0.000000 
#    z 0.000000 0.000000 4.013680 
# 
# 
# High freq. dielectric constant tensor:
#      x y z
#    x 1.769870 0.000000 0.000000 
#    y 0.000000 1.827980 0.000000 
#    z 0.000000 0.000000 1.829020 
# 
# From -- ./inp_files/221.got.cif
#   From: 2010.03.12/outbox.cif.g09.slc.cpg/sg28_1_cif.got.tgz:221.got - 2010.04.14 03:39:34.
