data_PCOD8168874
_publ_section_title
;
Structure prediction by ZEFSAII (Michael W. Deem and Ramdas Pophale) SiO2 
 PCOD8168874
Probable space group: P C A 21
;
_chemical_formula_sum "Si O2"
_cell_formula_units_Z 28
_cell_length_a 26.811181
_cell_length_b 5.251974
_cell_length_c 8.981496
_cell_angle_alpha 90.000000
_cell_angle_beta 90.000000
_cell_angle_gamma 90.000000
_cell_volume 1264.699051
_symmetry_space_group_name_H-M "P C A 21"
_symmetry_group_IT_number 29
_symmetry_cell_setting 'orthorhombic'
loop_
_space_group_symop_operation_xyz
x,y,z
-x,-y,1/2+z
1/2-x,y,1/2+z
1/2+x,-y,z
loop_
_atom_site_type_symbol
_atom_site_label
_atom_site_fract_x
_atom_site_fract_y
_atom_site_fract_z
Si Si1 0.593762 0.006012 0.235720
Si Si2 0.782069 0.723520 0.128729
Si Si3 0.535857 0.504467 0.279089
Si Si4 0.749870 0.394706 0.873943
Si Si5 0.122327 0.992056 0.575078
Si Si6 0.197558 0.913508 0.119192
Si Si7 0.935371 0.506798 0.118563
O O1 0.556476 0.241594 0.211291
O O2 0.638524 0.035032 0.117737
O O3 0.564988 0.742431 0.206523
O O4 0.617501 0.005988 0.398581
O O5 0.788647 0.575390 0.284090
O O6 0.819650 0.963177 0.117145
O O7 0.724969 0.816820 0.130776
O O8 0.787910 0.540729 0.985369
O O9 0.539738 0.501477 0.456557
O O10 0.477795 0.528962 0.241445
O O11 0.786855 0.256606 0.760067
O O12 0.713513 0.207522 0.962652
O O13 0.091656 0.225262 0.646934
O O14 0.104256 0.722362 0.639795
#
# Coordination Sequence:
#
# PCOD8168874 Si02
#       7
#     4   4   4   4   4   4   4
#     4  10  22  38  68  90 124 170 211 254 322 387
#     4  11  23  41  62  94 130 171 216 263 317 385
#     4  10  22  42  64  92 121 162 211 265 321 381
#     4  10  24  38  64  88 134 168 214 266 318 370
#     4  10  22  38  68  90 124 170 211 254 322 387
#     4  11  23  41  62  94 130 171 216 263 317 385
#     4  10  22  42  64  92 121 162 211 265 321 381
#
# _framework density 22.139655999999999
#
# number of rings (size 3 to 8) (size 9 to 14) (size 15 to 20)
#    0.000    1.714    0.000    3.429   14.000    0.000 
#    2.571    0.000    0.000    0.000    0.000    0.000 
#    0.000    0.000    0.000    0.000    0.000    0.000 
#
# Total GULP energy -347311.214229 kJ/mol
# GULP energy per Si atom -12403.971937 kJ/mol
# Density = 2.208927 g / cm^3
# Si number density = 22.139656 Si / 1000 Ang^3
#
#
#
# Elastic Constant Matrix: (Units=GPa)
#
#
# Indices 1 2 3 4 5 6 
#
# 1 57.7656 8.7965 10.6865 0.0000 0.0000 0.0000
# 2 8.7965 115.6637 20.6479 0.0000 0.0000 0.0000
# 3 10.6865 20.6479 60.4837 0.0000 0.0000 0.0000
# 4 0.0000 0.0000 0.0000 19.0037 0.0000 0.0000
# 5 0.0000 0.0000 0.0000 0.0000 27.7858 0.0000
# 6 0.0000 0.0000 0.0000 0.0000 0.0000 39.9939
#
#
#
# Elastic Compliance Matrix: (Units=1/GPa)
#
#
# Indices 1 2 3 4 5 6 
#
# 1 0.017975 -0.000852 -0.002885 0.000000 0.000000 0.000000
# 2 -0.000852 0.009247 -0.003006 0.000000 0.000000 0.000000
# 3 -0.002885 -0.003006 0.018069 0.000000 0.000000 0.000000
# 4 0.000000 0.000000 0.000000 0.052621 0.000000 0.000000
# 5 0.000000 0.000000 0.000000 0.000000 0.035990 0.000000
# 6 0.000000 0.000000 0.000000 0.000000 0.000000 0.025004
#
#
# Mechanical properties :
#
#
# Convention : Reuss Voigt Hill
#
# Bulk Modulus (GPa) = 31.44172 34.90829 33.17501
# Shear Modulus (GPa) = 27.32324 30.27548 28.79936
#
# Velocity S-wave (km/s) = 3.51683 3.70195 3.61058
# Velocity P-wave (km/s) = 5.54285 5.83731 5.69198
#
# Compressibility (1/GPa) = 0.03180487
#
# Stress axis : x y z
#
# Youngs Moduli (GPa) = 55.63348 108.14059 55.34223
#
# Poissons Ratio (x) = 0.09214 0.15966
# Poissons Ratio (y) = 0.04740 0.16637
# Poissons Ratio (z) = 0.16050 0.32510
#
# Static dielectric constant tensor:
#      x y z
#    x 3.784890 0.000000 0.000000 
#    y 0.000000 4.300630 0.000000 
#    z 0.000000 0.000000 3.866350 
# 
# 
# High freq. dielectric constant tensor:
#      x y z
#    x 1.861440 0.000000 0.000000 
#    y 0.000000 1.890610 0.000000 
#    z 0.000000 0.000000 1.856520 
# 
# From -- ./inp_files/2407.got.cif
#   From: 2010.03.12/outbox.cif.g09.slc.cpg/sg29_2_cif.got.tgz:2407.got - 2010.04.14 03:43:10.
