data_PCOD8168650
_publ_section_title
;
Structure prediction by ZEFSAII (Michael W. Deem and Ramdas Pophale) SiO2 
 PCOD8168650
Probable space group: P C A 21
;
_chemical_formula_sum "Si O2"
_cell_formula_units_Z 20
_cell_length_a 8.895328
_cell_length_b 7.480385
_cell_length_c 13.900684
_cell_angle_alpha 90.000000
_cell_angle_beta 90.000000
_cell_angle_gamma 90.000000
_cell_volume 924.958160
_symmetry_space_group_name_H-M "P C A 21"
_symmetry_group_IT_number 29
_symmetry_cell_setting 'orthorhombic'
loop_
_space_group_symop_operation_xyz
x,y,z
-x,-y,1/2+z
1/2-x,y,1/2+z
1/2+x,-y,z
loop_
_atom_site_type_symbol
_atom_site_label
_atom_site_fract_x
_atom_site_fract_y
_atom_site_fract_z
Si Si1 0.066586 0.748792 0.092700
Si Si2 0.293127 0.467547 0.040772
Si Si3 0.583951 0.205016 0.872772
Si Si4 0.460798 0.393847 0.406522
Si Si5 0.600954 0.093577 0.289189
O O1 0.190119 0.591637 0.109238
O O2 0.089978 0.899535 0.173104
O O3 0.899032 0.664294 0.101912
O O4 0.087653 0.834496 0.987197
O O5 0.392748 0.598806 0.974365
O O6 0.185444 0.350333 0.971126
O O7 0.561238 0.415244 0.853544
O O8 0.732139 0.134158 0.822127
O O9 0.443615 0.102697 0.825077
O O10 0.482337 0.239117 0.329022
#
# Coordination Sequence:
#
# PCOD8168650 Si02
#       5
#     4   4   4   4   4
#     4  10  22  42  65 103 132 176 229 270 339 395
#     4   8  18  39  66  93 128 171 217 274 327 388
#     4  10  26  44  61 101 137 173 225 272 337 387
#     4  10  19  43  68  88 134 179 212 275 338 380
#     4  12  25  42  70  95 135 181 223 273 331 410
#
# _framework density 21.622599000000001
#
# number of rings (size 3 to 8) (size 9 to 14) (size 15 to 20)
#    0.000    2.400    4.000    0.000    8.400    1.600 
#    0.000    0.000    0.000    0.000    0.000    0.000 
#    0.000    0.000    0.000    0.000    0.000    0.000 
#
# Total GULP energy -247965.485065 kJ/mol
# GULP energy per Si atom -12398.274253 kJ/mol
# Density = 2.157339 g / cm^3
# Si number density = 21.622599 Si / 1000 Ang^3
#
#
#
# Elastic Constant Matrix: (Units=GPa)
#
#
# Indices 1 2 3 4 5 6 
#
# 1 108.5707 10.9627 0.0505 0.0000 0.0000 0.0000
# 2 10.9627 58.1131 4.2001 0.0000 0.0000 0.0000
# 3 0.0505 4.2001 80.9274 0.0000 0.0000 0.0000
# 4 0.0000 0.0000 0.0000 33.1423 0.0000 0.0000
# 5 0.0000 0.0000 0.0000 0.0000 22.0302 0.0000
# 6 0.0000 0.0000 0.0000 0.0000 0.0000 22.5683
#
#
#
# Elastic Compliance Matrix: (Units=1/GPa)
#
#
# Indices 1 2 3 4 5 6 
#
# 1 0.009390 -0.001778 0.000086 0.000000 0.000000 0.000000
# 2 -0.001778 0.017609 -0.000913 0.000000 0.000000 0.000000
# 3 0.000086 -0.000913 0.012404 0.000000 0.000000 0.000000
# 4 0.000000 0.000000 0.000000 0.030173 0.000000 0.000000
# 5 0.000000 0.000000 0.000000 0.000000 0.045392 0.000000
# 6 0.000000 0.000000 0.000000 0.000000 0.000000 0.044310
#
#
# Mechanical properties :
#
#
# Convention : Reuss Voigt Hill
#
# Bulk Modulus (GPa) = 29.24387 30.89311 30.06849
# Shear Modulus (GPa) = 28.42769 31.04135 29.73452
#
# Velocity S-wave (km/s) = 3.62984 3.79304 3.71234
# Velocity P-wave (km/s) = 5.57868 5.78803 5.68432
#
# Compressibility (1/GPa) = 0.03419520
#
# Stress axis : x y z
#
# Youngs Moduli (GPa) = 106.49583 56.78866 80.61868
#
# Poissons Ratio (x) = 0.10095 -0.00696
# Poissons Ratio (y) = 0.18931 0.07359
# Poissons Ratio (z) = -0.00920 0.05184
#
# Static dielectric constant tensor:
#      x y z
#    x 4.276580 0.000000 0.000000 
#    y 0.000000 3.665530 0.000000 
#    z 0.000000 0.000000 3.671700 
# 
# 
# High freq. dielectric constant tensor:
#      x y z
#    x 1.871700 0.000000 0.000000 
#    y 0.000000 1.823030 0.000000 
#    z 0.000000 0.000000 1.829840 
# 
# From -- ./inp_files/2783.got.cif
#   From: 2010.03.12/outbox.cif.g09.slc.cpg/sg29_2_cif.got.tgz:2783.got - 2010.04.14 03:43:10.
