data_PCOD8168178
_publ_section_title
;
Structure prediction by ZEFSAII (Michael W. Deem and Ramdas Pophale) SiO2 
 PCOD8168178
Probable space group: P M A 2
;
_chemical_formula_sum "Si O2"
_cell_formula_units_Z 32
_cell_length_a 26.756625
_cell_length_b 5.453789
_cell_length_c 10.196047
_cell_angle_alpha 90.000000
_cell_angle_beta 90.000000
_cell_angle_gamma 90.000000
_cell_volume 1487.858027
_symmetry_space_group_name_H-M "P M A 2"
_symmetry_group_IT_number 28
_symmetry_cell_setting 'orthorhombic'
loop_
_space_group_symop_operation_xyz
x,y,z
-x,-y,z
1/2-x,y,z
1/2+x,-y,z
loop_
_atom_site_type_symbol
_atom_site_label
_atom_site_fract_x
_atom_site_fract_y
_atom_site_fract_z
Si Si1 0.304895 0.045408 0.180570
Si Si2 0.308060 0.971921 0.708841
Si Si3 0.694469 0.253811 0.444758
Si Si4 0.522212 0.750866 0.281641
Si Si5 0.872448 0.577370 0.303431
Si Si6 0.809720 0.532651 0.845925
Si Si7 0.127508 0.693512 0.052632
Si Si8 0.982684 0.248897 0.984883
O O1 0.250000 0.093400 0.121770
O O2 0.302353 0.859021 0.301465
O O3 0.337563 0.934412 0.061979
O O4 0.325911 0.298052 0.232299
O O5 0.250000 0.990063 0.733777
O O6 0.320690 0.949143 0.553361
O O7 0.327490 0.719270 0.774539
O O8 0.329865 0.227439 0.766681
O O9 0.750000 0.363016 0.482309
O O10 0.650692 0.461126 0.437296
O O11 0.500000 0.500000 0.344559
O O12 0.580896 0.759896 0.322708
O O13 0.511306 0.752193 0.125994
O O14 0.500000 0.000000 0.345327
O O15 0.891323 0.374743 0.199137
O O16 0.750000 0.539006 0.868831
O O17 0.840255 0.523781 0.983183
O O18 0.076964 0.761238 0.978994
O O19 0.000000 0.500000 0.912370
O O20 0.000000 0.000000 0.910488
#
# Coordination Sequence:
#
# PCOD8168178 Si02
#       8
#     4   4   4   4   4   4   4   4
#     4  10  21  33  51  81 120 158 189 231 297 368
#     4   9  20  39  58  78 110 155 208 251 280 335
#     4   9  20  36  55  82 115 157 205 247 294 352
#     4  10  19  34  52  76 113 149 186 229 282 350
#     4  11  21  33  56  84 119 157 192 244 300 368
#     4  10  22  37  57  82 114 159 201 245 295 344
#     4  11  22  35  53  83 122 155 196 241 300 369
#     4  10  19  33  53  77 111 149 187 232 282 346
#
# _framework density 21.507425999999999
#
# number of rings (size 3 to 8) (size 9 to 14) (size 15 to 20)
#    0.000    2.000    2.500    2.250    5.250    1.500 
#    0.000    0.000    0.000    0.000    0.000    0.875 
#    3.750    1.000    0.000    0.000    0.000    0.000 
#
# Total GULP energy -396465.422893 kJ/mol
# GULP energy per Si atom -12389.544465 kJ/mol
# Density = 2.145847 g / cm^3
# Si number density = 21.507426 Si / 1000 Ang^3
#
#
#
# Elastic Constant Matrix: (Units=GPa)
#
#
# Indices 1 2 3 4 5 6 
#
# 1 107.2082 36.4213 16.7118 0.0000 0.0000 0.0000
# 2 36.4213 157.3177 24.6037 0.0000 0.0000 0.0000
# 3 16.7118 24.6037 48.1678 0.0000 0.0000 0.0000
# 4 0.0000 0.0000 0.0000 26.4643 0.0000 0.0000
# 5 0.0000 0.0000 0.0000 0.0000 10.6545 0.0000
# 6 0.0000 0.0000 0.0000 0.0000 0.0000 26.8781
#
#
#
# Elastic Compliance Matrix: (Units=1/GPa)
#
#
# Indices 1 2 3 4 5 6 
#
# 1 0.010413 -0.002006 -0.002588 0.000000 0.000000 0.000000
# 2 -0.002006 0.007295 -0.003030 0.000000 0.000000 0.000000
# 3 -0.002588 -0.003030 0.023206 0.000000 0.000000 0.000000
# 4 0.000000 0.000000 0.000000 0.037787 0.000000 0.000000
# 5 0.000000 0.000000 0.000000 0.000000 0.093857 0.000000
# 6 0.000000 0.000000 0.000000 0.000000 0.000000 0.037205
#
#
# Mechanical properties :
#
#
# Convention : Reuss Voigt Hill
#
# Bulk Modulus (GPa) = 38.96268 52.01860 45.49064
# Shear Modulus (GPa) = 21.40721 28.46318 24.93520
#
# Velocity S-wave (km/s) = 3.15832 3.64182 3.40866
# Velocity P-wave (km/s) = 5.60850 6.47477 6.05714
#
# Compressibility (1/GPa) = 0.02566559
#
# Stress axis : x y z
#
# Youngs Moduli (GPa) = 96.03817 137.08269 43.09145
#
# Poissons Ratio (x) = 0.27497 0.11152
# Poissons Ratio (y) = 0.19264 0.13058
# Poissons Ratio (z) = 0.24855 0.41539
#
# Static dielectric constant tensor:
#      x y z
#    x 3.852000 0.000000 0.000000 
#    y 0.000000 4.481640 0.000000 
#    z 0.000000 0.000000 3.465550 
# 
# 
# High freq. dielectric constant tensor:
#      x y z
#    x 1.832440 0.000000 0.000000 
#    y 0.000000 1.861180 0.000000 
#    z 0.000000 0.000000 1.781430 
# 
# From -- ./inp_files/5880.got.cif
#   From: 2010.03.12/outbox.cif.g09.slc.cpg/sg28_3_cif.got.tgz:5880.got - 2010.04.14 03:39:34.
