data_PCOD8168037
_publ_section_title
;
Structure prediction by ZEFSAII (Michael W. Deem and Ramdas Pophale) SiO2 
 PCOD8168037
Probable space group: P M A 2
;
_chemical_formula_sum "Si O2"
_cell_formula_units_Z 32
_cell_length_a 8.520813
_cell_length_b 14.273142
_cell_length_c 12.836690
_cell_angle_alpha 90.000000
_cell_angle_beta 90.000000
_cell_angle_gamma 90.000000
_cell_volume 1561.182499
_symmetry_space_group_name_H-M "P M A 2"
_symmetry_group_IT_number 28
_symmetry_cell_setting 'orthorhombic'
loop_
_space_group_symop_operation_xyz
x,y,z
-x,-y,z
1/2-x,y,z
1/2+x,-y,z
loop_
_atom_site_type_symbol
_atom_site_label
_atom_site_fract_x
_atom_site_fract_y
_atom_site_fract_z
Si Si1 0.563353 0.602339 0.424870
Si Si2 0.433725 0.716447 0.609784
Si Si3 0.066504 0.101186 0.101184
Si Si4 0.066051 0.284307 0.998969
Si Si5 0.934868 0.895778 0.529588
Si Si6 0.564622 0.600258 0.191016
Si Si7 0.064487 0.896497 0.312668
Si Si8 0.064587 0.395535 0.801761
O O1 0.500000 0.500000 0.454152
O O2 0.750000 0.605969 0.441418
O O3 0.477440 0.676794 0.497107
O O4 0.510952 0.629588 0.307365
O O5 0.250000 0.713732 0.629793
O O6 0.493969 0.824242 0.614842
O O7 0.517944 0.652910 0.694712
O O8 0.250000 0.091171 0.124274
O O9 0.987556 0.150349 0.203616
O O10 0.031984 0.172478 0.005228
O O11 0.000000 0.000000 0.069529
O O12 0.250000 0.303276 0.996543
O O13 0.993052 0.332118 0.895913
O O14 0.995772 0.329710 0.104296
O O15 0.750000 0.898531 0.541011
O O16 0.982281 0.855116 0.415604
O O17 0.000000 0.000000 0.548218
O O18 0.500000 0.500000 0.160120
O O19 0.750000 0.596339 0.188907
O O20 0.250000 0.893915 0.329395
O O21 0.000000 0.000000 0.297015
O O22 0.250000 0.401333 0.807605
O O23 0.000000 0.500000 0.809156
#
# Coordination Sequence:
#
# PCOD8168037 Si02
#       8
#     4   4   4   4   4   4   4   4
#     4  10  20  35  57  85 119 157 196 242 304 367
#     4  12  25  41  61  88 120 156 205 253 302 360
#     4  10  19  34  55  82 118 160 202 248 297 352
#     4   9  20  37  60  86 115 154 199 245 301 364
#     4  11  22  39  61  88 122 161 202 248 301 358
#     4   9  18  34  55  83 115 150 187 233 295 360
#     4  10  18  31  51  81 117 159 201 243 290 345
#     4  11  23  43  67  91 118 153 201 254 311 367
#
# _framework density 20.497281999999998
#
# number of rings (size 3 to 8) (size 9 to 14) (size 15 to 20)
#    0.000    1.750    0.000    6.750    1.750    0.500 
#    0.000    5.000    0.000    1.500    0.000    0.000 
#    0.000    0.000    0.000    0.000    0.000    0.000 
#
# Total GULP energy -396696.890249 kJ/mol
# GULP energy per Si atom -12396.777820 kJ/mol
# Density = 2.045063 g / cm^3
# Si number density = 20.497282 Si / 1000 Ang^3
#
#
#
# Elastic Constant Matrix: (Units=GPa)
#
#
# Indices 1 2 3 4 5 6 
#
# 1 75.4553 29.5996 23.0363 0.0000 0.0000 0.0000
# 2 29.5996 126.1567 66.9755 0.0000 0.0000 0.0000
# 3 23.0363 66.9755 91.6929 0.0000 0.0000 0.0000
# 4 0.0000 0.0000 0.0000 35.3464 0.0000 0.0000
# 5 0.0000 0.0000 0.0000 0.0000 4.2547 0.0000
# 6 0.0000 0.0000 0.0000 0.0000 0.0000 31.4005
#
#
#
# Elastic Compliance Matrix: (Units=1/GPa)
#
#
# Indices 1 2 3 4 5 6 
#
# 1 0.014803 -0.002448 -0.001931 0.000000 0.000000 0.000000
# 2 -0.002448 0.013352 -0.009138 0.000000 0.000000 0.000000
# 3 -0.001931 -0.009138 0.018066 0.000000 0.000000 0.000000
# 4 0.000000 0.000000 0.000000 0.028291 0.000000 0.000000
# 5 0.000000 0.000000 0.000000 0.000000 0.235036 0.000000
# 6 0.000000 0.000000 0.000000 0.000000 0.000000 0.031847
#
#
# Mechanical properties :
#
#
# Convention : Reuss Voigt Hill
#
# Bulk Modulus (GPa) = 52.11831 59.16977 55.64404
# Shear Modulus (GPa) = 13.33960 25.77988 19.55974
#
# Velocity S-wave (km/s) = 2.55384 3.55028 3.09246
# Velocity P-wave (km/s) = 5.84622 6.76283 6.32116
#
# Compressibility (1/GPa) = 0.01918712
#
# Stress axis : x y z
#
# Youngs Moduli (GPa) = 67.55544 74.89368 55.35355
#
# Poissons Ratio (x) = 0.18334 0.10688
# Poissons Ratio (y) = 0.16538 0.50582
# Poissons Ratio (z) = 0.13044 0.68437
#
# Static dielectric constant tensor:
#      x y z
#    x 3.628850 0.000000 0.000000 
#    y 0.000000 4.037530 0.000000 
#    z 0.000000 0.000000 3.967740 
# 
# 
# High freq. dielectric constant tensor:
#      x y z
#    x 1.797530 0.000000 0.000000 
#    y 0.000000 1.809500 0.000000 
#    z 0.000000 0.000000 1.789390 
# 
# From -- ./inp_files/5076.got.cif
#   From: 2010.03.12/outbox.cif.g09.slc.cpg/sg28_3_cif.got.tgz:5076.got - 2010.04.14 03:39:34.
