data_PCOD8168795
_publ_section_title
;
Structure prediction by ZEFSAII (Michael W. Deem and Ramdas Pophale) SiO2 
 PCOD8168795
Probable space group: P C A 21
;
_chemical_formula_sum "Si O2"
_cell_formula_units_Z 28
_cell_length_a 14.621765
_cell_length_b 17.552624
_cell_length_c 5.022138
_cell_angle_alpha 90.000000
_cell_angle_beta 90.000000
_cell_angle_gamma 90.000000
_cell_volume 1288.933442
_symmetry_space_group_name_H-M "P C A 21"
_symmetry_group_IT_number 29
_symmetry_cell_setting 'orthorhombic'
loop_
_space_group_symop_operation_xyz
x,y,z
-x,-y,1/2+z
1/2-x,y,1/2+z
1/2+x,-y,z
loop_
_atom_site_type_symbol
_atom_site_label
_atom_site_fract_x
_atom_site_fract_y
_atom_site_fract_z
Si Si1 0.690154 0.580033 0.123440
Si Si2 0.553305 0.273766 0.204825
Si Si3 0.690121 0.856355 0.128559
Si Si4 0.067200 0.282737 0.205149
Si Si5 0.439632 0.006524 0.713616
Si Si6 0.690146 0.405373 0.124671
Si Si7 0.311119 0.864477 0.704599
O O1 0.770150 0.598251 0.333205
O O2 0.600463 0.630479 0.172814
O O3 0.658231 0.492669 0.150346
O O4 0.514133 0.264878 0.500589
O O5 0.601012 0.355203 0.172552
O O6 0.624639 0.207097 0.148431
O O7 0.469384 0.267998 0.000910
O O8 0.771642 0.871607 0.334883
O O9 0.654781 0.770390 0.156075
O O10 0.605005 0.911312 0.177635
O O11 0.365742 0.941863 0.653353
O O12 0.524816 0.000052 0.514204
O O13 0.769414 0.386251 0.335880
O O14 0.225758 0.861540 0.504630
#
# Coordination Sequence:
#
# PCOD8168795 Si02
#       7
#     4   4   4   4   4   4   4
#     4  10  21  39  61  85 116 156 198 240 291 353
#     4  12  24  39  60  89 121 154 195 246 298 342
#     4  12  24  42  64  88 119 159 201 237 287 353
#     4  12  24  39  60  89 121 154 195 246 298 342
#     4  12  24  42  64  92 124 152 192 246 298 342
#     4  10  21  39  61  85 116 156 198 240 291 353
#     4  12  24  42  64  88 119 159 201 237 287 353
#
# _framework density 21.723386999999999
#
# number of rings (size 3 to 8) (size 9 to 14) (size 15 to 20)
#    0.000    0.571    0.000    9.429    0.000    1.143 
#    0.000    0.000    0.000    0.000    0.000    0.000 
#    0.000    0.000    0.000    0.000    0.000    0.000 
#
# Total GULP energy -347527.032965 kJ/mol
# GULP energy per Si atom -12411.679749 kJ/mol
# Density = 2.167394 g / cm^3
# Si number density = 21.723387 Si / 1000 Ang^3
#
#
#
# Elastic Constant Matrix: (Units=GPa)
#
#
# Indices 1 2 3 4 5 6 
#
# 1 69.5021 29.0923 10.4270 0.0000 0.0000 0.0000
# 2 29.0923 92.8677 16.2107 0.0000 0.0000 0.0000
# 3 10.4270 16.2107 76.8595 0.0000 0.0000 0.0000
# 4 0.0000 0.0000 0.0000 27.1052 0.0000 0.0000
# 5 0.0000 0.0000 0.0000 0.0000 50.8260 0.0000
# 6 0.0000 0.0000 0.0000 0.0000 0.0000 45.0697
#
#
#
# Elastic Compliance Matrix: (Units=1/GPa)
#
#
# Indices 1 2 3 4 5 6 
#
# 1 0.016666 -0.005011 -0.001204 0.000000 0.000000 0.000000
# 2 -0.005011 0.012686 -0.001996 0.000000 0.000000 0.000000
# 3 -0.001204 -0.001996 0.013595 0.000000 0.000000 0.000000
# 4 0.000000 0.000000 0.000000 0.036893 0.000000 0.000000
# 5 0.000000 0.000000 0.000000 0.000000 0.019675 0.000000
# 6 0.000000 0.000000 0.000000 0.000000 0.000000 0.022188
#
#
# Mechanical properties :
#
#
# Convention : Reuss Voigt Hill
#
# Bulk Modulus (GPa) = 37.69923 38.96546 38.33234
# Shear Modulus (GPa) = 34.02130 36.83348 35.42739
#
# Velocity S-wave (km/s) = 3.96171 4.12219 4.04275
# Velocity P-wave (km/s) = 6.19021 6.37438 6.28297
#
# Compressibility (1/GPa) = 0.02652574
#
# Stress axis : x y z
#
# Youngs Moduli (GPa) = 60.00209 78.82652 73.55607
#
# Poissons Ratio (x) = 0.39498 0.08857
# Poissons Ratio (y) = 0.30065 0.14681
# Poissons Ratio (z) = 0.07225 0.15733
#
# Static dielectric constant tensor:
#      x y z
#    x 3.673420 0.000000 0.000000 
#    y 0.000000 4.063170 0.000000 
#    z 0.000000 0.000000 4.079580 
# 
# 
# High freq. dielectric constant tensor:
#      x y z
#    x 1.850670 0.000000 0.000000 
#    y 0.000000 1.868240 0.000000 
#    z 0.000000 0.000000 1.870360 
# 
# From -- ./inp_files/102.got.cif
#   From: 2010.03.12/outbox.cif.g09.slc.cpg/sg29_1_cif.got.tgz:102.got - 2010.04.14 03:43:10.
