data_PCOD8168955
_publ_section_title
;
Structure prediction by ZEFSAII (Michael W. Deem and Ramdas Pophale) SiO2 
 PCOD8168955
Probable space group: P C A 21
;
_chemical_formula_sum "Si O2"
_cell_formula_units_Z 28
_cell_length_a 4.826691
_cell_length_b 21.782310
_cell_length_c 8.447461
_cell_angle_alpha 90.000000
_cell_angle_beta 90.000000
_cell_angle_gamma 90.000000
_cell_volume 888.136311
_symmetry_space_group_name_H-M "P C A 21"
_symmetry_group_IT_number 29
_symmetry_cell_setting 'orthorhombic'
loop_
_space_group_symop_operation_xyz
x,y,z
-x,-y,1/2+z
1/2-x,y,1/2+z
1/2+x,-y,z
loop_
_atom_site_type_symbol
_atom_site_label
_atom_site_fract_x
_atom_site_fract_y
_atom_site_fract_z
Si Si1 0.964490 0.541007 0.241270
Si Si2 0.956994 0.303400 0.297033
Si Si3 0.540204 0.041837 0.127003
Si Si4 0.357449 0.812650 0.738205
Si Si5 0.951751 0.903431 0.804260
Si Si6 0.250690 0.210618 0.975757
Si Si7 0.645376 0.384867 0.528148
O O1 0.142359 0.477328 0.219888
O O2 0.990150 0.564266 0.422945
O O3 0.074259 0.588363 0.109334
O O4 0.841941 0.244813 0.195067
O O5 0.723800 0.330048 0.411101
O O6 0.205461 0.280145 0.409797
O O7 0.049281 0.355404 0.168576
O O8 0.348730 0.091334 0.221064
O O9 0.869514 0.023993 0.172806
O O10 0.506690 0.045379 0.939099
O O11 0.659960 0.796985 0.658411
O O12 0.439375 0.811030 0.928396
O O13 0.223543 0.881849 0.690714
O O14 0.965826 0.837590 0.893530
#
# Coordination Sequence:
#
# PCOD8168955 Si02
#       7
#     4   4   4   4   4   4   4
#     4  11  24  47  72 106 148 204 271 333 412 491
#     4  10  22  46  65 108 156 199 274 327 420 476
#     4  12  29  52  84 120 162 206 267 335 390 466
#     4  11  26  47  76 114 166 212 277 332 400 508
#     4  11  28  50  81 116 159 209 262 326 412 473
#     4  11  25  44  77 109 160 219 266 334 394 511
#     4  10  22  44  69 105 153 203 263 351 406 489
#
# _framework density 31.526693000000002
#
# number of rings (size 3 to 8) (size 9 to 14) (size 15 to 20)
#    0.000    1.143    1.429    2.571    8.000    2.286 
#   15.429    0.000    0.000    0.000    0.000    0.000 
#    0.000    0.000    0.000    0.000    0.000    0.000 
#
# Total GULP energy -347022.148295 kJ/mol
# GULP energy per Si atom -12393.648153 kJ/mol
# Density = 3.145494 g / cm^3
# Si number density = 31.526693 Si / 1000 Ang^3
#
#
#
# Elastic Constant Matrix: (Units=GPa)
#
#
# Indices 1 2 3 4 5 6 
#
# 1 113.7631 0.3719 -4.7381 0.0000 0.0000 0.0000
# 2 0.3719 122.9236 25.6381 0.0000 0.0000 0.0000
# 3 -4.7381 25.6381 119.7610 0.0000 0.0000 0.0000
# 4 0.0000 0.0000 0.0000 56.3546 0.0000 0.0000
# 5 0.0000 0.0000 0.0000 0.0000 38.3379 0.0000
# 6 0.0000 0.0000 0.0000 0.0000 0.0000 22.3657
#
#
#
# Elastic Compliance Matrix: (Units=1/GPa)
#
#
# Indices 1 2 3 4 5 6 
#
# 1 0.008806 -0.000104 0.000371 0.000000 0.000000 0.000000
# 2 -0.000104 0.008517 -0.001827 0.000000 0.000000 0.000000
# 3 0.000371 -0.001827 0.008756 0.000000 0.000000 0.000000
# 4 0.000000 0.000000 0.000000 0.017745 0.000000 0.000000
# 5 0.000000 0.000000 0.000000 0.000000 0.026084 0.000000
# 6 0.000000 0.000000 0.000000 0.000000 0.000000 0.044711
#
#
# Mechanical properties :
#
#
# Convention : Reuss Voigt Hill
#
# Bulk Modulus (GPa) = 43.55949 44.33240 43.94595
# Shear Modulus (GPa) = 39.87502 45.75672 42.81587
#
# Velocity S-wave (km/s) = 3.56026 3.81381 3.68922
# Velocity P-wave (km/s) = 5.54503 5.78670 5.66715
#
# Compressibility (1/GPa) = 0.02295711
#
# Stress axis : x y z
#
# Youngs Moduli (GPa) = 113.55933 117.41819 114.20989
#
# Poissons Ratio (x) = 0.01221 -0.04233
# Poissons Ratio (y) = 0.01180 0.20870
# Poissons Ratio (z) = -0.04209 0.21456
#
# Static dielectric constant tensor:
#      x y z
#    x 5.537620 0.000000 0.000000 
#    y 0.000000 6.489530 0.000000 
#    z 0.000000 0.000000 5.928540 
# 
# 
# High freq. dielectric constant tensor:
#      x y z
#    x 2.308930 0.000000 0.000000 
#    y 0.000000 2.348510 0.000000 
#    z 0.000000 0.000000 2.308440 
# 
# From -- ./inp_files/1001.got.cif
#   From: 2010.03.12/outbox.cif.g09.slc.cpg/sg29_1_cif.got.tgz:1001.got - 2010.04.14 03:43:10.
