data_PCOD8168483
_publ_section_title
;
Structure prediction by ZEFSAII (Michael W. Deem and Ramdas Pophale) SiO2 
 PCOD8168483
Probable space group: P M A 2
;
_chemical_formula_sum "Si O2"
_cell_formula_units_Z 24
_cell_length_a 17.150825
_cell_length_b 9.366478
_cell_length_c 5.850971
_cell_angle_alpha 90.000000
_cell_angle_beta 90.000000
_cell_angle_gamma 90.000000
_cell_volume 939.916511
_symmetry_space_group_name_H-M "P M A 2"
_symmetry_group_IT_number 28
_symmetry_cell_setting 'orthorhombic'
loop_
_space_group_symop_operation_xyz
x,y,z
-x,-y,z
1/2-x,y,z
1/2+x,-y,z
loop_
_atom_site_type_symbol
_atom_site_label
_atom_site_fract_x
_atom_site_fract_y
_atom_site_fract_z
Si Si1 0.662147 0.190425 0.989150
Si Si2 0.838766 0.419135 0.651439
Si Si3 0.040764 0.137589 0.600699
Si Si4 0.337677 0.091837 0.228670
Si Si5 0.544163 0.344971 0.290844
Si Si6 0.902673 0.651099 0.980043
O O1 0.750000 0.208471 0.081109
O O2 0.657457 0.250256 0.728050
O O3 0.608798 0.303922 0.112756
O O4 0.634627 0.027321 0.038674
O O5 0.750000 0.450455 0.560475
O O6 0.908848 0.448218 0.470111
O O7 0.854517 0.524404 0.864829
O O8 0.118417 0.086198 0.470495
O O9 0.051589 0.256701 0.792148
O O10 0.983869 0.200137 0.408583
O O11 0.000000 0.000000 0.715392
O O12 0.250000 0.062143 0.300984
O O13 0.343404 0.245915 0.111582
O O14 0.466269 0.412382 0.162675
#
# Coordination Sequence:
#
# PCOD8168483 Si02
#       6
#     4   4   4   4   4   4
#     4  10  22  41  69 102 141 189 245 301 364 441
#     4  11  26  48  72 107 149 201 254 308 374 458
#     4  11  24  42  71 106 142 186 240 307 372 441
#     4  10  23  44  71 106 144 191 242 305 374 444
#     4  11  24  44  70 102 145 189 244 301 374 436
#     4  11  27  43  73 105 148 193 249 311 376 445
#
# _framework density 25.534179999999999
#
# number of rings (size 3 to 8) (size 9 to 14) (size 15 to 20)
#    0.000    1.333    1.667    2.000    4.667    8.000 
#    0.000    0.000    0.000    0.000    0.000    2.333 
#    0.000    0.000    0.000    0.000    0.000    0.000 
#
# Total GULP energy -297385.518429 kJ/mol
# GULP energy per Si atom -12391.063268 kJ/mol
# Density = 2.547606 g / cm^3
# Si number density = 25.534180 Si / 1000 Ang^3
#
#
#
# Elastic Constant Matrix: (Units=GPa)
#
#
# Indices 1 2 3 4 5 6 
#
# 1 135.0379 35.2815 56.4821 0.0000 0.0000 0.0000
# 2 35.2815 97.5993 24.2374 0.0000 0.0000 0.0000
# 3 56.4821 24.2374 88.3695 0.0000 0.0000 0.0000
# 4 0.0000 0.0000 0.0000 45.0498 0.0000 0.0000
# 5 0.0000 0.0000 0.0000 0.0000 43.8312 0.0000
# 6 0.0000 0.0000 0.0000 0.0000 0.0000 33.2769
#
#
#
# Elastic Compliance Matrix: (Units=1/GPa)
#
#
# Indices 1 2 3 4 5 6 
#
# 1 0.010567 -0.002299 -0.006124 0.000000 0.000000 0.000000
# 2 -0.002299 0.011495 -0.001683 0.000000 0.000000 0.000000
# 3 -0.006124 -0.001683 0.015692 0.000000 0.000000 0.000000
# 4 0.000000 0.000000 0.000000 0.022198 0.000000 0.000000
# 5 0.000000 0.000000 0.000000 0.000000 0.022815 0.000000
# 6 0.000000 0.000000 0.000000 0.000000 0.000000 0.030051
#
#
# Mechanical properties :
#
#
# Convention : Reuss Voigt Hill
#
# Bulk Modulus (GPa) = 57.00585 61.44542 59.22563
# Shear Modulus (GPa) = 36.00305 38.09862 37.05083
#
# Velocity S-wave (km/s) = 3.75906 3.86691 3.81337
# Velocity P-wave (km/s) = 6.41985 6.63729 6.52948
#
# Compressibility (1/GPa) = 0.01754206
#
# Stress axis : x y z
#
# Youngs Moduli (GPa) = 94.63081 86.99316 63.72796
#
# Poissons Ratio (x) = 0.20003 0.39024
# Poissons Ratio (y) = 0.21759 0.10726
# Poissons Ratio (z) = 0.57948 0.14642
#
# Static dielectric constant tensor:
#      x y z
#    x 4.727500 0.000000 0.000000 
#    y 0.000000 4.687170 0.000000 
#    z 0.000000 0.000000 4.572970 
# 
# 
# High freq. dielectric constant tensor:
#      x y z
#    x 2.031780 0.000000 0.000000 
#    y 0.000000 2.038380 0.000000 
#    z 0.000000 0.000000 2.009330 
# 
# From -- ./inp_files/1145.got.cif
#   From: 2010.03.12/outbox.cif.g09.slc.cpg/sg28_1_cif.got.tgz:1145.got - 2010.04.14 03:39:34.
