data_PCOD8168975
_publ_section_title
;
Structure prediction by ZEFSAII (Michael W. Deem and Ramdas Pophale) SiO2 
 PCOD8168975
Probable space group: P C A 21
;
_chemical_formula_sum "Si O2"
_cell_formula_units_Z 28
_cell_length_a 11.936116
_cell_length_b 5.426269
_cell_length_c 17.245207
_cell_angle_alpha 90.000000
_cell_angle_beta 90.000000
_cell_angle_gamma 90.000000
_cell_volume 1116.947504
_symmetry_space_group_name_H-M "P C A 21"
_symmetry_group_IT_number 29
_symmetry_cell_setting 'orthorhombic'
loop_
_space_group_symop_operation_xyz
x,y,z
-x,-y,1/2+z
1/2-x,y,1/2+z
1/2+x,-y,z
loop_
_atom_site_type_symbol
_atom_site_label
_atom_site_fract_x
_atom_site_fract_y
_atom_site_fract_z
Si Si1 0.370238 0.524386 0.235600
Si Si2 0.055384 0.468394 0.460609
Si Si3 0.438052 0.193247 0.572139
Si Si4 0.775277 0.521986 0.072310
Si Si5 0.839003 0.160353 0.460310
Si Si6 0.681496 0.255290 0.329833
Si Si7 0.498902 0.981442 0.729823
O O1 0.351658 0.554311 0.144467
O O2 0.253144 0.545284 0.281223
O O3 0.424190 0.255146 0.250384
O O4 0.450037 0.757607 0.258652
O O5 0.157281 0.317998 0.504272
O O6 0.092406 0.600419 0.382114
O O7 0.036632 0.643584 0.536487
O O8 0.944388 0.328869 0.435775
O O9 0.333457 0.342615 0.608290
O O10 0.390888 0.086558 0.492000
O O11 0.479118 0.996839 0.636531
O O12 0.734674 0.277506 0.028238
O O13 0.765917 0.101640 0.384428
O O14 0.619020 0.061559 0.273750
#
# Coordination Sequence:
#
# PCOD8168975 Si02
#       7
#     4   4   4   4   4   4   4
#     4  12  28  49  75 113 151 204 257 313 388 460
#     4  10  22  48  73 108 152 197 257 327 384 461
#     4  11  24  44  77 111 142 207 259 320 386 457
#     4  10  23  43  74 106 147 193 258 319 381 457
#     4  10  23  45  72 108 145 196 255 316 387 458
#     4  11  27  47  73 107 157 206 253 320 395 464
#     4  12  29  50  78 111 158 201 257 319 381 465
#
# _framework density 25.068321999999998
#
# number of rings (size 3 to 8) (size 9 to 14) (size 15 to 20)
#    0.000    1.143    1.429    2.571   10.000    2.286 
#   10.286    0.000    0.000    0.000    0.000    0.000 
#    0.000    0.000    0.000    0.000    0.000    0.000 
#
# Total GULP energy -346956.895659 kJ/mol
# GULP energy per Si atom -12391.317702 kJ/mol
# Density = 2.501127 g / cm^3
# Si number density = 25.068322 Si / 1000 Ang^3
#
#
#
# Elastic Constant Matrix: (Units=GPa)
#
#
# Indices 1 2 3 4 5 6 
#
# 1 102.0614 28.3457 38.4445 0.0000 0.0000 0.0000
# 2 28.3457 95.9207 26.6566 0.0000 0.0000 0.0000
# 3 38.4445 26.6566 113.8378 0.0000 0.0000 0.0000
# 4 0.0000 0.0000 0.0000 19.7194 0.0000 0.0000
# 5 0.0000 0.0000 0.0000 0.0000 55.8331 0.0000
# 6 0.0000 0.0000 0.0000 0.0000 0.0000 8.1946
#
#
#
# Elastic Compliance Matrix: (Units=1/GPa)
#
#
# Indices 1 2 3 4 5 6 
#
# 1 0.011778 -0.002540 -0.003383 0.000000 0.000000 0.000000
# 2 -0.002540 0.011699 -0.001882 0.000000 0.000000 0.000000
# 3 -0.003383 -0.001882 0.010367 0.000000 0.000000 0.000000
# 4 0.000000 0.000000 0.000000 0.050712 0.000000 0.000000
# 5 0.000000 0.000000 0.000000 0.000000 0.017911 0.000000
# 6 0.000000 0.000000 0.000000 0.000000 0.000000 0.122032
#
#
# Mechanical properties :
#
#
# Convention : Reuss Voigt Hill
#
# Bulk Modulus (GPa) = 54.83998 55.41261 55.12629
# Shear Modulus (GPa) = 20.30989 31.30762 25.80876
#
# Velocity S-wave (km/s) = 2.84946 3.53780 3.21212
# Velocity P-wave (km/s) = 5.72272 6.23223 5.98290
#
# Compressibility (1/GPa) = 0.01823487
#
# Stress axis : x y z
#
# Youngs Moduli (GPa) = 84.90586 85.47832 96.45657
#
# Poissons Ratio (x) = 0.21715 0.32628
# Poissons Ratio (y) = 0.21570 0.18148
# Poissons Ratio (z) = 0.28720 0.16083
#
# Static dielectric constant tensor:
#      x y z
#    x 5.029450 0.000000 0.000000 
#    y 0.000000 4.140590 0.000000 
#    z 0.000000 0.000000 4.502970 
# 
# 
# High freq. dielectric constant tensor:
#      x y z
#    x 2.029490 0.000000 0.000000 
#    y 0.000000 1.965830 0.000000 
#    z 0.000000 0.000000 2.015480 
# 
# From -- ./inp_files/5112.got.cif
#   From: 2010.03.12/outbox.cif.g09.slc.cpg/sg29_3_cif.got.tgz:5112.got - 2010.04.14 03:43:10.
