data_PCOD8168931
_publ_section_title
;
Structure prediction by ZEFSAII (Michael W. Deem and Ramdas Pophale) SiO2 
 PCOD8168931
Probable space group: P C A 21
;
_chemical_formula_sum "Si O2"
_cell_formula_units_Z 32
_cell_length_a 15.026658
_cell_length_b 11.357718
_cell_length_c 8.785785
_cell_angle_alpha 90.000000
_cell_angle_beta 90.000000
_cell_angle_gamma 90.000000
_cell_volume 1499.457134
_symmetry_space_group_name_H-M "P C A 21"
_symmetry_group_IT_number 29
_symmetry_cell_setting 'orthorhombic'
loop_
_space_group_symop_operation_xyz
x,y,z
-x,-y,1/2+z
1/2-x,y,1/2+z
1/2+x,-y,z
loop_
_atom_site_type_symbol
_atom_site_label
_atom_site_fract_x
_atom_site_fract_y
_atom_site_fract_z
Si Si1 0.058058 0.212835 0.411700
Si Si2 0.019124 0.403262 0.157634
Si Si3 0.643326 0.917702 0.158003
Si Si4 0.458675 0.208926 0.413174
Si Si5 0.164661 0.583102 0.083042
Si Si6 0.168843 0.508324 0.736901
Si Si7 0.686887 0.750048 0.669310
Si Si8 0.587616 0.167320 0.147915
O O1 0.018942 0.311942 0.298247
O O2 0.104141 0.105945 0.323918
O O3 0.133840 0.272552 0.513890
O O4 0.986084 0.149748 0.517825
O O5 0.099641 0.495542 0.175867
O O6 0.928544 0.479630 0.160623
O O7 0.028506 0.336231 0.994888
O O8 0.731116 0.837944 0.134820
O O9 0.657865 0.058297 0.144061
O O10 0.564004 0.885799 0.041671
O O11 0.374714 0.199917 0.301468
O O12 0.546519 0.177072 0.317723
O O13 0.264026 0.590843 0.146635
O O14 0.136375 0.715867 0.101693
O O15 0.163518 0.545736 0.909745
O O16 0.214888 0.379704 0.723135
#
# Coordination Sequence:
#
# PCOD8168931 Si02
#       8
#     4   4   4   4   4   4   4   4
#     4  10  22  42  70  96 129 180 231 287 347 419
#     4  11  23  46  73 101 140 178 227 285 364 418
#     4  11  23  41  66  98 131 180 237 290 338 412
#     4  10  22  42  71  97 128 180 229 283 344 414
#     4  12  28  44  67 105 143 182 227 290 352 432
#     4  12  27  43  71 105 141 181 226 290 357 425
#     4  11  23  41  67 100 134 172 230 291 341 406
#     4  11  24  45  63  94 140 181 231 280 351 418
#
# _framework density 21.341055999999998
#
# number of rings (size 3 to 8) (size 9 to 14) (size 15 to 20)
#    0.000    1.000    2.500    4.500    5.250    0.000 
#    4.500    2.500    0.000    0.000    0.000    0.000 
#    0.000    0.000    0.000    0.000    0.000    0.000 
#
# Total GULP energy -396689.914173 kJ/mol
# GULP energy per Si atom -12396.559818 kJ/mol
# Density = 2.129248 g / cm^3
# Si number density = 21.341056 Si / 1000 Ang^3
#
#
#
# Elastic Constant Matrix: (Units=GPa)
#
#
# Indices 1 2 3 4 5 6 
#
# 1 112.9835 44.4869 37.3126 0.0000 0.0000 0.0000
# 2 44.4869 141.0689 27.4631 0.0000 0.0000 0.0000
# 3 37.3126 27.4631 101.6304 0.0000 0.0000 0.0000
# 4 0.0000 0.0000 0.0000 13.2236 0.0000 0.0000
# 5 0.0000 0.0000 0.0000 0.0000 20.6237 0.0000
# 6 0.0000 0.0000 0.0000 0.0000 0.0000 34.1129
#
#
#
# Elastic Compliance Matrix: (Units=1/GPa)
#
#
# Indices 1 2 3 4 5 6 
#
# 1 0.011059 -0.002847 -0.003291 0.000000 0.000000 0.000000
# 2 -0.002847 0.008215 -0.001175 0.000000 0.000000 0.000000
# 3 -0.003291 -0.001175 0.011365 0.000000 0.000000 0.000000
# 4 0.000000 0.000000 0.000000 0.075623 0.000000 0.000000
# 5 0.000000 0.000000 0.000000 0.000000 0.048488 0.000000
# 6 0.000000 0.000000 0.000000 0.000000 0.000000 0.029314
#
#
# Mechanical properties :
#
#
# Convention : Reuss Voigt Hill
#
# Bulk Modulus (GPa) = 62.44415 63.80089 63.12252
# Shear Modulus (GPa) = 24.50664 30.02006 27.26335
#
# Velocity S-wave (km/s) = 3.39238 3.75464 3.57810
# Velocity P-wave (km/s) = 6.68341 6.98264 6.83466
#
# Compressibility (1/GPa) = 0.01601431
#
# Stress axis : x y z
#
# Youngs Moduli (GPa) = 90.42812 121.72598 87.98783
#
# Poissons Ratio (x) = 0.34652 0.28955
# Poissons Ratio (y) = 0.25742 0.10337
# Poissons Ratio (z) = 0.29758 0.14300
#
# Static dielectric constant tensor:
#      x y z
#    x 3.915170 0.000000 0.000000 
#    y 0.000000 4.066430 0.000000 
#    z 0.000000 0.000000 4.188760 
# 
# 
# High freq. dielectric constant tensor:
#      x y z
#    x 1.829210 0.000000 0.000000 
#    y 0.000000 1.832860 0.000000 
#    z 0.000000 0.000000 1.856240 
# 
# From -- ./inp_files/1896.got.cif
#   From: 2010.03.12/outbox.cif.g09.slc.cpg/sg29_1_cif.got.tgz:1896.got - 2010.04.14 03:43:10.
