data_PCOD8168450
_publ_section_title
;
Structure prediction by ZEFSAII (Michael W. Deem and Ramdas Pophale) SiO2 
 PCOD8168450
Probable space group: P M A 2
;
_chemical_formula_sum "Si O2"
_cell_formula_units_Z 32
_cell_length_a 8.349338
_cell_length_b 15.455848
_cell_length_c 11.985667
_cell_angle_alpha 90.000000
_cell_angle_beta 90.000000
_cell_angle_gamma 90.000000
_cell_volume 1546.703571
_symmetry_space_group_name_H-M "P M A 2"
_symmetry_group_IT_number 28
_symmetry_cell_setting 'orthorhombic'
loop_
_space_group_symop_operation_xyz
x,y,z
-x,-y,z
1/2-x,y,z
1/2+x,-y,z
loop_
_atom_site_type_symbol
_atom_site_label
_atom_site_fract_x
_atom_site_fract_y
_atom_site_fract_z
Si Si1 0.064091 0.350816 0.313980
Si Si2 0.939563 0.592491 0.072622
Si Si3 0.064659 0.592568 0.542840
Si Si4 0.435462 0.837281 0.304800
Si Si5 0.437501 0.247809 0.676883
Si Si6 0.060470 0.092071 0.077598
Si Si7 0.940383 0.909018 0.527552
Si Si8 0.059720 0.250499 0.925405
O O1 0.250000 0.372064 0.334382
O O2 0.999050 0.390178 0.198167
O O3 0.962031 0.394881 0.411214
O O4 0.043926 0.247906 0.312250
O O5 0.750000 0.595935 0.070981
O O6 0.000000 0.500000 0.029440
O O7 0.010253 0.666467 0.991493
O O8 0.250000 0.600155 0.571395
O O9 0.000000 0.500000 0.581987
O O10 0.970768 0.664276 0.611899
O O11 0.250000 0.810649 0.308512
O O12 0.472797 0.889796 0.193515
O O13 0.478104 0.899005 0.407374
O O14 0.250000 0.235183 0.688914
O O15 0.506990 0.166459 0.608432
O O16 0.513909 0.250210 0.800754
O O17 0.250000 0.093147 0.096237
O O18 0.006000 0.163322 0.987671
O O19 0.000000 0.000000 0.031615
O O20 0.750000 0.905883 0.515975
O O21 0.000000 0.000000 0.578279
O O22 0.250000 0.257076 0.921934
#
# Coordination Sequence:
#
# PCOD8168450 Si02
#       8
#     4   4   4   4   4   4   4   4
#     4  11  21  38  63  91 124 161 198 245 308 368
#     4  10  21  38  61  89 121 157 196 242 296 356
#     4  12  25  41  63  92 126 163 204 253 304 364
#     4  12  23  37  61  92 125 159 200 249 306 369
#     4  10  22  42  66  88 118 162 210 256 307 361
#     4  11  22  40  63  90 125 161 203 251 304 365
#     4  11  23  39  62  90 123 161 202 251 307 366
#     4   9  20  41  64  86 118 162 205 250 305 360
#
# _framework density 20.689163000000001
#
# number of rings (size 3 to 8) (size 9 to 14) (size 15 to 20)
#    0.000    1.250    2.500    4.125    0.000    3.500 
#    0.000    3.125    0.000    0.000    0.000    0.000 
#    0.000    0.000    0.000    0.000    0.000    0.000 
#
# Total GULP energy -396975.017236 kJ/mol
# GULP energy per Si atom -12405.469289 kJ/mol
# Density = 2.064207 g / cm^3
# Si number density = 20.689163 Si / 1000 Ang^3
#
#
#
# Elastic Constant Matrix: (Units=GPa)
#
#
# Indices 1 2 3 4 5 6 
#
# 1 39.6731 2.8717 12.8037 0.0000 0.0000 0.0000
# 2 2.8717 170.6487 65.9574 0.0000 0.0000 0.0000
# 3 12.8037 65.9574 152.3397 0.0000 0.0000 0.0000
# 4 0.0000 0.0000 0.0000 -41.6550 0.0000 0.0000
# 5 0.0000 0.0000 0.0000 0.0000 3.3230 0.0000
# 6 0.0000 0.0000 0.0000 0.0000 0.0000 33.1491
#
#
#
# Elastic Compliance Matrix: (Units=1/GPa)
#
#
# Indices 1 2 3 4 5 6 
#
# 1 0.025943 0.000488 -0.002392 0.000000 0.000000 0.000000
# 2 0.000488 0.007047 -0.003092 0.000000 0.000000 0.000000
# 3 -0.002392 -0.003092 0.008104 0.000000 0.000000 0.000000
# 4 0.000000 0.000000 0.000000 -0.024007 0.000000 0.000000
# 5 0.000000 0.000000 0.000000 0.000000 0.300937 0.000000
# 6 0.000000 0.000000 0.000000 0.000000 0.000000 0.030167
#
#
# Mechanical properties :
#
#
# Convention : Reuss Voigt Hill
#
# Bulk Modulus (GPa) = 32.15246 58.43633 45.29440
# Shear Modulus (GPa) = 13.56672 17.69866 15.63269
#
# Velocity S-wave (km/s) = 2.56352 2.92799 2.75180
# Velocity P-wave (km/s) = 4.93322 6.30373 5.66011
#
# Compressibility (1/GPa) = 0.03110182
#
# Stress axis : x y z
#
# Youngs Moduli (GPa) = 38.54670 141.90658 123.39548
#
# Poissons Ratio (x) = -0.06922 0.29511
# Poissons Ratio (y) = -0.01880 0.38154
# Poissons Ratio (z) = 0.09219 0.43878
#
# Static dielectric constant tensor:
#      x y z
#    x 3.487240 0.000000 0.000000 
#    y 0.000000 3.998810 0.000000 
#    z 0.000000 0.000000 3.943640 
# 
# 
# High freq. dielectric constant tensor:
#      x y z
#    x 1.794640 0.000000 0.000000 
#    y 0.000000 1.825090 0.000000 
#    z 0.000000 0.000000 1.807090 
# 
# From -- ./inp_files/5079.got.cif
#   From: 2010.03.12/outbox.cif.g09.slc.cpg/sg28_3_cif.got.tgz:5079.got - 2010.04.14 03:39:34.
