data_PCOD8168509
_publ_section_title
;
Structure prediction by ZEFSAII (Michael W. Deem and Ramdas Pophale) SiO2 
 PCOD8168509
Probable space group: P M A 2
;
_chemical_formula_sum "Si O2"
_cell_formula_units_Z 18
_cell_length_a 16.244690
_cell_length_b 7.206727
_cell_length_c 7.461479
_cell_angle_alpha 90.000000
_cell_angle_beta 90.000000
_cell_angle_gamma 90.000000
_cell_volume 873.523151
_symmetry_space_group_name_H-M "P M A 2"
_symmetry_group_IT_number 28
_symmetry_cell_setting 'orthorhombic'
loop_
_space_group_symop_operation_xyz
x,y,z
-x,-y,z
1/2-x,y,z
1/2+x,-y,z
loop_
_atom_site_type_symbol
_atom_site_label
_atom_site_fract_x
_atom_site_fract_y
_atom_site_fract_z
Si Si1 0.843664 0.103714 0.925420
Si Si2 0.097052 0.486225 0.882600
Si Si3 0.342025 0.208758 0.179593
Si Si4 0.000000 0.000000 0.704403
Si Si5 0.441585 0.342971 0.514162
O O1 0.750000 0.069736 0.850087
O O2 0.859337 0.322446 0.937314
O O3 0.914220 0.000604 0.811991
O O4 0.849825 0.008433 0.122790
O O5 0.114426 0.430380 0.674530
O O6 0.000000 0.500000 0.910405
O O7 0.130282 0.328376 0.010621
O O8 0.250000 0.263560 0.227554
O O9 0.390604 0.247893 0.359192
O O10 0.997506 0.186921 0.590721
O O11 0.500000 0.500000 0.428320
#
# Coordination Sequence:
#
# PCOD8168509 Si02
#       5
#     4   4   4   2   4
#     4  11  23  42  69 100 134 179 229 283 344 410
#     4  11  21  43  70  93 132 178 232 280 345 417
#     4  11  25  41  64  98 137 176 221 284 348 412
#     4  12  22  44  68  98 132 182 230 284 344 406
#     4  11  24  42  67 100 130 178 230 279 348 416
#
# _framework density 20.606207000000001
#
# number of rings (size 3 to 8) (size 9 to 14) (size 15 to 20)
#    0.000    0.889    6.667    1.333    0.000    7.111 
#    0.000    0.000    0.000    0.000    0.000    0.000 
#    0.000    0.000    0.000    0.000    0.000    0.000 
#
# Total GULP energy -223105.383278 kJ/mol
# GULP energy per Si atom -12394.743515 kJ/mol
# Density = 2.055931 g / cm^3
# Si number density = 20.606207 Si / 1000 Ang^3
#
#
#
# Elastic Constant Matrix: (Units=GPa)
#
#
# Indices 1 2 3 4 5 6 
#
# 1 148.9909 40.2257 60.0245 0.0000 0.0000 0.0000
# 2 40.2257 130.0400 51.5375 0.0000 0.0000 0.0000
# 3 60.0245 51.5375 116.7790 0.0000 0.0000 0.0000
# 4 0.0000 0.0000 0.0000 22.7315 0.0000 0.0000
# 5 0.0000 0.0000 0.0000 0.0000 52.4359 0.0000
# 6 0.0000 0.0000 0.0000 0.0000 0.0000 34.4076
#
#
#
# Elastic Compliance Matrix: (Units=1/GPa)
#
#
# Indices 1 2 3 4 5 6 
#
# 1 0.008593 -0.001100 -0.003931 0.000000 0.000000 0.000000
# 2 -0.001100 0.009461 -0.003610 0.000000 0.000000 0.000000
# 3 -0.003931 -0.003610 0.012177 0.000000 0.000000 0.000000
# 4 0.000000 0.000000 0.000000 0.043992 0.000000 0.000000
# 5 0.000000 0.000000 0.000000 0.000000 0.019071 0.000000
# 6 0.000000 0.000000 0.000000 0.000000 0.000000 0.029063
#
#
# Mechanical properties :
#
#
# Convention : Reuss Voigt Hill
#
# Bulk Modulus (GPa) = 77.23024 77.70947 77.46986
# Shear Modulus (GPa) = 34.73314 38.18314 36.45814
#
# Velocity S-wave (km/s) = 4.11002 4.30931 4.21084
# Velocity P-wave (km/s) = 7.75135 7.90909 7.83062
#
# Compressibility (1/GPa) = 0.01294830
#
# Stress axis : x y z
#
# Youngs Moduli (GPa) = 116.37993 105.69827 82.12245
#
# Poissons Ratio (x) = 0.11627 0.32283
# Poissons Ratio (y) = 0.12802 0.29646
# Poissons Ratio (z) = 0.45750 0.38156
#
# Static dielectric constant tensor:
#      x y z
#    x 3.615650 0.000000 0.000000 
#    y 0.000000 4.076760 0.000000 
#    z 0.000000 0.000000 3.674000 
# 
# 
# High freq. dielectric constant tensor:
#      x y z
#    x 1.807730 0.000000 0.000000 
#    y 0.000000 1.831730 0.000000 
#    z 0.000000 0.000000 1.788720 
# 
# From -- ./inp_files/3230.got.cif
#   From: 2010.03.12/outbox.cif.g09.slc.cpg/sg28_2_cif.got.tgz:3230.got - 2010.04.14 03:39:34.
