data_PCOD8168040
_publ_section_title
;
Structure prediction by ZEFSAII (Michael W. Deem and Ramdas Pophale) SiO2 
 PCOD8168040
Probable space group: P M A 2
;
_chemical_formula_sum "Si O2"
_cell_formula_units_Z 20
_cell_length_a 8.556762
_cell_length_b 9.807154
_cell_length_c 12.812515
_cell_angle_alpha 90.000000
_cell_angle_beta 90.000000
_cell_angle_gamma 90.000000
_cell_volume 1075.194006
_symmetry_space_group_name_H-M "P M A 2"
_symmetry_group_IT_number 28
_symmetry_cell_setting 'orthorhombic'
loop_
_space_group_symop_operation_xyz
x,y,z
-x,-y,z
1/2-x,y,z
1/2+x,-y,z
loop_
_atom_site_type_symbol
_atom_site_label
_atom_site_fract_x
_atom_site_fract_y
_atom_site_fract_z
Si Si1 0.566710 0.350676 0.941380
Si Si2 0.934654 0.852606 0.347699
Si Si3 0.065953 0.856317 0.123460
Si Si4 0.565547 0.348457 0.517447
Si Si5 0.934651 0.651678 0.730076
O O1 0.500000 0.500000 0.964532
O O2 0.750000 0.362325 0.923028
O O3 0.491119 0.279329 0.838233
O O4 0.523470 0.257238 0.039078
O O5 0.750000 0.852726 0.359620
O O6 0.982104 0.813847 0.230354
O O7 0.008013 0.740150 0.421706
O O8 0.000000 0.000000 0.379480
O O9 0.250000 0.869068 0.143657
O O10 0.000000 0.000000 0.082482
O O11 0.500000 0.500000 0.504714
O O12 0.750000 0.355205 0.518723
O O13 0.505521 0.279342 0.625852
O O14 0.750000 0.653834 0.721853
O O15 0.000000 0.500000 0.735889
#
# Coordination Sequence:
#
# PCOD8168040 Si02
#       5
#     4   4   4   4   4
#     4  10  20  34  54  80 108 139 177 219 264 315
#     4  11  22  38  58  80 108 143 181 221 270 323
#     4  10  21  37  56  78 106 141 180 220 266 319
#     4  11  21  36  57  82 111 142 180 223 268 318
#     4  10  18  31  52  78 108 141 176 215 266 319
#
# _framework density 18.601295
#
# number of rings (size 3 to 8) (size 9 to 14) (size 15 to 20)
#    0.000    1.600    0.000   10.200    0.000    4.000 
#    0.000    3.000    0.000    2.400    0.000    0.000 
#    0.000    0.000    0.000    0.000    0.000    0.000 
#
# Total GULP energy -247998.469008 kJ/mol
# GULP energy per Si atom -12399.923450 kJ/mol
# Density = 1.855896 g / cm^3
# Si number density = 18.601295 Si / 1000 Ang^3
#
#
#
# Elastic Constant Matrix: (Units=GPa)
#
#
# Indices 1 2 3 4 5 6 
#
# 1 175.4364 51.9431 70.3469 0.0000 0.0000 0.0000
# 2 51.9431 84.9523 77.8563 0.0000 0.0000 0.0000
# 3 70.3469 77.8563 130.3835 0.0000 0.0000 0.0000
# 4 0.0000 0.0000 0.0000 36.8785 0.0000 0.0000
# 5 0.0000 0.0000 0.0000 0.0000 46.3585 0.0000
# 6 0.0000 0.0000 0.0000 0.0000 0.0000 27.5389
#
#
#
# Elastic Compliance Matrix: (Units=1/GPa)
#
#
# Indices 1 2 3 4 5 6 
#
# 1 0.007412 -0.001915 -0.002856 0.000000 0.000000 0.000000
# 2 -0.001915 0.026495 -0.014788 0.000000 0.000000 0.000000
# 3 -0.002856 -0.014788 0.018041 0.000000 0.000000 0.000000
# 4 0.000000 0.000000 0.000000 0.027116 0.000000 0.000000
# 5 0.000000 0.000000 0.000000 0.000000 0.021571 0.000000
# 6 0.000000 0.000000 0.000000 0.000000 0.000000 0.036312
#
#
# Mechanical properties :
#
#
# Convention : Reuss Voigt Hill
#
# Bulk Modulus (GPa) = 77.93684 87.89607 82.91645
# Shear Modulus (GPa) = 27.72540 34.86357 31.29448
#
# Velocity S-wave (km/s) = 3.86490 4.33396 4.10613
# Velocity P-wave (km/s) = 7.86805 8.50879 8.19469
#
# Compressibility (1/GPa) = 0.01283090
#
# Stress axis : x y z
#
# Youngs Moduli (GPa) = 134.91446 37.74355 55.43057
#
# Poissons Ratio (x) = 0.07228 0.15829
# Poissons Ratio (y) = 0.25835 0.81969
# Poissons Ratio (z) = 0.38527 0.55814
#
# Static dielectric constant tensor:
#      x y z
#    x 3.623760 0.000000 0.000000 
#    y 0.000000 2.153230 0.000000 
#    z 0.000000 0.000000 4.050070 
# 
# 
# High freq. dielectric constant tensor:
#      x y z
#    x 1.748130 0.000000 0.000000 
#    y 0.000000 1.691520 0.000000 
#    z 0.000000 0.000000 1.741900 
# 
# From -- ./inp_files/5965.got.cif
#   From: 2010.03.12/outbox.cif.g09.slc.cpg/sg28_3_cif.got.tgz:5965.got - 2010.04.14 03:39:34.
