data_PCOD8168990
_publ_section_title
;
Structure prediction by ZEFSAII (Michael W. Deem and Ramdas Pophale) SiO2 
 PCOD8168990
Probable space group: P C A 21
;
_chemical_formula_sum "Si O2"
_cell_formula_units_Z 32
_cell_length_a 10.276426
_cell_length_b 8.334736
_cell_length_c 17.498719
_cell_angle_alpha 90.000000
_cell_angle_beta 90.000000
_cell_angle_gamma 90.000000
_cell_volume 1498.787991
_symmetry_space_group_name_H-M "P C A 21"
_symmetry_group_IT_number 29
_symmetry_cell_setting 'orthorhombic'
loop_
_space_group_symop_operation_xyz
x,y,z
-x,-y,1/2+z
1/2-x,y,1/2+z
1/2+x,-y,z
loop_
_atom_site_type_symbol
_atom_site_label
_atom_site_fract_x
_atom_site_fract_y
_atom_site_fract_z
Si Si1 0.100967 0.692645 0.424740
Si Si2 0.342265 0.142695 0.421187
Si Si3 0.156989 0.809853 0.001242
Si Si4 0.883060 0.398908 0.644010
Si Si5 0.883080 0.926166 0.245789
Si Si6 0.838629 0.647517 0.126356
Si Si7 0.901064 0.673767 0.953489
Si Si8 0.339138 0.837870 0.763921
O O1 0.199080 0.739145 0.491798
O O2 0.109590 0.501670 0.416347
O O3 0.152935 0.800025 0.353866
O O4 0.953362 0.733589 0.449916
O O5 0.377182 0.107635 0.334920
O O6 0.198574 0.213897 0.408651
O O7 0.343479 0.998866 0.483011
O O8 0.050309 0.730497 0.944026
O O9 0.122705 0.757180 0.087632
O O10 0.792943 0.546620 0.623889
O O11 0.844311 0.338303 0.727424
O O12 0.033213 0.459721 0.645466
O O13 0.827301 0.790174 0.188562
O O14 0.038808 0.945956 0.232660
O O15 0.795830 0.084230 0.235219
O O16 0.853959 0.705326 0.039938
#
# Coordination Sequence:
#
# PCOD8168990 Si02
#       8
#     4   4   4   4   4   4   4   4
#     4  11  22  41  64  92 129 164 210 268 324 381
#     4  11  24  40  64  95 126 163 216 264 326 384
#     4  11  22  41  64  92 129 164 210 268 324 381
#     4  10  23  42  62  91 127 166 213 258 315 381
#     4  10  23  42  62  90 127 165 210 261 311 383
#     4  10  23  42  62  90 127 165 210 261 311 383
#     4  11  24  40  64  95 126 163 216 264 326 384
#     4  10  23  42  62  91 127 166 213 258 315 381
#
# _framework density 21.350584999999999
#
# number of rings (size 3 to 8) (size 9 to 14) (size 15 to 20)
#    0.000    1.500    2.500    1.500    7.000    1.000 
#    4.500    0.000    0.000    0.000    0.000    0.000 
#    0.000    0.000    0.000    0.000    0.000    0.000 
#
# Total GULP energy -396421.545395 kJ/mol
# GULP energy per Si atom -12388.173294 kJ/mol
# Density = 2.130199 g / cm^3
# Si number density = 21.350585 Si / 1000 Ang^3
#
#
#
# Elastic Constant Matrix: (Units=GPa)
#
#
# Indices 1 2 3 4 5 6 
#
# 1 79.4785 11.1029 -0.6289 0.0000 0.0000 0.0000
# 2 11.1029 75.1690 -0.4149 0.0000 0.0000 0.0000
# 3 -0.6289 -0.4149 35.9501 0.0000 0.0000 0.0000
# 4 0.0000 0.0000 0.0000 31.4445 0.0000 0.0000
# 5 0.0000 0.0000 0.0000 0.0000 25.4663 0.0000
# 6 0.0000 0.0000 0.0000 0.0000 0.0000 38.5987
#
#
#
# Elastic Compliance Matrix: (Units=1/GPa)
#
#
# Indices 1 2 3 4 5 6 
#
# 1 0.012849 -0.001897 0.000203 0.000000 0.000000 0.000000
# 2 -0.001897 0.013584 0.000124 0.000000 0.000000 0.000000
# 3 0.000203 0.000124 0.027821 0.000000 0.000000 0.000000
# 4 0.000000 0.000000 0.000000 0.031802 0.000000 0.000000
# 5 0.000000 0.000000 0.000000 0.000000 0.039268 0.000000
# 6 0.000000 0.000000 0.000000 0.000000 0.000000 0.025908
#
#
# Mechanical properties :
#
#
# Convention : Reuss Voigt Hill
#
# Bulk Modulus (GPa) = 19.56425 23.41287 21.48856
# Shear Modulus (GPa) = 29.16987 31.13779 30.15383
#
# Velocity S-wave (km/s) = 3.70027 3.82305 3.76216
# Velocity P-wave (km/s) = 5.23824 5.52063 5.38129
#
# Compressibility (1/GPa) = 0.05111364
#
# Stress axis : x y z
#
# Youngs Moduli (GPa) = 77.82962 73.61497 35.94368
#
# Poissons Ratio (x) = 0.13962 -0.00729
# Poissons Ratio (y) = 0.14762 -0.00444
# Poissons Ratio (z) = -0.01579 -0.00910
#
# Static dielectric constant tensor:
#      x y z
#    x 4.872840 0.000000 0.000000 
#    y 0.000000 3.671990 0.000000 
#    z 0.000000 0.000000 3.799920 
# 
# 
# High freq. dielectric constant tensor:
#      x y z
#    x 1.863670 0.000000 0.000000 
#    y 0.000000 1.813560 0.000000 
#    z 0.000000 0.000000 1.833720 
# 
# From -- ./inp_files/5427.got.cif
#   From: 2010.03.12/outbox.cif.g09.slc.cpg/sg29_3_cif.got.tgz:5427.got - 2010.04.14 03:43:10.
