data_PCOD8168365
_publ_section_title
;
Structure prediction by ZEFSAII (Michael W. Deem and Ramdas Pophale) SiO2 
 PCOD8168365
Probable space group: P M A 2
;
_chemical_formula_sum "Si O2"
_cell_formula_units_Z 20
_cell_length_a 8.644067
_cell_length_b 9.218748
_cell_length_c 12.749107
_cell_angle_alpha 90.000000
_cell_angle_beta 90.000000
_cell_angle_gamma 90.000000
_cell_volume 1015.944150
_symmetry_space_group_name_H-M "P M A 2"
_symmetry_group_IT_number 28
_symmetry_cell_setting 'orthorhombic'
loop_
_space_group_symop_operation_xyz
x,y,z
-x,-y,z
1/2-x,y,z
1/2+x,-y,z
loop_
_atom_site_type_symbol
_atom_site_label
_atom_site_fract_x
_atom_site_fract_y
_atom_site_fract_z
Si Si1 0.566745 0.157791 0.074740
Si Si2 0.433370 0.343888 0.257240
Si Si3 0.567836 0.158380 0.678025
Si Si4 0.932485 0.341022 0.873681
Si Si5 0.066811 0.653550 0.481324
O O1 0.750000 0.150613 0.087620
O O2 0.492332 0.220774 0.179700
O O3 0.500000 0.000000 0.053070
O O4 0.515042 0.257364 0.977859
O O5 0.500000 0.500000 0.223578
O O6 0.250000 0.352796 0.255093
O O7 0.490399 0.298438 0.372368
O O8 0.750000 0.147077 0.688327
O O9 0.501116 0.256016 0.772662
O O10 0.519150 0.228300 0.567512
O O11 0.500000 0.000000 0.686629
O O12 0.750000 0.353229 0.866705
O O13 0.000000 0.500000 0.876724
O O14 0.250000 0.639994 0.466695
O O15 0.000000 0.500000 0.519189
#
# Coordination Sequence:
#
# PCOD8168365 Si02
#       5
#     4   4   4   4   4
#     4  11  23  39  59  85 117 151 190 234 285 341
#     4  11  22  38  60  85 115 151 193 238 285 336
#     4  10  22  38  57  84 116 149 186 230 280 336
#     4  10  22  39  60  86 114 147 188 232 279 335
#     4  10  20  36  58  84 114 148 191 236 280 334
#
# _framework density 19.686121
#
# number of rings (size 3 to 8) (size 9 to 14) (size 15 to 20)
#    0.000    1.600    0.000    6.000    0.000    6.400 
#    0.000    2.000    0.000    0.000    0.000    0.000 
#    0.000    0.000    0.000    0.000    0.000    0.000 
#
# Total GULP energy -248095.291580 kJ/mol
# GULP energy per Si atom -12404.764579 kJ/mol
# Density = 1.964131 g / cm^3
# Si number density = 19.686121 Si / 1000 Ang^3
#
#
#
# Elastic Constant Matrix: (Units=GPa)
#
#
# Indices 1 2 3 4 5 6 
#
# 1 86.5953 52.0198 56.1873 0.0000 0.0000 0.0000
# 2 52.0198 180.9525 101.6713 0.0000 0.0000 0.0000
# 3 56.1873 101.6713 138.2337 0.0000 0.0000 0.0000
# 4 0.0000 0.0000 0.0000 36.5248 0.0000 0.0000
# 5 0.0000 0.0000 0.0000 0.0000 16.1370 0.0000
# 6 0.0000 0.0000 0.0000 0.0000 0.0000 39.4107
#
#
#
# Elastic Compliance Matrix: (Units=1/GPa)
#
#
# Indices 1 2 3 4 5 6 
#
# 1 0.015954 -0.001607 -0.005303 0.000000 0.000000 0.000000
# 2 -0.001607 0.009580 -0.006393 0.000000 0.000000 0.000000
# 3 -0.005303 -0.006393 0.014092 0.000000 0.000000 0.000000
# 4 0.000000 0.000000 0.000000 0.027379 0.000000 0.000000
# 5 0.000000 0.000000 0.000000 0.000000 0.061969 0.000000
# 6 0.000000 0.000000 0.000000 0.000000 0.000000 0.025374
#
#
# Mechanical properties :
#
#
# Convention : Reuss Voigt Hill
#
# Bulk Modulus (GPa) = 76.80393 91.72649 84.26521
# Shear Modulus (GPa) = 26.98407 31.47470 29.22938
#
# Velocity S-wave (km/s) = 3.70633 4.00287 3.85745
# Velocity P-wave (km/s) = 7.57726 8.24983 7.92068
#
# Compressibility (1/GPa) = 0.01302017
#
# Stress axis : x y z
#
# Youngs Moduli (GPa) = 62.67997 104.37921 70.96297
#
# Poissons Ratio (x) = 0.16773 0.37631
# Poissons Ratio (y) = 0.10072 0.45369
# Poissons Ratio (z) = 0.33239 0.66733
#
# Static dielectric constant tensor:
#      x y z
#    x 3.597670 0.000000 0.000000 
#    y 0.000000 3.582290 0.000000 
#    z 0.000000 0.000000 3.868440 
# 
# 
# High freq. dielectric constant tensor:
#      x y z
#    x 1.771610 0.000000 0.000000 
#    y 0.000000 1.773470 0.000000 
#    z 0.000000 0.000000 1.785000 
# 
# From -- ./inp_files/4556.got.cif
#   From: 2010.03.12/outbox.cif.g09.slc.cpg/sg28_3_cif.got.tgz:4556.got - 2010.04.14 03:39:34.
