data_PCOD8168191
_publ_section_title
;
Structure prediction by ZEFSAII (Michael W. Deem and Ramdas Pophale) SiO2 
 PCOD8168191
Probable space group: P M A 2
;
_chemical_formula_sum "Si O2"
_cell_formula_units_Z 32
_cell_length_a 8.955202
_cell_length_b 9.711945
_cell_length_c 20.393591
_cell_angle_alpha 90.000000
_cell_angle_beta 90.000000
_cell_angle_gamma 90.000000
_cell_volume 1773.680151
_symmetry_space_group_name_H-M "P M A 2"
_symmetry_group_IT_number 28
_symmetry_cell_setting 'orthorhombic'
loop_
_space_group_symop_operation_xyz
x,y,z
-x,-y,z
1/2-x,y,z
1/2+x,-y,z
loop_
_atom_site_type_symbol
_atom_site_label
_atom_site_fract_x
_atom_site_fract_y
_atom_site_fract_z
Si Si1 0.423447 0.860509 0.176240
Si Si2 0.072697 0.151236 0.391834
Si Si3 0.075753 0.354353 0.931525
Si Si4 0.078790 0.142590 0.534932
Si Si5 0.426345 0.858826 0.026835
Si Si6 0.574642 0.852307 0.676240
Si Si7 0.927115 0.350052 0.287047
Si Si8 0.423034 0.355927 0.783505
O O1 0.250000 0.891381 0.181224
O O2 0.471752 0.826850 0.101932
O O3 0.468308 0.729323 0.219910
O O4 0.500000 0.000000 0.202595
O O5 0.250000 0.140798 0.377658
O O6 0.038593 0.213425 0.465266
O O7 0.995930 0.262078 0.345659
O O8 0.000000 0.000000 0.382168
O O9 0.250000 0.364142 0.948790
O O10 0.050103 0.301025 0.857331
O O11 0.000000 0.500000 0.940637
O O12 0.993316 0.257417 0.981824
O O13 0.250000 0.104653 0.533538
O O14 0.040682 0.218713 0.604169
O O15 0.000000 0.000000 0.538235
O O16 0.250000 0.867543 0.017391
O O17 0.500000 0.000000 0.003472
O O18 0.750000 0.873086 0.686761
O O19 0.508340 0.753721 0.732518
O O20 0.500000 0.000000 0.683418
O O21 0.750000 0.364497 0.296841
O O22 0.000000 0.500000 0.284394
O O23 0.500000 0.500000 0.770945
O O24 0.250000 0.379385 0.769513
#
# Coordination Sequence:
#
# PCOD8168191 Si02
#       8
#     4   4   4   4   4   4   4   4
#     4   9  20  37  57  79 103 132 169 207 249 300
#     4  10  19  33  54  79 104 135 172 211 253 303
#     4  10  20  35  53  75 102 136 174 213 255 304
#     4   8  15  28  48  72 100 130 164 205 249 295
#     4  10  20  36  56  80 107 135 167 208 253 300
#     4   9  17  31  50  74 101 130 165 208 252 297
#     4  11  23  38  54  76 105 137 171 211 255 301
#     4   9  19  34  51  71  99 133 171 209 249 298
#
# _framework density 18.041585000000001
#
# number of rings (size 3 to 8) (size 9 to 14) (size 15 to 20)
#    0.000    2.500    0.000    1.875    0.000    5.000 
#    0.000    3.125    0.000    1.500    0.000    0.000 
#    0.000    0.000    0.000    0.000    0.000    0.000 
#
# Total GULP energy -396554.224327 kJ/mol
# GULP energy per Si atom -12392.319510 kJ/mol
# Density = 1.800052 g / cm^3
# Si number density = 18.041585 Si / 1000 Ang^3
#
#
#
# Elastic Constant Matrix: (Units=GPa)
#
#
# Indices 1 2 3 4 5 6 
#
# 1 73.9406 51.1295 56.2031 0.0000 0.0000 0.0000
# 2 51.1295 105.4968 79.0603 0.0000 0.0000 0.0000
# 3 56.2031 79.0603 133.0099 0.0000 0.0000 0.0000
# 4 0.0000 0.0000 0.0000 -20.3002 0.0000 0.0000
# 5 0.0000 0.0000 0.0000 0.0000 25.8805 0.0000
# 6 0.0000 0.0000 0.0000 0.0000 0.0000 32.7817
#
#
#
# Elastic Compliance Matrix: (Units=1/GPa)
#
#
# Indices 1 2 3 4 5 6 
#
# 1 0.022310 -0.006758 -0.005410 0.000000 0.000000 0.000000
# 2 -0.006758 0.019140 -0.008521 0.000000 0.000000 0.000000
# 3 -0.005410 -0.008521 0.014869 0.000000 0.000000 0.000000
# 4 0.000000 0.000000 0.000000 -0.049261 0.000000 0.000000
# 5 0.000000 0.000000 0.000000 0.000000 0.038639 0.000000
# 6 0.000000 0.000000 0.000000 0.000000 0.000000 0.030505
#
#
# Mechanical properties :
#
#
# Convention : Reuss Voigt Hill
#
# Bulk Modulus (GPa) = 66.93229 76.13702 71.53466
# Shear Modulus (GPa) = 40.79596 16.07604 28.43600
#
# Velocity S-wave (km/s) = 4.76039 2.98829 3.97437
# Velocity P-wave (km/s) = 8.20941 7.36200 7.79723
#
# Compressibility (1/GPa) = 0.01494047
#
# Stress axis : x y z
#
# Youngs Moduli (GPa) = 44.82332 52.24592 67.25374
#
# Poissons Ratio (x) = 0.35310 0.36383
# Poissons Ratio (y) = 0.30293 0.57308
# Poissons Ratio (z) = 0.24249 0.44519
#
# Static dielectric constant tensor:
#      x y z
#    x 3.419990 0.000000 0.000000 
#    y 0.000000 3.293960 0.000000 
#    z 0.000000 0.000000 4.084500 
# 
# 
# High freq. dielectric constant tensor:
#      x y z
#    x 1.706890 0.000000 0.000000 
#    y 0.000000 1.675700 0.000000 
#    z 0.000000 0.000000 1.719090 
# 
# From -- ./inp_files/7069.got.cif
#   From: 2010.03.12/outbox.cif.g09.slc.cpg/sg28_4_cif.got.tgz:7069.got - 2010.04.14 03:39:34.
