data_PCOD8168851
_publ_section_title
;
Structure prediction by ZEFSAII (Michael W. Deem and Ramdas Pophale) SiO2 
 PCOD8168851
Probable space group: P C A 21
;
_chemical_formula_sum "Si O2"
_cell_formula_units_Z 32
_cell_length_a 14.919472
_cell_length_b 8.065994
_cell_length_c 12.213156
_cell_angle_alpha 90.000000
_cell_angle_beta 90.000000
_cell_angle_gamma 90.000000
_cell_volume 1469.735732
_symmetry_space_group_name_H-M "P C A 21"
_symmetry_group_IT_number 29
_symmetry_cell_setting 'orthorhombic'
loop_
_space_group_symop_operation_xyz
x,y,z
-x,-y,1/2+z
1/2-x,y,1/2+z
1/2+x,-y,z
loop_
_atom_site_type_symbol
_atom_site_label
_atom_site_fract_x
_atom_site_fract_y
_atom_site_fract_z
Si Si1 0.399391 0.204105 0.169830
Si Si2 0.247130 0.298867 0.815288
Si Si3 0.054640 0.897342 0.788983
Si Si4 0.022399 0.532044 0.773671
Si Si5 0.657932 0.470566 0.962543
Si Si6 0.162437 0.581463 0.213125
Si Si7 0.115055 0.097303 0.426821
Si Si8 0.252207 0.822899 0.858830
O O1 0.310487 0.172267 0.242418
O O2 0.434372 0.389203 0.197456
O O3 0.463404 0.049590 0.204577
O O4 0.381477 0.189826 0.042151
O O5 0.198511 0.348547 0.930735
O O6 0.254007 0.462740 0.739908
O O7 0.343375 0.219442 0.836135
O O8 0.034713 0.720869 0.727010
O O9 0.156528 0.906233 0.833639
O O10 0.987290 0.932833 0.890732
O O11 0.066176 0.547748 0.894169
O O12 0.919893 0.478425 0.788859
O O13 0.734560 0.337196 0.933807
O O14 0.632283 0.442494 0.088176
O O15 0.195419 0.765948 0.246931
O O16 0.180266 0.937671 0.428501
#
# Coordination Sequence:
#
# PCOD8168851 Si02
#       8
#     4   4   4   4   4   4   4   4
#     4  11  25  45  68  97 141 181 226 293 349 414
#     4  10  21  43  64  96 129 169 232 282 335 434
#     4  11  24  48  65 102 143 173 244 291 335 439
#     4  10  23  43  66 102 138 175 237 286 338 432
#     4   9  22  40  67  98 131 179 226 286 347 414
#     4  11  21  42  70  96 135 184 222 290 363 403
#     4  12  24  45  69  98 136 189 220 294 363 405
#     4  10  24  42  67  99 139 176 241 286 344 435
#
# _framework density 21.772621999999998
#
# number of rings (size 3 to 8) (size 9 to 14) (size 15 to 20)
#    0.000    1.500    2.500    2.250    5.250    0.000 
#   11.250    0.000    0.000    0.000    0.000    0.000 
#    0.000    0.000    0.000    0.000    0.000    0.000 
#
# Total GULP energy -396492.218859 kJ/mol
# GULP energy per Si atom -12390.381839 kJ/mol
# Density = 2.172307 g / cm^3
# Si number density = 21.772622 Si / 1000 Ang^3
#
#
#
# Elastic Constant Matrix: (Units=GPa)
#
#
# Indices 1 2 3 4 5 6 
#
# 1 117.1326 43.4575 40.7296 0.0000 0.0000 0.0000
# 2 43.4575 117.4228 43.6264 0.0000 0.0000 0.0000
# 3 40.7296 43.6264 109.1665 0.0000 0.0000 0.0000
# 4 0.0000 0.0000 0.0000 29.5132 0.0000 0.0000
# 5 0.0000 0.0000 0.0000 0.0000 22.6097 0.0000
# 6 0.0000 0.0000 0.0000 0.0000 0.0000 33.6961
#
#
#
# Elastic Compliance Matrix: (Units=1/GPa)
#
#
# Indices 1 2 3 4 5 6 
#
# 1 0.010577 -0.002875 -0.002797 0.000000 0.000000 0.000000
# 2 -0.002875 0.010783 -0.003236 0.000000 0.000000 0.000000
# 3 -0.002797 -0.003236 0.011497 0.000000 0.000000 0.000000
# 4 0.000000 0.000000 0.000000 0.033883 0.000000 0.000000
# 5 0.000000 0.000000 0.000000 0.000000 0.044229 0.000000
# 6 0.000000 0.000000 0.000000 0.000000 0.000000 0.029677
#
#
# Mechanical properties :
#
#
# Convention : Reuss Voigt Hill
#
# Bulk Modulus (GPa) = 66.49229 66.59432 66.54331
# Shear Modulus (GPa) = 30.58548 31.55767 31.07157
#
# Velocity S-wave (km/s) = 3.75209 3.81125 3.78179
# Velocity P-wave (km/s) = 7.02685 7.07250 7.04971
#
# Compressibility (1/GPa) = 0.01503934
#
# Stress axis : x y z
#
# Youngs Moduli (GPa) = 94.54778 92.74075 86.97700
#
# Poissons Ratio (x) = 0.26664 0.24328
# Poissons Ratio (y) = 0.27184 0.28149
# Poissons Ratio (z) = 0.26446 0.30015
#
# Static dielectric constant tensor:
#      x y z
#    x 4.041180 0.000000 0.000000 
#    y 0.000000 4.262660 0.000000 
#    z 0.000000 0.000000 3.527220 
# 
# 
# High freq. dielectric constant tensor:
#      x y z
#    x 1.865760 0.000000 0.000000 
#    y 0.000000 1.870240 0.000000 
#    z 0.000000 0.000000 1.821290 
# 
# From -- ./inp_files/3455.got.cif
#   From: 2010.03.12/outbox.cif.g09.slc.cpg/sg29_2_cif.got.tgz:3455.got - 2010.04.14 03:43:10.
