data_PCOD8168703
_publ_section_title
;
Structure prediction by ZEFSAII (Michael W. Deem and Ramdas Pophale) SiO2 
 PCOD8168703
Probable space group: P C A 21
;
_chemical_formula_sum "Si O2"
_cell_formula_units_Z 32
_cell_length_a 15.412309
_cell_length_b 8.747788
_cell_length_c 11.411058
_cell_angle_alpha 90.000000
_cell_angle_beta 90.000000
_cell_angle_gamma 90.000000
_cell_volume 1538.480053
_symmetry_space_group_name_H-M "P C A 21"
_symmetry_group_IT_number 29
_symmetry_cell_setting 'orthorhombic'
loop_
_space_group_symop_operation_xyz
x,y,z
-x,-y,1/2+z
1/2-x,y,1/2+z
1/2+x,-y,z
loop_
_atom_site_type_symbol
_atom_site_label
_atom_site_fract_x
_atom_site_fract_y
_atom_site_fract_z
Si Si1 0.094860 0.819898 0.678400
Si Si2 0.096073 0.519565 0.233088
Si Si3 0.844598 0.260618 0.932049
Si Si4 0.155512 0.262761 0.931994
Si Si5 0.249683 0.500535 0.567123
Si Si6 0.904442 0.519217 0.232473
Si Si7 0.095582 0.181297 0.179049
Si Si8 0.750415 0.999374 0.289320
O O1 0.093280 0.791815 0.538123
O O2 0.106683 0.663341 0.753275
O O3 0.999542 0.891253 0.709404
O O4 0.175425 0.927821 0.708051
O O5 0.103269 0.622879 0.348682
O O6 0.170508 0.564961 0.142770
O O7 0.106851 0.337138 0.254996
O O8 0.000317 0.548993 0.178773
O O9 0.801876 0.118853 0.867100
O O10 0.766248 0.353409 0.988163
O O11 0.102755 0.378202 0.848465
O O12 0.197615 0.119827 0.867755
O O13 0.234395 0.356704 0.985702
O O14 0.094067 0.211848 0.039148
O O15 0.169991 0.434368 0.642304
O O16 0.176526 0.073790 0.207729
#
# Coordination Sequence:
#
# PCOD8168703 Si02
#       8
#     4   4   4   4   4   4   4   4
#     4  10  23  41  60  87 120 153 196 245 290 345
#     4  10  21  39  64  89 114 150 198 248 294 342
#     4  11  21  38  62  87 118 158 193 238 293 347
#     4  11  21  38  62  87 118 158 193 238 293 347
#     4  10  20  38  60  90 120 150 194 246 292 346
#     4  10  21  39  64  89 114 150 198 248 294 342
#     4  10  23  41  60  87 120 153 196 245 290 345
#     4  12  24  40  58  86 124 162 194 234 288 352
#
# _framework density 20.799752000000002
#
# number of rings (size 3 to 8) (size 9 to 14) (size 15 to 20)
#    0.000    1.500    0.000    6.750    0.000    3.000 
#    0.000    1.250    0.000    0.000    0.000    0.000 
#    0.000    0.000    0.000    0.000    0.000    0.000 
#
# Total GULP energy -396530.208298 kJ/mol
# GULP energy per Si atom -12391.569009 kJ/mol
# Density = 2.075241 g / cm^3
# Si number density = 20.799752 Si / 1000 Ang^3
#
#
#
# Elastic Constant Matrix: (Units=GPa)
#
#
# Indices 1 2 3 4 5 6 
#
# 1 158.7968 65.5324 38.9661 0.0000 0.0000 0.0000
# 2 65.5324 99.7990 56.9227 0.0000 0.0000 0.0000
# 3 38.9661 56.9227 90.2847 0.0000 0.0000 0.0000
# 4 0.0000 0.0000 0.0000 49.6245 0.0000 0.0000
# 5 0.0000 0.0000 0.0000 0.0000 1.6961 0.0000
# 6 0.0000 0.0000 0.0000 0.0000 0.0000 27.3416
#
#
#
# Elastic Compliance Matrix: (Units=1/GPa)
#
#
# Indices 1 2 3 4 5 6 
#
# 1 0.008641 -0.005539 -0.000237 0.000000 0.000000 0.000000
# 2 -0.005539 0.019197 -0.009713 0.000000 0.000000 0.000000
# 3 -0.000237 -0.009713 0.017302 0.000000 0.000000 0.000000
# 4 0.000000 0.000000 0.000000 0.020151 0.000000 0.000000
# 5 0.000000 0.000000 0.000000 0.000000 0.589572 0.000000
# 6 0.000000 0.000000 0.000000 0.000000 0.000000 0.036574
#
#
# Mechanical properties :
#
#
# Convention : Reuss Voigt Hill
#
# Bulk Modulus (GPa) = 70.60890 74.63588 72.62239
# Shear Modulus (GPa) = 6.87627 28.22973 17.55300
#
# Velocity S-wave (km/s) = 1.82020 3.68804 2.90815
# Velocity P-wave (km/s) = 6.19985 7.35503 6.80201
#
# Compressibility (1/GPa) = 0.01416252
#
# Stress axis : x y z
#
# Youngs Moduli (GPa) = 115.72166 52.09085 57.79577
#
# Poissons Ratio (x) = 0.28853 0.01372
# Poissons Ratio (y) = 0.64098 0.56136
# Poissons Ratio (z) = 0.02747 0.50595
#
# Static dielectric constant tensor:
#      x y z
#    x 3.909970 0.000000 0.000000 
#    y 0.000000 3.581650 0.000000 
#    z 0.000000 0.000000 3.753260 
# 
# 
# High freq. dielectric constant tensor:
#      x y z
#    x 1.834360 0.000000 0.000000 
#    y 0.000000 1.807740 0.000000 
#    z 0.000000 0.000000 1.807080 
# 
# From -- ./inp_files/3520.got.cif
#   From: 2010.03.12/outbox.cif.g09.slc.cpg/sg29_2_cif.got.tgz:3520.got - 2010.04.14 03:43:10.
