data_PCOD8168709
_publ_section_title
;
Structure prediction by ZEFSAII (Michael W. Deem and Ramdas Pophale) SiO2 
 PCOD8168709
Probable space group: P C A 21
;
_chemical_formula_sum "Si O2"
_cell_formula_units_Z 32
_cell_length_a 14.365540
_cell_length_b 8.506776
_cell_length_c 12.511891
_cell_angle_alpha 90.000000
_cell_angle_beta 90.000000
_cell_angle_gamma 90.000000
_cell_volume 1529.008519
_symmetry_space_group_name_H-M "P C A 21"
_symmetry_group_IT_number 29
_symmetry_cell_setting 'orthorhombic'
loop_
_space_group_symop_operation_xyz
x,y,z
-x,-y,1/2+z
1/2-x,y,1/2+z
1/2+x,-y,z
loop_
_atom_site_type_symbol
_atom_site_label
_atom_site_fract_x
_atom_site_fract_y
_atom_site_fract_z
Si Si1 0.972197 0.263331 0.408720
Si Si2 0.691184 0.470572 0.837070
Si Si3 0.460665 0.937597 0.202924
Si Si4 0.364520 0.250276 0.210824
Si Si5 0.756786 0.937649 0.373997
Si Si6 0.240881 0.813276 0.713021
Si Si7 0.110244 0.964059 0.057289
Si Si8 0.161139 0.334056 0.470448
O O1 0.058714 0.382295 0.427667
O O2 0.875147 0.353314 0.400220
O O3 0.990916 0.145637 0.311271
O O4 0.964812 0.160453 0.515221
O O5 0.620917 0.599176 0.786950
O O6 0.742921 0.373498 0.741063
O O7 0.763355 0.546966 0.921357
O O8 0.361443 0.863377 0.166936
O O9 0.451444 0.129058 0.212372
O O10 0.548140 0.909351 0.123346
O O11 0.279496 0.154694 0.263743
O O12 0.333504 0.323599 0.097818
O O13 0.673230 0.846628 0.430514
O O14 0.733619 0.110412 0.329558
O O15 0.842007 0.945467 0.458252
O O16 0.314904 0.866254 0.625794
#
# Coordination Sequence:
#
# PCOD8168709 Si02
#       8
#     4   4   4   4   4   4   4   4
#     4  11  23  43  64  95 132 164 223 274 317 400
#     4  10  24  42  60  91 136 170 211 267 320 397
#     4  10  21  42  63  95 124 164 216 282 323 382
#     4  10  20  38  61  88 128 163 209 266 313 385
#     4  10  20  40  63  95 126 161 217 276 320 384
#     4  10  22  40  61  95 130 164 221 273 324 394
#     4  12  21  36  70  90 125 171 214 271 344 377
#     4  11  23  41  68  91 127 177 211 263 333 381
#
# _framework density 20.928594
#
# number of rings (size 3 to 8) (size 9 to 14) (size 15 to 20)
#    0.000    1.500    5.000    2.250    1.750    2.000 
#    0.000    5.000    0.000    0.000    0.000    0.000 
#    0.000    0.000    0.000    0.000    0.000    0.000 
#
# Total GULP energy -396423.784850 kJ/mol
# GULP energy per Si atom -12388.243277 kJ/mol
# Density = 2.088096 g / cm^3
# Si number density = 20.928594 Si / 1000 Ang^3
#
#
#
# Elastic Constant Matrix: (Units=GPa)
#
#
# Indices 1 2 3 4 5 6 
#
# 1 85.9906 21.6257 53.8317 0.0000 0.0000 0.0000
# 2 21.6257 83.1943 36.7882 0.0000 0.0000 0.0000
# 3 53.8317 36.7882 125.6675 0.0000 0.0000 0.0000
# 4 0.0000 0.0000 0.0000 22.6299 0.0000 0.0000
# 5 0.0000 0.0000 0.0000 0.0000 33.4540 0.0000
# 6 0.0000 0.0000 0.0000 0.0000 0.0000 28.2406
#
#
#
# Elastic Compliance Matrix: (Units=1/GPa)
#
#
# Indices 1 2 3 4 5 6 
#
# 1 0.016011 -0.001297 -0.006479 0.000000 0.000000 0.000000
# 2 -0.001297 0.013912 -0.003517 0.000000 0.000000 0.000000
# 3 -0.006479 -0.003517 0.011763 0.000000 0.000000 0.000000
# 4 0.000000 0.000000 0.000000 0.044189 0.000000 0.000000
# 5 0.000000 0.000000 0.000000 0.000000 0.029892 0.000000
# 6 0.000000 0.000000 0.000000 0.000000 0.000000 0.035410
#
#
# Mechanical properties :
#
#
# Convention : Reuss Voigt Hill
#
# Bulk Modulus (GPa) = 52.35624 57.70485 55.03054
# Shear Modulus (GPa) = 27.75766 29.03870 28.39818
#
# Velocity S-wave (km/s) = 3.64580 3.72898 3.68762
# Velocity P-wave (km/s) = 6.54166 6.79503 6.66955
#
# Compressibility (1/GPa) = 0.01909992
#
# Stress axis : x y z
#
# Youngs Moduli (GPa) = 62.45569 71.87790 85.01578
#
# Poissons Ratio (x) = 0.09323 0.55082
# Poissons Ratio (y) = 0.08101 0.29901
# Poissons Ratio (z) = 0.40465 0.25281
#
# Static dielectric constant tensor:
#      x y z
#    x 3.638610 0.000000 0.000000 
#    y 0.000000 3.962040 0.000000 
#    z 0.000000 0.000000 3.877700 
# 
# 
# High freq. dielectric constant tensor:
#      x y z
#    x 1.809800 0.000000 0.000000 
#    y 0.000000 1.807620 0.000000 
#    z 0.000000 0.000000 1.827770 
# 
# From -- ./inp_files/3518.got.cif
#   From: 2010.03.12/outbox.cif.g09.slc.cpg/sg29_2_cif.got.tgz:3518.got - 2010.04.14 03:43:10.
