data_PCOD8168771
_publ_section_title
;
Structure prediction by ZEFSAII (Michael W. Deem and Ramdas Pophale) SiO2 
 PCOD8168771
Probable space group: P C A 21
;
_chemical_formula_sum "Si O2"
_cell_formula_units_Z 32
_cell_length_a 5.122142
_cell_length_b 18.104889
_cell_length_c 15.752865
_cell_angle_alpha 90.000000
_cell_angle_beta 90.000000
_cell_angle_gamma 90.000000
_cell_volume 1460.854733
_symmetry_space_group_name_H-M "P C A 21"
_symmetry_group_IT_number 29
_symmetry_cell_setting 'orthorhombic'
loop_
_space_group_symop_operation_xyz
x,y,z
-x,-y,1/2+z
1/2-x,y,1/2+z
1/2+x,-y,z
loop_
_atom_site_type_symbol
_atom_site_label
_atom_site_fract_x
_atom_site_fract_y
_atom_site_fract_z
Si Si1 0.364602 0.950551 0.292360
Si Si2 0.646252 0.786851 0.015140
Si Si3 0.370227 0.702758 0.559388
Si Si4 0.028979 0.829222 0.341405
Si Si5 0.853126 0.454281 0.296360
Si Si6 0.360619 0.543464 0.496476
Si Si7 0.718079 0.289604 0.741237
Si Si8 0.135344 0.159686 0.193654
O O1 0.407048 0.903163 0.204608
O O2 0.274931 0.885057 0.357297
O O3 0.646904 0.987076 0.303632
O O4 0.357990 0.754733 0.024941
O O5 0.718327 0.841041 0.094288
O O6 0.862313 0.722459 0.010987
O O7 0.651325 0.829662 0.925255
O O8 0.294244 0.618884 0.542973
O O9 0.410921 0.713840 0.660115
O O10 0.871076 0.859564 0.258731
O O11 0.132906 0.746032 0.322057
O O12 0.597155 0.497409 0.264643
O O13 0.849290 0.444012 0.396543
O O14 0.871153 0.372890 0.257411
O O15 0.642768 0.515028 0.525624
O O16 0.463191 0.241564 0.718624
#
# Coordination Sequence:
#
# PCOD8168771 Si02
#       8
#     4   4   4   4   4   4   4   4
#     4  11  23  43  72  98 135 175 211 259 323 386
#     4  11  25  40  65  98 133 166 224 275 329 393
#     4  11  23  40  60  91 125 167 219 285 334 401
#     4  11  23  42  72  98 134 178 218 277 329 393
#     4  10  23  37  56  86 122 167 218 274 334 402
#     4  10  21  37  54  80 120 163 213 270 339 406
#     4  10  23  39  64  93 127 169 229 277 336 401
#     4  10  23  44  67 102 132 175 220 273 330 396
#
# _framework density 21.904985
#
# number of rings (size 3 to 8) (size 9 to 14) (size 15 to 20)
#    0.000    1.500    2.500    1.500    7.000    2.000 
#    0.000    1.250    0.000    0.000    0.000    0.000 
#    0.000    0.000    0.000    0.000    0.000    0.000 
#
# Total GULP energy -396565.168712 kJ/mol
# GULP energy per Si atom -12392.661522 kJ/mol
# Density = 2.185513 g / cm^3
# Si number density = 21.904985 Si / 1000 Ang^3
#
#
#
# Elastic Constant Matrix: (Units=GPa)
#
#
# Indices 1 2 3 4 5 6 
#
# 1 97.4394 18.0999 18.0812 0.0000 0.0000 0.0000
# 2 18.0999 89.2368 9.5041 0.0000 0.0000 0.0000
# 3 18.0812 9.5041 79.8558 0.0000 0.0000 0.0000
# 4 0.0000 0.0000 0.0000 18.1694 0.0000 0.0000
# 5 0.0000 0.0000 0.0000 0.0000 24.0436 0.0000
# 6 0.0000 0.0000 0.0000 0.0000 0.0000 32.9974
#
#
#
# Elastic Compliance Matrix: (Units=1/GPa)
#
#
# Indices 1 2 3 4 5 6 
#
# 1 0.011055 -0.002001 -0.002265 0.000000 0.000000 0.000000
# 2 -0.002001 0.011712 -0.000941 0.000000 0.000000 0.000000
# 3 -0.002265 -0.000941 0.013147 0.000000 0.000000 0.000000
# 4 0.000000 0.000000 0.000000 0.055038 0.000000 0.000000
# 5 0.000000 0.000000 0.000000 0.000000 0.041591 0.000000
# 6 0.000000 0.000000 0.000000 0.000000 0.000000 0.030305
#
#
# Mechanical properties :
#
#
# Convention : Reuss Voigt Hill
#
# Bulk Modulus (GPa) = 39.21448 39.76695 39.49071
# Shear Modulus (GPa) = 27.50844 29.76519 28.63682
#
# Velocity S-wave (km/s) = 3.54758 3.69023 3.61961
# Velocity P-wave (km/s) = 5.89249 6.02916 5.96122
#
# Compressibility (1/GPa) = 0.02550079
#
# Stress axis : x y z
#
# Youngs Moduli (GPa) = 90.45862 85.38098 76.06080
#
# Poissons Ratio (x) = 0.17085 0.17227
# Poissons Ratio (y) = 0.18101 0.07156
# Poissons Ratio (z) = 0.20488 0.08033
#
# Static dielectric constant tensor:
#      x y z
#    x 4.024290 0.000000 0.000000 
#    y 0.000000 3.992530 0.000000 
#    z 0.000000 0.000000 3.910630 
# 
# 
# High freq. dielectric constant tensor:
#      x y z
#    x 1.871000 0.000000 0.000000 
#    y 0.000000 1.861650 0.000000 
#    z 0.000000 0.000000 1.839830 
# 
# From -- ./inp_files/4129.got.cif
#   From: 2010.03.12/outbox.cif.g09.slc.cpg/sg29_3_cif.got.tgz:4129.got - 2010.04.14 03:43:10.
