data_PCOD8168847
_publ_section_title
;
Structure prediction by ZEFSAII (Michael W. Deem and Ramdas Pophale) SiO2 
 PCOD8168847
Probable space group: P C A 21
;
_chemical_formula_sum "Si O2"
_cell_formula_units_Z 32
_cell_length_a 26.523603
_cell_length_b 6.892012
_cell_length_c 7.907875
_cell_angle_alpha 90.000000
_cell_angle_beta 90.000000
_cell_angle_gamma 90.000000
_cell_volume 1445.567380
_symmetry_space_group_name_H-M "P C A 21"
_symmetry_group_IT_number 29
_symmetry_cell_setting 'orthorhombic'
loop_
_space_group_symop_operation_xyz
x,y,z
-x,-y,1/2+z
1/2-x,y,1/2+z
1/2+x,-y,z
loop_
_atom_site_type_symbol
_atom_site_label
_atom_site_fract_x
_atom_site_fract_y
_atom_site_fract_z
Si Si1 0.004644 0.790540 0.210000
Si Si2 0.101826 0.091584 0.815395
Si Si3 0.354527 0.422647 0.099678
Si Si4 0.179393 0.769213 0.819237
Si Si5 0.042455 0.450378 0.424265
Si Si6 0.917335 0.869021 0.690601
Si Si7 0.313721 0.164248 0.841185
Si Si8 0.758321 0.047174 0.583075
O O1 0.955369 0.917844 0.249981
O O2 0.016794 0.650423 0.367254
O O3 0.050025 0.936820 0.179106
O O4 0.996810 0.664010 0.042011
O O5 0.136125 0.221513 0.694481
O O6 0.126236 0.879571 0.801904
O O7 0.103044 0.180216 0.004003
O O8 0.329742 0.556460 0.243596
O O9 0.406858 0.507232 0.026990
O O10 0.316732 0.373168 0.940056
O O11 0.198749 0.800728 0.013187
O O12 0.228114 0.848875 0.727802
O O13 0.052551 0.317055 0.260155
O O14 0.871223 0.908442 0.818444
O O15 0.283854 0.008785 0.949448
O O16 0.285661 0.150607 0.657789
#
# Coordination Sequence:
#
# PCOD8168847 Si02
#       8
#     4   4   4   4   4   4   4   4
#     4  11  24  41  68  94 134 176 214 276 332 404
#     4  11  23  43  65  96 132 173 221 267 337 397
#     4  10  24  41  68  96 136 173 220 280 337 397
#     4  11  23  43  66  98 129 176 218 281 325 404
#     4  10  24  41  60 100 132 169 227 272 326 413
#     4  11  23  41  67  96 129 181 215 267 339 395
#     4  10  21  42  65  98 130 175 218 276 335 391
#     4  10  22  42  69  92 134 169 229 273 331 403
#
# _framework density 22.136637
#
# number of rings (size 3 to 8) (size 9 to 14) (size 15 to 20)
#    0.000    1.500    2.500    1.500    1.750    7.000 
#    0.000    1.250    0.000    0.000    0.000    0.000 
#    0.000    0.000    0.000    0.000    0.000    0.000 
#
# Total GULP energy -396498.045530 kJ/mol
# GULP energy per Si atom -12390.563923 kJ/mol
# Density = 2.208625 g / cm^3
# Si number density = 22.136637 Si / 1000 Ang^3
#
#
#
# Elastic Constant Matrix: (Units=GPa)
#
#
# Indices 1 2 3 4 5 6 
#
# 1 94.5619 30.3815 25.1308 0.0000 0.0000 0.0000
# 2 30.3815 31.3336 9.8522 0.0000 0.0000 0.0000
# 3 25.1308 9.8522 90.3467 0.0000 0.0000 0.0000
# 4 0.0000 0.0000 0.0000 37.6785 0.0000 0.0000
# 5 0.0000 0.0000 0.0000 0.0000 30.4039 0.0000
# 6 0.0000 0.0000 0.0000 0.0000 0.0000 18.8526
#
#
#
# Elastic Compliance Matrix: (Units=1/GPa)
#
#
# Indices 1 2 3 4 5 6 
#
# 1 0.016046 -0.014657 -0.002865 0.000000 0.000000 0.000000
# 2 -0.014657 0.046437 -0.000987 0.000000 0.000000 0.000000
# 3 -0.002865 -0.000987 0.011973 0.000000 0.000000 0.000000
# 4 0.000000 0.000000 0.000000 0.026540 0.000000 0.000000
# 5 0.000000 0.000000 0.000000 0.000000 0.032891 0.000000
# 6 0.000000 0.000000 0.000000 0.000000 0.000000 0.053043
#
#
# Mechanical properties :
#
#
# Convention : Reuss Voigt Hill
#
# Bulk Modulus (GPa) = 26.71124 38.55237 32.63180
# Shear Modulus (GPa) = 21.14820 27.44550 24.29685
#
# Velocity S-wave (km/s) = 3.09422 3.52493 3.31658
# Velocity P-wave (km/s) = 4.98582 5.83269 5.42580
#
# Compressibility (1/GPa) = 0.03743743
#
# Stress axis : x y z
#
# Youngs Moduli (GPa) = 62.32207 21.53465 83.52133
#
# Poissons Ratio (x) = 0.31564 0.23928
# Poissons Ratio (y) = 0.91347 0.08242
# Poissons Ratio (z) = 0.17855 0.02125
#
# Static dielectric constant tensor:
#      x y z
#    x 4.245250 0.000000 0.000000 
#    y 0.000000 3.698960 0.000000 
#    z 0.000000 0.000000 4.584630 
# 
# 
# High freq. dielectric constant tensor:
#      x y z
#    x 1.884610 0.000000 0.000000 
#    y 0.000000 1.833950 0.000000 
#    z 0.000000 0.000000 1.889870 
# 
# From -- ./inp_files/2624.got.cif
#   From: 2010.03.12/outbox.cif.g09.slc.cpg/sg29_2_cif.got.tgz:2624.got - 2010.04.14 03:43:10.
