data_PCOD8168282
_publ_section_title
;
Structure prediction by ZEFSAII (Michael W. Deem and Ramdas Pophale) SiO2 
 PCOD8168282
Probable space group: P M A 2
;
_chemical_formula_sum "Si O2"
_cell_formula_units_Z 32
_cell_length_a 9.090165
_cell_length_b 17.639713
_cell_length_c 11.491044
_cell_angle_alpha 90.000000
_cell_angle_beta 90.000000
_cell_angle_gamma 90.000000
_cell_volume 1842.564794
_symmetry_space_group_name_H-M "P M A 2"
_symmetry_group_IT_number 28
_symmetry_cell_setting 'orthorhombic'
loop_
_space_group_symop_operation_xyz
x,y,z
-x,-y,z
1/2-x,y,z
1/2+x,-y,z
loop_
_atom_site_type_symbol
_atom_site_label
_atom_site_fract_x
_atom_site_fract_y
_atom_site_fract_z
Si Si1 0.910425 0.801787 0.467900
Si Si2 0.925795 0.718046 0.247039
Si Si3 0.576276 0.075434 0.899032
Si Si4 0.088499 0.858375 0.664342
Si Si5 0.077212 0.768388 0.015687
Si Si6 0.087879 0.695074 0.778502
Si Si7 0.073430 0.577412 0.363814
Si Si8 0.913486 0.637934 0.580130
O O1 0.750000 0.838421 0.455912
O O2 0.973743 0.783696 0.339217
O O3 0.901768 0.723287 0.536499
O O4 0.003317 0.862715 0.541610
O O5 0.750000 0.703714 0.254178
O O6 0.973523 0.745222 0.120995
O O7 0.012484 0.641671 0.277833
O O8 0.750000 0.064127 0.894067
O O9 0.515489 0.092042 0.767964
O O10 0.500000 0.000000 0.948590
O O11 0.537424 0.145163 0.983353
O O12 0.250000 0.890108 0.637624
O O13 0.098489 0.772782 0.708082
O O14 0.250000 0.760878 0.046310
O O15 0.034530 0.712385 0.909552
O O16 0.250000 0.657750 0.781792
O O17 0.977869 0.637825 0.711826
O O18 0.250000 0.574184 0.358222
O O19 0.000000 0.500000 0.318733
O O20 0.021562 0.590997 0.496575
O O21 0.750000 0.601066 0.580894
#
# Coordination Sequence:
#
# PCOD8168282 Si02
#       8
#     4   4   4   4   4   4   4   4
#     4   8  15  26  41  64  92 117 145 187 231 275
#     4  10  20  33  49  73 101 129 168 211 250 296
#     4   9  18  31  47  70  98 126 160 203 251 302
#     4   8  14  25  42  64  89 116 147 185 230 282
#     4   9  18  32  49  71  99 132 172 212 249 295
#     4   8  14  26  44  66  92 121 153 190 233 281
#     4  11  21  34  52  73  99 130 163 202 250 299
#     4   9  16  27  44  69  97 121 150 188 233 284
#
# _framework density 17.367096
#
# number of rings (size 3 to 8) (size 9 to 14) (size 15 to 20)
#    0.000    3.000    0.000    4.125    0.000    5.000 
#    0.000    2.500    0.000    1.500    0.000    0.000 
#    0.000    0.000    0.000    0.000    0.000    0.000 
#
# Total GULP energy -396536.145879 kJ/mol
# GULP energy per Si atom -12391.754559 kJ/mol
# Density = 1.732757 g / cm^3
# Si number density = 17.367096 Si / 1000 Ang^3
#
#
#
# Elastic Constant Matrix: (Units=GPa)
#
#
# Indices 1 2 3 4 5 6 
#
# 1 99.6585 37.9675 55.2569 0.0000 0.0000 0.0000
# 2 37.9675 57.6440 35.3499 0.0000 0.0000 0.0000
# 3 55.2569 35.3499 122.5475 0.0000 0.0000 0.0000
# 4 0.0000 0.0000 0.0000 13.3148 0.0000 0.0000
# 5 0.0000 0.0000 0.0000 0.0000 29.9936 0.0000
# 6 0.0000 0.0000 0.0000 0.0000 0.0000 21.3391
#
#
#
# Elastic Compliance Matrix: (Units=1/GPa)
#
#
# Indices 1 2 3 4 5 6 
#
# 1 0.015500 -0.007196 -0.004913 0.000000 0.000000 0.000000
# 2 -0.007196 0.024417 -0.003799 0.000000 0.000000 0.000000
# 3 -0.004913 -0.003799 0.011471 0.000000 0.000000 0.000000
# 4 0.000000 0.000000 0.000000 0.075104 0.000000 0.000000
# 5 0.000000 0.000000 0.000000 0.000000 0.033340 0.000000
# 6 0.000000 0.000000 0.000000 0.000000 0.000000 0.046862
#
#
# Mechanical properties :
#
#
# Convention : Reuss Voigt Hill
#
# Bulk Modulus (GPa) = 51.09214 59.66649 55.37932
# Shear Modulus (GPa) = 20.40522 23.01455 21.70988
#
# Velocity S-wave (km/s) = 3.43145 3.64425 3.53945
# Velocity P-wave (km/s) = 6.72180 7.22067 6.97570
#
# Compressibility (1/GPa) = 0.01957248
#
# Stress axis : x y z
#
# Youngs Moduli (GPa) = 64.51606 40.95488 87.17496
#
# Poissons Ratio (x) = 0.29472 0.42831
# Poissons Ratio (y) = 0.46427 0.33114
# Poissons Ratio (z) = 0.31698 0.15557
#
# Static dielectric constant tensor:
#      x y z
#    x 3.420530 0.000000 0.000000 
#    y 0.000000 2.958290 0.000000 
#    z 0.000000 0.000000 3.264500 
# 
# 
# High freq. dielectric constant tensor:
#      x y z
#    x 1.674220 0.000000 0.000000 
#    y 0.000000 1.629330 0.000000 
#    z 0.000000 0.000000 1.661490 
# 
# From -- ./inp_files/5179.got.cif
#   From: 2010.03.12/outbox.cif.g09.slc.cpg/sg28_3_cif.got.tgz:5179.got - 2010.04.14 03:39:34.
