data_PCOD8168461
_publ_section_title
;
Structure prediction by ZEFSAII (Michael W. Deem and Ramdas Pophale) SiO2 
 PCOD8168461
Probable space group: P M A 2
;
_chemical_formula_sum "Si O2"
_cell_formula_units_Z 32
_cell_length_a 14.295380
_cell_length_b 9.233422
_cell_length_c 11.696637
_cell_angle_alpha 90.000000
_cell_angle_beta 90.000000
_cell_angle_gamma 90.000000
_cell_volume 1543.900831
_symmetry_space_group_name_H-M "P M A 2"
_symmetry_group_IT_number 28
_symmetry_cell_setting 'orthorhombic'
loop_
_space_group_symop_operation_xyz
x,y,z
-x,-y,z
1/2-x,y,z
1/2+x,-y,z
loop_
_atom_site_type_symbol
_atom_site_label
_atom_site_fract_x
_atom_site_fract_y
_atom_site_fract_z
Si Si1 0.528945 0.349437 0.253060
Si Si2 0.355478 0.135967 0.713770
Si Si3 0.973320 0.341914 0.709456
Si Si4 0.143011 0.667639 0.475791
Si Si5 0.151783 0.162934 0.276913
Si Si6 0.593446 0.084797 0.110409
Si Si7 0.644997 0.124921 0.858749
Si Si8 0.610378 0.008528 0.485217
O O1 0.500000 0.500000 0.190547
O O2 0.586361 0.396728 0.367295
O O3 0.431665 0.272904 0.277880
O O4 0.585163 0.240479 0.172204
O O5 0.250000 0.199913 0.727827
O O6 0.427904 0.263053 0.685673
O O7 0.359101 0.018053 0.613880
O O8 0.386099 0.038392 0.822456
O O9 0.913777 0.360959 0.593287
O O10 0.918952 0.251900 0.806284
O O11 0.000000 0.500000 0.758133
O O12 0.250000 0.605433 0.483203
O O13 0.148391 0.836399 0.450273
O O14 0.250000 0.243192 0.248174
O O15 0.160064 0.107030 0.405769
O O16 0.146518 0.025180 0.192989
O O17 0.500000 0.000000 0.075777
O O18 0.646904 0.125680 0.995315
O O19 0.750000 0.153626 0.813732
O O20 0.500000 0.000000 0.465705
#
# Coordination Sequence:
#
# PCOD8168461 Si02
#       8
#     4   4   4   4   4   4   4   4
#     4  11  24  41  60  89 128 164 198 243 299 364
#     4  11  22  38  63  90 118 156 203 253 301 353
#     4  12  25  41  61  88 128 164 197 243 299 366
#     4  12  23  38  61  90 123 161 203 247 298 357
#     4  11  21  37  62  90 119 157 203 253 301 352
#     4  10  21  39  63  90 120 156 202 253 300 351
#     4  11  23  41  66  92 117 153 204 256 303 353
#     4  12  18  35  62  90 121 150 200 256 305 349
#
# _framework density 20.726718999999999
#
# number of rings (size 3 to 8) (size 9 to 14) (size 15 to 20)
#    0.000    0.750    5.000    3.750    0.000    2.500 
#    0.000    0.000    0.000    0.000    0.000    0.000 
#    0.000    0.000    0.000    0.000    0.000    0.000 
#
# Total GULP energy -396604.993274 kJ/mol
# GULP energy per Si atom -12393.906040 kJ/mol
# Density = 2.067954 g / cm^3
# Si number density = 20.726719 Si / 1000 Ang^3
#
#
#
# Elastic Constant Matrix: (Units=GPa)
#
#
# Indices 1 2 3 4 5 6 
#
# 1 140.4102 32.3415 31.6147 0.0000 0.0000 0.0000
# 2 32.3415 93.5155 21.1736 0.0000 0.0000 0.0000
# 3 31.6147 21.1736 94.6590 0.0000 0.0000 0.0000
# 4 0.0000 0.0000 0.0000 13.3613 0.0000 0.0000
# 5 0.0000 0.0000 0.0000 0.0000 10.1680 0.0000
# 6 0.0000 0.0000 0.0000 0.0000 0.0000 4.2896
#
#
#
# Elastic Compliance Matrix: (Units=1/GPa)
#
#
# Indices 1 2 3 4 5 6 
#
# 1 0.008153 -0.002321 -0.002204 0.000000 0.000000 0.000000
# 2 -0.002321 0.011924 -0.001892 0.000000 0.000000 0.000000
# 3 -0.002204 -0.001892 0.011724 0.000000 0.000000 0.000000
# 4 0.000000 0.000000 0.000000 0.074843 0.000000 0.000000
# 5 0.000000 0.000000 0.000000 0.000000 0.098347 0.000000
# 6 0.000000 0.000000 0.000000 0.000000 0.000000 0.233123
#
#
# Mechanical properties :
#
#
# Convention : Reuss Voigt Hill
#
# Bulk Modulus (GPa) = 52.72203 55.42714 54.07459
# Shear Modulus (GPa) = 10.93445 21.79410 16.36428
#
# Velocity S-wave (km/s) = 2.29935 3.24620 2.81290
# Velocity P-wave (km/s) = 5.70450 6.39143 6.05771
#
# Compressibility (1/GPa) = 0.01896740
#
# Stress axis : x y z
#
# Youngs Moduli (GPa) = 122.65865 83.86167 85.29849
#
# Poissons Ratio (x) = 0.19461 0.18798
# Poissons Ratio (y) = 0.28464 0.16141
# Poissons Ratio (z) = 0.27032 0.15869
#
# Static dielectric constant tensor:
#      x y z
#    x 4.068710 0.000000 0.000000 
#    y 0.000000 3.673570 0.000000 
#    z 0.000000 0.000000 3.638300 
# 
# 
# High freq. dielectric constant tensor:
#      x y z
#    x 1.831310 0.000000 0.000000 
#    y 0.000000 1.791830 0.000000 
#    z 0.000000 0.000000 1.802760 
# 
# From -- ./inp_files/5560.got.cif
#   From: 2010.03.12/outbox.cif.g09.slc.cpg/sg28_3_cif.got.tgz:5560.got - 2010.04.14 03:39:34.
