data_PCOD8168444
_publ_section_title
;
Structure prediction by ZEFSAII (Michael W. Deem and Ramdas Pophale) SiO2 
 PCOD8168444
Probable space group: P M A 2
;
_chemical_formula_sum "Si O2"
_cell_formula_units_Z 24
_cell_length_a 8.660371
_cell_length_b 9.392767
_cell_length_c 15.085979
_cell_angle_alpha 90.000000
_cell_angle_beta 90.000000
_cell_angle_gamma 90.000000
_cell_volume 1227.166653
_symmetry_space_group_name_H-M "P M A 2"
_symmetry_group_IT_number 28
_symmetry_cell_setting 'orthorhombic'
loop_
_space_group_symop_operation_xyz
x,y,z
-x,-y,z
1/2-x,y,z
1/2+x,-y,z
loop_
_atom_site_type_symbol
_atom_site_label
_atom_site_fract_x
_atom_site_fract_y
_atom_site_fract_z
Si Si1 0.931361 0.845163 0.301560
Si Si2 0.431854 0.845252 0.482420
Si Si3 0.429375 0.350352 0.626926
Si Si4 0.067353 0.843566 0.977242
Si Si5 0.932081 0.656727 0.133557
Si Si6 0.429838 0.348164 0.832693
O O1 0.750000 0.862882 0.313152
O O2 0.975328 0.738064 0.223436
O O3 0.001305 0.777592 0.391671
O O4 0.000000 0.000000 0.279851
O O5 0.250000 0.850996 0.475316
O O6 0.480751 0.764023 0.570048
O O7 0.500000 0.000000 0.492346
O O8 0.500000 0.500000 0.599718
O O9 0.250000 0.348430 0.602989
O O10 0.459168 0.317209 0.729658
O O11 0.250000 0.854225 0.979463
O O12 0.013042 0.779996 0.883482
O O13 0.000000 0.000000 0.991724
O O14 0.009281 0.739136 0.053092
O O15 0.750000 0.649805 0.117469
O O16 0.000000 0.500000 0.139512
O O17 0.500000 0.500000 0.861247
O O18 0.250000 0.350574 0.856730
#
# Coordination Sequence:
#
# PCOD8168444 Si02
#       6
#     4   4   4   4   4   4
#     4  10  21  38  60  85 115 151 193 240 290 344
#     4  11  22  37  59  85 117 155 195 240 289 343
#     4  10  21  38  60  86 117 153 194 239 288 343
#     4  12  25  41  62  87 118 153 192 238 287 343
#     4  11  24  41  62  88 118 153 193 237 286 341
#     4  10  21  39  62  87 117 153 193 238 288 342
#
# _framework density 19.557245999999999
#
# number of rings (size 3 to 8) (size 9 to 14) (size 15 to 20)
#    0.000    1.333    0.000    7.000    0.000    7.333 
#    0.000    1.667    0.000    0.000    0.000    0.000 
#    0.000    0.000    0.000    0.000    0.000    0.000 
#
# Total GULP energy -297710.125179 kJ/mol
# GULP energy per Si atom -12404.588549 kJ/mol
# Density = 1.951273 g / cm^3
# Si number density = 19.557246 Si / 1000 Ang^3
#
#
#
# Elastic Constant Matrix: (Units=GPa)
#
#
# Indices 1 2 3 4 5 6 
#
# 1 135.0560 68.2441 63.6082 0.0000 0.0000 0.0000
# 2 68.2441 107.6141 66.9634 0.0000 0.0000 0.0000
# 3 63.6082 66.9634 109.5361 0.0000 0.0000 0.0000
# 4 0.0000 0.0000 0.0000 118.2736 0.0000 0.0000
# 5 0.0000 0.0000 0.0000 0.0000 38.5650 0.0000
# 6 0.0000 0.0000 0.0000 0.0000 0.0000 39.2236
#
#
#
# Elastic Compliance Matrix: (Units=1/GPa)
#
#
# Indices 1 2 3 4 5 6 
#
# 1 0.011738 -0.005168 -0.003657 0.000000 0.000000 0.000000
# 2 -0.005168 0.017273 -0.007559 0.000000 0.000000 0.000000
# 3 -0.003657 -0.007559 0.015874 0.000000 0.000000 0.000000
# 4 0.000000 0.000000 0.000000 0.008455 0.000000 0.000000
# 5 0.000000 0.000000 0.000000 0.000000 0.025930 0.000000
# 6 0.000000 0.000000 0.000000 0.000000 0.000000 0.025495
#
#
# Mechanical properties :
#
#
# Convention : Reuss Voigt Hill
#
# Bulk Modulus (GPa) = 82.52284 83.31529 82.91907
# Shear Modulus (GPa) = 35.31771 49.43848 42.37809
#
# Velocity S-wave (km/s) = 4.25415 5.03326 4.66002
# Velocity P-wave (km/s) = 8.14970 8.74480 8.45249
#
# Compressibility (1/GPa) = 0.01211786
#
# Stress axis : x y z
#
# Youngs Moduli (GPa) = 85.19199 57.89272 62.99714
#
# Poissons Ratio (x) = 0.29921 0.23037
# Poissons Ratio (y) = 0.44030 0.47616
# Poissons Ratio (z) = 0.31153 0.43758
#
# Static dielectric constant tensor:
#      x y z
#    x 3.802910 0.000000 0.000000 
#    y 0.000000 1.100580 0.000000 
#    z 0.000000 0.000000 3.845980 
# 
# 
# High freq. dielectric constant tensor:
#      x y z
#    x 1.783970 0.000000 0.000000 
#    y 0.000000 1.762790 0.000000 
#    z 0.000000 0.000000 1.777040 
# 
# From -- ./inp_files/6056.got.cif
#   From: 2010.03.12/outbox.cif.g09.slc.cpg/sg28_4_cif.got.tgz:6056.got - 2010.04.14 03:39:34.
