data_PCOD8168239
_publ_section_title
;
Structure prediction by ZEFSAII (Michael W. Deem and Ramdas Pophale) SiO2 
 PCOD8168239
Probable space group: P M A 2
;
_chemical_formula_sum "Si O2"
_cell_formula_units_Z 32
_cell_length_a 8.706384
_cell_length_b 14.531281
_cell_length_c 12.377396
_cell_angle_alpha 90.000000
_cell_angle_beta 90.000000
_cell_angle_gamma 90.000000
_cell_volume 1565.925171
_symmetry_space_group_name_H-M "P M A 2"
_symmetry_group_IT_number 28
_symmetry_cell_setting 'orthorhombic'
loop_
_space_group_symop_operation_xyz
x,y,z
-x,-y,z
1/2-x,y,z
1/2+x,-y,z
loop_
_atom_site_type_symbol
_atom_site_label
_atom_site_fract_x
_atom_site_fract_y
_atom_site_fract_z
Si Si1 0.576569 0.866229 0.662920
Si Si2 0.428751 0.592661 0.801600
Si Si3 0.931575 0.601651 0.167462
Si Si4 0.068415 0.906780 0.436721
Si Si5 0.432027 0.905569 0.892733
Si Si6 0.068132 0.281254 0.372405
Si Si7 0.931601 0.724110 0.966450
Si Si8 0.579013 0.657907 0.603208
O O1 0.750000 0.906516 0.664778
O O2 0.486513 0.905123 0.560422
O O3 0.488497 0.895461 0.770108
O O4 0.582934 0.757328 0.656720
O O5 0.500000 0.500000 0.851763
O O6 0.250000 0.596539 0.826551
O O7 0.513990 0.677969 0.855720
O O8 0.462507 0.595758 0.672963
O O9 0.750000 0.591745 0.167198
O O10 0.988419 0.656497 0.273170
O O11 0.000000 0.500000 0.163873
O O12 0.989074 0.661284 0.065684
O O13 0.250000 0.908885 0.431616
O O14 0.009931 0.818817 0.368808
O O15 0.000000 0.000000 0.383252
O O16 0.250000 0.906766 0.895189
O O17 0.492498 0.824593 0.970997
O O18 0.500000 0.000000 0.940955
O O19 0.250000 0.264454 0.372451
O O20 0.018518 0.336186 0.480447
O O21 0.750000 0.736022 0.966361
O O22 0.750000 0.614084 0.607657
#
# Coordination Sequence:
#
# PCOD8168239 Si02
#       8
#     4   4   4   4   4   4   4   4
#     4  10  19  34  56  83 121 164 203 248 296 353
#     4  12  24  37  57  85 120 159 201 246 302 366
#     4  10  23  43  69  94 119 154 200 255 308 366
#     4  11  21  34  55  86 123 164 208 250 297 357
#     4  12  24  38  59  88 122 162 205 249 300 361
#     4   9  20  40  62  88 121 157 199 250 307 359
#     4  11  23  42  64  89 122 157 200 253 309 362
#     4   9  18  34  57  83 120 159 194 241 299 358
#
# _framework density 20.435203000000001
#
# number of rings (size 3 to 8) (size 9 to 14) (size 15 to 20)
#    0.000    1.500    1.250    5.625    0.000    5.000 
#    0.000    1.875    0.000    0.000    0.000    0.000 
#    0.000    0.000    0.000    0.000    0.000    0.000 
#
# Total GULP energy -396846.783030 kJ/mol
# GULP energy per Si atom -12401.461970 kJ/mol
# Density = 2.038869 g / cm^3
# Si number density = 20.435203 Si / 1000 Ang^3
#
#
#
# Elastic Constant Matrix: (Units=GPa)
#
#
# Indices 1 2 3 4 5 6 
#
# 1 119.0928 56.0288 38.5017 0.0000 0.0000 0.0000
# 2 56.0288 149.0188 64.8852 0.0000 0.0000 0.0000
# 3 38.5017 64.8852 105.3636 0.0000 0.0000 0.0000
# 4 0.0000 0.0000 0.0000 64.2105 0.0000 0.0000
# 5 0.0000 0.0000 0.0000 0.0000 19.9699 0.0000
# 6 0.0000 0.0000 0.0000 0.0000 0.0000 36.9798
#
#
#
# Elastic Compliance Matrix: (Units=1/GPa)
#
#
# Indices 1 2 3 4 5 6 
#
# 1 0.010477 -0.003105 -0.001917 0.000000 0.000000 0.000000
# 2 -0.003105 0.010089 -0.005079 0.000000 0.000000 0.000000
# 3 -0.001917 -0.005079 0.013319 0.000000 0.000000 0.000000
# 4 0.000000 0.000000 0.000000 0.015574 0.000000 0.000000
# 5 0.000000 0.000000 0.000000 0.000000 0.050075 0.000000
# 6 0.000000 0.000000 0.000000 0.000000 0.000000 0.027042
#
#
# Mechanical properties :
#
#
# Convention : Reuss Voigt Hill
#
# Bulk Modulus (GPa) = 73.07115 76.92295 74.99705
# Shear Modulus (GPa) = 33.03870 38.50267 35.77069
#
# Velocity S-wave (km/s) = 4.02525 4.34537 4.18837
# Velocity P-wave (km/s) = 7.57883 7.93098 7.75690
#
# Compressibility (1/GPa) = 0.01368529
#
# Stress axis : x y z
#
# Youngs Moduli (GPa) = 95.44645 99.11576 75.08173
#
# Poissons Ratio (x) = 0.30773 0.14390
# Poissons Ratio (y) = 0.29634 0.38131
# Poissons Ratio (z) = 0.18293 0.50337
#
# Static dielectric constant tensor:
#      x y z
#    x 3.641770 0.000000 0.000000 
#    y 0.000000 3.919490 0.000000 
#    z 0.000000 0.000000 3.695700 
# 
# 
# High freq. dielectric constant tensor:
#      x y z
#    x 1.799300 0.000000 0.000000 
#    y 0.000000 1.811580 0.000000 
#    z 0.000000 0.000000 1.778340 
# 
# From -- ./inp_files/4978.got.cif
#   From: 2010.03.12/outbox.cif.g09.slc.cpg/sg28_3_cif.got.tgz:4978.got - 2010.04.14 03:39:34.
