data_PCOD8168700
_publ_section_title
;
Structure prediction by ZEFSAII (Michael W. Deem and Ramdas Pophale) SiO2 
 PCOD8168700
Probable space group: P C A 21
;
_chemical_formula_sum "Si O2"
_cell_formula_units_Z 32
_cell_length_a 18.252020
_cell_length_b 8.868559
_cell_length_c 10.176943
_cell_angle_alpha 90.000000
_cell_angle_beta 90.000000
_cell_angle_gamma 90.000000
_cell_volume 1647.332769
_symmetry_space_group_name_H-M "P C A 21"
_symmetry_group_IT_number 29
_symmetry_cell_setting 'orthorhombic'
loop_
_space_group_symop_operation_xyz
x,y,z
-x,-y,1/2+z
1/2-x,y,1/2+z
1/2+x,-y,z
loop_
_atom_site_type_symbol
_atom_site_label
_atom_site_fract_x
_atom_site_fract_y
_atom_site_fract_z
Si Si1 0.371143 0.143331 0.785140
Si Si2 0.549906 0.689912 0.060558
Si Si3 0.210600 0.167110 0.701586
Si Si4 0.080947 0.951285 0.689929
Si Si5 0.316959 0.392356 0.973840
Si Si6 0.906710 0.396869 0.152919
Si Si7 0.485499 0.957736 0.926725
Si Si8 0.334780 0.421777 0.379417
O O1 0.423091 0.184290 0.663327
O O2 0.289619 0.099146 0.739198
O O3 0.407613 0.997903 0.856663
O O4 0.366643 0.292737 0.876503
O O5 0.493564 0.573800 0.130599
O O6 0.507654 0.780090 0.940779
O O7 0.617932 0.591135 0.011809
O O8 0.219287 0.282390 0.581404
O O9 0.171445 0.254311 0.820525
O O10 0.158255 0.030434 0.668791
O O11 0.102592 0.781762 0.653857
O O12 0.024211 0.016946 0.578561
O O13 0.048746 0.963007 0.838300
O O14 0.364820 0.526029 0.032583
O O15 0.248385 0.476798 0.904183
O O16 0.878098 0.462403 0.288832
#
# Coordination Sequence:
#
# PCOD8168700 Si02
#       8
#     4   4   4   4   4   4   4   4
#     4  11  21  37  64  92 117 162 211 255 303 371
#     4  11  22  38  63  90 124 157 210 253 310 366
#     4  10  20  37  67  89 111 162 211 246 301 367
#     4  11  22  42  63  94 130 160 201 261 314 369
#     4  10  21  40  65  86 122 162 208 253 305 374
#     4  10  24  39  60  91 128 159 199 254 317 366
#     4  11  21  38  63  93 127 159 202 262 310 361
#     4  10  21  41  61  87 121 163 204 250 298 374
#
# _framework density 19.425341
#
# number of rings (size 3 to 8) (size 9 to 14) (size 15 to 20)
#    0.000    1.500    6.250    0.000    1.750    0.000 
#    4.500    0.000    0.000    0.000    0.000    0.000 
#    0.000    0.000    0.000    0.000    0.000    0.000 
#
# Total GULP energy -396479.545762 kJ/mol
# GULP energy per Si atom -12389.985805 kJ/mol
# Density = 1.938113 g / cm^3
# Si number density = 19.425341 Si / 1000 Ang^3
#
#
#
# Elastic Constant Matrix: (Units=GPa)
#
#
# Indices 1 2 3 4 5 6 
#
# 1 112.0685 45.5974 46.2106 0.0000 0.0000 0.0000
# 2 45.5974 58.5000 26.2305 0.0000 0.0000 0.0000
# 3 46.2106 26.2305 86.5526 0.0000 0.0000 0.0000
# 4 0.0000 0.0000 0.0000 27.3538 0.0000 0.0000
# 5 0.0000 0.0000 0.0000 0.0000 42.0247 0.0000
# 6 0.0000 0.0000 0.0000 0.0000 0.0000 23.7592
#
#
#
# Elastic Compliance Matrix: (Units=1/GPa)
#
#
# Indices 1 2 3 4 5 6 
#
# 1 0.014782 -0.009238 -0.005092 0.000000 0.000000 0.000000
# 2 -0.009238 0.025556 -0.002813 0.000000 0.000000 0.000000
# 3 -0.005092 -0.002813 0.015125 0.000000 0.000000 0.000000
# 4 0.000000 0.000000 0.000000 0.036558 0.000000 0.000000
# 5 0.000000 0.000000 0.000000 0.000000 0.023796 0.000000
# 6 0.000000 0.000000 0.000000 0.000000 0.000000 0.042089
#
#
# Mechanical properties :
#
#
# Convention : Reuss Voigt Hill
#
# Bulk Modulus (GPa) = 47.22289 54.79982 51.01135
# Shear Modulus (GPa) = 25.09418 27.89971 26.49694
#
# Velocity S-wave (km/s) = 3.59810 3.79390 3.69730
# Velocity P-wave (km/s) = 6.45170 6.88936 6.67412
#
# Compressibility (1/GPa) = 0.02117617
#
# Stress axis : x y z
#
# Youngs Moduli (GPa) = 67.65174 39.13009 66.11655
#
# Poissons Ratio (x) = 0.36149 0.33668
# Poissons Ratio (y) = 0.62498 0.18596
# Poissons Ratio (z) = 0.34450 0.11006
#
# Static dielectric constant tensor:
#      x y z
#    x 3.778230 0.000000 0.000000 
#    y 0.000000 3.217620 0.000000 
#    z 0.000000 0.000000 3.860170 
# 
# 
# High freq. dielectric constant tensor:
#      x y z
#    x 1.770590 0.000000 0.000000 
#    y 0.000000 1.718370 0.000000 
#    z 0.000000 0.000000 1.766700 
# 
# From -- ./inp_files/3677.got.cif
#   From: 2010.03.12/outbox.cif.g09.slc.cpg/sg29_2_cif.got.tgz:3677.got - 2010.04.14 03:43:10.
