data_PCOD8168531
_publ_section_title
;
Structure prediction by ZEFSAII (Michael W. Deem and Ramdas Pophale) SiO2 
 PCOD8168531
Probable space group: P C A 21
;
_chemical_formula_sum "Si O2"
_cell_formula_units_Z 28
_cell_length_a 5.355580
_cell_length_b 6.980602
_cell_length_c 30.575727
_cell_angle_alpha 90.000000
_cell_angle_beta 90.000000
_cell_angle_gamma 90.000000
_cell_volume 1143.078827
_symmetry_space_group_name_H-M "P C A 21"
_symmetry_group_IT_number 29
_symmetry_cell_setting 'orthorhombic'
loop_
_space_group_symop_operation_xyz
x,y,z
-x,-y,1/2+z
1/2-x,y,1/2+z
1/2+x,-y,z
loop_
_atom_site_type_symbol
_atom_site_label
_atom_site_fract_x
_atom_site_fract_y
_atom_site_fract_z
Si Si1 0.501149 0.728166 0.412750
Si Si2 0.501698 0.625862 0.143776
Si Si3 0.002148 0.213889 0.514556
Si Si4 0.502134 0.215120 0.551129
Si Si5 0.500528 0.724329 0.239227
Si Si6 0.001147 0.694982 0.377118
Si Si7 0.000530 0.698432 0.275199
O O1 0.499938 0.790519 0.462636
O O2 0.250554 0.813670 0.389930
O O3 0.501826 0.499502 0.405471
O O4 0.752302 0.813893 0.390164
O O5 0.753617 0.502214 0.142258
O O6 0.499780 0.773330 0.103463
O O7 0.500151 0.757009 0.187218
O O8 0.253922 0.319167 0.531608
O O9 0.751732 0.319259 0.532176
O O10 0.004183 0.002277 0.534864
O O11 0.750717 0.815653 0.261235
O O12 0.500879 0.497407 0.248142
O O13 0.250488 0.815610 0.261292
O O14 0.000208 0.646935 0.326103
#
# Coordination Sequence:
#
# PCOD8168531 Si02
#       7
#     4   4   4   4   4   4   4
#     4  10  18  32  50  75 109 144 186 230 276 326
#     4  12  21  37  52  86 120 145 189 234 299 327
#     4  10  21  42  59  74 105 150 203 239 281 334
#     4  10  23  40  59  77 105 150 200 240 283 346
#     4  10  16  27  46  70 108 157 171 208 265 336
#     4  10  19  30  48  82 118 150 175 224 285 329
#     4  10  16  28  46  70 115 158 172 199 273 344
#
# _framework density 24.495252000000001
#
# number of rings (size 3 to 8) (size 9 to 14) (size 15 to 20)
#    0.000    1.714    2.857    6.000    0.000    0.000 
#   15.429    0.000    0.000    0.000    0.000    0.000 
#    0.000  155.429    0.000    0.000    0.000    0.000 
#
# Total GULP energy -346969.030096 kJ/mol
# GULP energy per Si atom -12391.751075 kJ/mol
# Density = 2.443950 g / cm^3
# Si number density = 24.495252 Si / 1000 Ang^3
#
#
#
# Elastic Constant Matrix: (Units=GPa)
#
#
# Indices 1 2 3 4 5 6 
#
# 1 311.0668 -8.1115 74.0177 0.0000 0.0000 0.0000
# 2 -8.1115 44.6658 22.8749 0.0000 0.0000 0.0000
# 3 74.0177 22.8749 207.9015 0.0000 0.0000 0.0000
# 4 0.0000 0.0000 0.0000 14.9645 0.0000 0.0000
# 5 0.0000 0.0000 0.0000 0.0000 34.4319 0.0000
# 6 0.0000 0.0000 0.0000 0.0000 0.0000 -21.3342
#
#
#
# Elastic Compliance Matrix: (Units=1/GPa)
#
#
# Indices 1 2 3 4 5 6 
#
# 1 0.003591 0.001385 -0.001431 0.000000 0.000000 0.000000
# 2 0.001385 0.024260 -0.003162 0.000000 0.000000 0.000000
# 3 -0.001431 -0.003162 0.005667 0.000000 0.000000 0.000000
# 4 0.000000 0.000000 0.000000 0.066825 0.000000 0.000000
# 5 0.000000 0.000000 0.000000 0.000000 0.029043 0.000000
# 6 0.000000 0.000000 0.000000 0.000000 0.000000 -0.046873
#
#
# Mechanical properties :
#
#
# Convention : Reuss Voigt Hill
#
# Bulk Modulus (GPa) = 36.89792 82.35515 59.62654
# Shear Modulus (GPa) = 51.03938 37.26929 44.15433
#
# Velocity S-wave (km/s) = 4.56965 3.90486 4.25027
# Velocity P-wave (km/s) = 6.55273 7.35013 6.96285
#
# Compressibility (1/GPa) = 0.02710180
#
# Stress axis : x y z
#
# Youngs Moduli (GPa) = 278.44553 41.22081 176.44817
#
# Poissons Ratio (x) = -0.05709 0.25250
# Poissons Ratio (y) = -0.38567 0.55799
# Poissons Ratio (z) = 0.39846 0.13035
#
# Static dielectric constant tensor:
#      x y z
#    x 13.302980 0.000000 0.000000 
#    y 0.000000 3.505160 0.000000 
#    z 0.000000 0.000000 4.317090 
# 
# 
# High freq. dielectric constant tensor:
#      x y z
#    x 2.026410 0.000000 0.000000 
#    y 0.000000 1.917490 0.000000 
#    z 0.000000 0.000000 1.975580 
# 
# From -- ./inp_files/5636.got.cif
#   From: 2010.03.12/outbox.cif.g09.slc.cpg/sg29_3_cif.got.tgz:5636.got - 2010.04.14 03:43:10.
