data_PCOD8168712
_publ_section_title
;
Structure prediction by ZEFSAII (Michael W. Deem and Ramdas Pophale) SiO2 
 PCOD8168712
Probable space group: P C A 21
;
_chemical_formula_sum "Si O2"
_cell_formula_units_Z 32
_cell_length_a 20.076579
_cell_length_b 9.003379
_cell_length_c 8.475358
_cell_angle_alpha 90.000000
_cell_angle_beta 90.000000
_cell_angle_gamma 90.000000
_cell_volume 1531.980708
_symmetry_space_group_name_H-M "P C A 21"
_symmetry_group_IT_number 29
_symmetry_cell_setting 'orthorhombic'
loop_
_space_group_symop_operation_xyz
x,y,z
-x,-y,1/2+z
1/2-x,y,1/2+z
1/2+x,-y,z
loop_
_atom_site_type_symbol
_atom_site_label
_atom_site_fract_x
_atom_site_fract_y
_atom_site_fract_z
Si Si1 0.943043 0.388923 0.760140
Si Si2 0.681493 0.589531 0.759706
Si Si3 0.538647 0.068440 0.398906
Si Si4 0.335574 0.111262 0.845432
Si Si5 0.822116 0.552708 0.889741
Si Si6 0.078204 0.897060 0.758331
Si Si7 0.701709 0.922991 0.702855
Si Si8 0.439738 0.578245 0.390459
O O1 0.965669 0.230604 0.824767
O O2 0.868548 0.425112 0.817141
O O3 0.947533 0.383653 0.572792
O O4 0.990794 0.515489 0.828189
O O5 0.747534 0.515997 0.833166
O O6 0.673279 0.543794 0.578175
O O7 0.684414 0.765831 0.782644
O O8 0.618760 0.539196 0.862493
O O9 0.552413 0.073457 0.583283
O O10 0.595535 0.972244 0.310753
O O11 0.468443 0.986543 0.378626
O O12 0.345860 0.287751 0.821926
O O13 0.279721 0.042871 0.729489
O O14 0.308645 0.080717 0.018295
O O15 0.077933 0.723752 0.792089
O O16 0.154000 0.953353 0.780123
#
# Coordination Sequence:
#
# PCOD8168712 Si02
#       8
#     4   4   4   4   4   4   4   4
#     4  12  25  41  61  87 118 157 201 250 304 360
#     4  10  20  38  62  90 121 156 197 243 295 356
#     4  11  23  40  61  88 120 156 197 245 297 356
#     4   9  20  37  60  87 117 151 191 236 287 346
#     4  10  20  38  62  90 121 156 197 243 295 356
#     4  11  23  40  61  88 120 156 197 245 297 356
#     4   9  20  37  60  87 117 151 191 236 287 346
#     4  12  25  41  61  87 118 157 201 250 304 360
#
# _framework density 20.887991
#
# number of rings (size 3 to 8) (size 9 to 14) (size 15 to 20)
#    0.000    1.500    0.000    5.250    0.000    6.000 
#    0.000    2.500    0.000    0.000    0.000    0.000 
#    0.000    0.000    0.000    0.000    0.000    0.000 
#
# Total GULP energy -396998.611566 kJ/mol
# GULP energy per Si atom -12406.206611 kJ/mol
# Density = 2.084045 g / cm^3
# Si number density = 20.887991 Si / 1000 Ang^3
#
#
#
# Elastic Constant Matrix: (Units=GPa)
#
#
# Indices 1 2 3 4 5 6 
#
# 1 61.9630 5.6769 5.3330 0.0000 0.0000 0.0000
# 2 5.6769 61.5506 3.3619 0.0000 0.0000 0.0000
# 3 5.3330 3.3619 45.4385 0.0000 0.0000 0.0000
# 4 0.0000 0.0000 0.0000 34.8983 0.0000 0.0000
# 5 0.0000 0.0000 0.0000 0.0000 41.1759 0.0000
# 6 0.0000 0.0000 0.0000 0.0000 0.0000 38.9871
#
#
#
# Elastic Compliance Matrix: (Units=1/GPa)
#
#
# Indices 1 2 3 4 5 6 
#
# 1 0.016425 -0.001415 -0.001823 0.000000 0.000000 0.000000
# 2 -0.001415 0.016435 -0.001050 0.000000 0.000000 0.000000
# 3 -0.001823 -0.001050 0.022299 0.000000 0.000000 0.000000
# 4 0.000000 0.000000 0.000000 0.028655 0.000000 0.000000
# 5 0.000000 0.000000 0.000000 0.000000 0.024286 0.000000
# 6 0.000000 0.000000 0.000000 0.000000 0.000000 0.025650
#
#
# Mechanical properties :
#
#
# Convention : Reuss Voigt Hill
#
# Bulk Modulus (GPa) = 21.46714 21.96618 21.71666
# Shear Modulus (GPa) = 31.67489 33.31761 32.49625
#
# Velocity S-wave (km/s) = 3.89834 3.99815 3.94856
# Velocity P-wave (km/s) = 5.52832 5.64382 5.58637
#
# Compressibility (1/GPa) = 0.04658282
#
# Stress axis : x y z
#
# Youngs Moduli (GPa) = 60.88195 60.84697 44.84420
#
# Poissons Ratio (x) = 0.08612 0.08175
# Poissons Ratio (y) = 0.08617 0.04708
# Poissons Ratio (z) = 0.11099 0.06388
#
# Static dielectric constant tensor:
#      x y z
#    x 3.941040 0.000000 0.000000 
#    y 0.000000 3.732970 0.000000 
#    z 0.000000 0.000000 3.742590 
# 
# 
# High freq. dielectric constant tensor:
#      x y z
#    x 1.830110 0.000000 0.000000 
#    y 0.000000 1.814230 0.000000 
#    z 0.000000 0.000000 1.822550 
# 
# From -- ./inp_files/2139.got.cif
#   From: 2010.03.12/outbox.cif.g09.slc.cpg/sg29_2_cif.got.tgz:2139.got - 2010.04.14 03:43:10.
