data_PCOD8168012
_publ_section_title
;
Structure prediction by ZEFSAII (Michael W. Deem and Ramdas Pophale) SiO2 
 PCOD8168012
Probable space group: P M A 2
;
_chemical_formula_sum "Si O2"
_cell_formula_units_Z 32
_cell_length_a 11.643529
_cell_length_b 30.203504
_cell_length_c 5.113777
_cell_angle_alpha 90.000000
_cell_angle_beta 90.000000
_cell_angle_gamma 90.000000
_cell_volume 1798.389443
_symmetry_space_group_name_H-M "P M A 2"
_symmetry_group_IT_number 28
_symmetry_cell_setting 'orthorhombic'
loop_
_space_group_symop_operation_xyz
x,y,z
-x,-y,z
1/2-x,y,z
1/2+x,-y,z
loop_
_atom_site_type_symbol
_atom_site_label
_atom_site_fract_x
_atom_site_fract_y
_atom_site_fract_z
Si Si1 0.385098 0.315692 0.427870
Si Si2 0.997802 0.832178 0.920011
Si Si3 0.119402 0.412940 0.465452
Si Si4 0.012563 0.050699 0.395327
Si Si5 0.619747 0.135828 0.419002
Si Si6 0.624006 0.918828 0.897057
Si Si7 0.114843 0.261598 0.918515
Si Si8 0.888063 0.531144 0.975358
O O1 0.250000 0.319319 0.475970
O O2 0.441989 0.364813 0.447044
O O3 0.433697 0.283918 0.654894
O O4 0.415797 0.295323 0.149393
O O5 0.047487 0.836662 0.629670
O O6 0.893450 0.866721 0.949664
O O7 0.952072 0.783419 0.970122
O O8 0.093451 0.844632 0.133618
O O9 0.250000 0.404730 0.387767
O O10 0.074243 0.447912 0.252025
O O11 0.105561 0.431348 0.755927
O O12 0.107537 0.070056 0.592429
O O13 0.902134 0.082585 0.435898
O O14 0.044314 0.052643 0.089900
O O15 0.000000 0.000000 0.477850
O O16 0.750000 0.144276 0.487558
O O17 0.750000 0.932031 0.981271
O O18 0.250000 0.251256 0.905336
O O19 0.750000 0.512788 0.978956
O O20 0.000000 0.500000 0.913808
#
# Coordination Sequence:
#
# PCOD8168012 Si02
#       8
#     4   4   4   4   4   4   4   4
#     4   9  17  28  45  72 103 134 162 193 246 305
#     4  10  20  34  51  74 100 124 158 197 237 287
#     4   9  17  30  47  70 103 134 164 207 253 302
#     4  10  21  36  52  75  99 121 158 197 231 283
#     4  10  21  36  53  71  94 127 164 201 238 276
#     4  10  20  34  52  73 100 129 151 181 236 293
#     4  10  18  29  48  75 104 128 156 197 247 301
#     4  10  19  31  49  74 102 135 176 217 259 305
#
# _framework density 17.793700000000001
#
# number of rings (size 3 to 8) (size 9 to 14) (size 15 to 20)
#    0.000    2.250    0.000    3.375    0.000    4.000 
#    0.000    3.750    0.000    0.000    0.000   17.500 
#    0.000    0.000    0.000    0.000    0.000    0.000 
#
# Total GULP energy -396462.625453 kJ/mol
# GULP energy per Si atom -12389.457045 kJ/mol
# Density = 1.775320 g / cm^3
# Si number density = 17.793700 Si / 1000 Ang^3
#
#
#
# Elastic Constant Matrix: (Units=GPa)
#
#
# Indices 1 2 3 4 5 6 
#
# 1 62.5523 28.7928 8.5556 0.0000 0.0000 0.0000
# 2 28.7928 97.2789 6.5198 0.0000 0.0000 0.0000
# 3 8.5556 6.5198 78.1031 0.0000 0.0000 0.0000
# 4 0.0000 0.0000 0.0000 25.7531 0.0000 0.0000
# 5 0.0000 0.0000 0.0000 0.0000 10.2315 0.0000
# 6 0.0000 0.0000 0.0000 0.0000 0.0000 12.6032
#
#
#
# Elastic Compliance Matrix: (Units=1/GPa)
#
#
# Indices 1 2 3 4 5 6 
#
# 1 0.018704 -0.005429 -0.001596 0.000000 0.000000 0.000000
# 2 -0.005429 0.011913 -0.000400 0.000000 0.000000 0.000000
# 3 -0.001596 -0.000400 0.013012 0.000000 0.000000 0.000000
# 4 0.000000 0.000000 0.000000 0.038830 0.000000 0.000000
# 5 0.000000 0.000000 0.000000 0.000000 0.097737 0.000000
# 6 0.000000 0.000000 0.000000 0.000000 0.000000 0.079345
#
#
# Mechanical properties :
#
#
# Convention : Reuss Voigt Hill
#
# Bulk Modulus (GPa) = 34.74631 36.18561 35.46596
# Shear Modulus (GPa) = 17.60666 22.65532 20.13099
#
# Velocity S-wave (km/s) = 3.14903 3.57209 3.36721
# Velocity P-wave (km/s) = 5.72639 6.11502 5.92389
#
# Compressibility (1/GPa) = 0.02878004
#
# Stress axis : x y z
#
# Youngs Moduli (GPa) = 53.46487 83.93894 76.85363
#
# Poissons Ratio (x) = 0.45571 0.12263
# Poissons Ratio (y) = 0.29026 0.03072
# Poissons Ratio (z) = 0.08531 0.03356
#
# Static dielectric constant tensor:
#      x y z
#    x 3.051140 0.000000 0.000000 
#    y 0.000000 3.331430 0.000000 
#    z 0.000000 0.000000 3.454420 
# 
# 
# High freq. dielectric constant tensor:
#      x y z
#    x 1.643370 0.000000 0.000000 
#    y 0.000000 1.685570 0.000000 
#    z 0.000000 0.000000 1.712640 
# 
# From -- ./inp_files/592.got.cif
#   From: 2010.03.12/outbox.cif.g09.slc.cpg/sg28_1_cif.got.tgz:592.got - 2010.04.14 03:39:34.
