data_PCOD8168613
_publ_section_title
;
Structure prediction by ZEFSAII (Michael W. Deem and Ramdas Pophale) SiO2 
 PCOD8168613
Probable space group: P C A 21
;
_chemical_formula_sum "Si O2"
_cell_formula_units_Z 24
_cell_length_a 9.779687
_cell_length_b 13.718766
_cell_length_c 8.371464
_cell_angle_alpha 90.000000
_cell_angle_beta 90.000000
_cell_angle_gamma 90.000000
_cell_volume 1123.159456
_symmetry_space_group_name_H-M "P C A 21"
_symmetry_group_IT_number 29
_symmetry_cell_setting 'orthorhombic'
loop_
_space_group_symop_operation_xyz
x,y,z
-x,-y,1/2+z
1/2-x,y,1/2+z
1/2+x,-y,z
loop_
_atom_site_type_symbol
_atom_site_label
_atom_site_fract_x
_atom_site_fract_y
_atom_site_fract_z
Si Si1 0.916483 0.075825 0.450570
Si Si2 0.091722 0.453598 0.626529
Si Si3 0.054263 0.266625 0.474240
Si Si4 0.661990 0.991596 0.266122
Si Si5 0.200335 0.223372 0.165051
Si Si6 0.614110 0.596591 0.996351
O O1 0.803766 0.028529 0.337132
O O2 0.885917 0.069989 0.637596
O O3 0.933830 0.192505 0.421085
O O4 0.057754 0.019504 0.413260
O O5 0.002320 0.373755 0.523567
O O6 0.246708 0.453715 0.561149
O O7 0.091387 0.425905 0.811631
O O8 0.015729 0.555415 0.596571
O O9 0.167703 0.274232 0.333976
O O10 0.137731 0.227521 0.629344
O O11 0.663587 0.890507 0.167046
O O12 0.117321 0.286629 0.031927
#
# Coordination Sequence:
#
# PCOD8168613 Si02
#       6
#     4   4   4   4   4   4
#     4  11  23  39  62  88 123 161 205 256 315 375
#     4  11  22  40  62  92 125 163 210 261 317 378
#     4  10  20  36  59  87 120 160 207 258 312 380
#     4  11  22  39  60  89 120 160 206 260 312 378
#     4  10  19  35  60  86 116 160 209 251 308 381
#     4  11  22  39  65  92 124 166 211 264 316 380
#
# _framework density 21.368292
#
# number of rings (size 3 to 8) (size 9 to 14) (size 15 to 20)
#    0.000    1.333    0.000   10.000    0.000    1.333 
#    0.000    8.333    0.000    0.000    0.000    0.000 
#    0.000    0.000    0.000    0.000    0.000    0.000 
#
# Total GULP energy -297413.724693 kJ/mol
# GULP energy per Si atom -12392.238529 kJ/mol
# Density = 2.131966 g / cm^3
# Si number density = 21.368292 Si / 1000 Ang^3
#
#
#
# Elastic Constant Matrix: (Units=GPa)
#
#
# Indices 1 2 3 4 5 6 
#
# 1 83.0131 44.0211 21.5445 0.0000 0.0000 0.0000
# 2 44.0211 79.2877 35.7251 0.0000 0.0000 0.0000
# 3 21.5445 35.7251 104.5984 0.0000 0.0000 0.0000
# 4 0.0000 0.0000 0.0000 37.3390 0.0000 0.0000
# 5 0.0000 0.0000 0.0000 0.0000 31.6570 0.0000
# 6 0.0000 0.0000 0.0000 0.0000 0.0000 36.6597
#
#
#
# Elastic Compliance Matrix: (Units=1/GPa)
#
#
# Indices 1 2 3 4 5 6 
#
# 1 0.017083 -0.009336 -0.000330 0.000000 0.000000 0.000000
# 2 -0.009336 0.020008 -0.004911 0.000000 0.000000 0.000000
# 3 -0.000330 -0.004911 0.011306 0.000000 0.000000 0.000000
# 4 0.000000 0.000000 0.000000 0.026782 0.000000 0.000000
# 5 0.000000 0.000000 0.000000 0.000000 0.031589 0.000000
# 6 0.000000 0.000000 0.000000 0.000000 0.000000 0.027278
#
#
# Mechanical properties :
#
#
# Convention : Reuss Voigt Hill
#
# Bulk Modulus (GPa) = 51.96580 52.16451 52.06515
# Shear Modulus (GPa) = 29.47906 32.17172 30.82539
#
# Velocity S-wave (km/s) = 3.71829 3.88439 3.80225
# Velocity P-wave (km/s) = 6.54264 6.67706 6.61019
#
# Compressibility (1/GPa) = 0.01924343
#
# Stress axis : x y z
#
# Youngs Moduli (GPa) = 58.53926 49.97950 88.45168
#
# Poissons Ratio (x) = 0.46659 0.02919
# Poissons Ratio (y) = 0.54650 0.43437
# Poissons Ratio (z) = 0.01932 0.24544
#
# Static dielectric constant tensor:
#      x y z
#    x 3.731220 0.000000 0.000000 
#    y 0.000000 4.005810 0.000000 
#    z 0.000000 0.000000 3.998230 
# 
# 
# High freq. dielectric constant tensor:
#      x y z
#    x 1.813520 0.000000 0.000000 
#    y 0.000000 1.835420 0.000000 
#    z 0.000000 0.000000 1.856980 
# 
# From -- ./inp_files/1170.got.cif
#   From: 2010.03.12/outbox.cif.g09.slc.cpg/sg29_1_cif.got.tgz:1170.got - 2010.04.14 03:43:10.
