data_PCOD8168060
_publ_section_title
;
Structure prediction by ZEFSAII (Michael W. Deem and Ramdas Pophale) SiO2 
 PCOD8168060
Probable space group: P M A 2
;
_chemical_formula_sum "Si O2"
_cell_formula_units_Z 32
_cell_length_a 8.748519
_cell_length_b 19.240863
_cell_length_c 10.362054
_cell_angle_alpha 90.000000
_cell_angle_beta 90.000000
_cell_angle_gamma 90.000000
_cell_volume 1744.234763
_symmetry_space_group_name_H-M "P M A 2"
_symmetry_group_IT_number 28
_symmetry_cell_setting 'orthorhombic'
loop_
_space_group_symop_operation_xyz
x,y,z
-x,-y,z
1/2-x,y,z
1/2+x,-y,z
loop_
_atom_site_type_symbol
_atom_site_label
_atom_site_fract_x
_atom_site_fract_y
_atom_site_fract_z
Si Si1 0.430627 0.572587 0.208610
Si Si2 0.931431 0.928194 0.752899
Si Si3 0.070335 0.571469 0.503094
Si Si4 0.930060 0.704425 0.611369
Si Si5 0.930841 0.071626 0.473028
Si Si6 0.430966 0.215689 0.861393
Si Si7 0.068824 0.288987 0.118825
Si Si8 0.929313 0.796930 0.368027
O O1 0.500000 0.500000 0.157844
O O2 0.250000 0.568902 0.195818
O O3 0.484006 0.585824 0.356147
O O4 0.494021 0.634976 0.121237
O O5 0.750000 0.934910 0.740744
O O6 0.980357 0.865139 0.847460
O O7 0.997068 0.911565 0.612047
O O8 0.000000 0.000000 0.808888
O O9 0.250000 0.566016 0.510763
O O10 0.000000 0.500000 0.554444
O O11 0.011861 0.630873 0.597938
O O12 0.750000 0.692050 0.615948
O O13 0.994104 0.740047 0.740916
O O14 0.976282 0.752336 0.491747
O O15 0.750000 0.065466 0.486025
O O16 0.977400 0.131343 0.372344
O O17 0.000000 0.000000 0.418677
O O18 0.250000 0.219820 0.859670
O O19 0.494559 0.248059 0.993732
O O20 0.250000 0.298411 0.115212
O O21 0.016895 0.244604 0.242111
O O22 0.750000 0.813633 0.364892
#
# Coordination Sequence:
#
# PCOD8168060 Si02
#       8
#     4   4   4   4   4   4   4   4
#     4  10  20  34  54  80 109 140 177 224 267 318
#     4  10  18  33  54  79 108 140 179 220 267 318
#     4  10  20  33  52  80 110 139 176 222 271 316
#     4  10  18  33  55  79 106 139 175 216 263 312
#     4  11  21  33  53  80 110 141 179 225 272 317
#     4   9  19  35  55  78 109 144 178 216 263 320
#     4  10  20  36  57  80 107 144 182 218 265 320
#     4  10  19  33  55  80 107 139 176 217 265 318
#
# _framework density 18.346153999999999
#
# number of rings (size 3 to 8) (size 9 to 14) (size 15 to 20)
#    0.000    2.000    2.500    3.000    0.000    2.000 
#    0.000    3.125    0.000    1.500    0.000    0.000 
#    0.000    0.000    0.000    0.000    0.000    0.000 
#
# Total GULP energy -396862.390338 kJ/mol
# GULP energy per Si atom -12401.949698 kJ/mol
# Density = 1.830440 g / cm^3
# Si number density = 18.346154 Si / 1000 Ang^3
#
#
#
# Elastic Constant Matrix: (Units=GPa)
#
#
# Indices 1 2 3 4 5 6 
#
# 1 66.5370 52.1342 28.7370 0.0000 0.0000 0.0000
# 2 52.1342 180.9653 72.9512 0.0000 0.0000 0.0000
# 3 28.7370 72.9512 106.7617 0.0000 0.0000 0.0000
# 4 0.0000 0.0000 0.0000 33.5147 0.0000 0.0000
# 5 0.0000 0.0000 0.0000 0.0000 12.6198 0.0000
# 6 0.0000 0.0000 0.0000 0.0000 0.0000 36.6044
#
#
#
# Elastic Compliance Matrix: (Units=1/GPa)
#
#
# Indices 1 2 3 4 5 6 
#
# 1 0.019706 -0.004884 -0.001967 0.000000 0.000000 0.000000
# 2 -0.004884 0.008837 -0.004724 0.000000 0.000000 0.000000
# 3 -0.001967 -0.004724 0.013124 0.000000 0.000000 0.000000
# 4 0.000000 0.000000 0.000000 0.029838 0.000000 0.000000
# 5 0.000000 0.000000 0.000000 0.000000 0.079240 0.000000
# 6 0.000000 0.000000 0.000000 0.000000 0.000000 0.027319
#
#
# Mechanical properties :
#
#
# Convention : Reuss Voigt Hill
#
# Bulk Modulus (GPa) = 54.00402 73.54543 63.77473
# Shear Modulus (GPa) = 24.10963 29.91057 27.01010
#
# Velocity S-wave (km/s) = 3.62906 4.04213 3.84115
# Velocity P-wave (km/s) = 6.86004 7.87146 7.38309
#
# Compressibility (1/GPa) = 0.01851714
#
# Stress axis : x y z
#
# Youngs Moduli (GPa) = 50.74711 113.15659 76.19643
#
# Poissons Ratio (x) = 0.55267 0.14986
# Poissons Ratio (y) = 0.24785 0.35995
# Poissons Ratio (z) = 0.09981 0.53455
#
# Static dielectric constant tensor:
#      x y z
#    x 3.202520 0.000000 0.000000 
#    y 0.000000 3.575160 0.000000 
#    z 0.000000 0.000000 3.329780 
# 
# 
# High freq. dielectric constant tensor:
#      x y z
#    x 1.701730 0.000000 0.000000 
#    y 0.000000 1.729060 0.000000 
#    z 0.000000 0.000000 1.680980 
# 
# From -- ./inp_files/5158.got.cif
#   From: 2010.03.12/outbox.cif.g09.slc.cpg/sg28_3_cif.got.tgz:5158.got - 2010.04.14 03:39:34.
