data_PCOD8168146
_publ_section_title
;
Structure prediction by ZEFSAII (Michael W. Deem and Ramdas Pophale) SiO2 
 PCOD8168146
Probable space group: P M A 2
;
_chemical_formula_sum "Si O2"
_cell_formula_units_Z 32
_cell_length_a 9.321080
_cell_length_b 14.403637
_cell_length_c 12.352999
_cell_angle_alpha 90.000000
_cell_angle_beta 90.000000
_cell_angle_gamma 90.000000
_cell_volume 1658.482180
_symmetry_space_group_name_H-M "P M A 2"
_symmetry_group_IT_number 28
_symmetry_cell_setting 'orthorhombic'
loop_
_space_group_symop_operation_xyz
x,y,z
-x,-y,z
1/2-x,y,z
1/2+x,-y,z
loop_
_atom_site_type_symbol
_atom_site_label
_atom_site_fract_x
_atom_site_fract_y
_atom_site_fract_z
Si Si1 0.408916 0.916701 0.833410
Si Si2 0.920723 0.590642 0.736002
Si Si3 0.419783 0.409107 0.211397
Si Si4 0.589686 0.183329 0.036477
Si Si5 0.418508 0.902149 0.471016
Si Si6 0.082402 0.775189 0.271927
Si Si7 0.084983 0.353439 0.972724
Si Si8 0.416483 0.766766 0.667528
O O1 0.250000 0.942847 0.797109
O O2 0.450431 0.818909 0.779838
O O3 0.500000 0.000000 0.785615
O O4 0.424132 0.909867 0.964303
O O5 0.750000 0.583943 0.718976
O O6 0.965134 0.595493 0.863199
O O7 0.000000 0.500000 0.689004
O O8 0.981784 0.676893 0.666629
O O9 0.500000 0.500000 0.258702
O O10 0.250000 0.412346 0.237190
O O11 0.488644 0.318905 0.268936
O O12 0.449531 0.410335 0.082079
O O13 0.750000 0.224295 0.027809
O O14 0.552474 0.166292 0.161932
O O15 0.487666 0.254911 0.978876
O O16 0.250000 0.924044 0.466308
O O17 0.468917 0.843270 0.366589
O O18 0.458539 0.837646 0.572373
O O19 0.500000 0.000000 0.476612
O O20 0.250000 0.747988 0.285066
O O21 0.250000 0.330637 0.963328
O O22 0.250000 0.735892 0.658227
#
# Coordination Sequence:
#
# PCOD8168146 Si02
#       8
#     4   4   4   4   4   4   4   4
#     4  10  20  32  50  77 107 142 178 218 272 329
#     4  11  22  35  55  83 114 149 186 226 274 329
#     4  10  19  32  52  81 115 151 188 226 271 325
#     4   9  17  31  51  75 108 147 180 219 271 324
#     4  10  22  40  63  86 109 142 185 234 282 331
#     4   9  19  36  56  80 110 144 185 229 276 325
#     4   9  18  31  49  77 111 147 186 223 265 320
#     4  10  21  39  58  79 110 144 184 231 277 325
#
# _framework density 19.294750000000001
#
# number of rings (size 3 to 8) (size 9 to 14) (size 15 to 20)
#    0.000    2.250    1.250    1.500    0.000    3.500 
#    0.000    0.625    0.000    0.000    0.000    0.000 
#    0.000    0.000    0.000    0.000    0.000    0.000 
#
# Total GULP energy -396613.611103 kJ/mol
# GULP energy per Si atom -12394.175347 kJ/mol
# Density = 1.925083 g / cm^3
# Si number density = 19.294750 Si / 1000 Ang^3
#
#
#
# Elastic Constant Matrix: (Units=GPa)
#
#
# Indices 1 2 3 4 5 6 
#
# 1 53.5615 59.9260 37.5393 0.0000 0.0000 0.0000
# 2 59.9260 127.2852 53.7094 0.0000 0.0000 0.0000
# 3 37.5393 53.7094 93.6789 0.0000 0.0000 0.0000
# 4 0.0000 0.0000 0.0000 13.5868 0.0000 0.0000
# 5 0.0000 0.0000 0.0000 0.0000 20.6733 0.0000
# 6 0.0000 0.0000 0.0000 0.0000 0.0000 39.5199
#
#
#
# Elastic Compliance Matrix: (Units=1/GPa)
#
#
# Indices 1 2 3 4 5 6 
#
# 1 0.043040 -0.017130 -0.007426 0.000000 0.000000 0.000000
# 2 -0.017130 0.017181 -0.002986 0.000000 0.000000 0.000000
# 3 -0.007426 -0.002986 0.015363 0.000000 0.000000 0.000000
# 4 0.000000 0.000000 0.000000 0.073601 0.000000 0.000000
# 5 0.000000 0.000000 0.000000 0.000000 0.048371 0.000000
# 6 0.000000 0.000000 0.000000 0.000000 0.000000 0.025304
#
#
# Mechanical properties :
#
#
# Convention : Reuss Voigt Hill
#
# Bulk Modulus (GPa) = 48.78120 64.09723 56.43922
# Shear Modulus (GPa) = 17.55757 22.97940 20.26848
#
# Velocity S-wave (km/s) = 3.01984 3.45478 3.24461
# Velocity P-wave (km/s) = 6.12342 7.01471 6.58416
#
# Compressibility (1/GPa) = 0.02049970
#
# Stress axis : x y z
#
# Youngs Moduli (GPa) = 23.23423 58.20329 65.09277
#
# Poissons Ratio (x) = 0.99701 0.48338
# Poissons Ratio (y) = 0.39800 0.19439
# Poissons Ratio (z) = 0.17254 0.17381
#
# Static dielectric constant tensor:
#      x y z
#    x 3.449350 0.000000 0.000000 
#    y 0.000000 3.319250 0.000000 
#    z 0.000000 0.000000 3.547650 
# 
# 
# High freq. dielectric constant tensor:
#      x y z
#    x 1.749390 0.000000 0.000000 
#    y 0.000000 1.741950 0.000000 
#    z 0.000000 0.000000 1.741910 
# 
# From -- ./inp_files/4992.got.cif
#   From: 2010.03.12/outbox.cif.g09.slc.cpg/sg28_3_cif.got.tgz:4992.got - 2010.04.14 03:39:34.
