data_PCOD8168223
_publ_section_title
;
Structure prediction by ZEFSAII (Michael W. Deem and Ramdas Pophale) SiO2 
 PCOD8168223
Probable space group: P M A 2
;
_chemical_formula_sum "Si O2"
_cell_formula_units_Z 24
_cell_length_a 8.532448
_cell_length_b 16.624997
_cell_length_c 9.231016
_cell_angle_alpha 90.000000
_cell_angle_beta 90.000000
_cell_angle_gamma 90.000000
_cell_volume 1309.437365
_symmetry_space_group_name_H-M "P M A 2"
_symmetry_group_IT_number 28
_symmetry_cell_setting 'orthorhombic'
loop_
_space_group_symop_operation_xyz
x,y,z
-x,-y,z
1/2-x,y,z
1/2+x,-y,z
loop_
_atom_site_type_symbol
_atom_site_label
_atom_site_fract_x
_atom_site_fract_y
_atom_site_fract_z
Si Si1 0.937436 0.733167 0.234600
Si Si2 0.066608 0.763031 0.547971
Si Si3 0.921329 0.830409 0.975595
Si Si4 0.576670 0.668396 0.795960
Si Si5 0.434828 0.586708 0.057379
Si Si6 0.436615 0.085677 0.704351
O O1 0.750000 0.738437 0.252423
O O2 0.025396 0.743319 0.384037
O O3 0.980688 0.647826 0.166190
O O4 0.001905 0.805630 0.128028
O O5 0.250000 0.772194 0.569502
O O6 0.007053 0.688092 0.644072
O O7 0.988113 0.847706 0.589138
O O8 0.750000 0.864964 0.012899
O O9 0.905167 0.749732 0.883979
O O10 0.006564 0.893872 0.867009
O O11 0.750000 0.632158 0.765945
O O12 0.476013 0.605289 0.889481
O O13 0.500000 0.500000 0.099730
O O14 0.250000 0.591196 0.080031
O O15 0.250000 0.085394 0.710561
O O16 0.500000 0.000000 0.652354
#
# Coordination Sequence:
#
# PCOD8168223 Si02
#       6
#     4   4   4   4   4   4
#     4  10  19  35  56  78 106 144 181 218 264 320
#     4  11  21  34  53  80 109 142 180 220 266 322
#     4   7  14  29  51  73  96 128 169 208 251 305
#     4   9  17  33  54  76 101 135 174 214 258 310
#     4  11  21  35  55  81 109 140 177 221 267 316
#     4  10  19  34  54  78 105 137 176 223 272 321
#
# _framework density 18.328482000000001
#
# number of rings (size 3 to 8) (size 9 to 14) (size 15 to 20)
#    0.000    2.333    0.000    6.500    0.000    0.000 
#    0.000    4.167    0.000    2.000    0.000    0.000 
#    0.000    0.000    0.000    0.000    0.000    0.000 
#
# Total GULP energy -297384.477077 kJ/mol
# GULP energy per Si atom -12391.019878 kJ/mol
# Density = 1.828677 g / cm^3
# Si number density = 18.328482 Si / 1000 Ang^3
#
#
#
# Elastic Constant Matrix: (Units=GPa)
#
#
# Indices 1 2 3 4 5 6 
#
# 1 76.7604 6.1340 8.4901 0.0000 0.0000 0.0000
# 2 6.1340 71.6230 26.2271 0.0000 0.0000 0.0000
# 3 8.4901 26.2271 110.5970 0.0000 0.0000 0.0000
# 4 0.0000 0.0000 0.0000 8.8620 0.0000 0.0000
# 5 0.0000 0.0000 0.0000 0.0000 28.4755 0.0000
# 6 0.0000 0.0000 0.0000 0.0000 0.0000 25.6709
#
#
#
# Elastic Compliance Matrix: (Units=1/GPa)
#
#
# Indices 1 2 3 4 5 6 
#
# 1 0.013184 -0.000831 -0.000815 0.000000 0.000000 0.000000
# 2 -0.000831 0.015342 -0.003574 0.000000 0.000000 0.000000
# 3 -0.000815 -0.003574 0.009952 0.000000 0.000000 0.000000
# 4 0.000000 0.000000 0.000000 0.112841 0.000000 0.000000
# 5 0.000000 0.000000 0.000000 0.000000 0.035118 0.000000
# 6 0.000000 0.000000 0.000000 0.000000 0.000000 0.038955
#
#
# Mechanical properties :
#
#
# Convention : Reuss Voigt Hill
#
# Bulk Modulus (GPa) = 35.66619 37.85364 36.75992
# Shear Modulus (GPa) = 20.39333 27.14363 23.76848
#
# Velocity S-wave (km/s) = 3.33927 3.85249 3.60503
# Velocity P-wave (km/s) = 5.86254 6.36291 6.11784
#
# Compressibility (1/GPa) = 0.02803775
#
# Stress axis : x y z
#
# Youngs Moduli (GPa) = 75.84900 65.18040 100.48174
#
# Poissons Ratio (x) = 0.05414 0.08190
# Poissons Ratio (y) = 0.06300 0.35917
# Poissons Ratio (z) = 0.06183 0.23298
#
# Static dielectric constant tensor:
#      x y z
#    x 3.389430 0.000000 0.000000 
#    y 0.000000 3.418050 0.000000 
#    z 0.000000 0.000000 3.559910 
# 
# 
# High freq. dielectric constant tensor:
#      x y z
#    x 1.710600 0.000000 0.000000 
#    y 0.000000 1.689340 0.000000 
#    z 0.000000 0.000000 1.707700 
# 
# From -- ./inp_files/2558.got.cif
#   From: 2010.03.12/outbox.cif.g09.slc.cpg/sg28_2_cif.got.tgz:2558.got - 2010.04.14 03:39:34.
