data_PCOD8168054
_publ_section_title
;
Structure prediction by ZEFSAII (Michael W. Deem and Ramdas Pophale) SiO2 
 PCOD8168054
Probable space group: P M A 2
;
_chemical_formula_sum "Si O2"
_cell_formula_units_Z 32
_cell_length_a 9.057522
_cell_length_b 14.485983
_cell_length_c 12.377212
_cell_angle_alpha 90.000000
_cell_angle_beta 90.000000
_cell_angle_gamma 90.000000
_cell_volume 1623.978213
_symmetry_space_group_name_H-M "P M A 2"
_symmetry_group_IT_number 28
_symmetry_cell_setting 'orthorhombic'
loop_
_space_group_symop_operation_xyz
x,y,z
-x,-y,z
1/2-x,y,z
1/2+x,-y,z
loop_
_atom_site_type_symbol
_atom_site_label
_atom_site_fract_x
_atom_site_fract_y
_atom_site_fract_z
Si Si1 0.574158 0.910705 0.362630
Si Si2 0.576261 0.708984 0.299162
Si Si3 0.577640 0.911308 0.805359
Si Si4 0.913666 0.336028 0.505582
Si Si5 0.419568 0.868312 0.581241
Si Si6 0.920445 0.410991 0.726873
Si Si7 0.074892 0.400382 0.090931
Si Si8 0.580184 0.714608 0.882443
O O1 0.750000 0.919965 0.362700
O O2 0.522690 0.816115 0.302151
O O3 0.512610 0.912093 0.484047
O O4 0.500000 0.000000 0.303466
O O5 0.750000 0.707213 0.296779
O O6 0.526295 0.655330 0.406893
O O7 0.513980 0.653881 0.196171
O O8 0.750000 0.929746 0.784984
O O9 0.498019 0.896399 0.691327
O O10 0.555324 0.825001 0.886907
O O11 0.500000 0.000000 0.861184
O O12 0.750000 0.349631 0.457037
O O13 0.924385 0.241010 0.570140
O O14 0.948590 0.411158 0.597725
O O15 0.250000 0.904150 0.579102
O O16 0.750000 0.416602 0.756252
O O17 0.000000 0.500000 0.777414
O O18 0.986163 0.320434 0.781694
O O19 0.250000 0.414678 0.096114
O O20 0.000000 0.500000 0.080974
O O21 0.027333 0.334905 0.991886
O O22 0.750000 0.691156 0.859396
#
# Coordination Sequence:
#
# PCOD8168054 Si02
#       8
#     4   4   4   4   4   4   4   4
#     4  10  19  32  51  79 112 151 190 228 274 329
#     4   9  20  37  58  81 111 147 186 230 280 337
#     4  11  22  35  54  81 113 151 190 230 279 336
#     4   9  19  34  53  79 114 150 184 229 279 329
#     4  10  18  32  52  77 111 151 191 232 273 325
#     4  11  22  36  55  83 116 150 186 229 284 343
#     4  10  22  42  64  87 110 141 187 238 288 337
#     4  10  22  40  61  83 112 148 189 237 285 337
#
# _framework density 19.704698
#
# number of rings (size 3 to 8) (size 9 to 14) (size 15 to 20)
#    0.000    2.000    1.250    2.250    0.000    5.000 
#    0.000    3.125    0.000    0.000    0.000    0.000 
#    0.000    0.000    0.000    0.000    0.000    0.000 
#
# Total GULP energy -396719.062533 kJ/mol
# GULP energy per Si atom -12397.470704 kJ/mol
# Density = 1.965985 g / cm^3
# Si number density = 19.704698 Si / 1000 Ang^3
#
#
#
# Elastic Constant Matrix: (Units=GPa)
#
#
# Indices 1 2 3 4 5 6 
#
# 1 78.0314 52.4749 38.5346 0.0000 0.0000 0.0000
# 2 52.4749 126.2841 55.8806 0.0000 0.0000 0.0000
# 3 38.5346 55.8806 90.7434 0.0000 0.0000 0.0000
# 4 0.0000 0.0000 0.0000 24.5285 0.0000 0.0000
# 5 0.0000 0.0000 0.0000 0.0000 19.3719 0.0000
# 6 0.0000 0.0000 0.0000 0.0000 0.0000 30.9831
#
#
#
# Elastic Compliance Matrix: (Units=1/GPa)
#
#
# Indices 1 2 3 4 5 6 
#
# 1 0.018985 -0.005940 -0.004404 0.000000 0.000000 0.000000
# 2 -0.005940 0.012743 -0.005325 0.000000 0.000000 0.000000
# 3 -0.004404 -0.005325 0.016169 0.000000 0.000000 0.000000
# 4 0.000000 0.000000 0.000000 0.040769 0.000000 0.000000
# 5 0.000000 0.000000 0.000000 0.000000 0.051621 0.000000
# 6 0.000000 0.000000 0.000000 0.000000 0.000000 0.032276
#
#
# Mechanical properties :
#
#
# Convention : Reuss Voigt Hill
#
# Bulk Modulus (GPa) = 60.38854 65.42656 62.90755
# Shear Modulus (GPa) = 23.87536 24.85462 24.36499
#
# Velocity S-wave (km/s) = 3.48466 3.55541 3.52021
# Velocity P-wave (km/s) = 6.84864 7.08027 6.96542
#
# Compressibility (1/GPa) = 0.01655943
#
# Stress axis : x y z
#
# Youngs Moduli (GPa) = 52.67381 78.47353 61.84510
#
# Poissons Ratio (x) = 0.46613 0.27237
# Poissons Ratio (y) = 0.31288 0.32932
# Poissons Ratio (z) = 0.23198 0.41787
#
# Static dielectric constant tensor:
#      x y z
#    x 3.568500 0.000000 0.000000 
#    y 0.000000 3.994810 0.000000 
#    z 0.000000 0.000000 3.424610 
# 
# 
# High freq. dielectric constant tensor:
#      x y z
#    x 1.768650 0.000000 0.000000 
#    y 0.000000 1.782620 0.000000 
#    z 0.000000 0.000000 1.740850 
# 
# From -- ./inp_files/5040.got.cif
#   From: 2010.03.12/outbox.cif.g09.slc.cpg/sg28_3_cif.got.tgz:5040.got - 2010.04.14 03:39:34.
