data_PCOD8168343
_publ_section_title
;
Structure prediction by ZEFSAII (Michael W. Deem and Ramdas Pophale) SiO2 
 PCOD8168343
Probable space group: P M A 2
;
_chemical_formula_sum "Si O2"
_cell_formula_units_Z 24
_cell_length_a 8.674057
_cell_length_b 9.094203
_cell_length_c 15.431642
_cell_angle_alpha 90.000000
_cell_angle_beta 90.000000
_cell_angle_gamma 90.000000
_cell_volume 1217.304018
_symmetry_space_group_name_H-M "P M A 2"
_symmetry_group_IT_number 28
_symmetry_cell_setting 'orthorhombic'
loop_
_space_group_symop_operation_xyz
x,y,z
-x,-y,z
1/2-x,y,z
1/2+x,-y,z
loop_
_atom_site_type_symbol
_atom_site_label
_atom_site_fract_x
_atom_site_fract_y
_atom_site_fract_z
Si Si1 0.071035 0.841104 0.506610
Si Si2 0.928630 0.160830 0.697890
Si Si3 0.932176 0.836257 0.334017
Si Si4 0.567602 0.339477 0.175537
Si Si5 0.430433 0.159960 0.019492
Si Si6 0.928368 0.656079 0.848837
O O1 0.250000 0.850983 0.481633
O O2 0.046035 0.769150 0.601370
O O3 0.981475 0.763604 0.426778
O O4 0.000000 0.000000 0.516133
O O5 0.750000 0.141869 0.718492
O O6 0.000049 0.277576 0.762448
O O7 0.000000 0.000000 0.709723
O O8 0.750000 0.844140 0.325709
O O9 0.998352 0.730789 0.261432
O O10 0.000000 0.000000 0.323957
O O11 0.500000 0.500000 0.161490
O O12 0.750000 0.348235 0.184058
O O13 0.522533 0.242628 0.093743
O O14 0.250000 0.154709 0.043138
O O15 0.500000 0.000000 0.010860
O O16 0.461741 0.237692 0.928693
O O17 0.750000 0.633504 0.831582
O O18 0.000000 0.500000 0.871588
#
# Coordination Sequence:
#
# PCOD8168343 Si02
#       6
#     4   4   4   4   4   4
#     4   9  17  31  53  83 115 150 192 241 290 338
#     4  10  20  35  58  86 118 153 195 242 289 341
#     4  11  21  36  59  87 118 154 195 241 288 340
#     4  12  25  42  62  86 118 154 191 236 288 346
#     4  11  24  42  64  91 118 150 191 237 285 338
#     4  11  24  40  60  85 118 155 193 237 289 345
#
# _framework density 19.715699999999998
#
# number of rings (size 3 to 8) (size 9 to 14) (size 15 to 20)
#    0.000    1.333    0.000    7.500    0.000    7.333 
#    0.000    0.833    0.000    4.000    0.000    0.000 
#    0.000    0.000    0.000    0.000    0.000    0.000 
#
# Total GULP energy -297596.770117 kJ/mol
# GULP energy per Si atom -12399.865422 kJ/mol
# Density = 1.967083 g / cm^3
# Si number density = 19.715700 Si / 1000 Ang^3
#
#
#
# Elastic Constant Matrix: (Units=GPa)
#
#
# Indices 1 2 3 4 5 6 
#
# 1 172.0573 62.8117 79.4708 0.0000 0.0000 0.0000
# 2 62.8117 108.7417 46.8304 0.0000 0.0000 0.0000
# 3 79.4708 46.8304 127.5044 0.0000 0.0000 0.0000
# 4 0.0000 0.0000 0.0000 -126.6266 0.0000 0.0000
# 5 0.0000 0.0000 0.0000 0.0000 39.7850 0.0000
# 6 0.0000 0.0000 0.0000 0.0000 0.0000 31.4249
#
#
#
# Elastic Compliance Matrix: (Units=1/GPa)
#
#
# Indices 1 2 3 4 5 6 
#
# 1 0.009076 -0.003334 -0.004433 0.000000 0.000000 0.000000
# 2 -0.003334 0.012148 -0.002384 0.000000 0.000000 0.000000
# 3 -0.004433 -0.002384 0.011481 0.000000 0.000000 0.000000
# 4 0.000000 0.000000 0.000000 -0.007897 0.000000 0.000000
# 5 0.000000 0.000000 0.000000 0.000000 0.025135 0.000000
# 6 0.000000 0.000000 0.000000 0.000000 0.000000 0.031822
#
#
# Mechanical properties :
#
#
# Convention : Reuss Voigt Hill
#
# Bulk Modulus (GPa) = 80.61193 87.39214 84.00203
# Shear Modulus (GPa) = 47.08001 3.52938 25.30469
#
# Velocity S-wave (km/s) = 4.89196 1.33941 3.58645
# Velocity P-wave (km/s) = 8.53723 6.84211 7.73624
#
# Compressibility (1/GPa) = 0.01240511
#
# Stress axis : x y z
#
# Youngs Moduli (GPa) = 110.17502 82.31472 87.09800
#
# Poissons Ratio (x) = 0.27442 0.38608
# Poissons Ratio (y) = 0.36730 0.20765
# Poissons Ratio (z) = 0.48838 0.19624
#
# Static dielectric constant tensor:
#      x y z
#    x 4.150720 0.000000 0.000000 
#    y 0.000000 3.429350 0.000000 
#    z 0.000000 0.000000 4.331680 
# 
# 
# High freq. dielectric constant tensor:
#      x y z
#    x 1.791380 0.000000 0.000000 
#    y 0.000000 1.747940 0.000000 
#    z 0.000000 0.000000 1.794450 
# 
# From -- ./inp_files/6070.got.cif
#   From: 2010.03.12/outbox.cif.g09.slc.cpg/sg28_4_cif.got.tgz:6070.got - 2010.04.14 03:39:34.
