data_PCOD8168794
_publ_section_title
;
Structure prediction by ZEFSAII (Michael W. Deem and Ramdas Pophale) SiO2 
 PCOD8168794
Probable space group: P C A 21
;
_chemical_formula_sum "Si O2"
_cell_formula_units_Z 32
_cell_length_a 15.117977
_cell_length_b 20.149626
_cell_length_c 5.026812
_cell_angle_alpha 90.000000
_cell_angle_beta 90.000000
_cell_angle_gamma 90.000000
_cell_volume 1531.275426
_symmetry_space_group_name_H-M "P C A 21"
_symmetry_group_IT_number 29
_symmetry_cell_setting 'orthorhombic'
loop_
_space_group_symop_operation_xyz
x,y,z
-x,-y,1/2+z
1/2-x,y,1/2+z
1/2+x,-y,z
loop_
_atom_site_type_symbol
_atom_site_label
_atom_site_fract_x
_atom_site_fract_y
_atom_site_fract_z
Si Si1 0.060196 0.379676 0.198890
Si Si2 0.058585 0.619730 0.198539
Si Si3 0.808636 0.735234 0.776241
Si Si4 0.807187 0.114358 0.724850
Si Si5 0.692888 0.886605 0.229116
Si Si6 0.190643 0.500090 0.198777
Si Si7 0.191365 0.734131 0.271424
Si Si8 0.556923 0.000363 0.228832
O O1 0.103897 0.307776 0.233482
O O2 0.134377 0.434410 0.249678
O O3 0.980005 0.388505 0.404059
O O4 0.021805 0.387421 0.904014
O O5 0.130881 0.563838 0.252414
O O6 0.103882 0.691169 0.229092
O O7 0.732802 0.718928 0.562219
O O8 0.840649 0.811220 0.758133
O O9 0.772196 0.100016 0.429508
O O10 0.840406 0.189836 0.753397
O O11 0.888227 0.066634 0.786762
O O12 0.772493 0.900763 0.433219
O O13 0.612337 0.934684 0.292297
O O14 0.272943 0.501090 0.399685
O O15 0.232989 0.717678 0.557019
O O16 0.473335 0.000604 0.423782
#
# Coordination Sequence:
#
# PCOD8168794 Si02
#       8
#     4   4   4   4   4   4   4   4
#     4  12  24  39  60  89 121 149 184 237 292 336
#     4  12  24  39  60  89 121 149 184 237 292 336
#     4  10  21  39  61  85 112 151 195 231 275 340
#     4  10  21  39  61  81 111 153 195 231 275 340
#     4  10  21  39  61  81 111 153 195 231 275 340
#     4  12  24  42  64  84 114 156 198 234 272 336
#     4  10  21  39  61  85 112 151 195 231 275 340
#     4  12  24  36  56  86 118 146 186 240 292 336
#
# _framework density 20.897614000000001
#
# number of rings (size 3 to 8) (size 9 to 14) (size 15 to 20)
#    0.000    1.000    0.000    7.500    0.000    2.000 
#    0.000    0.000    0.000    0.000    0.000    0.000 
#    0.000    0.000    0.000    0.000    0.000    0.000 
#
# Total GULP energy -397109.080388 kJ/mol
# GULP energy per Si atom -12409.658762 kJ/mol
# Density = 2.085005 g / cm^3
# Si number density = 20.897614 Si / 1000 Ang^3
#
#
#
# Elastic Constant Matrix: (Units=GPa)
#
#
# Indices 1 2 3 4 5 6 
#
# 1 80.1942 58.4409 10.3662 0.0000 0.0000 0.0000
# 2 58.4409 118.2757 26.6316 0.0000 0.0000 0.0000
# 3 10.3662 26.6316 78.6376 0.0000 0.0000 0.0000
# 4 0.0000 0.0000 0.0000 26.4582 0.0000 0.0000
# 5 0.0000 0.0000 0.0000 0.0000 37.7103 0.0000
# 6 0.0000 0.0000 0.0000 0.0000 0.0000 14.9865
#
#
#
# Elastic Compliance Matrix: (Units=1/GPa)
#
#
# Indices 1 2 3 4 5 6 
#
# 1 0.019527 -0.009818 0.000751 0.000000 0.000000 0.000000
# 2 -0.009818 0.014089 -0.003477 0.000000 0.000000 0.000000
# 3 0.000751 -0.003477 0.013795 0.000000 0.000000 0.000000
# 4 0.000000 0.000000 0.000000 0.037795 0.000000 0.000000
# 5 0.000000 0.000000 0.000000 0.000000 0.026518 0.000000
# 6 0.000000 0.000000 0.000000 0.000000 0.000000 0.066727
#
#
# Mechanical properties :
#
#
# Convention : Reuss Voigt Hill
#
# Bulk Modulus (GPa) = 44.79670 51.99832 48.39751
# Shear Modulus (GPa) = 23.69893 27.94226 25.82059
#
# Velocity S-wave (km/s) = 3.37122 3.66061 3.51889
# Velocity P-wave (km/s) = 6.05279 6.54241 6.30236
#
# Compressibility (1/GPa) = 0.02232307
#
# Stress axis : x y z
#
# Youngs Moduli (GPa) = 51.21080 70.97901 72.48913
#
# Poissons Ratio (x) = 0.69684 -0.05442
# Poissons Ratio (y) = 0.50276 0.25205
# Poissons Ratio (z) = -0.03844 0.24680
#
# Static dielectric constant tensor:
#      x y z
#    x 3.496590 0.000000 0.000000 
#    y 0.000000 3.959800 0.000000 
#    z 0.000000 0.000000 3.907020 
# 
# 
# High freq. dielectric constant tensor:
#      x y z
#    x 1.809090 0.000000 0.000000 
#    y 0.000000 1.833790 0.000000 
#    z 0.000000 0.000000 1.836870 
# 
# From -- ./inp_files/118.got.cif
#   From: 2010.03.12/outbox.cif.g09.slc.cpg/sg29_1_cif.got.tgz:118.got - 2010.04.14 03:43:10.
