data_PCOD8168159
_publ_section_title
;
Structure prediction by ZEFSAII (Michael W. Deem and Ramdas Pophale) SiO2 
 PCOD8168159
Probable space group: P M A 2
;
_chemical_formula_sum "Si O2"
_cell_formula_units_Z 32
_cell_length_a 9.249043
_cell_length_b 14.115735
_cell_length_c 12.341729
_cell_angle_alpha 90.000000
_cell_angle_beta 90.000000
_cell_angle_gamma 90.000000
_cell_volume 1611.299607
_symmetry_space_group_name_H-M "P M A 2"
_symmetry_group_IT_number 28
_symmetry_cell_setting 'orthorhombic'
loop_
_space_group_symop_operation_xyz
x,y,z
-x,-y,z
1/2-x,y,z
1/2+x,-y,z
loop_
_atom_site_type_symbol
_atom_site_label
_atom_site_fract_x
_atom_site_fract_y
_atom_site_fract_z
Si Si1 0.905151 0.792793 0.077400
Si Si2 0.423544 0.900304 0.498423
Si Si3 0.035352 0.608500 0.039546
Si Si4 0.082476 0.222309 0.325754
Si Si5 0.419945 0.903028 0.913670
Si Si6 0.079584 0.786955 0.711040
Si Si7 0.090737 0.596012 0.277035
Si Si8 0.408608 0.594703 0.801147
O O1 0.750000 0.833621 0.038061
O O2 0.924084 0.814704 0.203534
O O3 0.899549 0.679209 0.054733
O O4 0.040256 0.836721 0.014953
O O5 0.250000 0.913234 0.485930
O O6 0.494891 0.856675 0.391826
O O7 0.463629 0.827542 0.594629
O O8 0.500000 0.000000 0.523884
O O9 0.124664 0.621359 0.150832
O O10 0.000000 0.500000 0.028035
O O11 0.111161 0.632705 0.925184
O O12 0.250000 0.232031 0.364391
O O13 0.000924 0.322841 0.337621
O O14 0.250000 0.919884 0.911651
O O15 0.480793 0.857465 0.802965
O O16 0.500000 0.000000 0.932789
O O17 0.250000 0.780974 0.726557
O O18 0.019034 0.680071 0.730490
O O19 0.250000 0.586278 0.331904
O O20 0.000000 0.500000 0.288379
O O21 0.500000 0.500000 0.788655
O O22 0.250000 0.570613 0.755875
#
# Coordination Sequence:
#
# PCOD8168159 Si02
#       8
#     4   4   4   4   4   4   4   4
#     4  10  21  37  57  84 118 155 193 238 288 347
#     4  11  23  42  67  89 111 146 195 250 305 357
#     4   9  18  30  51  81 120 159 196 235 279 336
#     4  10  22  40  60  85 118 152 196 248 296 349
#     4  11  22  38  58  83 115 151 189 235 292 353
#     4   9  20  39  61  85 117 152 190 240 292 344
#     4  10  19  32  54  86 121 161 202 240 290 346
#     4  10  19  34  54  83 120 157 193 231 280 337
#
# _framework density 19.859745
#
# number of rings (size 3 to 8) (size 9 to 14) (size 15 to 20)
#    0.000    2.000    1.250    2.250    0.000    8.000 
#    0.000    3.750    0.000    1.500    0.000    0.000 
#    0.000    0.000    0.000    0.000    0.000    0.000 
#
# Total GULP energy -396481.395408 kJ/mol
# GULP energy per Si atom -12390.043606 kJ/mol
# Density = 1.981454 g / cm^3
# Si number density = 19.859745 Si / 1000 Ang^3
#
#
#
# Elastic Constant Matrix: (Units=GPa)
#
#
# Indices 1 2 3 4 5 6 
#
# 1 120.6544 48.7059 34.4712 0.0000 0.0000 0.0000
# 2 48.7059 123.5985 49.6025 0.0000 0.0000 0.0000
# 3 34.4712 49.6025 79.9013 0.0000 0.0000 0.0000
# 4 0.0000 0.0000 0.0000 27.4778 0.0000 0.0000
# 5 0.0000 0.0000 0.0000 0.0000 23.2493 0.0000
# 6 0.0000 0.0000 0.0000 0.0000 0.0000 30.4888
#
#
#
# Elastic Compliance Matrix: (Units=1/GPa)
#
#
# Indices 1 2 3 4 5 6 
#
# 1 0.010230 -0.003010 -0.002545 0.000000 0.000000 0.000000
# 2 -0.003010 0.011661 -0.005940 0.000000 0.000000 0.000000
# 3 -0.002545 -0.005940 0.017301 0.000000 0.000000 0.000000
# 4 0.000000 0.000000 0.000000 0.036393 0.000000 0.000000
# 5 0.000000 0.000000 0.000000 0.000000 0.043012 0.000000
# 6 0.000000 0.000000 0.000000 0.000000 0.000000 0.032799
#
#
# Mechanical properties :
#
#
# Convention : Reuss Voigt Hill
#
# Bulk Modulus (GPa) = 61.72268 65.52372 63.62320
# Shear Modulus (GPa) = 27.81054 29.00148 28.40601
#
# Velocity S-wave (km/s) = 3.74618 3.82555 3.78607
# Velocity P-wave (km/s) = 7.06106 7.25107 7.15670
#
# Compressibility (1/GPa) = 0.01620150
#
# Stress axis : x y z
#
# Youngs Moduli (GPa) = 97.74836 85.75669 57.79942
#
# Poissons Ratio (x) = 0.25813 0.14710
# Poissons Ratio (y) = 0.29423 0.34335
# Poissons Ratio (z) = 0.24877 0.50943
#
# Static dielectric constant tensor:
#      x y z
#    x 3.533840 0.000000 0.000000 
#    y 0.000000 3.759490 0.000000 
#    z 0.000000 0.000000 3.599000 
# 
# 
# High freq. dielectric constant tensor:
#      x y z
#    x 1.767460 0.000000 0.000000 
#    y 0.000000 1.783000 0.000000 
#    z 0.000000 0.000000 1.756740 
# 
# From -- ./inp_files/5087.got.cif
#   From: 2010.03.12/outbox.cif.g09.slc.cpg/sg28_3_cif.got.tgz:5087.got - 2010.04.14 03:39:34.
