data_PCOD8168032
_publ_section_title
;
Structure prediction by ZEFSAII (Michael W. Deem and Ramdas Pophale) SiO2 
 PCOD8168032
Probable space group: P M A 2
;
_chemical_formula_sum "Si O2"
_cell_formula_units_Z 32
_cell_length_a 8.739163
_cell_length_b 14.292144
_cell_length_c 15.408355
_cell_angle_alpha 90.000000
_cell_angle_beta 90.000000
_cell_angle_gamma 90.000000
_cell_volume 1924.524742
_symmetry_space_group_name_H-M "P M A 2"
_symmetry_group_IT_number 28
_symmetry_cell_setting 'orthorhombic'
loop_
_space_group_symop_operation_xyz
x,y,z
-x,-y,z
1/2-x,y,z
1/2+x,-y,z
loop_
_atom_site_type_symbol
_atom_site_label
_atom_site_fract_x
_atom_site_fract_y
_atom_site_fract_z
Si Si1 0.929573 0.905306 0.342340
Si Si2 0.572809 0.599983 0.444095
Si Si3 0.429504 0.601469 0.767368
Si Si4 0.929825 0.398211 0.115349
Si Si5 0.068083 0.396600 0.941346
Si Si6 0.428739 0.717224 0.597270
Si Si7 0.068911 0.096569 0.539392
Si Si8 0.926246 0.711200 0.267892
O O1 0.750000 0.917013 0.345336
O O2 0.989078 0.888281 0.440461
O O3 0.976251 0.818863 0.281300
O O4 0.000000 0.000000 0.302618
O O5 0.500000 0.500000 0.427552
O O6 0.750000 0.589133 0.467780
O O7 0.490941 0.650445 0.522889
O O8 0.548087 0.659371 0.358067
O O9 0.500000 0.500000 0.747157
O O10 0.250000 0.588278 0.782655
O O11 0.504939 0.649972 0.852891
O O12 0.467101 0.670246 0.688878
O O13 0.750000 0.409624 0.102303
O O14 0.000000 0.500000 0.134391
O O15 0.963431 0.331225 0.195888
O O16 0.003585 0.349576 0.029484
O O17 0.250000 0.395887 0.942332
O O18 0.000000 0.500000 0.941715
O O19 0.250000 0.731111 0.583137
O O20 0.508869 0.817963 0.597012
O O21 0.250000 0.093049 0.545710
O O22 0.000000 0.000000 0.576547
O O23 0.750000 0.702552 0.237961
#
# Coordination Sequence:
#
# PCOD8168032 Si02
#       8
#     4   4   4   4   4   4   4   4
#     4   9  18  33  51  72  96 126 162 207 252 292
#     4  11  22  35  48  66  98 136 173 208 245 290
#     4  10  20  33  49  72 101 132 168 208 248 293
#     4  11  21  33  50  73 100 132 167 205 248 294
#     4  10  18  31  51  72  96 128 163 204 250 293
#     4  11  22  34  50  73 100 134 171 207 249 298
#     4  10  19  34  53  74  98 129 166 211 257 297
#     4  10  20  35  50  70  99 131 168 206 247 293
#
# _framework density 16.627483000000002
#
# number of rings (size 3 to 8) (size 9 to 14) (size 15 to 20)
#    0.000    1.750    1.250    6.000    0.000    6.000 
#    0.000    0.000    0.000    0.000    0.000    0.875 
#    0.000    2.000    0.000    0.000    0.000    0.000 
#
# Total GULP energy -396818.569308 kJ/mol
# GULP energy per Si atom -12400.580291 kJ/mol
# Density = 1.658964 g / cm^3
# Si number density = 16.627483 Si / 1000 Ang^3
#
#
#
# Elastic Constant Matrix: (Units=GPa)
#
#
# Indices 1 2 3 4 5 6 
#
# 1 96.5554 42.7629 49.9616 0.0000 0.0000 0.0000
# 2 42.7629 94.0197 31.8846 0.0000 0.0000 0.0000
# 3 49.9616 31.8846 84.3528 0.0000 0.0000 0.0000
# 4 0.0000 0.0000 0.0000 26.9975 0.0000 0.0000
# 5 0.0000 0.0000 0.0000 0.0000 26.4504 0.0000
# 6 0.0000 0.0000 0.0000 0.0000 0.0000 28.3934
#
#
#
# Elastic Compliance Matrix: (Units=1/GPa)
#
#
# Indices 1 2 3 4 5 6 
#
# 1 0.016665 -0.004855 -0.008035 0.000000 0.000000 0.000000
# 2 -0.004855 0.013614 -0.002271 0.000000 0.000000 0.000000
# 3 -0.008035 -0.002271 0.017473 0.000000 0.000000 0.000000
# 4 0.000000 0.000000 0.000000 0.037040 0.000000 0.000000
# 5 0.000000 0.000000 0.000000 0.000000 0.037807 0.000000
# 6 0.000000 0.000000 0.000000 0.000000 0.000000 0.035219
#
#
# Mechanical properties :
#
#
# Convention : Reuss Voigt Hill
#
# Bulk Modulus (GPa) = 57.37209 58.23844 57.80527
# Shear Modulus (GPa) = 25.78000 26.38952 26.08476
#
# Velocity S-wave (km/s) = 3.94184 3.98817 3.96507
# Velocity P-wave (km/s) = 7.43618 7.50392 7.47012
#
# Compressibility (1/GPa) = 0.01743008
#
# Stress axis : x y z
#
# Youngs Moduli (GPa) = 60.00765 73.45328 57.23261
#
# Poissons Ratio (x) = 0.35658 0.45988
# Poissons Ratio (y) = 0.29131 0.12996
# Poissons Ratio (z) = 0.48218 0.16679
#
# Static dielectric constant tensor:
#      x y z
#    x 3.242460 0.000000 0.000000 
#    y 0.000000 3.080040 0.000000 
#    z 0.000000 0.000000 3.522130 
# 
# 
# High freq. dielectric constant tensor:
#      x y z
#    x 1.657050 0.000000 0.000000 
#    y 0.000000 1.619850 0.000000 
#    z 0.000000 0.000000 1.632910 
# 
# From -- ./inp_files/6432.got.cif
#   From: 2010.03.12/outbox.cif.g09.slc.cpg/sg28_4_cif.got.tgz:6432.got - 2010.04.14 03:39:34.
