data_PCOD8168285
_publ_section_title
;
Structure prediction by ZEFSAII (Michael W. Deem and Ramdas Pophale) SiO2 
 PCOD8168285
Probable space group: P M A 2
;
_chemical_formula_sum "Si O2"
_cell_formula_units_Z 20
_cell_length_a 8.738852
_cell_length_b 9.850309
_cell_length_c 12.921929
_cell_angle_alpha 90.000000
_cell_angle_beta 90.000000
_cell_angle_gamma 90.000000
_cell_volume 1112.324720
_symmetry_space_group_name_H-M "P M A 2"
_symmetry_group_IT_number 28
_symmetry_cell_setting 'orthorhombic'
loop_
_space_group_symop_operation_xyz
x,y,z
-x,-y,z
1/2-x,y,z
1/2+x,-y,z
loop_
_atom_site_type_symbol
_atom_site_label
_atom_site_fract_x
_atom_site_fract_y
_atom_site_fract_z
Si Si1 0.429395 0.147713 0.853870
Si Si2 0.432319 0.355016 0.454723
Si Si3 0.570810 0.853089 0.626711
Si Si4 0.430005 0.851320 0.058121
Si Si5 0.568716 0.355560 0.236455
O O1 0.250000 0.140955 0.874379
O O2 0.467048 0.210831 0.740751
O O3 0.500000 0.000000 0.852712
O O4 0.507985 0.221303 0.952296
O O5 0.500000 0.500000 0.485705
O O6 0.250000 0.363750 0.450184
O O7 0.492122 0.249621 0.540698
O O8 0.496926 0.306501 0.344585
O O9 0.750000 0.873145 0.614884
O O10 0.500000 0.000000 0.609116
O O11 0.250000 0.866297 0.050137
O O12 0.479276 0.755542 0.152312
O O13 0.500000 0.000000 0.076243
O O14 0.500000 0.500000 0.202586
O O15 0.750000 0.370030 0.248384
#
# Coordination Sequence:
#
# PCOD8168285 Si02
#       5
#     4   4   4   4   4
#     4   9  16  29  49  72 100 131 162 198 243 290
#     4  10  20  35  53  73  99 131 166 202 245 294
#     4   9  19  33  51  76 102 129 163 203 244 289
#     4  10  20  33  51  76 102 129 164 203 244 291
#     4  10  21  36  53  73  98 130 167 204 246 294
#
# _framework density 17.980360999999998
#
# number of rings (size 3 to 8) (size 9 to 14) (size 15 to 20)
#    0.000    2.400    0.000    4.800    0.000    6.400 
#    0.000    5.000    0.000    4.800    0.000    0.000 
#    0.000    0.000    0.000    0.000    0.000    0.000 
#
# Total GULP energy -247883.679869 kJ/mol
# GULP energy per Si atom -12394.183993 kJ/mol
# Density = 1.793944 g / cm^3
# Si number density = 17.980361 Si / 1000 Ang^3
#
#
#
# Elastic Constant Matrix: (Units=GPa)
#
#
# Indices 1 2 3 4 5 6 
#
# 1 78.6452 39.5705 62.8051 0.0000 0.0000 0.0000
# 2 39.5705 89.0299 98.9088 0.0000 0.0000 0.0000
# 3 62.8051 98.9088 189.1037 0.0000 0.0000 0.0000
# 4 0.0000 0.0000 0.0000 12.3883 0.0000 0.0000
# 5 0.0000 0.0000 0.0000 0.0000 37.6048 0.0000
# 6 0.0000 0.0000 0.0000 0.0000 0.0000 15.4781
#
#
#
# Elastic Compliance Matrix: (Units=1/GPa)
#
#
# Indices 1 2 3 4 5 6 
#
# 1 0.017676 -0.003185 -0.004204 0.000000 0.000000 0.000000
# 2 -0.003185 0.027386 -0.013266 0.000000 0.000000 0.000000
# 3 -0.004204 -0.013266 0.013623 0.000000 0.000000 0.000000
# 4 0.000000 0.000000 0.000000 0.080721 0.000000 0.000000
# 5 0.000000 0.000000 0.000000 0.000000 0.026592 0.000000
# 6 0.000000 0.000000 0.000000 0.000000 0.000000 0.064607
#
#
# Mechanical properties :
#
#
# Convention : Reuss Voigt Hill
#
# Bulk Modulus (GPa) = 57.55948 84.37195 70.96571
# Shear Modulus (GPa) = 18.00449 23.46054 20.73251
#
# Velocity S-wave (km/s) = 3.16783 3.61610 3.39936
# Velocity P-wave (km/s) = 6.74256 8.02878 7.41362
#
# Compressibility (1/GPa) = 0.01737333
#
# Stress axis : x y z
#
# Youngs Moduli (GPa) = 56.57531 36.51496 73.40416
#
# Poissons Ratio (x) = 0.11631 0.30862
# Poissons Ratio (y) = 0.18020 0.97379
# Poissons Ratio (z) = 0.23787 0.48441
#
# Static dielectric constant tensor:
#      x y z
#    x 3.351250 0.000000 0.000000 
#    y 0.000000 3.131280 0.000000 
#    z 0.000000 0.000000 4.215760 
# 
# 
# High freq. dielectric constant tensor:
#      x y z
#    x 1.709770 0.000000 0.000000 
#    y 0.000000 1.664350 0.000000 
#    z 0.000000 0.000000 1.717470 
# 
# From -- ./inp_files/5946.got.cif
#   From: 2010.03.12/outbox.cif.g09.slc.cpg/sg28_3_cif.got.tgz:5946.got - 2010.04.14 03:39:34.
