data_PCOD8168981
_publ_section_title
;
Structure prediction by ZEFSAII (Michael W. Deem and Ramdas Pophale) SiO2 
 PCOD8168981
Probable space group: P C A 21
;
_chemical_formula_sum "Si O2"
_cell_formula_units_Z 24
_cell_length_a 9.629453
_cell_length_b 12.301979
_cell_length_c 8.787867
_cell_angle_alpha 90.000000
_cell_angle_beta 90.000000
_cell_angle_gamma 90.000000
_cell_volume 1041.022400
_symmetry_space_group_name_H-M "P C A 21"
_symmetry_group_IT_number 29
_symmetry_cell_setting 'orthorhombic'
loop_
_space_group_symop_operation_xyz
x,y,z
-x,-y,1/2+z
1/2-x,y,1/2+z
1/2+x,-y,z
loop_
_atom_site_type_symbol
_atom_site_label
_atom_site_fract_x
_atom_site_fract_y
_atom_site_fract_z
Si Si1 0.126356 0.191353 0.072120
Si Si2 0.133435 0.874370 0.233803
Si Si3 0.162697 0.758056 0.544771
Si Si4 0.675013 0.918862 0.779311
Si Si5 0.103236 0.510688 0.586075
Si Si6 0.345634 0.420652 0.420079
O O1 0.236879 0.183299 0.209132
O O2 0.968393 0.188013 0.136987
O O3 0.158545 0.090296 0.960889
O O4 0.133427 0.295206 0.960732
O O5 0.135475 0.785591 0.368477
O O6 0.189103 0.808771 0.088305
O O7 0.978465 0.920017 0.202727
O O8 0.239684 0.972155 0.257474
O O9 0.165956 0.631571 0.586446
O O10 0.186439 0.447384 0.454805
O O11 0.118575 0.448209 0.745825
O O12 0.943249 0.509290 0.533960
#
# Coordination Sequence:
#
# PCOD8168981 Si02
#       6
#     4   4   4   4   4   4
#     4  10  23  41  60  90 125 162 209 257 310 378
#     4  11  23  40  63  92 124 164 208 256 314 381
#     4  10  23  41  61  90 125 161 209 258 311 376
#     4  11  23  39  62  89 124 163 207 257 312 375
#     4  11  23  41  64  94 129 170 217 273 327 387
#     4  11  23  40  64  93 129 170 218 271 328 387
#
# _framework density 23.054259999999999
#
# number of rings (size 3 to 8) (size 9 to 14) (size 15 to 20)
#    0.000    1.333    0.000    5.000    0.000   10.667 
#    0.000    0.000    0.000    0.000    0.000    0.000 
#    0.000    0.000    0.000    0.000    0.000    0.000 
#
# Total GULP energy -297474.355989 kJ/mol
# GULP energy per Si atom -12394.764833 kJ/mol
# Density = 2.300179 g / cm^3
# Si number density = 23.054260 Si / 1000 Ang^3
#
#
#
# Elastic Constant Matrix: (Units=GPa)
#
#
# Indices 1 2 3 4 5 6 
#
# 1 120.4186 14.0172 7.7860 0.0000 0.0000 0.0000
# 2 14.0172 52.8983 -3.8946 0.0000 0.0000 0.0000
# 3 7.7860 -3.8946 49.9160 0.0000 0.0000 0.0000
# 4 0.0000 0.0000 0.0000 34.8648 0.0000 0.0000
# 5 0.0000 0.0000 0.0000 0.0000 39.8555 0.0000
# 6 0.0000 0.0000 0.0000 0.0000 0.0000 38.5756
#
#
#
# Elastic Compliance Matrix: (Units=1/GPa)
#
#
# Indices 1 2 3 4 5 6 
#
# 1 0.008685 -0.002415 -0.001543 0.000000 0.000000 0.000000
# 2 -0.002415 0.019685 0.001913 0.000000 0.000000 0.000000
# 3 -0.001543 0.001913 0.020424 0.000000 0.000000 0.000000
# 4 0.000000 0.000000 0.000000 0.028682 0.000000 0.000000
# 5 0.000000 0.000000 0.000000 0.000000 0.025091 0.000000
# 6 0.000000 0.000000 0.000000 0.000000 0.000000 0.025923
#
#
# Mechanical properties :
#
#
# Convention : Reuss Voigt Hill
#
# Bulk Modulus (GPa) = 22.37013 28.78336 25.57675
# Shear Modulus (GPa) = 33.90246 36.34748 35.12497
#
# Velocity S-wave (km/s) = 3.83894 3.97496 3.90754
# Velocity P-wave (km/s) = 5.41980 5.79476 5.61041
#
# Compressibility (1/GPa) = 0.04470246
#
# Stress axis : x y z
#
# Youngs Moduli (GPa) = 115.13751 50.80023 48.96301
#
# Poissons Ratio (x) = 0.12269 0.07556
# Poissons Ratio (y) = 0.27807 -0.09365
# Poissons Ratio (z) = 0.17768 -0.09716
#
# Static dielectric constant tensor:
#      x y z
#    x 4.604300 0.000000 0.000000 
#    y 0.000000 4.095600 0.000000 
#    z 0.000000 0.000000 3.940330 
# 
# 
# High freq. dielectric constant tensor:
#      x y z
#    x 1.929440 0.000000 0.000000 
#    y 0.000000 1.913880 0.000000 
#    z 0.000000 0.000000 1.896580 
# 
# From -- ./inp_files/1135.got.cif
#   From: 2010.03.12/outbox.cif.g09.slc.cpg/sg29_1_cif.got.tgz:1135.got - 2010.04.14 03:43:10.
