data_PCOD8168414
_publ_section_title
;
Structure prediction by ZEFSAII (Michael W. Deem and Ramdas Pophale) SiO2 
 PCOD8168414
Probable space group: P M A 2
;
_chemical_formula_sum "Si O2"
_cell_formula_units_Z 30
_cell_length_a 19.392767
_cell_length_b 5.096248
_cell_length_c 15.396672
_cell_angle_alpha 90.000000
_cell_angle_beta 90.000000
_cell_angle_gamma 90.000000
_cell_volume 1521.658483
_symmetry_space_group_name_H-M "P M A 2"
_symmetry_group_IT_number 28
_symmetry_cell_setting 'orthorhombic'
loop_
_space_group_symop_operation_xyz
x,y,z
-x,-y,z
1/2-x,y,z
1/2+x,-y,z
loop_
_atom_site_type_symbol
_atom_site_label
_atom_site_fract_x
_atom_site_fract_y
_atom_site_fract_z
Si Si1 0.828163 0.288784 0.444290
Si Si2 0.828678 0.838354 0.935097
Si Si3 0.168190 0.144662 0.738153
Si Si4 0.829208 0.803897 0.334825
Si Si5 0.167561 0.645591 0.635797
Si Si6 0.426670 0.383213 0.181315
Si Si7 0.000000 0.000000 0.060992
Si Si8 0.114902 0.666083 0.021482
O O1 0.750000 0.193246 0.457917
O O2 0.832464 0.574863 0.404482
O O3 0.863627 0.313376 0.538952
O O4 0.860399 0.066808 0.380524
O O5 0.750000 0.741693 0.936869
O O6 0.856632 0.871455 0.837504
O O7 0.875320 0.608679 0.973770
O O8 0.831621 0.111014 0.989554
O O9 0.250000 0.156970 0.736202
O O10 0.137645 0.388979 0.683944
O O11 0.140471 0.885394 0.692540
O O12 0.750000 0.844758 0.301843
O O13 0.878610 0.723933 0.256793
O O14 0.250000 0.627985 0.630626
O O15 0.500000 0.500000 0.216149
O O16 0.384370 0.604232 0.125820
O O17 0.441592 0.137586 0.119139
O O18 0.038562 0.784273 0.001179
#
# Coordination Sequence:
#
# PCOD8168414 Si02
#       8
#     4   4   4   4   4   4   2   4
#     4   9  18  31  49  77 114 147 178 224 274 335
#     4  11  22  35  53  85 123 150 181 232 291 351
#     4   9  17  28  46  73 110 149 181 216 264 336
#     4  10  21  35  53  82 117 144 181 233 289 338
#     4   9  15  27  47  70 105 151 184 211 265 330
#     4  10  23  40  62  81 110 149 197 244 284 339
#     4  10  22  44  60  80 102 144 202 258 274 328
#     4  11  22  39  58  78 110 149 189 241 282 335
#
# _framework density 19.715332
#
# number of rings (size 3 to 8) (size 9 to 14) (size 15 to 20)
#    0.000    2.133    1.333    2.000    3.733    6.400 
#    0.000    0.000    0.000    0.000    0.000    0.000 
#   40.000    0.000    0.000    0.000    0.000    0.000 
#
# Total GULP energy -371754.405899 kJ/mol
# GULP energy per Si atom -12391.813530 kJ/mol
# Density = 1.967046 g / cm^3
# Si number density = 19.715332 Si / 1000 Ang^3
#
#
#
# Elastic Constant Matrix: (Units=GPa)
#
#
# Indices 1 2 3 4 5 6 
#
# 1 42.1224 12.3363 40.2595 0.0000 0.0000 0.0000
# 2 12.3363 110.9339 29.9293 0.0000 0.0000 0.0000
# 3 40.2595 29.9293 99.9823 0.0000 0.0000 0.0000
# 4 0.0000 0.0000 0.0000 35.7689 0.0000 0.0000
# 5 0.0000 0.0000 0.0000 0.0000 -0.9351 0.0000
# 6 0.0000 0.0000 0.0000 0.0000 0.0000 24.4941
#
#
#
# Elastic Compliance Matrix: (Units=1/GPa)
#
#
# Indices 1 2 3 4 5 6 
#
# 1 0.038594 -0.000108 -0.015508 0.000000 0.000000 0.000000
# 2 -0.000108 0.009807 -0.002892 0.000000 0.000000 0.000000
# 3 -0.015508 -0.002892 0.017112 0.000000 0.000000 0.000000
# 4 0.000000 0.000000 0.000000 0.027957 0.000000 0.000000
# 5 0.000000 0.000000 0.000000 0.000000 -1.069438 0.000000
# 6 0.000000 0.000000 0.000000 0.000000 0.000000 0.040826
#
#
# Mechanical properties :
#
#
# Convention : Reuss Voigt Hill
#
# Bulk Modulus (GPa) = 35.09194 46.45430 40.77312
# Shear Modulus (GPa) = -5.62666 23.23315 8.80324
#
# Velocity S-wave (km/s) = -1.69120 3.43655 2.11539
# Velocity P-wave (km/s) = 3.74492 6.27377 5.16646
#
# Compressibility (1/GPa) = 0.02849658
#
# Stress axis : x y z
#
# Youngs Moduli (GPa) = 25.91049 101.97152 58.43772
#
# Poissons Ratio (x) = 0.01099 0.90627
# Poissons Ratio (y) = 0.00279 0.16901
# Poissons Ratio (z) = 0.40183 0.29492
#
# Static dielectric constant tensor:
#      x y z
#    x 3.195100 0.000000 0.000000 
#    y 0.000000 3.918200 0.000000 
#    z 0.000000 0.000000 3.685130 
# 
# 
# High freq. dielectric constant tensor:
#      x y z
#    x 1.708360 0.000000 0.000000 
#    y 0.000000 1.795410 0.000000 
#    z 0.000000 0.000000 1.767330 
# 
# From -- ./inp_files/6581.got.cif
#   From: 2010.03.12/outbox.cif.g09.slc.cpg/sg28_4_cif.got.tgz:6581.got - 2010.04.14 03:39:34.
