data_PCOD8168021
_publ_section_title
;
Structure prediction by ZEFSAII (Michael W. Deem and Ramdas Pophale) SiO2 
 PCOD8168021
Probable space group: P M A 2
;
_chemical_formula_sum "Si O2"
_cell_formula_units_Z 28
_cell_length_a 8.738355
_cell_length_b 9.400296
_cell_length_c 18.108424
_cell_angle_alpha 90.000000
_cell_angle_beta 90.000000
_cell_angle_gamma 90.000000
_cell_volume 1487.482510
_symmetry_space_group_name_H-M "P M A 2"
_symmetry_group_IT_number 28
_symmetry_cell_setting 'orthorhombic'
loop_
_space_group_symop_operation_xyz
x,y,z
-x,-y,z
1/2-x,y,z
1/2+x,-y,z
loop_
_atom_site_type_symbol
_atom_site_label
_atom_site_fract_x
_atom_site_fract_y
_atom_site_fract_z
Si Si1 0.431652 0.655058 0.021080
Si Si2 0.569843 0.155736 0.585814
Si Si3 0.069365 0.850217 0.318235
Si Si4 0.569908 0.147975 0.152900
Si Si5 0.432339 0.342384 0.873861
Si Si6 0.931052 0.344792 0.449804
Si Si7 0.568568 0.344238 0.724717
O O1 0.500000 0.500000 0.029606
O O2 0.250000 0.648999 0.012776
O O3 0.486098 0.735979 0.094415
O O4 0.503176 0.732753 0.948275
O O5 0.750000 0.138632 0.581245
O O6 0.508394 0.245313 0.516025
O O7 0.520028 0.240052 0.658984
O O8 0.500000 0.000000 0.585938
O O9 0.250000 0.867144 0.322190
O O10 0.013653 0.810140 0.235397
O O11 0.013365 0.725962 0.372976
O O12 0.000000 0.000000 0.344018
O O13 0.750000 0.132151 0.151572
O O14 0.500000 0.000000 0.127375
O O15 0.500000 0.500000 0.874814
O O16 0.250000 0.342083 0.873815
O O17 0.497057 0.272225 0.798766
O O18 0.750000 0.359487 0.453076
O O19 0.000000 0.500000 0.457694
O O20 0.500000 0.500000 0.709076
O O21 0.750000 0.359057 0.733140
#
# Coordination Sequence:
#
# PCOD8168021 Si02
#       7
#     4   4   4   4   4   4   4
#     4  10  19  32  50  74 103 134 170 212 256 301
#     4  10  22  37  54  77 105 137 172 210 252 301
#     4   9  18  34  54  76 103 135 172 211 253 302
#     4   9  19  34  52  74 102 136 172 211 254 302
#     4  10  18  30  50  75 101 132 169 208 255 305
#     4  10  21  36  54  79 108 136 170 211 253 299
#     4  10  19  33  53  77 103 132 169 211 255 302
#
# _framework density 18.823751000000001
#
# number of rings (size 3 to 8) (size 9 to 14) (size 15 to 20)
#    0.000    2.286    0.000    4.714    0.000    4.000 
#    0.000    0.714    0.000    0.000    0.000    0.000 
#    0.000    0.000    0.000    0.000    0.000    0.000 
#
# Total GULP energy -347132.431505 kJ/mol
# GULP energy per Si atom -12397.586839 kJ/mol
# Density = 1.878091 g / cm^3
# Si number density = 18.823751 Si / 1000 Ang^3
#
#
#
# Elastic Constant Matrix: (Units=GPa)
#
#
# Indices 1 2 3 4 5 6 
#
# 1 63.5914 35.9084 51.6342 0.0000 0.0000 0.0000
# 2 35.9084 122.1788 92.8289 0.0000 0.0000 0.0000
# 3 51.6342 92.8289 177.8848 0.0000 0.0000 0.0000
# 4 0.0000 0.0000 0.0000 22.6762 0.0000 0.0000
# 5 0.0000 0.0000 0.0000 0.0000 19.3841 0.0000
# 6 0.0000 0.0000 0.0000 0.0000 0.0000 30.9390
#
#
#
# Elastic Compliance Matrix: (Units=1/GPa)
#
#
# Indices 1 2 3 4 5 6 
#
# 1 0.021046 -0.002558 -0.004774 0.000000 0.000000 0.000000
# 2 -0.002558 0.013873 -0.006497 0.000000 0.000000 0.000000
# 3 -0.004774 -0.006497 0.010398 0.000000 0.000000 0.000000
# 4 0.000000 0.000000 0.000000 0.044099 0.000000 0.000000
# 5 0.000000 0.000000 0.000000 0.000000 0.051589 0.000000
# 6 0.000000 0.000000 0.000000 0.000000 0.000000 0.032322
#
#
# Mechanical properties :
#
#
# Convention : Reuss Voigt Hill
#
# Bulk Modulus (GPa) = 56.63016 80.48866 68.55941
# Shear Modulus (GPa) = 24.16962 26.81875 25.49418
#
# Velocity S-wave (km/s) = 3.58718 3.77865 3.68416
# Velocity P-wave (km/s) = 6.87800 7.86699 7.38906
#
# Compressibility (1/GPa) = 0.01765843
#
# Stress axis : x y z
#
# Youngs Moduli (GPa) = 47.51408 72.08329 96.17451
#
# Poissons Ratio (x) = 0.18441 0.45914
# Poissons Ratio (y) = 0.12156 0.62484
# Poissons Ratio (z) = 0.22683 0.46832
#
# Static dielectric constant tensor:
#      x y z
#    x 3.387320 0.000000 0.000000 
#    y 0.000000 3.212470 0.000000 
#    z 0.000000 0.000000 4.359060 
# 
# 
# High freq. dielectric constant tensor:
#      x y z
#    x 1.730500 0.000000 0.000000 
#    y 0.000000 1.705960 0.000000 
#    z 0.000000 0.000000 1.756690 
# 
# From -- ./inp_files/6783.got.cif
#   From: 2010.03.12/outbox.cif.g09.slc.cpg/sg28_4_cif.got.tgz:6783.got - 2010.04.14 03:39:34.
