data_PCOD8168253
_publ_section_title
;
Structure prediction by ZEFSAII (Michael W. Deem and Ramdas Pophale) SiO2 
 PCOD8168253
Probable space group: P M A 2
;
_chemical_formula_sum "Si O2"
_cell_formula_units_Z 24
_cell_length_a 8.646419
_cell_length_b 15.412967
_cell_length_c 9.422558
_cell_angle_alpha 90.000000
_cell_angle_beta 90.000000
_cell_angle_gamma 90.000000
_cell_volume 1255.715761
_symmetry_space_group_name_H-M "P M A 2"
_symmetry_group_IT_number 28
_symmetry_cell_setting 'orthorhombic'
loop_
_space_group_symop_operation_xyz
x,y,z
-x,-y,z
1/2-x,y,z
1/2+x,-y,z
loop_
_atom_site_type_symbol
_atom_site_label
_atom_site_fract_x
_atom_site_fract_y
_atom_site_fract_z
Si Si1 0.433281 0.250497 0.692110
Si Si2 0.432303 0.089911 0.190398
Si Si3 0.066187 0.255947 0.015179
Si Si4 0.932974 0.407457 0.197104
Si Si5 0.433337 0.090080 0.512536
Si Si6 0.933715 0.592403 0.500827
O O1 0.250000 0.246766 0.685470
O O2 0.490762 0.249007 0.853398
O O3 0.501102 0.167181 0.609474
O O4 0.491771 0.337859 0.615758
O O5 0.250000 0.083018 0.183648
O O6 0.490226 0.105802 0.351220
O O7 0.500000 0.000000 0.129727
O O8 0.491108 0.169278 0.094506
O O9 0.250000 0.268458 0.028415
O O10 0.980798 0.338201 0.080108
O O11 0.750000 0.414430 0.210177
O O12 0.000000 0.500000 0.149209
O O13 0.002716 0.378971 0.348014
O O14 0.250000 0.086654 0.519845
O O15 0.500000 0.000000 0.572096
O O16 0.750000 0.587341 0.491275
O O17 0.000000 0.500000 0.548990
#
# Coordination Sequence:
#
# PCOD8168253 Si02
#       6
#     4   4   4   4   4   4
#     4   9  19  34  54  77 106 141 176 211 260 318
#     4   9  18  32  53  76 104 139 178 220 262 307
#     4  10  20  36  55  78 108 144 178 216 264 315
#     4  11  22  37  57  81 106 137 176 220 263 313
#     4   9  17  32  51  74 100 134 176 217 258 305
#     4  10  19  35  57  80 104 135 174 218 262 312
#
# _framework density 19.112604999999999
#
# number of rings (size 3 to 8) (size 9 to 14) (size 15 to 20)
#    0.000    2.333    0.000    4.000    0.000    4.667 
#    0.000    9.167    0.000    0.000    0.000    0.000 
#    0.000    0.000    0.000    0.000    0.000    0.000 
#
# Total GULP energy -297642.758505 kJ/mol
# GULP energy per Si atom -12401.781604 kJ/mol
# Density = 1.906910 g / cm^3
# Si number density = 19.112605 Si / 1000 Ang^3
#
#
#
# Elastic Constant Matrix: (Units=GPa)
#
#
# Indices 1 2 3 4 5 6 
#
# 1 56.7173 37.8054 30.2490 0.0000 0.0000 0.0000
# 2 37.8054 175.8123 109.6484 0.0000 0.0000 0.0000
# 3 30.2490 109.6484 139.2683 0.0000 0.0000 0.0000
# 4 0.0000 0.0000 0.0000 17.6206 0.0000 0.0000
# 5 0.0000 0.0000 0.0000 0.0000 -6.1622 0.0000
# 6 0.0000 0.0000 0.0000 0.0000 0.0000 33.2652
#
#
#
# Elastic Compliance Matrix: (Units=1/GPa)
#
#
# Indices 1 2 3 4 5 6 
#
# 1 0.020851 -0.003260 -0.001962 0.000000 0.000000 0.000000
# 2 -0.003260 0.011685 -0.008492 0.000000 0.000000 0.000000
# 3 -0.001962 -0.008492 0.014292 0.000000 0.000000 0.000000
# 4 0.000000 0.000000 0.000000 0.056752 0.000000 0.000000
# 5 0.000000 0.000000 0.000000 0.000000 -0.162280 0.000000
# 6 0.000000 0.000000 0.000000 0.000000 0.000000 0.030061
#
#
# Mechanical properties :
#
#
# Convention : Reuss Voigt Hill
#
# Bulk Modulus (GPa) = 51.54555 80.80038 66.17297
# Shear Modulus (GPa) = 951.43401 21.88439 486.65920
#
# Velocity S-wave (km/s) = 22.33574 3.38749 15.97436
# Velocity P-wave (km/s) = 26.30985 7.59394 19.36332
#
# Compressibility (1/GPa) = 0.01940032
#
# Stress axis : x y z
#
# Youngs Moduli (GPa) = 47.96010 85.58135 69.96830
#
# Poissons Ratio (x) = 0.27898 0.13730
# Poissons Ratio (y) = 0.15634 0.59414
# Poissons Ratio (z) = 0.09411 0.72672
#
# Static dielectric constant tensor:
#      x y z
#    x 3.275070 0.000000 0.000000 
#    y 0.000000 3.713100 0.000000 
#    z 0.000000 0.000000 3.616780 
# 
# 
# High freq. dielectric constant tensor:
#      x y z
#    x 1.723270 0.000000 0.000000 
#    y 0.000000 1.758700 0.000000 
#    z 0.000000 0.000000 1.738880 
# 
# From -- ./inp_files/2466.got.cif
#   From: 2010.03.12/outbox.cif.g09.slc.cpg/sg28_2_cif.got.tgz:2466.got - 2010.04.14 03:39:34.
