data_PCOD8168639
_publ_section_title
;
Structure prediction by ZEFSAII (Michael W. Deem and Ramdas Pophale) SiO2 
 PCOD8168639
Probable space group: P C A 21
;
_chemical_formula_sum "Si O2"
_cell_formula_units_Z 32
_cell_length_a 14.364787
_cell_length_b 11.919940
_cell_length_c 8.601636
_cell_angle_alpha 90.000000
_cell_angle_beta 90.000000
_cell_angle_gamma 90.000000
_cell_volume 1472.835761
_symmetry_space_group_name_H-M "P C A 21"
_symmetry_group_IT_number 29
_symmetry_cell_setting 'orthorhombic'
loop_
_space_group_symop_operation_xyz
x,y,z
-x,-y,1/2+z
1/2-x,y,1/2+z
1/2+x,-y,z
loop_
_atom_site_type_symbol
_atom_site_label
_atom_site_fract_x
_atom_site_fract_y
_atom_site_fract_z
Si Si1 0.521709 0.224386 0.053770
Si Si2 0.851912 0.027495 0.614778
Si Si3 0.832942 0.709915 0.932222
Si Si4 0.645326 0.768859 0.083449
Si Si5 0.800208 0.137753 0.916187
Si Si6 0.825714 0.343571 0.363946
Si Si7 0.833434 0.459365 0.036165
Si Si8 0.037430 0.710192 0.410732
O O1 0.565868 0.100772 0.038701
O O2 0.524978 0.265462 0.230103
O O3 0.416435 0.212895 0.995299
O O4 0.577078 0.311866 0.945131
O O5 0.841636 0.049651 0.795992
O O6 0.753435 0.063730 0.541434
O O7 0.879602 0.899100 0.598401
O O8 0.837608 0.704308 0.745343
O O9 0.735522 0.765238 0.975480
O O10 0.841705 0.592026 0.020373
O O11 0.560229 0.709085 0.998051
O O12 0.734680 0.230872 0.830289
O O13 0.888992 0.202627 0.991063
O O14 0.847810 0.415747 0.211432
O O15 0.768858 0.422473 0.481504
O O16 0.916270 0.411876 0.928366
#
# Coordination Sequence:
#
# PCOD8168639 Si02
#       8
#     4   4   4   4   4   4   4   4
#     4  10  23  41  63  95 125 160 214 262 310 382
#     4  10  21  38  64  90 125 166 202 263 321 364
#     4  12  27  43  60  90 125 165 214 262 315 383
#     4  12  26  43  61  89 126 167 214 261 317 382
#     4   9  18  37  64  95 122 156 210 258 311 379
#     4  10  19  38  66  96 124 159 211 258 311 380
#     4  11  22  39  65  91 125 167 200 259 319 363
#     4  10  22  41  63  92 124 162 211 259 310 379
#
# _framework density 21.726796
#
# number of rings (size 3 to 8) (size 9 to 14) (size 15 to 20)
#    0.000    1.500    0.000    6.750    0.000    7.000 
#    0.000    0.000    0.000    0.000    0.000    0.000 
#    0.000    0.000    0.000    0.000    0.000    0.000 
#
# Total GULP energy -396858.701135 kJ/mol
# GULP energy per Si atom -12401.834410 kJ/mol
# Density = 2.167735 g / cm^3
# Si number density = 21.726796 Si / 1000 Ang^3
#
#
#
# Elastic Constant Matrix: (Units=GPa)
#
#
# Indices 1 2 3 4 5 6 
#
# 1 135.3271 19.3963 26.7024 0.0000 0.0000 0.0000
# 2 19.3963 89.8139 21.9183 0.0000 0.0000 0.0000
# 3 26.7024 21.9183 96.7615 0.0000 0.0000 0.0000
# 4 0.0000 0.0000 0.0000 26.4456 0.0000 0.0000
# 5 0.0000 0.0000 0.0000 0.0000 39.7639 0.0000
# 6 0.0000 0.0000 0.0000 0.0000 0.0000 18.7795
#
#
#
# Elastic Compliance Matrix: (Units=1/GPa)
#
#
# Indices 1 2 3 4 5 6 
#
# 1 0.007945 -0.001250 -0.001910 0.000000 0.000000 0.000000
# 2 -0.001250 0.011982 -0.002369 0.000000 0.000000 0.000000
# 3 -0.001910 -0.002369 0.011398 0.000000 0.000000 0.000000
# 4 0.000000 0.000000 0.000000 0.037814 0.000000 0.000000
# 5 0.000000 0.000000 0.000000 0.000000 0.025148 0.000000
# 6 0.000000 0.000000 0.000000 0.000000 0.000000 0.053250
#
#
# Mechanical properties :
#
#
# Convention : Reuss Voigt Hill
#
# Bulk Modulus (GPa) = 49.33730 50.88183 50.10957
# Shear Modulus (GPa) = 30.23866 33.92348 32.08107
#
# Velocity S-wave (km/s) = 3.73469 3.95570 3.84678
# Velocity P-wave (km/s) = 6.43075 6.65832 6.54552
#
# Compressibility (1/GPa) = 0.02026864
#
# Stress axis : x y z
#
# Youngs Moduli (GPa) = 125.85852 83.45662 87.73216
#
# Poissons Ratio (x) = 0.10431 0.16752
# Poissons Ratio (y) = 0.15731 0.20786
# Poissons Ratio (z) = 0.24033 0.19773
#
# Static dielectric constant tensor:
#      x y z
#    x 4.073460 0.000000 0.000000 
#    y 0.000000 3.803000 0.000000 
#    z 0.000000 0.000000 3.888950 
# 
# 
# High freq. dielectric constant tensor:
#      x y z
#    x 1.860870 0.000000 0.000000 
#    y 0.000000 1.846000 0.000000 
#    z 0.000000 0.000000 1.854890 
# 
# From -- ./inp_files/1822.got.cif
#   From: 2010.03.12/outbox.cif.g09.slc.cpg/sg29_1_cif.got.tgz:1822.got - 2010.04.14 03:43:10.
