data_PCOD8168691
_publ_section_title
;
Structure prediction by ZEFSAII (Michael W. Deem and Ramdas Pophale) SiO2 
 PCOD8168691
Probable space group: P C A 21
;
_chemical_formula_sum "Si O2"
_cell_formula_units_Z 32
_cell_length_a 8.474149
_cell_length_b 9.435670
_cell_length_c 18.537838
_cell_angle_alpha 90.000000
_cell_angle_beta 90.000000
_cell_angle_gamma 90.000000
_cell_volume 1482.272059
_symmetry_space_group_name_H-M "P C A 21"
_symmetry_group_IT_number 29
_symmetry_cell_setting 'orthorhombic'
loop_
_space_group_symop_operation_xyz
x,y,z
-x,-y,1/2+z
1/2-x,y,1/2+z
1/2+x,-y,z
loop_
_atom_site_type_symbol
_atom_site_label
_atom_site_fract_x
_atom_site_fract_y
_atom_site_fract_z
Si Si1 0.893544 0.832974 0.216540
Si Si2 0.897005 0.207936 0.080826
Si Si3 0.904083 0.211933 0.918185
Si Si4 0.057761 0.923220 0.080681
Si Si5 0.430326 0.933715 0.419201
Si Si6 0.940521 0.910489 0.775476
Si Si7 0.058577 0.594053 0.283748
Si Si8 0.609749 0.341088 0.722436
O O1 0.932890 0.842562 0.131739
O O2 0.718050 0.877368 0.234166
O O3 0.915438 0.673037 0.243388
O O4 0.019383 0.924704 0.262808
O O5 0.735608 0.122232 0.098601
O O6 0.918548 0.342402 0.135170
O O7 0.038387 0.093341 0.090953
O O8 0.892720 0.271165 0.999844
O O9 0.746607 0.118747 0.900076
O O10 0.921748 0.349294 0.865965
O O11 0.055285 0.106284 0.913295
O O12 0.014782 0.882429 0.998087
O O13 0.555718 0.873128 0.360731
O O14 0.084250 0.823732 0.740305
O O15 0.214292 0.614935 0.238056
O O16 0.010780 0.429703 0.273630
#
# Coordination Sequence:
#
# PCOD8168691 Si02
#       8
#     4   4   4   4   4   4   4   4
#     4  12  22  37  64  96 128 165 215 269 328 385
#     4  10  21  39  64  97 132 168 211 271 334 393
#     4  10  21  39  64  97 132 168 211 271 334 393
#     4  10  20  36  62  97 131 164 210 266 327 384
#     4  10  20  36  62  97 131 164 210 266 327 384
#     4  12  22  37  64  96 128 165 215 269 328 385
#     4  12  25  44  62  89 129 173 221 271 323 387
#     4  12  25  44  62  89 129 173 221 271 323 387
#
# _framework density 21.588480000000001
#
# number of rings (size 3 to 8) (size 9 to 14) (size 15 to 20)
#    0.000    1.000    5.000    3.000    0.000    0.000 
#    0.000    2.500    0.000    0.000    0.000    0.000 
#    0.000    0.000    0.000    0.000    0.000    0.000 
#
# Total GULP energy -396550.953461 kJ/mol
# GULP energy per Si atom -12392.217296 kJ/mol
# Density = 2.153934 g / cm^3
# Si number density = 21.588480 Si / 1000 Ang^3
#
#
#
# Elastic Constant Matrix: (Units=GPa)
#
#
# Indices 1 2 3 4 5 6 
#
# 1 71.8546 18.5048 29.9885 0.0000 0.0000 0.0000
# 2 18.5048 53.4881 41.3511 0.0000 0.0000 0.0000
# 3 29.9885 41.3511 164.6639 0.0000 0.0000 0.0000
# 4 0.0000 0.0000 0.0000 34.6038 0.0000 0.0000
# 5 0.0000 0.0000 0.0000 0.0000 31.7248 0.0000
# 6 0.0000 0.0000 0.0000 0.0000 0.0000 19.1965
#
#
#
# Elastic Compliance Matrix: (Units=1/GPa)
#
#
# Indices 1 2 3 4 5 6 
#
# 1 0.015723 -0.004003 -0.001858 0.000000 0.000000 0.000000
# 2 -0.004003 0.024219 -0.005353 0.000000 0.000000 0.000000
# 3 -0.001858 -0.005353 0.007756 0.000000 0.000000 0.000000
# 4 0.000000 0.000000 0.000000 0.028899 0.000000 0.000000
# 5 0.000000 0.000000 0.000000 0.000000 0.031521 0.000000
# 6 0.000000 0.000000 0.000000 0.000000 0.000000 0.052093
#
#
# Mechanical properties :
#
#
# Convention : Reuss Voigt Hill
#
# Bulk Modulus (GPa) = 39.57344 52.18836 45.88090
# Shear Modulus (GPa) = 26.16948 30.44917 28.30933
#
# Velocity S-wave (km/s) = 3.48544 3.75965 3.62514
# Velocity P-wave (km/s) = 5.87948 6.56302 6.23063
#
# Compressibility (1/GPa) = 0.02526947
#
# Stress axis : x y z
#
# Youngs Moduli (GPa) = 63.59921 41.29003 128.93826
#
# Poissons Ratio (x) = 0.16529 0.23960
# Poissons Ratio (y) = 0.25459 0.69020
# Poissons Ratio (z) = 0.11818 0.22102
#
# Static dielectric constant tensor:
#      x y z
#    x 3.789980 0.000000 0.000000 
#    y 0.000000 3.969150 0.000000 
#    z 0.000000 0.000000 4.314310 
# 
# 
# High freq. dielectric constant tensor:
#      x y z
#    x 1.846570 0.000000 0.000000 
#    y 0.000000 1.804620 0.000000 
#    z 0.000000 0.000000 1.871850 
# 
# From -- ./inp_files/5421.got.cif
#   From: 2010.03.12/outbox.cif.g09.slc.cpg/sg29_3_cif.got.tgz:5421.got - 2010.04.14 03:43:10.
