data_PCOD8168844
_publ_section_title
;
Structure prediction by ZEFSAII (Michael W. Deem and Ramdas Pophale) SiO2 
 PCOD8168844
Probable space group: P C A 21
;
_chemical_formula_sum "Si O2"
_cell_formula_units_Z 32
_cell_length_a 18.191687
_cell_length_b 6.750084
_cell_length_c 12.662525
_cell_angle_alpha 90.000000
_cell_angle_beta 90.000000
_cell_angle_gamma 90.000000
_cell_volume 1554.900017
_symmetry_space_group_name_H-M "P C A 21"
_symmetry_group_IT_number 29
_symmetry_cell_setting 'orthorhombic'
loop_
_space_group_symop_operation_xyz
x,y,z
-x,-y,1/2+z
1/2-x,y,1/2+z
1/2+x,-y,z
loop_
_atom_site_type_symbol
_atom_site_label
_atom_site_fract_x
_atom_site_fract_y
_atom_site_fract_z
Si Si1 0.825337 0.695192 0.311580
Si Si2 0.651053 0.986319 0.631494
Si Si3 0.995793 0.112110 0.542661
Si Si4 0.289721 0.334874 0.980685
Si Si5 0.937781 0.705840 0.491182
Si Si6 0.241417 0.615444 0.656674
Si Si7 0.555600 0.553157 0.404467
Si Si8 0.406932 0.574379 0.675715
O O1 0.846856 0.890011 0.247110
O O2 0.753517 0.743802 0.379571
O O3 0.891344 0.639777 0.389424
O O4 0.808787 0.510482 0.236241
O O5 0.566411 0.996315 0.594119
O O6 0.696856 0.856919 0.550090
O O7 0.693069 0.192389 0.635708
O O8 0.016155 0.240369 0.438339
O O9 0.956558 0.247893 0.630488
O O10 0.939091 0.942602 0.506196
O O11 0.361961 0.445325 0.943403
O O12 0.245244 0.497994 0.047486
O O13 0.902734 0.608691 0.595095
O O14 0.019524 0.626711 0.469262
O O15 0.324134 0.655152 0.700637
O O16 0.553187 0.512211 0.279600
#
# Coordination Sequence:
#
# PCOD8168844 Si02
#       8
#     4   4   4   4   4   4   4   4
#     4  11  23  40  64  96 131 165 212 273 323 378
#     4  10  24  41  64  93 130 168 215 263 323 391
#     4  10  24  43  64  95 127 174 215 268 325 384
#     4  10  21  42  63  91 130 166 209 266 322 374
#     4  11  24  42  66  94 131 167 214 271 317 390
#     4  11  23  41  66  95 129 176 213 263 326 385
#     4  10  22  43  64  92 128 169 211 261 324 386
#     4  11  23  40  67  96 128 165 219 269 318 386
#
# _framework density 20.580102
#
# number of rings (size 3 to 8) (size 9 to 14) (size 15 to 20)
#    0.000    1.500    2.500    1.500    1.750    8.000 
#    4.500    0.000    0.000    0.000    0.000    0.000 
#    0.000    0.000    0.000    0.000    0.000    0.000 
#
# Total GULP energy -396809.350994 kJ/mol
# GULP energy per Si atom -12400.292219 kJ/mol
# Density = 2.053326 g / cm^3
# Si number density = 20.580102 Si / 1000 Ang^3
#
#
#
# Elastic Constant Matrix: (Units=GPa)
#
#
# Indices 1 2 3 4 5 6 
#
# 1 99.0735 50.5845 31.9072 0.0000 0.0000 0.0000
# 2 50.5845 104.9268 55.1669 0.0000 0.0000 0.0000
# 3 31.9072 55.1669 121.4391 0.0000 0.0000 0.0000
# 4 0.0000 0.0000 0.0000 17.9802 0.0000 0.0000
# 5 0.0000 0.0000 0.0000 0.0000 35.3672 0.0000
# 6 0.0000 0.0000 0.0000 0.0000 0.0000 28.7226
#
#
#
# Elastic Compliance Matrix: (Units=1/GPa)
#
#
# Indices 1 2 3 4 5 6 
#
# 1 0.013444 -0.006075 -0.000773 0.000000 0.000000 0.000000
# 2 -0.006075 0.015266 -0.005339 0.000000 0.000000 0.000000
# 3 -0.000773 -0.005339 0.010863 0.000000 0.000000 0.000000
# 4 0.000000 0.000000 0.000000 0.055617 0.000000 0.000000
# 5 0.000000 0.000000 0.000000 0.000000 0.028275 0.000000
# 6 0.000000 0.000000 0.000000 0.000000 0.000000 0.034816
#
#
# Mechanical properties :
#
#
# Convention : Reuss Voigt Hill
#
# Bulk Modulus (GPa) = 65.78906 66.75074 66.26990
# Shear Modulus (GPa) = 26.63535 28.93271 27.78403
#
# Velocity S-wave (km/s) = 3.60144 3.75355 3.67828
# Velocity P-wave (km/s) = 7.02357 7.16174 7.09299
#
# Compressibility (1/GPa) = 0.01520010
#
# Stress axis : x y z
#
# Youngs Moduli (GPa) = 74.38176 65.50391 92.05648
#
# Poissons Ratio (x) = 0.39795 0.07112
# Poissons Ratio (y) = 0.45188 0.49148
# Poissons Ratio (z) = 0.05746 0.34972
#
# Static dielectric constant tensor:
#      x y z
#    x 3.810920 0.000000 0.000000 
#    y 0.000000 3.549470 0.000000 
#    z 0.000000 0.000000 3.936950 
# 
# 
# High freq. dielectric constant tensor:
#      x y z
#    x 1.817060 0.000000 0.000000 
#    y 0.000000 1.796690 0.000000 
#    z 0.000000 0.000000 1.812930 
# 
# From -- ./inp_files/3811.got.cif
#   From: 2010.03.12/outbox.cif.g09.slc.cpg/sg29_2_cif.got.tgz:3811.got - 2010.04.14 03:43:10.
