data_PCOD8168536
_publ_section_title
;
Structure prediction by ZEFSAII (Michael W. Deem and Ramdas Pophale) SiO2 
 PCOD8168536
Probable space group: P C A 21
;
_chemical_formula_sum "Si O2"
_cell_formula_units_Z 20
_cell_length_a 15.054595
_cell_length_b 11.422419
_cell_length_c 5.135477
_cell_angle_alpha 90.000000
_cell_angle_beta 90.000000
_cell_angle_gamma 90.000000
_cell_volume 883.096070
_symmetry_space_group_name_H-M "P C A 21"
_symmetry_group_IT_number 29
_symmetry_cell_setting 'orthorhombic'
loop_
_space_group_symop_operation_xyz
x,y,z
-x,-y,1/2+z
1/2-x,y,1/2+z
1/2+x,-y,z
loop_
_atom_site_type_symbol
_atom_site_label
_atom_site_fract_x
_atom_site_fract_y
_atom_site_fract_z
Si Si1 0.446006 0.000882 0.036830
Si Si2 0.852140 0.457361 0.856962
Si Si3 0.188887 0.804577 0.385139
Si Si4 0.842241 0.559320 0.350383
Si Si5 0.804562 0.828615 0.259707
O O1 0.500930 0.948428 0.284397
O O2 0.393334 0.105892 0.176673
O O3 0.386390 0.901895 0.902591
O O4 0.861757 0.318046 0.841963
O O5 0.894822 0.532234 0.618826
O O6 0.749340 0.491034 0.909711
O O7 0.900364 0.500601 0.121100
O O8 0.246690 0.820581 0.642542
O O9 0.824965 0.691829 0.270103
O O10 0.770644 0.863609 0.547142
#
# Coordination Sequence:
#
# PCOD8168536 Si02
#       5
#     4   4   4   4   4
#     4  12  28  46  58  86 136 182 216 262 328 388
#     4  10  16  30  54  97 129 140 184 271 331 354
#     4  12  21  38  68  96 120 161 221 275 312 380
#     4  10  16  30  54  97 129 140 184 271 331 354
#     4  12  21  38  68  96 120 161 221 275 312 380
#
# _framework density 22.647592
#
# number of rings (size 3 to 8) (size 9 to 14) (size 15 to 20)
#    0.000    0.800    8.000    3.600    0.000    0.000 
#    0.000    0.000    0.000    4.800    0.000    0.000 
#    0.000    0.000    0.000    0.000    0.000    0.000 
#
# Total GULP energy -247777.784575 kJ/mol
# GULP energy per Si atom -12388.889229 kJ/mol
# Density = 2.259605 g / cm^3
# Si number density = 22.647592 Si / 1000 Ang^3
#
#
#
# Elastic Constant Matrix: (Units=GPa)
#
#
# Indices 1 2 3 4 5 6 
#
# 1 46.3930 25.3915 33.1443 0.0000 0.0000 0.0000
# 2 25.3915 91.5092 27.5121 0.0000 0.0000 0.0000
# 3 33.1443 27.5121 192.5437 0.0000 0.0000 0.0000
# 4 0.0000 0.0000 0.0000 40.1740 0.0000 0.0000
# 5 0.0000 0.0000 0.0000 0.0000 8.5936 0.0000
# 6 0.0000 0.0000 0.0000 0.0000 0.0000 -3.3163
#
#
#
# Elastic Compliance Matrix: (Units=1/GPa)
#
#
# Indices 1 2 3 4 5 6 
#
# 1 0.027921 -0.006585 -0.003865 0.000000 0.000000 0.000000
# 2 -0.006585 0.012972 -0.000720 0.000000 0.000000 0.000000
# 3 -0.003865 -0.000720 0.005962 0.000000 0.000000 0.000000
# 4 0.000000 0.000000 0.000000 0.024892 0.000000 0.000000
# 5 0.000000 0.000000 0.000000 0.000000 0.116365 0.000000
# 6 0.000000 0.000000 0.000000 0.000000 0.000000 -0.301538
#
#
# Mechanical properties :
#
#
# Convention : Reuss Voigt Hill
#
# Bulk Modulus (GPa) = 40.79427 55.83796 48.31612
# Shear Modulus (GPa) = -60.30225 25.38347 -17.45939
#
# Velocity S-wave (km/s) = -5.16567 3.35147 -2.77955
# Velocity P-wave (km/s) = 4.18654 6.29961 3.32851
#
# Compressibility (1/GPa) = 0.02451324
#
# Stress axis : x y z
#
# Youngs Moduli (GPa) = 35.81587 77.09199 167.73296
#
# Poissons Ratio (x) = 0.50766 0.64834
# Poissons Ratio (y) = 0.23585 0.12075
# Poissons Ratio (z) = 0.13844 0.05550
#
# Static dielectric constant tensor:
#      x y z
#    x 3.639800 0.000000 0.000000 
#    y 0.000000 4.019510 0.000000 
#    z 0.000000 0.000000 5.343640 
# 
# 
# High freq. dielectric constant tensor:
#      x y z
#    x 1.841580 0.000000 0.000000 
#    y 0.000000 1.893200 0.000000 
#    z 0.000000 0.000000 1.940050 
# 
# From -- ./inp_files/372.got.cif
#   From: 2010.03.12/outbox.cif.g09.slc.cpg/sg29_1_cif.got.tgz:372.got - 2010.04.14 03:43:10.
