data_PCOD8168845
_publ_section_title
;
Structure prediction by ZEFSAII (Michael W. Deem and Ramdas Pophale) SiO2 
 PCOD8168845
Probable space group: P C A 21
;
_chemical_formula_sum "Si O2"
_cell_formula_units_Z 28
_cell_length_a 12.536117
_cell_length_b 5.207912
_cell_length_c 18.605201
_cell_angle_alpha 90.000000
_cell_angle_beta 90.000000
_cell_angle_gamma 90.000000
_cell_volume 1214.677649
_symmetry_space_group_name_H-M "P C A 21"
_symmetry_group_IT_number 29
_symmetry_cell_setting 'orthorhombic'
loop_
_space_group_symop_operation_xyz
x,y,z
-x,-y,1/2+z
1/2-x,y,1/2+z
1/2+x,-y,z
loop_
_atom_site_type_symbol
_atom_site_label
_atom_site_fract_x
_atom_site_fract_y
_atom_site_fract_z
Si Si1 0.978735 0.905268 0.963630
Si Si2 0.979714 0.691526 0.257167
Si Si3 0.633644 0.381821 0.872449
Si Si4 0.062114 0.415521 0.010928
Si Si5 0.333388 0.583090 0.653250
Si Si6 0.271124 0.092700 0.213544
Si Si7 0.663074 0.087907 0.349223
O O1 0.864984 0.953880 0.925137
O O2 0.069924 0.869526 0.901690
O O3 0.008959 0.134611 0.019984
O O4 0.970175 0.638095 0.008019
O O5 0.911592 0.465696 0.294723
O O6 0.899657 0.908816 0.224229
O O7 0.053361 0.577810 0.193987
O O8 0.052385 0.807302 0.319241
O O9 0.757928 0.324219 0.862186
O O10 0.623165 0.600470 0.933929
O O11 0.144972 0.509721 0.070869
O O12 0.254889 0.362624 0.678442
O O13 0.272296 0.855141 0.665289
O O14 0.216893 0.103175 0.292243
#
# Coordination Sequence:
#
# PCOD8168845 Si02
#       7
#     4   4   4   4   4   4   4
#     4  10  21  42  63  97 133 169 218 278 328 397
#     4  11  22  44  68 101 132 174 229 284 331 406
#     4  10  23  41  69 101 137 167 230 282 335 397
#     4  10  23  45  65  94 141 172 226 274 330 408
#     4  11  25  47  66  96 138 186 218 280 339 404
#     4  11  25  41  68  96 133 173 229 274 340 406
#     4  11  21  40  69  99 130 171 216 280 345 380
#
# _framework density 23.051385
#
# number of rings (size 3 to 8) (size 9 to 14) (size 15 to 20)
#    0.857    0.571    1.429    4.286    0.000    4.571 
#    5.143    0.000    0.000    0.000    0.000    0.000 
#    0.000    0.000    0.000    0.000    0.000    0.000 
#
# Total GULP energy -346956.704775 kJ/mol
# GULP energy per Si atom -12391.310885 kJ/mol
# Density = 2.299892 g / cm^3
# Si number density = 23.051385 Si / 1000 Ang^3
#
#
#
# Elastic Constant Matrix: (Units=GPa)
#
#
# Indices 1 2 3 4 5 6 
#
# 1 91.3215 16.6804 10.2200 0.0000 0.0000 0.0000
# 2 16.6804 115.5251 11.5444 0.0000 0.0000 0.0000
# 3 10.2200 11.5444 63.9370 0.0000 0.0000 0.0000
# 4 0.0000 0.0000 0.0000 32.0570 0.0000 0.0000
# 5 0.0000 0.0000 0.0000 0.0000 18.8531 0.0000
# 6 0.0000 0.0000 0.0000 0.0000 0.0000 26.1809
#
#
#
# Elastic Compliance Matrix: (Units=1/GPa)
#
#
# Indices 1 2 3 4 5 6 
#
# 1 0.011396 -0.001490 -0.001553 0.000000 0.000000 0.000000
# 2 -0.001490 0.009010 -0.001389 0.000000 0.000000 0.000000
# 3 -0.001553 -0.001389 0.016139 0.000000 0.000000 0.000000
# 4 0.000000 0.000000 0.000000 0.031194 0.000000 0.000000
# 5 0.000000 0.000000 0.000000 0.000000 0.053042 0.000000
# 6 0.000000 0.000000 0.000000 0.000000 0.000000 0.038196
#
#
# Mechanical properties :
#
#
# Convention : Reuss Voigt Hill
#
# Bulk Modulus (GPa) = 36.12374 38.63037 37.37705
# Shear Modulus (GPa) = 28.23772 30.90745 29.57258
#
# Velocity S-wave (km/s) = 3.50378 3.66568 3.58564
# Velocity P-wave (km/s) = 5.66336 5.89160 5.77861
#
# Compressibility (1/GPa) = 0.02768263
#
# Stress axis : x y z
#
# Youngs Moduli (GPa) = 87.74782 110.98682 61.96063
#
# Poissons Ratio (x) = 0.16541 0.09620
# Poissons Ratio (y) = 0.13077 0.08604
# Poissons Ratio (z) = 0.13623 0.15412
#
# Static dielectric constant tensor:
#      x y z
#    x 4.085490 0.000000 0.000000 
#    y 0.000000 4.020810 0.000000 
#    z 0.000000 0.000000 4.116690 
# 
# 
# High freq. dielectric constant tensor:
#      x y z
#    x 1.901410 0.000000 0.000000 
#    y 0.000000 1.911170 0.000000 
#    z 0.000000 0.000000 1.898130 
# 
# From -- ./inp_files/5484.got.cif
#   From: 2010.03.12/outbox.cif.g09.slc.cpg/sg29_3_cif.got.tgz:5484.got - 2010.04.14 03:43:10.
