data_PCOD8168901
_publ_section_title
;
Structure prediction by ZEFSAII (Michael W. Deem and Ramdas Pophale) SiO2 
 PCOD8168901
Probable space group: P C A 21
;
_chemical_formula_sum "Si O2"
_cell_formula_units_Z 32
_cell_length_a 13.168836
_cell_length_b 9.168889
_cell_length_c 12.904567
_cell_angle_alpha 90.000000
_cell_angle_beta 90.000000
_cell_angle_gamma 90.000000
_cell_volume 1558.143819
_symmetry_space_group_name_H-M "P C A 21"
_symmetry_group_IT_number 29
_symmetry_cell_setting 'orthorhombic'
loop_
_space_group_symop_operation_xyz
x,y,z
-x,-y,1/2+z
1/2-x,y,1/2+z
1/2+x,-y,z
loop_
_atom_site_type_symbol
_atom_site_label
_atom_site_fract_x
_atom_site_fract_y
_atom_site_fract_z
Si Si1 0.815001 0.444515 0.087600
Si Si2 0.957103 0.399051 0.908571
Si Si3 0.118999 0.905246 0.349909
Si Si4 0.865650 0.654365 0.547668
Si Si5 0.741062 0.138471 0.666334
Si Si6 0.936068 0.098580 0.308848
Si Si7 0.992126 0.396320 0.233639
Si Si8 0.296044 0.035110 0.479028
O O1 0.723761 0.556933 0.093609
O O2 0.773132 0.280831 0.096432
O O3 0.894133 0.471701 0.180854
O O4 0.867983 0.468543 0.977000
O O5 0.940952 0.224456 0.906698
O O6 0.951610 0.475060 0.796238
O O7 0.066951 0.428629 0.961051
O O8 0.189790 0.826753 0.265476
O O9 0.185695 0.003713 0.428530
O O10 0.039624 0.010515 0.293158
O O11 0.938168 0.683022 0.646919
O O12 0.819262 0.794447 0.490060
O O13 0.634559 0.072089 0.707934
O O14 0.796922 0.020215 0.596451
O O15 0.958437 0.271737 0.315188
O O16 0.883159 0.046822 0.414638
#
# Coordination Sequence:
#
# PCOD8168901 Si02
#       8
#     4   4   4   4   4   4   4   4
#     4  10  23  43  63  93 128 171 215 266 320 382
#     4  11  23  42  67  93 133 169 213 271 317 385
#     4  11  22  40  66  96 127 170 213 261 326 379
#     4  11  24  42  66  96 131 168 220 268 318 384
#     4  10  22  40  66  90 126 171 212 256 327 383
#     4  10  23  41  63  96 128 165 216 263 323 383
#     4  10  24  43  66  96 129 172 216 268 323 383
#     4  11  23  41  65  96 128 170 211 269 320 383
#
# _framework density 20.537257
#
# number of rings (size 3 to 8) (size 9 to 14) (size 15 to 20)
#    0.000    1.500    2.500    1.500    3.500    4.000 
#    0.000    0.000    0.000    0.000    0.000    0.000 
#    0.000    0.000    0.000    0.000    0.000    0.000 
#
# Total GULP energy -396832.304991 kJ/mol
# GULP energy per Si atom -12401.009531 kJ/mol
# Density = 2.049051 g / cm^3
# Si number density = 20.537257 Si / 1000 Ang^3
#
#
#
# Elastic Constant Matrix: (Units=GPa)
#
#
# Indices 1 2 3 4 5 6 
#
# 1 109.5004 46.7268 35.1076 0.0000 0.0000 0.0000
# 2 46.7268 76.0497 38.2312 0.0000 0.0000 0.0000
# 3 35.1076 38.2312 85.4909 0.0000 0.0000 0.0000
# 4 0.0000 0.0000 0.0000 39.9787 0.0000 0.0000
# 5 0.0000 0.0000 0.0000 0.0000 20.6787 0.0000
# 6 0.0000 0.0000 0.0000 0.0000 0.0000 37.1524
#
#
#
# Elastic Compliance Matrix: (Units=1/GPa)
#
#
# Indices 1 2 3 4 5 6 
#
# 1 0.012698 -0.006683 -0.002226 0.000000 0.000000 0.000000
# 2 -0.006683 0.020480 -0.006414 0.000000 0.000000 0.000000
# 3 -0.002226 -0.006414 0.015480 0.000000 0.000000 0.000000
# 4 0.000000 0.000000 0.000000 0.025013 0.000000 0.000000
# 5 0.000000 0.000000 0.000000 0.000000 0.048359 0.000000
# 6 0.000000 0.000000 0.000000 0.000000 0.000000 0.026916
#
#
# Mechanical properties :
#
#
# Convention : Reuss Voigt Hill
#
# Bulk Modulus (GPa) = 55.52014 56.79689 56.15852
# Shear Modulus (GPa) = 26.94034 29.62699 28.28367
#
# Velocity S-wave (km/s) = 3.62578 3.80227 3.71507
# Velocity P-wave (km/s) = 6.67989 6.85507 6.76805
#
# Compressibility (1/GPa) = 0.01801148
#
# Stress axis : x y z
#
# Youngs Moduli (GPa) = 78.75387 48.82851 64.60104
#
# Poissons Ratio (x) = 0.32631 0.14380
# Poissons Ratio (y) = 0.52630 0.41436
# Poissons Ratio (z) = 0.17530 0.31319
#
# Static dielectric constant tensor:
#      x y z
#    x 3.824540 0.000000 0.000000 
#    y 0.000000 3.484360 0.000000 
#    z 0.000000 0.000000 3.621030 
# 
# 
# High freq. dielectric constant tensor:
#      x y z
#    x 1.815440 0.000000 0.000000 
#    y 0.000000 1.788880 0.000000 
#    z 0.000000 0.000000 1.806310 
# 
# From -- ./inp_files/3480.got.cif
#   From: 2010.03.12/outbox.cif.g09.slc.cpg/sg29_2_cif.got.tgz:3480.got - 2010.04.14 03:43:10.
