data_PCOD8168735
_publ_section_title
;
Structure prediction by ZEFSAII (Michael W. Deem and Ramdas Pophale) SiO2 
 PCOD8168735
Probable space group: P C A 21
;
_chemical_formula_sum "Si O2"
_cell_formula_units_Z 32
_cell_length_a 21.542227
_cell_length_b 8.746492
_cell_length_c 8.246707
_cell_angle_alpha 90.000000
_cell_angle_beta 90.000000
_cell_angle_gamma 90.000000
_cell_volume 1553.835594
_symmetry_space_group_name_H-M "P C A 21"
_symmetry_group_IT_number 29
_symmetry_cell_setting 'orthorhombic'
loop_
_space_group_symop_operation_xyz
x,y,z
-x,-y,1/2+z
1/2-x,y,1/2+z
1/2+x,-y,z
loop_
_atom_site_type_symbol
_atom_site_label
_atom_site_fract_x
_atom_site_fract_y
_atom_site_fract_z
Si Si1 0.701721 0.265953 0.007080
Si Si2 0.670969 0.675554 0.741637
Si Si3 0.071273 0.236616 0.985752
Si Si4 0.621856 0.500001 0.198480
Si Si5 0.298280 0.265950 0.889878
Si Si6 0.329031 0.675549 0.155321
Si Si7 0.639581 0.000001 0.198479
Si Si8 0.571273 0.236619 0.411206
O O1 0.664959 0.414745 0.068625
O O2 0.774935 0.298779 0.022946
O O3 0.684375 0.117229 0.108146
O O4 0.686737 0.232946 0.819533
O O5 0.607396 0.738184 0.817125
O O6 0.686737 0.767060 0.577425
O O7 0.725066 0.701223 0.874012
O O8 0.663476 0.500003 0.698479
O O9 1.000000 0.210819 0.948478
O O10 0.078237 0.382253 0.103539
O O11 0.095768 0.083776 0.070167
O O12 0.664958 0.585258 0.328338
O O13 0.578236 0.382254 0.293418
O O14 0.315626 0.117229 0.788808
O O15 0.392605 0.738178 0.079834
O O16 0.595770 0.083780 0.326793
#
# Coordination Sequence:
#
# PCOD8168735 Si02
#       8
#     4   4   4   4   4   4   4   4
#     4  11  22  40  69  97 135 164 216 275 334 391
#     4  12  23  40  69 103 130 171 218 283 330 376
#     4  11  26  43  66  95 132 178 224 263 324 396
#     4  10  20  40  64  94 128 168 216 270 322 380
#     4  11  22  40  69  97 135 164 216 275 334 391
#     4  12  23  40  69 103 130 171 218 283 330 376
#     4  10  26  46  62  98 136 180 212 274 336 392
#     4  11  26  43  66  95 132 178 224 263 324 396
#
# _framework density 20.594199
#
# number of rings (size 3 to 8) (size 9 to 14) (size 15 to 20)
#    0.000    1.000    3.750    3.750    1.750    7.000 
#    0.000    5.000    0.000    0.000    0.000    0.000 
#    0.000    0.000    0.000    0.000    0.000    0.000 
#
# Total GULP energy -397057.388655 kJ/mol
# GULP energy per Si atom -12408.043395 kJ/mol
# Density = 2.054733 g / cm^3
# Si number density = 20.594199 Si / 1000 Ang^3
#
#
#
# Elastic Constant Matrix: (Units=GPa)
#
#
# Indices 1 2 3 4 5 6 
#
# 1 135.5103 42.6602 55.8609 0.0000 0.0000 0.0000
# 2 42.6602 100.6635 24.4781 0.0000 0.0000 0.0000
# 3 55.8609 24.4781 130.8817 0.0000 0.0000 0.0000
# 4 0.0000 0.0000 0.0000 19.6504 0.0000 0.0000
# 5 0.0000 0.0000 0.0000 0.0000 32.9519 0.0000
# 6 0.0000 0.0000 0.0000 0.0000 0.0000 10.9856
#
#
#
# Elastic Compliance Matrix: (Units=1/GPa)
#
#
# Indices 1 2 3 4 5 6 
#
# 1 0.009914 -0.003324 -0.003610 0.000000 0.000000 0.000000
# 2 -0.003324 0.011522 -0.000736 0.000000 0.000000 0.000000
# 3 -0.003610 -0.000736 0.009319 0.000000 0.000000 0.000000
# 4 0.000000 0.000000 0.000000 0.050890 0.000000 0.000000
# 5 0.000000 0.000000 0.000000 0.000000 0.030347 0.000000
# 6 0.000000 0.000000 0.000000 0.000000 0.000000 0.091028
#
#
# Mechanical properties :
#
#
# Convention : Reuss Voigt Hill
#
# Bulk Modulus (GPa) = 64.87138 68.11710 66.49424
# Shear Modulus (GPa) = 22.37169 28.98801 25.67985
#
# Velocity S-wave (km/s) = 3.29950 3.75584 3.53504
# Velocity P-wave (km/s) = 6.78850 7.20806 7.00143
#
# Compressibility (1/GPa) = 0.01541512
#
# Stress axis : x y z
#
# Youngs Moduli (GPa) = 100.86927 86.79314 107.30982
#
# Poissons Ratio (x) = 0.28847 0.38735
# Poissons Ratio (y) = 0.33525 0.07901
# Poissons Ratio (z) = 0.36410 0.06391
#
# Static dielectric constant tensor:
#      x y z
#    x 3.500640 0.000000 0.000000 
#    y 0.000000 3.844210 0.000000 
#    z 0.000000 0.000000 4.041830 
# 
# 
# High freq. dielectric constant tensor:
#      x y z
#    x 1.794730 0.000000 0.000000 
#    y 0.000000 1.813070 0.000000 
#    z 0.000000 0.000000 1.821280 
# 
# From -- ./inp_files/2308.got.cif
#   From: 2010.03.12/outbox.cif.g09.slc.cpg/sg29_2_cif.got.tgz:2308.got - 2010.04.14 03:43:10.
