data_PCOD8168727
_publ_section_title
;
Structure prediction by ZEFSAII (Michael W. Deem and Ramdas Pophale) SiO2 
 PCOD8168727
Probable space group: P C A 21
;
_chemical_formula_sum "Si O2"
_cell_formula_units_Z 28
_cell_length_a 11.509375
_cell_length_b 12.020664
_cell_length_c 8.733449
_cell_angle_alpha 90.000000
_cell_angle_beta 90.000000
_cell_angle_gamma 90.000000
_cell_volume 1208.275549
_symmetry_space_group_name_H-M "P C A 21"
_symmetry_group_IT_number 29
_symmetry_cell_setting 'orthorhombic'
loop_
_space_group_symop_operation_xyz
x,y,z
-x,-y,1/2+z
1/2-x,y,1/2+z
1/2+x,-y,z
loop_
_atom_site_type_symbol
_atom_site_label
_atom_site_fract_x
_atom_site_fract_y
_atom_site_fract_z
Si Si1 0.828171 0.704035 0.855580
Si Si2 0.903519 0.496322 0.999539
Si Si3 0.675324 0.229761 0.005841
Si Si4 0.755626 0.384417 0.250194
Si Si5 0.077218 0.874173 0.554022
Si Si6 0.594815 0.672385 0.018962
Si Si7 0.982801 0.907930 0.883104
O O1 0.906241 0.629617 0.974149
O O2 0.844395 0.661472 0.682995
O O3 0.867971 0.831809 0.869046
O O4 0.691972 0.696518 0.892544
O O5 0.817306 0.457791 0.865566
O O6 0.850088 0.460203 0.162406
O O7 0.032236 0.445365 0.981790
O O8 0.674377 0.287272 0.838280
O O9 0.567264 0.145820 0.011112
O O10 0.665260 0.325776 0.133791
O O11 0.789891 0.158587 0.037396
O O12 0.001964 0.766905 0.511237
O O13 0.049886 0.918570 0.722748
O O14 0.053236 0.969724 0.431409
#
# Coordination Sequence:
#
# PCOD8168727 Si02
#       7
#     4   4   4   4   4   4   4
#     4  11  27  46  69 105 144 187 229 288 355 422
#     4  11  23  44  73 105 143 184 231 289 352 424
#     4  11  21  44  69 101 136 174 237 291 355 425
#     4  10  20  39  72 101 132 178 228 278 345 422
#     4  11  25  46  69  99 136 185 234 300 352 418
#     4  11  25  49  67 101 149 181 236 289 352 417
#     4  11  27  44  69 100 138 183 239 293 355 420
#
# _framework density 23.173521000000001
#
# number of rings (size 3 to 8) (size 9 to 14) (size 15 to 20)
#    0.000    1.143    4.286    1.714    4.000    8.000 
#    0.000    0.000    0.000    0.000    0.000    0.000 
#    0.000    0.000    0.000    0.000    0.000    0.000 
#
# Total GULP energy -347346.844719 kJ/mol
# GULP energy per Si atom -12405.244454 kJ/mol
# Density = 2.312078 g / cm^3
# Si number density = 23.173521 Si / 1000 Ang^3
#
#
#
# Elastic Constant Matrix: (Units=GPa)
#
#
# Indices 1 2 3 4 5 6 
#
# 1 83.3627 -16.8812 7.4407 0.0000 0.0000 0.0000
# 2 -16.8812 58.5262 11.7559 0.0000 0.0000 0.0000
# 3 7.4407 11.7559 80.9977 0.0000 0.0000 0.0000
# 4 0.0000 0.0000 0.0000 23.8748 0.0000 0.0000
# 5 0.0000 0.0000 0.0000 0.0000 23.9708 0.0000
# 6 0.0000 0.0000 0.0000 0.0000 0.0000 2.6789
#
#
#
# Elastic Compliance Matrix: (Units=1/GPa)
#
#
# Indices 1 2 3 4 5 6 
#
# 1 0.012987 0.004105 -0.001789 0.000000 0.000000 0.000000
# 2 0.004105 0.018897 -0.003120 0.000000 0.000000 0.000000
# 3 -0.001789 -0.003120 0.012963 0.000000 0.000000 0.000000
# 4 0.000000 0.000000 0.000000 0.041885 0.000000 0.000000
# 5 0.000000 0.000000 0.000000 0.000000 0.041717 0.000000
# 6 0.000000 0.000000 0.000000 0.000000 0.000000 0.373289
#
#
# Mechanical properties :
#
#
# Convention : Reuss Voigt Hill
#
# Bulk Modulus (GPa) = 23.12666 25.27970 24.20318
# Shear Modulus (GPa) = 9.65700 24.80965 17.23333
#
# Velocity S-wave (km/s) = 2.04360 3.27556 2.72998
# Velocity P-wave (km/s) = 3.94586 5.02377 4.51708
#
# Compressibility (1/GPa) = 0.04324015
#
# Stress axis : x y z
#
# Youngs Moduli (GPa) = 77.00151 52.91813 77.14171
#
# Poissons Ratio (x) = -0.21724 0.13799
# Poissons Ratio (y) = -0.31611 0.24067
# Poissons Ratio (z) = 0.13774 0.16509
#
# Static dielectric constant tensor:
#      x y z
#    x 4.058980 0.000000 0.000000 
#    y 0.000000 4.261640 0.000000 
#    z 0.000000 0.000000 4.318770 
# 
# 
# High freq. dielectric constant tensor:
#      x y z
#    x 1.913770 0.000000 0.000000 
#    y 0.000000 1.919390 0.000000 
#    z 0.000000 0.000000 1.923560 
# 
# From -- ./inp_files/1479.got.cif
#   From: 2010.03.12/outbox.cif.g09.slc.cpg/sg29_1_cif.got.tgz:1479.got - 2010.04.14 03:43:10.
