data_PCOD8168205
_publ_section_title
;
Structure prediction by ZEFSAII (Michael W. Deem and Ramdas Pophale) SiO2 
 PCOD8168205
Probable space group: P M A 2
;
_chemical_formula_sum "Si O2"
_cell_formula_units_Z 28
_cell_length_a 8.853799
_cell_length_b 9.467676
_cell_length_c 17.945952
_cell_angle_alpha 90.000000
_cell_angle_beta 90.000000
_cell_angle_gamma 90.000000
_cell_volume 1504.317637
_symmetry_space_group_name_H-M "P M A 2"
_symmetry_group_IT_number 28
_symmetry_cell_setting 'orthorhombic'
loop_
_space_group_symop_operation_xyz
x,y,z
-x,-y,z
1/2-x,y,z
1/2+x,-y,z
loop_
_atom_site_type_symbol
_atom_site_label
_atom_site_fract_x
_atom_site_fract_y
_atom_site_fract_z
Si Si1 0.429192 0.647831 0.833880
Si Si2 0.924291 0.648424 0.420206
Si Si3 0.427696 0.347115 0.581029
Si Si4 0.429936 0.153056 0.715512
Si Si5 0.571448 0.152750 0.133583
Si Si6 0.074158 0.643242 0.004018
Si Si7 0.428410 0.344994 0.258404
O O1 0.500000 0.500000 0.806349
O O2 0.250000 0.644055 0.821546
O O3 0.503877 0.774799 0.789039
O O4 0.474891 0.676393 0.919559
O O5 0.750000 0.615784 0.424538
O O6 0.972266 0.720562 0.499209
O O7 0.960920 0.724141 0.341194
O O8 0.000000 0.500000 0.416202
O O9 0.500000 0.500000 0.593274
O O10 0.250000 0.367236 0.589247
O O11 0.486687 0.240295 0.643621
O O12 0.250000 0.143855 0.721247
O O13 0.500000 0.000000 0.707962
O O14 0.750000 0.140826 0.142495
O O15 0.524084 0.227795 0.056363
O O16 0.506298 0.239680 0.202024
O O17 0.500000 0.000000 0.132728
O O18 0.250000 0.616459 0.009179
O O19 0.000000 0.500000 0.034182
O O20 0.500000 0.500000 0.250160
O O21 0.250000 0.355984 0.242522
#
# Coordination Sequence:
#
# PCOD8168205 Si02
#       7
#     4   4   4   4   4   4   4
#     4  10  20  37  59  83 109 137 173 215 260 310
#     4   8  15  29  50  76 104 133 169 214 260 307
#     4   9  18  33  54  78 104 135 173 216 261 310
#     4  11  23  37  53  76 107 143 180 218 263 313
#     4  11  23  38  54  76 107 142 179 217 262 313
#     4   9  20  37  58  82 106 135 172 214 259 310
#     4  10  19  33  55  81 108 139 176 218 263 311
#
# _framework density 18.61309
#
# number of rings (size 3 to 8) (size 9 to 14) (size 15 to 20)
#    0.000    2.286    0.000    2.571    0.000    6.286 
#    0.000    2.143    0.000    1.714    0.000    0.000 
#    0.000    0.000    0.000    0.000    0.000    0.000 
#
# Total GULP energy -347011.683597 kJ/mol
# GULP energy per Si atom -12393.274414 kJ/mol
# Density = 1.857073 g / cm^3
# Si number density = 18.613090 Si / 1000 Ang^3
#
#
#
# Elastic Constant Matrix: (Units=GPa)
#
#
# Indices 1 2 3 4 5 6 
#
# 1 66.8376 50.3448 54.2457 0.0000 0.0000 0.0000
# 2 50.3448 137.6552 87.3652 0.0000 0.0000 0.0000
# 3 54.2457 87.3652 144.2013 0.0000 0.0000 0.0000
# 4 0.0000 0.0000 0.0000 10.2828 0.0000 0.0000
# 5 0.0000 0.0000 0.0000 0.0000 24.1694 0.0000
# 6 0.0000 0.0000 0.0000 0.0000 0.0000 32.9212
#
#
#
# Elastic Compliance Matrix: (Units=1/GPa)
#
#
# Indices 1 2 3 4 5 6 
#
# 1 0.023351 -0.004818 -0.005865 0.000000 0.000000 0.000000
# 2 -0.004818 0.012797 -0.005941 0.000000 0.000000 0.000000
# 3 -0.005865 -0.005941 0.012740 0.000000 0.000000 0.000000
# 4 0.000000 0.000000 0.000000 0.097250 0.000000 0.000000
# 5 0.000000 0.000000 0.000000 0.000000 0.041375 0.000000
# 6 0.000000 0.000000 0.000000 0.000000 0.000000 0.030376
#
#
# Mechanical properties :
#
#
# Convention : Reuss Voigt Hill
#
# Bulk Modulus (GPa) = 63.93583 81.40059 72.66821
# Shear Modulus (GPa) = 19.50467 23.92391 21.71429
#
# Velocity S-wave (km/s) = 3.24064 3.58904 3.41928
# Velocity P-wave (km/s) = 6.95894 7.81043 7.39695
#
# Compressibility (1/GPa) = 0.01564068
#
# Stress axis : x y z
#
# Youngs Moduli (GPa) = 42.82518 78.14402 78.49015
#
# Poissons Ratio (x) = 0.37646 0.46037
# Poissons Ratio (y) = 0.20631 0.46629
# Poissons Ratio (z) = 0.25118 0.46424
#
# Static dielectric constant tensor:
#      x y z
#    x 3.488770 0.000000 0.000000 
#    y 0.000000 3.203930 0.000000 
#    z 0.000000 0.000000 4.211080 
# 
# 
# High freq. dielectric constant tensor:
#      x y z
#    x 1.730500 0.000000 0.000000 
#    y 0.000000 1.695370 0.000000 
#    z 0.000000 0.000000 1.748250 
# 
# From -- ./inp_files/6802.got.cif
#   From: 2010.03.12/outbox.cif.g09.slc.cpg/sg28_4_cif.got.tgz:6802.got - 2010.04.14 03:39:34.
