data_PCOD8168909
_publ_section_title
;
Structure prediction by ZEFSAII (Michael W. Deem and Ramdas Pophale) SiO2 
 PCOD8168909
Probable space group: P C A 21
;
_chemical_formula_sum "Si O2"
_cell_formula_units_Z 20
_cell_length_a 4.949841
_cell_length_b 13.346517
_cell_length_c 12.741152
_cell_angle_alpha 90.000000
_cell_angle_beta 90.000000
_cell_angle_gamma 90.000000
_cell_volume 841.720471
_symmetry_space_group_name_H-M "P C A 21"
_symmetry_group_IT_number 29
_symmetry_cell_setting 'orthorhombic'
loop_
_space_group_symop_operation_xyz
x,y,z
-x,-y,1/2+z
1/2-x,y,1/2+z
1/2+x,-y,z
loop_
_atom_site_type_symbol
_atom_site_label
_atom_site_fract_x
_atom_site_fract_y
_atom_site_fract_z
Si Si1 0.983890 0.064821 0.653880
Si Si2 0.940324 0.305974 0.257295
Si Si3 0.447924 0.198032 0.335766
Si Si4 0.722991 0.248638 0.541373
Si Si5 0.009051 0.563149 0.935148
O O1 0.919892 0.162754 0.585473
O O2 0.974144 0.093662 0.778056
O O3 0.782097 0.974237 0.627312
O O4 0.627986 0.285174 0.284128
O O5 0.965466 0.299805 0.131350
O O6 0.998614 0.414776 0.308910
O O7 0.134878 0.223306 0.312497
O O8 0.516349 0.196834 0.459273
O O9 0.916341 0.333242 0.492025
O O10 0.211743 0.473710 0.966662
#
# Coordination Sequence:
#
# PCOD8168909 Si02
#       5
#     4   4   4   4   4
#     4  11  24  41  65 100 136 178 232 284 343 412
#     4  10  22  41  64  92 132 178 227 287 347 410
#     4  10  22  41  64  92 132 178 227 287 347 410
#     4  10  24  44  70  98 138 188 232 286 356 420
#     4  11  24  41  65 100 136 178 232 284 343 412
#
# _framework density 23.760857000000001
#
# number of rings (size 3 to 8) (size 9 to 14) (size 15 to 20)
#    0.000    1.600    0.000    4.800    0.000   17.600 
#    0.000    0.000    0.000    0.000    0.000    0.000 
#    0.000    0.000    0.000    0.000    0.000    0.000 
#
# Total GULP energy -247882.850504 kJ/mol
# GULP energy per Si atom -12394.142525 kJ/mol
# Density = 2.370678 g / cm^3
# Si number density = 23.760857 Si / 1000 Ang^3
#
#
#
# Elastic Constant Matrix: (Units=GPa)
#
#
# Indices 1 2 3 4 5 6 
#
# 1 80.5054 20.1202 22.6777 0.0000 0.0000 0.0000
# 2 20.1202 100.5478 41.4351 0.0000 0.0000 0.0000
# 3 22.6777 41.4351 143.6268 0.0000 0.0000 0.0000
# 4 0.0000 0.0000 0.0000 48.2410 0.0000 0.0000
# 5 0.0000 0.0000 0.0000 0.0000 24.1433 0.0000
# 6 0.0000 0.0000 0.0000 0.0000 0.0000 42.5938
#
#
#
# Elastic Compliance Matrix: (Units=1/GPa)
#
#
# Indices 1 2 3 4 5 6 
#
# 1 0.013361 -0.002048 -0.001519 0.000000 0.000000 0.000000
# 2 -0.002048 0.011601 -0.003024 0.000000 0.000000 0.000000
# 3 -0.001519 -0.003024 0.008075 0.000000 0.000000 0.000000
# 4 0.000000 0.000000 0.000000 0.020729 0.000000 0.000000
# 5 0.000000 0.000000 0.000000 0.000000 0.041419 0.000000
# 6 0.000000 0.000000 0.000000 0.000000 0.000000 0.023478
#
#
# Mechanical properties :
#
#
# Convention : Reuss Voigt Hill
#
# Bulk Modulus (GPa) = 50.36085 54.79399 52.57742
# Shear Modulus (GPa) = 36.11090 39.02542 37.56816
#
# Velocity S-wave (km/s) = 3.90264 4.05708 3.98061
# Velocity P-wave (km/s) = 6.44581 6.71247 6.58049
#
# Compressibility (1/GPa) = 0.01985669
#
# Stress axis : x y z
#
# Youngs Moduli (GPa) = 74.84384 86.19752 123.84547
#
# Poissons Ratio (x) = 0.17651 0.18811
# Poissons Ratio (y) = 0.15326 0.37445
# Poissons Ratio (z) = 0.11368 0.26062
#
# Static dielectric constant tensor:
#      x y z
#    x 4.160560 0.000000 0.000000 
#    y 0.000000 4.152860 0.000000 
#    z 0.000000 0.000000 4.667890 
# 
# 
# High freq. dielectric constant tensor:
#      x y z
#    x 1.948610 0.000000 0.000000 
#    y 0.000000 1.924830 0.000000 
#    z 0.000000 0.000000 1.939920 
# 
# From -- ./inp_files/2659.got.cif
#   From: 2010.03.12/outbox.cif.g09.slc.cpg/sg29_2_cif.got.tgz:2659.got - 2010.04.14 03:43:10.
