data_PCOD8168892
_publ_section_title
;
Structure prediction by ZEFSAII (Michael W. Deem and Ramdas Pophale) SiO2 
 PCOD8168892
Probable space group: P C A 21
;
_chemical_formula_sum "Si O2"
_cell_formula_units_Z 28
_cell_length_a 12.603907
_cell_length_b 12.382720
_cell_length_c 8.422968
_cell_angle_alpha 90.000000
_cell_angle_beta 90.000000
_cell_angle_gamma 90.000000
_cell_volume 1314.578102
_symmetry_space_group_name_H-M "P C A 21"
_symmetry_group_IT_number 29
_symmetry_cell_setting 'orthorhombic'
loop_
_space_group_symop_operation_xyz
x,y,z
-x,-y,1/2+z
1/2-x,y,1/2+z
1/2+x,-y,z
loop_
_atom_site_type_symbol
_atom_site_label
_atom_site_fract_x
_atom_site_fract_y
_atom_site_fract_z
Si Si1 0.762989 0.250013 0.188740
Si Si2 0.885938 0.836754 0.468100
Si Si3 0.319829 0.109963 0.807883
Si Si4 0.873860 0.381518 0.442295
Si Si5 0.626175 0.118486 0.435178
Si Si6 0.319884 0.390022 0.569534
Si Si7 0.385911 0.336730 0.909348
O O1 0.838365 0.341019 0.267897
O O2 0.686455 0.192457 0.311110
O O3 0.686488 0.307617 0.066377
O O4 0.838317 0.158968 0.109580
O O5 0.805113 0.862955 0.324828
O O6 0.847940 0.904809 0.622753
O O7 0.888673 0.709081 0.501499
O O8 0.000951 0.872240 0.411701
O O9 0.388620 0.209058 0.875944
O O10 0.346256 0.005841 0.911435
O O11 0.846351 0.505868 0.465975
O O12 0.999077 0.372170 0.465825
O O13 0.347977 0.404800 0.754671
O O14 0.194940 0.362956 0.552574
#
# Coordination Sequence:
#
# PCOD8168892 Si02
#       7
#     4   4   4   4   4   4   4
#     4  10  24  40  60  96 122 160 216 246 300 392
#     4  10  23  40  62  91 120 155 206 252 302 367
#     4  10  22  40  62  89 119 157 205 251 301 365
#     4  11  23  42  64  88 128 165 201 259 313 360
#     4  11  23  42  64  88 128 165 201 259 313 360
#     4  10  22  40  62  89 119 157 205 251 301 365
#     4  10  23  40  62  91 120 155 206 252 302 367
#
# _framework density 21.299610000000001
#
# number of rings (size 3 to 8) (size 9 to 14) (size 15 to 20)
#    0.000    1.714    0.000    3.429    0.000   16.000 
#    0.000    0.000    0.000    0.000    0.000    0.000 
#    0.000    0.000    0.000    0.000    0.000    0.000 
#
# Total GULP energy -347308.420134 kJ/mol
# GULP energy per Si atom -12403.872148 kJ/mol
# Density = 2.125113 g / cm^3
# Si number density = 21.299610 Si / 1000 Ang^3
#
#
#
# Elastic Constant Matrix: (Units=GPa)
#
#
# Indices 1 2 3 4 5 6 
#
# 1 118.0251 32.0880 17.1073 0.0000 0.0000 0.0000
# 2 32.0880 122.9274 39.2886 0.0000 0.0000 0.0000
# 3 17.1073 39.2886 59.7336 0.0000 0.0000 0.0000
# 4 0.0000 0.0000 0.0000 28.3882 0.0000 0.0000
# 5 0.0000 0.0000 0.0000 0.0000 29.1905 0.0000
# 6 0.0000 0.0000 0.0000 0.0000 0.0000 21.4468
#
#
#
# Elastic Compliance Matrix: (Units=1/GPa)
#
#
# Indices 1 2 3 4 5 6 
#
# 1 0.009204 -0.001975 -0.001337 0.000000 0.000000 0.000000
# 2 -0.001975 0.010724 -0.006488 0.000000 0.000000 0.000000
# 3 -0.001337 -0.006488 0.021391 0.000000 0.000000 0.000000
# 4 0.000000 0.000000 0.000000 0.035226 0.000000 0.000000
# 5 0.000000 0.000000 0.000000 0.000000 0.034258 0.000000
# 6 0.000000 0.000000 0.000000 0.000000 0.000000 0.046627
#
#
# Mechanical properties :
#
#
# Convention : Reuss Voigt Hill
#
# Bulk Modulus (GPa) = 46.04225 53.07267 49.55746
# Shear Modulus (GPa) = 27.13432 29.95191 28.54312
#
# Velocity S-wave (km/s) = 3.57309 3.75403 3.66468
# Velocity P-wave (km/s) = 6.21981 6.61525 6.42058
#
# Compressibility (1/GPa) = 0.02171918
#
# Stress axis : x y z
#
# Youngs Moduli (GPa) = 108.65398 93.24835 46.74845
#
# Poissons Ratio (x) = 0.18418 0.06249
# Poissons Ratio (y) = 0.21461 0.30330
# Poissons Ratio (z) = 0.14524 0.60498
#
# Static dielectric constant tensor:
#      x y z
#    x 3.806650 0.000000 0.000000 
#    y 0.000000 3.971400 0.000000 
#    z 0.000000 0.000000 4.290830 
# 
# 
# High freq. dielectric constant tensor:
#      x y z
#    x 1.839370 0.000000 0.000000 
#    y 0.000000 1.841240 0.000000 
#    z 0.000000 0.000000 1.834630 
# 
# From -- ./inp_files/1464.got.cif
#   From: 2010.03.12/outbox.cif.g09.slc.cpg/sg29_1_cif.got.tgz:1464.got - 2010.04.14 03:43:10.
