data_PCOD8168910
_publ_section_title
;
Structure prediction by ZEFSAII (Michael W. Deem and Ramdas Pophale) SiO2 
 PCOD8168910
Probable space group: P C A 21
;
_chemical_formula_sum "Si O2"
_cell_formula_units_Z 20
_cell_length_a 15.672398
_cell_length_b 4.804766
_cell_length_c 10.783502
_cell_angle_alpha 90.000000
_cell_angle_beta 90.000000
_cell_angle_gamma 90.000000
_cell_volume 812.021479
_symmetry_space_group_name_H-M "P C A 21"
_symmetry_group_IT_number 29
_symmetry_cell_setting 'orthorhombic'
loop_
_space_group_symop_operation_xyz
x,y,z
-x,-y,1/2+z
1/2-x,y,1/2+z
1/2+x,-y,z
loop_
_atom_site_type_symbol
_atom_site_label
_atom_site_fract_x
_atom_site_fract_y
_atom_site_fract_z
Si Si1 0.510139 0.051169 0.397780
Si Si2 0.312246 0.911093 0.969929
Si Si3 0.402783 0.719122 0.214347
Si Si4 0.535004 0.446030 0.045468
Si Si5 0.300808 0.427402 0.428233
O O1 0.446926 0.969292 0.288788
O O2 0.482115 0.878962 0.521012
O O3 0.611201 0.997221 0.376798
O O4 0.498405 0.377683 0.425974
O O5 0.285553 0.600013 0.937172
O O6 0.230121 0.107708 0.944091
O O7 0.346907 0.883290 0.111318
O O8 0.345465 0.510811 0.297715
O O9 0.482172 0.534848 0.165228
O O10 0.637040 0.505915 0.046265
#
# Coordination Sequence:
#
# PCOD8168910 Si02
#       5
#     4   4   4   4   4
#     4  10  22  41  65  93 126 173 223 264 329 417
#     4  11  24  42  65 100 133 169 229 286 333 403
#     4  10  24  44  68  92 140 188 216 278 348 398
#     4  10  22  41  65  93 126 173 223 264 329 417
#     4  11  24  42  65 100 133 169 229 286 333 403
#
# _framework density 24.62989
#
# number of rings (size 3 to 8) (size 9 to 14) (size 15 to 20)
#    0.000    1.600    0.000    4.800    0.000   17.600 
#    0.000    0.000    0.000    0.000    0.000    0.000 
#    0.000    0.000    0.000    0.000    0.000    0.000 
#
# Total GULP energy -247770.113358 kJ/mol
# GULP energy per Si atom -12388.505668 kJ/mol
# Density = 2.457383 g / cm^3
# Si number density = 24.629890 Si / 1000 Ang^3
#
#
#
# Elastic Constant Matrix: (Units=GPa)
#
#
# Indices 1 2 3 4 5 6 
#
# 1 128.1024 23.8405 25.2974 0.0000 0.0000 0.0000
# 2 23.8405 64.4764 13.6395 0.0000 0.0000 0.0000
# 3 25.2974 13.6395 99.9987 0.0000 0.0000 0.0000
# 4 0.0000 0.0000 0.0000 22.2327 0.0000 0.0000
# 5 0.0000 0.0000 0.0000 0.0000 52.2633 0.0000
# 6 0.0000 0.0000 0.0000 0.0000 0.0000 52.2035
#
#
#
# Elastic Compliance Matrix: (Units=1/GPa)
#
#
# Indices 1 2 3 4 5 6 
#
# 1 0.008691 -0.002830 -0.001813 0.000000 0.000000 0.000000
# 2 -0.002830 0.016892 -0.001588 0.000000 0.000000 0.000000
# 3 -0.001813 -0.001588 0.010675 0.000000 0.000000 0.000000
# 4 0.000000 0.000000 0.000000 0.044979 0.000000 0.000000
# 5 0.000000 0.000000 0.000000 0.000000 0.019134 0.000000
# 6 0.000000 0.000000 0.000000 0.000000 0.000000 0.019156
#
#
# Mechanical properties :
#
#
# Convention : Reuss Voigt Hill
#
# Bulk Modulus (GPa) = 42.02270 46.45916 44.24093
# Shear Modulus (GPa) = 35.73464 40.65990 38.19727
#
# Velocity S-wave (km/s) = 3.81315 4.06746 3.94236
# Velocity P-wave (km/s) = 6.04033 6.40022 6.22288
#
# Compressibility (1/GPa) = 0.02379666
#
# Stress axis : x y z
#
# Youngs Moduli (GPa) = 115.06306 59.19989 93.67433
#
# Poissons Ratio (x) = 0.16754 0.16979
# Poissons Ratio (y) = 0.32564 0.14876
# Poissons Ratio (z) = 0.20856 0.09401
#
# Static dielectric constant tensor:
#      x y z
#    x 4.775320 0.000000 0.000000 
#    y 0.000000 4.389210 0.000000 
#    z 0.000000 0.000000 4.275660 
# 
# 
# High freq. dielectric constant tensor:
#      x y z
#    x 1.999830 0.000000 0.000000 
#    y 0.000000 1.996230 0.000000 
#    z 0.000000 0.000000 1.949030 
# 
# From -- ./inp_files/3297.got.cif
#   From: 2010.03.12/outbox.cif.g09.slc.cpg/sg29_2_cif.got.tgz:3297.got - 2010.04.14 03:43:10.
