data_PCOD8168407
_publ_section_title
;
Structure prediction by ZEFSAII (Michael W. Deem and Ramdas Pophale) SiO2 
 PCOD8168407
Probable space group: P M A 2
;
_chemical_formula_sum "Si O2"
_cell_formula_units_Z 20
_cell_length_a 16.466574
_cell_length_b 8.399207
_cell_length_c 6.736811
_cell_angle_alpha 90.000000
_cell_angle_beta 90.000000
_cell_angle_gamma 90.000000
_cell_volume 931.742484
_symmetry_space_group_name_H-M "P M A 2"
_symmetry_group_IT_number 28
_symmetry_cell_setting 'orthorhombic'
loop_
_space_group_symop_operation_xyz
x,y,z
-x,-y,z
1/2-x,y,z
1/2+x,-y,z
loop_
_atom_site_type_symbol
_atom_site_label
_atom_site_fract_x
_atom_site_fract_y
_atom_site_fract_z
Si Si1 0.000000 0.500000 0.546700
Si Si2 0.112017 0.751165 0.702872
Si Si3 0.500000 0.000000 0.530915
Si Si4 0.750000 0.190669 0.439184
Si Si5 0.613074 0.740601 0.376658
Si Si6 0.750000 0.838923 0.641421
Si Si7 0.250000 0.304837 0.063932
Si Si8 0.750000 0.312519 0.006191
O O1 0.042585 0.618832 0.700932
O O2 0.064235 0.422679 0.396432
O O3 0.169619 0.719317 0.512659
O O4 0.066144 0.919576 0.677336
O O5 0.167717 0.744349 0.897885
O O6 0.452856 0.117424 0.380707
O O7 0.750000 0.205008 0.203491
O O8 0.750000 0.016391 0.545652
O O9 0.669946 0.748939 0.569370
O O10 0.668134 0.742303 0.180566
O O11 0.750000 0.815187 0.877672
O O12 0.250000 0.495334 0.024723
#
# Coordination Sequence:
#
# PCOD8168407 Si02
#       8
#     2   4   2   2   4   2   2   2
#     4  10  20  40  66  94 140 182 208 278 354 400
#     4  10  22  41  68  93 136 172 221 274 335 404
#     4  10  20  44  62 102 134 176 204 280 348 388
#     4  11  22  43  69  96 132 175 230 276 334 397
#     4  10  22  41  68  93 136 172 221 274 335 404
#     4  11  22  43  69  96 132 175 230 276 334 397
#     4  11  24  42  70 100 127 177 237 276 328 402
#     4  11  24  42  70 100 127 177 237 276 328 402
#
# _framework density 21.465160000000001
#
# number of rings (size 3 to 8) (size 9 to 14) (size 15 to 20)
#    0.000    1.600    2.000    2.400    0.000    6.400 
#    0.000   21.000    0.000    0.000    0.000    0.000 
#    0.000    0.000    0.000    0.000    0.000    0.000 
#
# Total GULP energy -247860.963615 kJ/mol
# GULP energy per Si atom -12393.048181 kJ/mol
# Density = 2.141630 g / cm^3
# Si number density = 21.465160 Si / 1000 Ang^3
#
#
#
# Elastic Constant Matrix: (Units=GPa)
#
#
# Indices 1 2 3 4 5 6 
#
# 1 117.3504 27.2575 49.2961 0.0000 0.0000 0.0000
# 2 27.2575 98.4228 39.7912 0.0000 0.0000 0.0000
# 3 49.2961 39.7912 153.7388 0.0000 0.0000 0.0000
# 4 0.0000 0.0000 0.0000 25.6412 0.0000 0.0000
# 5 0.0000 0.0000 0.0000 0.0000 16.9109 0.0000
# 6 0.0000 0.0000 0.0000 0.0000 0.0000 34.3483
#
#
#
# Elastic Compliance Matrix: (Units=1/GPa)
#
#
# Indices 1 2 3 4 5 6 
#
# 1 0.010085 -0.001659 -0.002804 0.000000 0.000000 0.000000
# 2 -0.001659 0.011621 -0.002476 0.000000 0.000000 0.000000
# 3 -0.002804 -0.002476 0.008044 0.000000 0.000000 0.000000
# 4 0.000000 0.000000 0.000000 0.039000 0.000000 0.000000
# 5 0.000000 0.000000 0.000000 0.000000 0.059134 0.000000
# 6 0.000000 0.000000 0.000000 0.000000 0.000000 0.029114
#
#
# Mechanical properties :
#
#
# Convention : Reuss Voigt Hill
#
# Bulk Modulus (GPa) = 63.00513 66.91131 64.95822
# Shear Modulus (GPa) = 28.38238 32.25788 30.32013
#
# Velocity S-wave (km/s) = 3.64022 3.88080 3.76244
# Velocity P-wave (km/s) = 6.86180 7.16384 7.01445
#
# Compressibility (1/GPa) = 0.01587172
#
# Stress axis : x y z
#
# Youngs Moduli (GPa) = 99.15835 86.05376 124.30877
#
# Poissons Ratio (x) = 0.14278 0.34859
# Poissons Ratio (y) = 0.16452 0.30775
# Poissons Ratio (z) = 0.27807 0.21304
#
# Static dielectric constant tensor:
#      x y z
#    x 4.287860 0.000000 0.000000 
#    y 0.000000 4.057280 0.000000 
#    z 0.000000 0.000000 3.554310 
# 
# 
# High freq. dielectric constant tensor:
#      x y z
#    x 1.873720 0.000000 0.000000 
#    y 0.000000 1.852160 0.000000 
#    z 0.000000 0.000000 1.811230 
# 
# From -- ./inp_files/1106.got.cif
#   From: 2010.03.12/outbox.cif.g09.slc.cpg/sg28_1_cif.got.tgz:1106.got - 2010.04.14 03:39:34.
