data_PCOD8168832
_publ_section_title
;
Structure prediction by ZEFSAII (Michael W. Deem and Ramdas Pophale) SiO2 
 PCOD8168832
Probable space group: P C A 21
;
_chemical_formula_sum "Si O2"
_cell_formula_units_Z 32
_cell_length_a 19.958458
_cell_length_b 11.938280
_cell_length_c 5.151131
_cell_angle_alpha 90.000000
_cell_angle_beta 90.000000
_cell_angle_gamma 90.000000
_cell_volume 1227.358232
_symmetry_space_group_name_H-M "P C A 21"
_symmetry_group_IT_number 29
_symmetry_cell_setting 'orthorhombic'
loop_
_space_group_symop_operation_xyz
x,y,z
-x,-y,1/2+z
1/2-x,y,1/2+z
1/2+x,-y,z
loop_
_atom_site_type_symbol
_atom_site_label
_atom_site_fract_x
_atom_site_fract_y
_atom_site_fract_z
Si Si1 0.956430 0.015611 0.247490
Si Si2 0.892850 0.452105 0.093568
Si Si3 0.294084 0.356839 0.055889
Si Si4 0.107183 0.204003 0.849045
Si Si5 0.091933 0.753877 0.910952
Si Si6 0.708281 0.888248 0.210121
Si Si7 0.708029 0.148750 0.205359
Si Si8 0.997748 0.635020 0.245402
O O1 0.918644 0.134855 0.235461
O O2 0.902743 0.916143 0.207389
O O3 0.987493 0.993159 0.529790
O O4 0.823603 0.517279 0.045110
O O5 0.929564 0.407752 0.836783
O O6 0.870541 0.343923 0.255973
O O7 0.948871 0.529186 0.231449
O O8 0.264996 0.336575 0.766707
O O9 0.356053 0.277755 0.129868
O O10 0.145043 0.186098 0.122785
O O11 0.038768 0.270564 0.924169
O O12 0.138933 0.785294 0.157000
O O13 0.018461 0.704646 0.987284
O O14 0.767680 0.856099 0.001026
O O15 0.690430 0.017729 0.184246
O O16 0.762847 0.180309 0.985616
#
# Coordination Sequence:
#
# PCOD8168832 Si02
#       8
#     4   4   4   4   4   4   4   4
#     4  12  27  45  68 112 153 192 241 296 370 456
#     4  11  26  46  77 102 151 188 252 315 373 434
#     4  11  28  50  79 113 143 196 255 311 377 442
#     4  11  23  46  73 109 150 190 240 308 367 448
#     4  12  25  45  72 102 144 191 243 297 367 443
#     4  10  21  41  65  95 138 184 231 284 350 426
#     4  10  24  42  64  97 134 182 231 279 349 421
#     4  11  24  47  70 108 139 193 243 306 375 434
#
# _framework density 26.072258000000001
#
# number of rings (size 3 to 8) (size 9 to 14) (size 15 to 20)
#    0.000    1.000    3.750    1.500    3.500    3.000 
#    2.250    0.000    0.000    0.000    0.000    0.000 
#    0.000    0.000    0.000    0.000    0.000    0.000 
#
# Total GULP energy -396748.720116 kJ/mol
# GULP energy per Si atom -12398.397504 kJ/mol
# Density = 2.601292 g / cm^3
# Si number density = 26.072258 Si / 1000 Ang^3
#
#
#
# Elastic Constant Matrix: (Units=GPa)
#
#
# Indices 1 2 3 4 5 6 
#
# 1 70.7243 38.9670 13.2362 0.0000 0.0000 0.0000
# 2 38.9670 155.0777 32.6701 0.0000 0.0000 0.0000
# 3 13.2362 32.6701 89.4360 0.0000 0.0000 0.0000
# 4 0.0000 0.0000 0.0000 32.5887 0.0000 0.0000
# 5 0.0000 0.0000 0.0000 0.0000 32.6099 0.0000
# 6 0.0000 0.0000 0.0000 0.0000 0.0000 55.6874
#
#
#
# Elastic Compliance Matrix: (Units=1/GPa)
#
#
# Indices 1 2 3 4 5 6 
#
# 1 0.016494 -0.003933 -0.001004 0.000000 0.000000 0.000000
# 2 -0.003933 0.007924 -0.002312 0.000000 0.000000 0.000000
# 3 -0.001004 -0.002312 0.012175 0.000000 0.000000 0.000000
# 4 0.000000 0.000000 0.000000 0.030685 0.000000 0.000000
# 5 0.000000 0.000000 0.000000 0.000000 0.030666 0.000000
# 6 0.000000 0.000000 0.000000 0.000000 0.000000 0.017957
#
#
# Mechanical properties :
#
#
# Convention : Reuss Voigt Hill
#
# Bulk Modulus (GPa) = 45.26317 53.88718 49.57517
# Shear Modulus (GPa) = 36.29365 39.53483 37.91424
#
# Velocity S-wave (km/s) = 3.73505 3.89827 3.81753
# Velocity P-wave (km/s) = 5.99993 6.40119 6.20381
#
# Compressibility (1/GPa) = 0.02209302
#
# Stress axis : x y z
#
# Youngs Moduli (GPa) = 60.62680 126.20214 82.13866
#
# Poissons Ratio (x) = 0.49635 0.08250
# Poissons Ratio (y) = 0.23845 0.18994
# Poissons Ratio (z) = 0.06089 0.29183
#
# Static dielectric constant tensor:
#      x y z
#    x 4.720690 0.000000 0.000000 
#    y 0.000000 5.267880 0.000000 
#    z 0.000000 0.000000 4.398700 
# 
# 
# High freq. dielectric constant tensor:
#      x y z
#    x 2.041760 0.000000 0.000000 
#    y 0.000000 2.074520 0.000000 
#    z 0.000000 0.000000 2.027130 
# 
# From -- ./inp_files/552.got.cif
#   From: 2010.03.12/outbox.cif.g09.slc.cpg/sg29_1_cif.got.tgz:552.got - 2010.04.14 03:43:10.
