data_PCOD8168711
_publ_section_title
;
Structure prediction by ZEFSAII (Michael W. Deem and Ramdas Pophale) SiO2 
 PCOD8168711
Probable space group: P C A 21
;
_chemical_formula_sum "Si O2"
_cell_formula_units_Z 32
_cell_length_a 11.596216
_cell_length_b 8.446249
_cell_length_c 15.377861
_cell_angle_alpha 90.000000
_cell_angle_beta 90.000000
_cell_angle_gamma 90.000000
_cell_volume 1506.177334
_symmetry_space_group_name_H-M "P C A 21"
_symmetry_group_IT_number 29
_symmetry_cell_setting 'orthorhombic'
loop_
_space_group_symop_operation_xyz
x,y,z
-x,-y,1/2+z
1/2-x,y,1/2+z
1/2+x,-y,z
loop_
_atom_site_type_symbol
_atom_site_label
_atom_site_fract_x
_atom_site_fract_y
_atom_site_fract_z
Si Si1 0.735437 0.729607 0.074260
Si Si2 0.088742 0.999632 0.982368
Si Si3 0.474141 0.836360 0.824909
Si Si4 0.972110 0.830383 0.141913
Si Si5 0.958624 0.520972 0.652574
Si Si6 0.612109 0.487367 0.492024
Si Si7 0.549906 0.487058 0.836681
Si Si8 0.244374 0.740658 0.889771
O O1 0.834909 0.801440 0.135607
O O2 0.660201 0.609349 0.132006
O O3 0.662781 0.861766 0.025104
O O4 0.795597 0.626690 0.999856
O O5 0.001734 0.058295 0.908387
O O6 0.168070 0.873047 0.934458
O O7 0.012367 0.927291 0.058817
O O8 0.507055 0.922429 0.733444
O O9 0.553359 0.677639 0.830634
O O10 0.335546 0.808567 0.819540
O O11 0.049229 0.670073 0.147861
O O12 0.053645 0.567909 0.581433
O O13 0.993752 0.580465 0.748392
O O14 0.521860 0.558165 0.422545
O O15 0.672740 0.327414 0.463740
O O16 0.673790 0.403011 0.845604
#
# Coordination Sequence:
#
# PCOD8168711 Si02
#       8
#     4   4   4   4   4   4   4   4
#     4  11  22  38  63  87 121 164 194 247 307 347
#     4  12  24  40  60  88 126 164 202 240 296 368
#     4  10  24  42  61  91 123 156 205 251 296 361
#     4  10  24  42  61  91 123 156 205 251 296 361
#     4  10  22  40  65  93 119 153 205 254 300 358
#     4  10  20  38  62  90 120 154 202 248 298 362
#     4  10  22  40  65  93 119 153 205 254 300 358
#     4  11  22  38  63  87 121 164 194 247 307 347
#
# _framework density 21.245837999999999
#
# number of rings (size 3 to 8) (size 9 to 14) (size 15 to 20)
#    0.000    1.500    0.000    6.000    0.000   13.000 
#    0.000    0.000    0.000    0.000    0.000    0.000 
#    0.000    0.000    0.000    0.000    0.000    0.000 
#
# Total GULP energy -396668.985457 kJ/mol
# GULP energy per Si atom -12395.905796 kJ/mol
# Density = 2.119748 g / cm^3
# Si number density = 21.245838 Si / 1000 Ang^3
#
#
#
# Elastic Constant Matrix: (Units=GPa)
#
#
# Indices 1 2 3 4 5 6 
#
# 1 115.3960 41.5182 41.7243 0.0000 0.0000 0.0000
# 2 41.5182 53.9326 34.6426 0.0000 0.0000 0.0000
# 3 41.7243 34.6426 130.3824 0.0000 0.0000 0.0000
# 4 0.0000 0.0000 0.0000 26.5063 0.0000 0.0000
# 5 0.0000 0.0000 0.0000 0.0000 18.1037 0.0000
# 6 0.0000 0.0000 0.0000 0.0000 0.0000 20.5599
#
#
#
# Elastic Compliance Matrix: (Units=1/GPa)
#
#
# Indices 1 2 3 4 5 6 
#
# 1 0.012294 -0.008365 -0.001712 0.000000 0.000000 0.000000
# 2 -0.008365 0.028049 -0.004776 0.000000 0.000000 0.000000
# 3 -0.001712 -0.004776 0.009486 0.000000 0.000000 0.000000
# 4 0.000000 0.000000 0.000000 0.037727 0.000000 0.000000
# 5 0.000000 0.000000 0.000000 0.000000 0.055237 0.000000
# 6 0.000000 0.000000 0.000000 0.000000 0.000000 0.048638
#
#
# Mechanical properties :
#
#
# Convention : Reuss Voigt Hill
#
# Bulk Modulus (GPa) = 49.68999 59.49792 54.59395
# Shear Modulus (GPa) = 21.94476 25.15570 23.55023
#
# Velocity S-wave (km/s) = 3.21736 3.44471 3.33297
# Velocity P-wave (km/s) = 6.10252 6.62470 6.36896
#
# Compressibility (1/GPa) = 0.02012478
#
# Stress axis : x y z
#
# Youngs Moduli (GPa) = 81.33818 35.65239 105.41351
#
# Poissons Ratio (x) = 0.29823 0.18045
# Poissons Ratio (y) = 0.68038 0.50342
# Poissons Ratio (z) = 0.13924 0.17026
#
# Static dielectric constant tensor:
#      x y z
#    x 3.998260 0.000000 0.000000 
#    y 0.000000 3.776340 0.000000 
#    z 0.000000 0.000000 4.299470 
# 
# 
# High freq. dielectric constant tensor:
#      x y z
#    x 1.837960 0.000000 0.000000 
#    y 0.000000 1.819750 0.000000 
#    z 0.000000 0.000000 1.848980 
# 
# From -- ./inp_files/4586.got.cif
#   From: 2010.03.12/outbox.cif.g09.slc.cpg/sg29_3_cif.got.tgz:4586.got - 2010.04.14 03:43:10.
