data_PCOD8168670
_publ_section_title
;
Structure prediction by ZEFSAII (Michael W. Deem and Ramdas Pophale) SiO2 
 PCOD8168670
Probable space group: P C A 21
;
_chemical_formula_sum "Si O2"
_cell_formula_units_Z 32
_cell_length_a 8.977918
_cell_length_b 20.379275
_cell_length_c 8.684148
_cell_angle_alpha 90.000000
_cell_angle_beta 90.000000
_cell_angle_gamma 90.000000
_cell_volume 1588.881764
_symmetry_space_group_name_H-M "P C A 21"
_symmetry_group_IT_number 29
_symmetry_cell_setting 'orthorhombic'
loop_
_space_group_symop_operation_xyz
x,y,z
-x,-y,1/2+z
1/2-x,y,1/2+z
1/2+x,-y,z
loop_
_atom_site_type_symbol
_atom_site_label
_atom_site_fract_x
_atom_site_fract_y
_atom_site_fract_z
Si Si1 0.945198 0.800138 0.626520
Si Si2 0.946687 0.556174 0.636987
Si Si3 0.639913 0.802195 0.471358
Si Si4 0.050552 0.052234 0.118854
Si Si5 0.637592 0.317705 0.677614
Si Si6 0.869490 0.559026 0.991729
Si Si7 0.554577 0.314141 0.027324
Si Si8 0.648972 0.949909 0.462786
O O1 0.812765 0.789143 0.506076
O O2 0.873017 0.786715 0.791950
O O3 0.012831 0.873523 0.616803
O O4 0.077122 0.748516 0.595425
O O5 0.892723 0.546450 0.811374
O O6 0.806194 0.558719 0.523493
O O7 0.042490 0.621770 0.613441
O O8 0.051165 0.496115 0.592288
O O9 0.529864 0.754139 0.565244
O O10 0.593566 0.877054 0.510503
O O11 0.116282 0.034220 0.285674
O O12 0.174696 0.045172 0.986930
O O13 0.921181 0.002096 0.078737
O O14 0.626550 0.312790 0.859754
O O15 0.812177 0.326113 0.646000
O O16 0.934265 0.628588 0.044584
#
# Coordination Sequence:
#
# PCOD8168670 Si02
#       8
#     4   4   4   4   4   4   4   4
#     4   9  19  36  56  79 106 139 180 223 269 322
#     4  11  23  39  60  85 114 147 184 226 272 323
#     4   9  19  36  56  79 106 139 180 223 269 322
#     4  10  20  35  55  79 109 143 181 225 273 326
#     4  10  22  38  56  81 111 143 181 224 270 321
#     4  11  23  39  60  85 114 147 184 226 272 323
#     4  10  22  38  56  81 111 143 181 224 270 321
#     4  10  20  35  55  79 109 143 181 225 273 326
#
# _framework density 20.139951
#
# number of rings (size 3 to 8) (size 9 to 14) (size 15 to 20)
#    0.000    2.000    0.000    3.000    0.000    7.000 
#    0.000    2.500    0.000    0.000    0.000    0.000 
#    0.000    0.000    0.000    0.000    0.000    0.000 
#
# Total GULP energy -396900.089999 kJ/mol
# GULP energy per Si atom -12403.127812 kJ/mol
# Density = 2.009411 g / cm^3
# Si number density = 20.139951 Si / 1000 Ang^3
#
#
#
# Elastic Constant Matrix: (Units=GPa)
#
#
# Indices 1 2 3 4 5 6 
#
# 1 58.9803 27.3327 -0.3314 0.0000 0.0000 0.0000
# 2 27.3327 107.6267 22.5519 0.0000 0.0000 0.0000
# 3 -0.3314 22.5519 34.6134 0.0000 0.0000 0.0000
# 4 0.0000 0.0000 0.0000 29.4661 0.0000 0.0000
# 5 0.0000 0.0000 0.0000 0.0000 32.7409 0.0000
# 6 0.0000 0.0000 0.0000 0.0000 0.0000 38.4385
#
#
#
# Elastic Compliance Matrix: (Units=1/GPa)
#
#
# Indices 1 2 3 4 5 6 
#
# 1 0.019681 -0.005834 0.003990 0.000000 0.000000 0.000000
# 2 -0.005834 0.012490 -0.008193 0.000000 0.000000 0.000000
# 3 0.003990 -0.008193 0.034267 0.000000 0.000000 0.000000
# 4 0.000000 0.000000 0.000000 0.033937 0.000000 0.000000
# 5 0.000000 0.000000 0.000000 0.000000 0.030543 0.000000
# 6 0.000000 0.000000 0.000000 0.000000 0.000000 0.026016
#
#
# Mechanical properties :
#
#
# Convention : Reuss Voigt Hill
#
# Bulk Modulus (GPa) = 21.56945 33.36965 27.46955
# Shear Modulus (GPa) = 25.97896 30.24024 28.10960
#
# Velocity S-wave (km/s) = 3.59544 3.87913 3.73998
# Velocity P-wave (km/s) = 5.28860 6.05544 5.68497
#
# Compressibility (1/GPa) = 0.04636187
#
# Stress axis : x y z
#
# Youngs Moduli (GPa) = 50.81072 80.06507 29.18252
#
# Poissons Ratio (x) = 0.46711 -0.11643
# Poissons Ratio (y) = 0.29644 0.23911
# Poissons Ratio (z) = -0.20271 0.65601
#
# Static dielectric constant tensor:
#      x y z
#    x 3.554950 0.000000 0.000000 
#    y 0.000000 3.930450 0.000000 
#    z 0.000000 0.000000 3.562420 
# 
# 
# High freq. dielectric constant tensor:
#      x y z
#    x 1.780260 0.000000 0.000000 
#    y 0.000000 1.801190 0.000000 
#    z 0.000000 0.000000 1.783570 
# 
# From -- ./inp_files/1251.got.cif
#   From: 2010.03.12/outbox.cif.g09.slc.cpg/sg29_1_cif.got.tgz:1251.got - 2010.04.14 03:43:10.
