data_PCOD8168985
_publ_section_title
;
Structure prediction by ZEFSAII (Michael W. Deem and Ramdas Pophale) SiO2 
 PCOD8168985
Probable space group: P C A 21
;
_chemical_formula_sum "Si O2"
_cell_formula_units_Z 32
_cell_length_a 5.475785
_cell_length_b 17.384991
_cell_length_c 14.772632
_cell_angle_alpha 90.000000
_cell_angle_beta 90.000000
_cell_angle_gamma 90.000000
_cell_volume 1406.302462
_symmetry_space_group_name_H-M "P C A 21"
_symmetry_group_IT_number 29
_symmetry_cell_setting 'orthorhombic'
loop_
_space_group_symop_operation_xyz
x,y,z
-x,-y,1/2+z
1/2-x,y,1/2+z
1/2+x,-y,z
loop_
_atom_site_type_symbol
_atom_site_label
_atom_site_fract_x
_atom_site_fract_y
_atom_site_fract_z
Si Si1 0.581200 0.808422 0.707300
Si Si2 0.918800 0.808422 0.007659
Si Si3 0.133994 0.335912 0.949095
Si Si4 0.271530 0.037417 0.751062
Si Si5 0.866006 0.664088 0.765864
Si Si6 0.771530 0.962583 0.463897
Si Si7 0.250000 0.767684 0.357479
Si Si8 0.414797 0.452641 0.607479
O O1 0.460925 0.814337 0.607479
O O2 0.789300 0.873233 0.719758
O O3 0.678527 0.721870 0.717714
O O4 0.395993 0.824345 0.790420
O O5 0.821473 0.721870 0.997245
O O6 0.710700 0.873233 0.995201
O O7 0.104007 0.824345 0.924538
O O8 0.250000 0.371824 0.857479
O O9 0.899252 0.286935 0.923890
O O10 0.059476 0.403027 0.016770
O O11 0.250000 0.028490 0.857479
O O12 0.516452 0.997663 0.710906
O O13 0.940524 0.596973 0.698189
O O14 0.100748 0.713065 0.791069
O O15 0.516452 0.997663 0.504053
O O16 0.646939 0.509073 0.607479
#
# Coordination Sequence:
#
# PCOD8168985 Si02
#       8
#     4   4   4   4   4   4   4   4
#     4  11  24  42  71 102 139 191 249 300 353 426
#     4  11  24  42  71 102 139 191 249 300 353 426
#     4  10  24  46  73 103 142 189 242 286 358 426
#     4  10  23  41  65  97 143 188 237 299 362 416
#     4  10  24  46  73 103 142 189 242 286 358 426
#     4  10  23  41  65  97 143 188 237 299 362 416
#     4  10  24  42  72 100 138 186 254 288 358 420
#     4  12  30  48  76 112 150 180 232 290 360 432
#
# _framework density 22.754708000000001
#
# number of rings (size 3 to 8) (size 9 to 14) (size 15 to 20)
#    0.000    1.500    1.250    2.250   17.500    2.000 
#    0.000    0.000    0.000    0.000    0.000    0.000 
#    0.000    0.000    0.000    0.000    0.000    0.000 
#
# Total GULP energy -396673.322501 kJ/mol
# GULP energy per Si atom -12396.041328 kJ/mol
# Density = 2.270292 g / cm^3
# Si number density = 22.754708 Si / 1000 Ang^3
#
#
#
# Elastic Constant Matrix: (Units=GPa)
#
#
# Indices 1 2 3 4 5 6 
#
# 1 112.8133 25.3471 39.4199 0.0000 0.0000 0.0000
# 2 25.3471 78.7059 42.9272 0.0000 0.0000 0.0000
# 3 39.4199 42.9272 127.1299 0.0000 0.0000 0.0000
# 4 0.0000 0.0000 0.0000 36.5955 0.0000 0.0000
# 5 0.0000 0.0000 0.0000 0.0000 14.0148 0.0000
# 6 0.0000 0.0000 0.0000 0.0000 0.0000 22.7585
#
#
#
# Elastic Compliance Matrix: (Units=1/GPa)
#
#
# Indices 1 2 3 4 5 6 
#
# 1 0.010169 -0.001906 -0.002510 0.000000 0.000000 0.000000
# 2 -0.001906 0.015931 -0.004788 0.000000 0.000000 0.000000
# 3 -0.002510 -0.004788 0.010261 0.000000 0.000000 0.000000
# 4 0.000000 0.000000 0.000000 0.027326 0.000000 0.000000
# 5 0.000000 0.000000 0.000000 0.000000 0.071353 0.000000
# 6 0.000000 0.000000 0.000000 0.000000 0.000000 0.043940
#
#
# Mechanical properties :
#
#
# Convention : Reuss Voigt Hill
#
# Bulk Modulus (GPa) = 55.70054 59.33749 57.51902
# Shear Modulus (GPa) = 24.58542 28.73743 26.66143
#
# Velocity S-wave (km/s) = 3.29059 3.55762 3.42671
# Velocity P-wave (km/s) = 6.24253 6.55814 6.40228
#
# Compressibility (1/GPa) = 0.01795315
#
# Stress axis : x y z
#
# Youngs Moduli (GPa) = 98.33387 62.77074 97.45684
#
# Poissons Ratio (x) = 0.11966 0.24458
# Poissons Ratio (y) = 0.18745 0.46665
# Poissons Ratio (z) = 0.24678 0.30056
#
# Static dielectric constant tensor:
#      x y z
#    x 4.315880 0.000000 0.000000 
#    y 0.000000 3.896490 0.000000 
#    z 0.000000 0.000000 4.207760 
# 
# 
# High freq. dielectric constant tensor:
#      x y z
#    x 1.892840 0.000000 0.000000 
#    y 0.000000 1.888770 0.000000 
#    z 0.000000 0.000000 1.909860 
# 
# From -- ./inp_files/4102.got.cif
#   From: 2010.03.12/outbox.cif.g09.slc.cpg/sg29_3_cif.got.tgz:4102.got - 2010.04.14 03:43:10.
