data_PCOD8168982
_publ_section_title
;
Structure prediction by ZEFSAII (Michael W. Deem and Ramdas Pophale) SiO2 
 PCOD8168982
Probable space group: P C A 21
;
_chemical_formula_sum "Si O2"
_cell_formula_units_Z 32
_cell_length_a 18.233583
_cell_length_b 8.951870
_cell_length_c 8.316330
_cell_angle_alpha 90.000000
_cell_angle_beta 90.000000
_cell_angle_gamma 90.000000
_cell_volume 1357.430175
_symmetry_space_group_name_H-M "P C A 21"
_symmetry_group_IT_number 29
_symmetry_cell_setting 'orthorhombic'
loop_
_space_group_symop_operation_xyz
x,y,z
-x,-y,1/2+z
1/2-x,y,1/2+z
1/2+x,-y,z
loop_
_atom_site_type_symbol
_atom_site_label
_atom_site_fract_x
_atom_site_fract_y
_atom_site_fract_z
Si Si1 0.767395 0.170499 0.131100
Si Si2 0.913762 0.167130 0.299202
Si Si3 0.274949 0.155392 0.513725
Si Si4 0.835225 0.339249 0.839439
Si Si5 0.087455 0.166172 0.808628
Si Si6 0.980269 0.338573 0.007040
Si Si7 0.521254 0.678023 0.504988
Si Si8 0.837186 0.679262 0.817532
O O1 0.825047 0.165238 0.282630
O O2 0.689895 0.230043 0.196645
O O3 0.754631 0.009571 0.052708
O O4 0.797553 0.289159 0.004591
O O5 0.944253 0.276097 0.165574
O O6 0.946271 0.229661 0.468539
O O7 0.943932 0.999403 0.278193
O O8 0.326164 0.155415 0.353018
O O9 0.204321 0.253939 0.472788
O O10 0.319640 0.223616 0.661450
O O11 0.811580 0.508133 0.797448
O O12 0.923002 0.326863 0.857860
O O13 0.069120 0.263690 0.653675
O O14 0.050672 0.241671 0.963678
O O15 0.002960 0.508967 0.040665
O O16 0.575541 0.687695 0.350564
#
# Coordination Sequence:
#
# PCOD8168982 Si02
#       8
#     4   4   4   4   4   4   4   4
#     4  11  23  42  66  97 133 175 226 279 339 402
#     4  11  23  42  66  94 131 175 223 278 340 406
#     4  12  25  42  68  99 134 173 223 281 338 405
#     4  10  23  41  64  92 129 172 220 274 332 402
#     4  12  25  41  66  98 131 174 223 276 343 406
#     4  10  24  43  63  94 132 175 225 278 338 404
#     4  11  24  43  66  94 133 175 224 281 338 408
#     4  11  23  42  65  94 129 171 220 273 334 399
#
# _framework density 23.573958000000001
#
# number of rings (size 3 to 8) (size 9 to 14) (size 15 to 20)
#    0.000    1.000    0.000    6.750    0.000   10.000 
#    0.000    1.250    0.000    0.000    0.000    0.000 
#    0.000    0.000    0.000    0.000    0.000    0.000 
#
# Total GULP energy -396840.096602 kJ/mol
# GULP energy per Si atom -12401.253019 kJ/mol
# Density = 2.352030 g / cm^3
# Si number density = 23.573958 Si / 1000 Ang^3
#
#
#
# Elastic Constant Matrix: (Units=GPa)
#
#
# Indices 1 2 3 4 5 6 
#
# 1 96.5556 36.6063 13.3743 0.0000 0.0000 0.0000
# 2 36.6063 145.0894 10.6510 0.0000 0.0000 0.0000
# 3 13.3743 10.6510 37.6467 0.0000 0.0000 0.0000
# 4 0.0000 0.0000 0.0000 43.8623 0.0000 0.0000
# 5 0.0000 0.0000 0.0000 0.0000 44.5223 0.0000
# 6 0.0000 0.0000 0.0000 0.0000 0.0000 34.5590
#
#
#
# Elastic Compliance Matrix: (Units=1/GPa)
#
#
# Indices 1 2 3 4 5 6 
#
# 1 0.011873 -0.002743 -0.003442 0.000000 0.000000 0.000000
# 2 -0.002743 0.007672 -0.001196 0.000000 0.000000 0.000000
# 3 -0.003442 -0.001196 0.028124 0.000000 0.000000 0.000000
# 4 0.000000 0.000000 0.000000 0.022799 0.000000 0.000000
# 5 0.000000 0.000000 0.000000 0.000000 0.022461 0.000000
# 6 0.000000 0.000000 0.000000 0.000000 0.000000 0.028936
#
#
# Mechanical properties :
#
#
# Convention : Reuss Voigt Hill
#
# Bulk Modulus (GPa) = 30.38852 44.50611 37.44731
# Shear Modulus (GPa) = 33.87615 39.16606 36.52111
#
# Velocity S-wave (km/s) = 3.79491 4.08046 3.94028
# Velocity P-wave (km/s) = 5.66750 6.41253 6.05149
#
# Compressibility (1/GPa) = 0.03290716
#
# Stress axis : x y z
#
# Youngs Moduli (GPa) = 84.22162 130.34116 35.55678
#
# Poissons Ratio (x) = 0.35753 0.12239
# Poissons Ratio (y) = 0.23102 0.04253
# Poissons Ratio (z) = 0.28990 0.15591
#
# Static dielectric constant tensor:
#      x y z
#    x 4.451950 0.000000 0.000000 
#    y 0.000000 4.246730 0.000000 
#    z 0.000000 0.000000 4.097560 
# 
# 
# High freq. dielectric constant tensor:
#      x y z
#    x 1.937420 0.000000 0.000000 
#    y 0.000000 1.944150 0.000000 
#    z 0.000000 0.000000 1.936290 
# 
# From -- ./inp_files/2276.got.cif
#   From: 2010.03.12/outbox.cif.g09.slc.cpg/sg29_2_cif.got.tgz:2276.got - 2010.04.14 03:43:10.
