data_PCOD8168705
_publ_section_title
;
Structure prediction by ZEFSAII (Michael W. Deem and Ramdas Pophale) SiO2 
 PCOD8168705
Probable space group: P C A 21
;
_chemical_formula_sum "Si O2"
_cell_formula_units_Z 24
_cell_length_a 13.535558
_cell_length_b 7.603112
_cell_length_c 9.140523
_cell_angle_alpha 90.000000
_cell_angle_beta 90.000000
_cell_angle_gamma 90.000000
_cell_volume 940.672825
_symmetry_space_group_name_H-M "P C A 21"
_symmetry_group_IT_number 29
_symmetry_cell_setting 'orthorhombic'
loop_
_space_group_symop_operation_xyz
x,y,z
-x,-y,1/2+z
1/2-x,y,1/2+z
1/2+x,-y,z
loop_
_atom_site_type_symbol
_atom_site_label
_atom_site_fract_x
_atom_site_fract_y
_atom_site_fract_z
Si Si1 0.075583 0.745650 0.305890
Si Si2 0.283650 0.515504 0.648255
Si Si3 0.950457 0.164027 0.281377
Si Si4 0.413340 0.015003 0.563805
Si Si5 0.617107 0.549045 0.863153
Si Si6 0.206380 0.880248 0.551987
O O1 0.138580 0.567407 0.275583
O O2 0.059315 0.839029 0.152221
O O3 0.135137 0.879945 0.411448
O O4 0.969353 0.692222 0.368997
O O5 0.331434 0.401056 0.517845
O O6 0.191083 0.418517 0.726254
O O7 0.251279 0.686771 0.558624
O O8 0.969579 0.018243 0.408553
O O9 0.928903 0.353795 0.351029
O O10 0.854007 0.087491 0.200118
O O11 0.041033 0.173840 0.163439
O O12 0.294274 0.025566 0.540823
#
# Coordination Sequence:
#
# PCOD8168705 Si02
#       6
#     4   4   4   4   4   4
#     4  11  22  39  68  98 131 179 226 276 346 428
#     4  10  20  38  60  94 133 170 220 270 341 409
#     4  11  23  38  66  96 127 178 233 280 335 410
#     4  11  22  42  63  96 133 176 230 281 343 410
#     4  11  23  40  68  99 133 177 231 282 342 415
#     4  10  20  41  67  91 129 182 220 265 343 422
#
# _framework density 25.513652
#
# number of rings (size 3 to 8) (size 9 to 14) (size 15 to 20)
#    0.000    1.333    5.000    3.000    4.667    0.000 
#    0.000    1.667    0.000    4.000    0.000    0.000 
#    0.000    0.000    0.000    0.000    0.000    0.000 
#
# Total GULP energy -297449.471453 kJ/mol
# GULP energy per Si atom -12393.727977 kJ/mol
# Density = 2.545558 g / cm^3
# Si number density = 25.513652 Si / 1000 Ang^3
#
#
#
# Elastic Constant Matrix: (Units=GPa)
#
#
# Indices 1 2 3 4 5 6 
#
# 1 155.1260 33.1205 49.2860 0.0000 0.0000 0.0000
# 2 33.1205 38.1013 32.9533 0.0000 0.0000 0.0000
# 3 49.2860 32.9533 140.0307 0.0000 0.0000 0.0000
# 4 0.0000 0.0000 0.0000 28.2133 0.0000 0.0000
# 5 0.0000 0.0000 0.0000 0.0000 57.7256 0.0000
# 6 0.0000 0.0000 0.0000 0.0000 0.0000 37.2106
#
#
#
# Elastic Compliance Matrix: (Units=1/GPa)
#
#
# Indices 1 2 3 4 5 6 
#
# 1 0.008162 -0.005789 -0.001511 0.000000 0.000000 0.000000
# 2 -0.005789 0.037058 -0.006683 0.000000 0.000000 0.000000
# 3 -0.001511 -0.006683 0.009246 0.000000 0.000000 0.000000
# 4 0.000000 0.000000 0.000000 0.035444 0.000000 0.000000
# 5 0.000000 0.000000 0.000000 0.000000 0.017323 0.000000
# 6 0.000000 0.000000 0.000000 0.000000 0.000000 0.026874
#
#
# Mechanical properties :
#
#
# Convention : Reuss Voigt Hill
#
# Bulk Modulus (GPa) = 37.73477 62.66416 50.19947
# Shear Modulus (GPa) = 29.25567 39.15646 34.20607
#
# Velocity S-wave (km/s) = 3.38992 3.92181 3.66552
# Velocity P-wave (km/s) = 5.49038 6.71728 6.13457
#
# Compressibility (1/GPa) = 0.02650076
#
# Stress axis : x y z
#
# Youngs Moduli (GPa) = 122.51537 26.98451 108.15762
#
# Poissons Ratio (x) = 0.15621 0.16338
# Poissons Ratio (y) = 0.70921 0.72287
# Poissons Ratio (z) = 0.18507 0.18035
#
# Static dielectric constant tensor:
#      x y z
#    x 5.107680 0.000000 0.000000 
#    y 0.000000 4.135240 0.000000 
#    z 0.000000 0.000000 4.715910 
# 
# 
# High freq. dielectric constant tensor:
#      x y z
#    x 2.030710 0.000000 0.000000 
#    y 0.000000 1.981820 0.000000 
#    z 0.000000 0.000000 2.036790 
# 
# From -- ./inp_files/1427.got.cif
#   From: 2010.03.12/outbox.cif.g09.slc.cpg/sg29_1_cif.got.tgz:1427.got - 2010.04.14 03:43:10.
