data_PCOD8168519
_publ_section_title
;
Structure prediction by ZEFSAII (Michael W. Deem and Ramdas Pophale) SiO2 
 PCOD8168519
Probable space group: P M A 2
;
_chemical_formula_sum "Si O2"
_cell_formula_units_Z 16
_cell_length_a 22.372065
_cell_length_b 5.206163
_cell_length_c 5.238209
_cell_angle_alpha 90.000000
_cell_angle_beta 90.000000
_cell_angle_gamma 90.000000
_cell_volume 610.107911
_symmetry_space_group_name_H-M "P M A 2"
_symmetry_group_IT_number 28
_symmetry_cell_setting 'orthorhombic'
loop_
_space_group_symop_operation_xyz
x,y,z
-x,-y,z
1/2-x,y,z
1/2+x,-y,z
loop_
_atom_site_type_symbol
_atom_site_label
_atom_site_fract_x
_atom_site_fract_y
_atom_site_fract_z
Si Si1 0.620301 0.901137 0.753620
Si Si2 0.961107 0.250127 0.005681
Si Si3 0.250000 0.593867 0.301961
Si Si4 0.750000 0.092402 0.798414
Si Si5 0.379946 0.401077 0.260037
O O1 0.597434 0.748850 0.507743
O O2 0.583846 0.170983 0.771301
O O3 0.691502 0.928234 0.738573
O O4 0.601399 0.751864 0.007762
O O5 0.000000 0.500000 0.925647
O O6 0.916676 0.329986 0.241579
O O7 0.000000 0.000000 0.084504
O O8 0.250000 0.676161 0.596769
O O9 0.308725 0.427827 0.257186
O O10 0.250000 0.822290 0.093765
#
# Coordination Sequence:
#
# PCOD8168519 Si02
#       5
#     4   4   2   2   4
#     4  12  27  52  81 118 165 214 272 342 419 496
#     4  12  28  57  82 121 164 228 284 346 408 492
#     4  12  24  44  82 121 163 207 265 341 423 502
#     4  12  24  44  82 121 163 207 265 341 423 502
#     4  12  27  52  81 118 165 214 272 342 419 496
#
# _framework density 26.224869999999999
#
# number of rings (size 3 to 8) (size 9 to 14) (size 15 to 20)
#    0.000    0.000    5.000    4.500    0.000    0.000 
#    9.000    0.000    0.000    0.000    0.000    0.000 
#    0.000    0.000    0.000    0.000    0.000    0.000 
#
# Total GULP energy -198323.073407 kJ/mol
# GULP energy per Si atom -12395.192088 kJ/mol
# Density = 2.616518 g / cm^3
# Si number density = 26.224870 Si / 1000 Ang^3
#
#
#
# Elastic Constant Matrix: (Units=GPa)
#
#
# Indices 1 2 3 4 5 6 
#
# 1 197.7392 81.4243 46.9944 0.0000 0.0000 0.0000
# 2 81.4243 160.2458 71.9668 0.0000 0.0000 0.0000
# 3 46.9944 71.9668 172.0860 0.0000 0.0000 0.0000
# 4 0.0000 0.0000 0.0000 57.6918 0.0000 0.0000
# 5 0.0000 0.0000 0.0000 0.0000 -2.6620 0.0000
# 6 0.0000 0.0000 0.0000 0.0000 0.0000 26.6691
#
#
#
# Elastic Compliance Matrix: (Units=1/GPa)
#
#
# Indices 1 2 3 4 5 6 
#
# 1 0.006427 -0.003050 -0.000479 0.000000 0.000000 0.000000
# 2 -0.003050 0.009131 -0.002986 0.000000 0.000000 0.000000
# 3 -0.000479 -0.002986 0.007191 0.000000 0.000000 0.000000
# 4 0.000000 0.000000 0.000000 0.017333 0.000000 0.000000
# 5 0.000000 0.000000 0.000000 0.000000 -0.375657 0.000000
# 6 0.000000 0.000000 0.000000 0.000000 0.000000 0.037497
#
#
# Mechanical properties :
#
#
# Convention : Reuss Voigt Hill
#
# Bulk Modulus (GPa) = 102.90330 103.42688 103.16509
# Shear Modulus (GPa) = -17.74260 38.31881 10.28810
#
# Velocity S-wave (km/s) = -2.60389 3.82666 1.98281
# Velocity P-wave (km/s) = 5.50306 7.68431 6.68327
#
# Compressibility (1/GPa) = 0.00971786
#
# Stress axis : x y z
#
# Youngs Moduli (GPa) = 155.58795 109.51330 139.07027
#
# Poissons Ratio (x) = 0.33407 0.06668
# Poissons Ratio (y) = 0.47462 0.41522
# Poissons Ratio (z) = 0.07460 0.32697
#
# Static dielectric constant tensor:
#      x y z
#    x 5.622320 0.000000 0.000000 
#    y 0.000000 4.927870 0.000000 
#    z 0.000000 0.000000 4.816780 
# 
# 
# High freq. dielectric constant tensor:
#      x y z
#    x 2.082780 0.000000 0.000000 
#    y 0.000000 2.053140 0.000000 
#    z 0.000000 0.000000 2.039790 
# 
# From -- ./inp_files/1331.got.cif
#   From: 2010.03.12/outbox.cif.g09.slc.cpg/sg28_1_cif.got.tgz:1331.got - 2010.04.14 03:39:34.
