data_PCOD8168799
_publ_section_title
;
Structure prediction by ZEFSAII (Michael W. Deem and Ramdas Pophale) SiO2 
 PCOD8168799
Probable space group: P C A 21
;
_chemical_formula_sum "Si O2"
_cell_formula_units_Z 32
_cell_length_a 9.590735
_cell_length_b 8.574600
_cell_length_c 19.443127
_cell_angle_alpha 90.000000
_cell_angle_beta 90.000000
_cell_angle_gamma 90.000000
_cell_volume 1598.938920
_symmetry_space_group_name_H-M "P C A 21"
_symmetry_group_IT_number 29
_symmetry_cell_setting 'orthorhombic'
loop_
_space_group_symop_operation_xyz
x,y,z
-x,-y,1/2+z
1/2-x,y,1/2+z
1/2+x,-y,z
loop_
_atom_site_type_symbol
_atom_site_label
_atom_site_fract_x
_atom_site_fract_y
_atom_site_fract_z
Si Si1 0.451320 0.338194 0.774630
Si Si2 0.133837 0.179402 0.561479
Si Si3 0.781705 0.343864 0.922479
Si Si4 0.112774 0.681382 0.133941
Si Si5 0.228611 0.642124 0.272668
Si Si6 0.351333 0.820543 0.052955
Si Si7 0.897035 0.686267 0.627363
Si Si8 0.458174 0.341301 0.926093
O O1 0.608965 0.392649 0.758220
O O2 0.349422 0.481546 0.781497
O O3 0.400890 0.244224 0.706221
O O4 0.443503 0.257114 0.850239
O O5 0.293026 0.215948 0.579877
O O6 0.100139 0.224741 0.483265
O O7 0.046848 0.275781 0.618440
O O8 0.105151 0.996555 0.568427
O O9 0.790723 0.270174 0.845682
O O10 0.620184 0.381806 0.940701
O O11 0.869832 0.501136 0.930825
O O12 0.849266 0.213383 0.971558
O O13 0.158647 0.738690 0.210277
O O14 0.196883 0.781127 0.078558
O O15 0.140795 0.496746 0.127849
O O16 0.452806 0.703658 0.092823
#
# Coordination Sequence:
#
# PCOD8168799 Si02
#       8
#     4   4   4   4   4   4   4   4
#     4   9  19  36  61  91 119 151 199 259 298 349
#     4  12  26  39  58  92 126 163 196 250 303 357
#     4  10  21  39  64  91 119 157 202 252 298 360
#     4  11  21  41  64  90 116 155 206 249 298 357
#     4   9  19  35  62  92 119 149 200 258 302 346
#     4  12  24  41  58  89 128 157 197 247 306 355
#     4  11  23  39  66  91 117 156 207 247 297 358
#     4  10  21  40  63  90 120 156 205 248 300 358
#
# _framework density 20.013273000000002
#
# number of rings (size 3 to 8) (size 9 to 14) (size 15 to 20)
#    0.000    1.500    2.500    3.000    7.000    0.000 
#    0.000    2.500    0.000    0.000    0.000    0.000 
#    0.000    0.000    0.000    0.000    0.000    0.000 
#
# Total GULP energy -396591.423323 kJ/mol
# GULP energy per Si atom -12393.481979 kJ/mol
# Density = 1.996772 g / cm^3
# Si number density = 20.013273 Si / 1000 Ang^3
#
#
#
# Elastic Constant Matrix: (Units=GPa)
#
#
# Indices 1 2 3 4 5 6 
#
# 1 74.7922 18.9598 39.5732 0.0000 0.0000 0.0000
# 2 18.9598 66.5500 41.7501 0.0000 0.0000 0.0000
# 3 39.5732 41.7501 158.4550 0.0000 0.0000 0.0000
# 4 0.0000 0.0000 0.0000 8.0920 0.0000 0.0000
# 5 0.0000 0.0000 0.0000 0.0000 36.3825 0.0000
# 6 0.0000 0.0000 0.0000 0.0000 0.0000 19.3366
#
#
#
# Elastic Compliance Matrix: (Units=1/GPa)
#
#
# Indices 1 2 3 4 5 6 
#
# 1 0.015724 -0.002415 -0.003291 0.000000 0.000000 0.000000
# 2 -0.002415 0.018373 -0.004238 0.000000 0.000000 0.000000
# 3 -0.003291 -0.004238 0.008249 0.000000 0.000000 0.000000
# 4 0.000000 0.000000 0.000000 0.123578 0.000000 0.000000
# 5 0.000000 0.000000 0.000000 0.000000 0.027486 0.000000
# 6 0.000000 0.000000 0.000000 0.000000 0.000000 0.051715
#
#
# Mechanical properties :
#
#
# Convention : Reuss Voigt Hill
#
# Bulk Modulus (GPa) = 44.52596 55.59595 50.06095
# Shear Modulus (GPa) = 18.34869 26.06314 22.20592
#
# Velocity S-wave (km/s) = 3.03120 3.61264 3.33462
# Velocity P-wave (km/s) = 5.87770 6.72618 6.31620
#
# Compressibility (1/GPa) = 0.02245881
#
# Stress axis : x y z
#
# Youngs Moduli (GPa) = 63.59827 54.42782 121.22240
#
# Poissons Ratio (x) = 0.13146 0.39888
# Poissons Ratio (y) = 0.15361 0.51371
# Poissons Ratio (z) = 0.20927 0.23065
#
# Static dielectric constant tensor:
#      x y z
#    x 3.736820 0.000000 0.000000 
#    y 0.000000 3.063470 0.000000 
#    z 0.000000 0.000000 4.459340 
# 
# 
# High freq. dielectric constant tensor:
#      x y z
#    x 1.797620 0.000000 0.000000 
#    y 0.000000 1.724630 0.000000 
#    z 0.000000 0.000000 1.810430 
# 
# From -- ./inp_files/5414.got.cif
#   From: 2010.03.12/outbox.cif.g09.slc.cpg/sg29_3_cif.got.tgz:5414.got - 2010.04.14 03:43:10.
