data_PCOD8168367
_publ_section_title
;
Structure prediction by ZEFSAII (Michael W. Deem and Ramdas Pophale) SiO2 
 PCOD8168367
Probable space group: P M A 2
;
_chemical_formula_sum "Si O2"
_cell_formula_units_Z 28
_cell_length_a 8.684424
_cell_length_b 9.376434
_cell_length_c 17.877610
_cell_angle_alpha 90.000000
_cell_angle_beta 90.000000
_cell_angle_gamma 90.000000
_cell_volume 1455.754626
_symmetry_space_group_name_H-M "P M A 2"
_symmetry_group_IT_number 28
_symmetry_cell_setting 'orthorhombic'
loop_
_space_group_symop_operation_xyz
x,y,z
-x,-y,z
1/2-x,y,z
1/2+x,-y,z
loop_
_atom_site_type_symbol
_atom_site_label
_atom_site_fract_x
_atom_site_fract_y
_atom_site_fract_z
Si Si1 0.932208 0.343442 0.154300
Si Si2 0.572558 0.346447 0.727902
Si Si3 0.570782 0.342758 0.893718
Si Si4 0.069656 0.852102 0.288332
Si Si5 0.067893 0.850362 0.457139
Si Si6 0.568433 0.657156 0.581930
Si Si7 0.067641 0.157337 0.021823
O O1 0.750000 0.349646 0.143840
O O2 0.980208 0.276570 0.234283
O O3 0.000000 0.500000 0.149089
O O4 0.003487 0.247102 0.090393
O O5 0.500000 0.500000 0.737500
O O6 0.750000 0.359331 0.704711
O O7 0.553017 0.276336 0.809839
O O8 0.484324 0.264600 0.659797
O O9 0.500000 0.500000 0.902488
O O10 0.750000 0.352154 0.916439
O O11 0.481260 0.232569 0.945315
O O12 0.250000 0.874199 0.287407
O O13 0.012730 0.817242 0.372391
O O14 0.000000 0.000000 0.258541
O O15 0.250000 0.854143 0.464274
O O16 0.000451 0.729046 0.509082
O O17 0.000000 0.000000 0.484593
O O18 0.500000 0.500000 0.585388
O O19 0.750000 0.655870 0.575450
O O20 0.250000 0.148906 0.026888
O O21 0.000000 0.000000 0.025005
#
# Coordination Sequence:
#
# PCOD8168367 Si02
#       7
#     4   4   4   4   4   4   4
#     4  11  23  40  60  86 116 147 185 228 275 325
#     4   9  17  31  53  80 110 144 183 228 277 329
#     4  10  20  36  59  86 114 146 185 229 277 328
#     4   9  20  37  59  83 110 145 184 227 276 331
#     4  10  20  37  57  81 112 147 187 229 277 332
#     4  11  21  34  54  81 112 148 188 232 280 329
#     4  12  25  41  60  83 113 149 186 227 276 330
#
# _framework density 19.234010999999999
#
# number of rings (size 3 to 8) (size 9 to 14) (size 15 to 20)
#    0.000    1.714    0.000    6.000    0.000    5.143 
#    0.000    2.143    0.000    3.429    0.000    0.000 
#    0.000    0.000    0.000    0.000    0.000    0.000 
#
# Total GULP energy -347154.263715 kJ/mol
# GULP energy per Si atom -12398.366561 kJ/mol
# Density = 1.919023 g / cm^3
# Si number density = 19.234011 Si / 1000 Ang^3
#
#
#
# Elastic Constant Matrix: (Units=GPa)
#
#
# Indices 1 2 3 4 5 6 
#
# 1 120.1976 47.8218 56.7366 0.0000 0.0000 0.0000
# 2 47.8218 113.2706 67.9506 0.0000 0.0000 0.0000
# 3 56.7366 67.9506 132.4191 0.0000 0.0000 0.0000
# 4 0.0000 0.0000 0.0000 52.2609 0.0000 0.0000
# 5 0.0000 0.0000 0.0000 0.0000 23.9735 0.0000
# 6 0.0000 0.0000 0.0000 0.0000 0.0000 33.9741
#
#
#
# Elastic Compliance Matrix: (Units=1/GPa)
#
#
# Indices 1 2 3 4 5 6 
#
# 1 0.010938 -0.002610 -0.003347 0.000000 0.000000 0.000000
# 2 -0.002610 0.013378 -0.005746 0.000000 0.000000 0.000000
# 3 -0.003347 -0.005746 0.011935 0.000000 0.000000 0.000000
# 4 0.000000 0.000000 0.000000 0.019135 0.000000 0.000000
# 5 0.000000 0.000000 0.000000 0.000000 0.041713 0.000000
# 6 0.000000 0.000000 0.000000 0.000000 0.000000 0.029434
#
#
# Mechanical properties :
#
#
# Convention : Reuss Voigt Hill
#
# Bulk Modulus (GPa) = 77.86278 78.98948 78.42613
# Shear Modulus (GPa) = 32.42118 34.93358 33.67738
#
# Velocity S-wave (km/s) = 4.11008 4.26636 4.18895
# Velocity P-wave (km/s) = 7.94314 8.08863 8.01621
#
# Compressibility (1/GPa) = 0.01284311
#
# Stress axis : x y z
#
# Youngs Moduli (GPa) = 91.42431 74.75213 83.78923
#
# Poissons Ratio (x) = 0.19510 0.28046
# Poissons Ratio (y) = 0.23861 0.48149
# Poissons Ratio (z) = 0.30602 0.42956
#
# Static dielectric constant tensor:
#      x y z
#    x 3.683600 0.000000 0.000000 
#    y 0.000000 3.405290 0.000000 
#    z 0.000000 0.000000 4.239200 
# 
# 
# High freq. dielectric constant tensor:
#      x y z
#    x 1.765570 0.000000 0.000000 
#    y 0.000000 1.724380 0.000000 
#    z 0.000000 0.000000 1.771610 
# 
# From -- ./inp_files/6785.got.cif
#   From: 2010.03.12/outbox.cif.g09.slc.cpg/sg28_4_cif.got.tgz:6785.got - 2010.04.14 03:39:34.
