data_PCOD8168135
_publ_section_title
;
Structure prediction by ZEFSAII (Michael W. Deem and Ramdas Pophale) SiO2 
 PCOD8168135
Probable space group: P M A 2
;
_chemical_formula_sum "Si O2"
_cell_formula_units_Z 32
_cell_length_a 8.971072
_cell_length_b 9.751551
_cell_length_c 20.126561
_cell_angle_alpha 90.000000
_cell_angle_beta 90.000000
_cell_angle_gamma 90.000000
_cell_volume 1760.709115
_symmetry_space_group_name_H-M "P M A 2"
_symmetry_group_IT_number 28
_symmetry_cell_setting 'orthorhombic'
loop_
_space_group_symop_operation_xyz
x,y,z
-x,-y,z
1/2-x,y,z
1/2+x,-y,z
loop_
_atom_site_type_symbol
_atom_site_label
_atom_site_fract_x
_atom_site_fract_y
_atom_site_fract_z
Si Si1 0.074317 0.148050 0.313330
Si Si2 0.925168 0.853450 0.026540
Si Si3 0.922586 0.358717 0.562542
Si Si4 0.078541 0.638837 0.406298
Si Si5 0.574070 0.640185 0.919667
Si Si6 0.076122 0.360157 0.769387
Si Si7 0.573049 0.851254 0.657090
Si Si8 0.078455 0.142902 0.169897
O O1 0.250000 0.135072 0.326785
O O2 0.041165 0.218331 0.240137
O O3 0.001590 0.236798 0.370505
O O4 0.000000 0.000000 0.316676
O O5 0.750000 0.873831 0.017288
O O6 0.962234 0.783802 0.099435
O O7 0.988853 0.756415 0.968788
O O8 0.000000 0.000000 0.018669
O O9 0.750000 0.363370 0.584343
O O10 0.939757 0.338188 0.484337
O O11 0.000000 0.500000 0.585896
O O12 0.005475 0.229409 0.594638
O O13 0.250000 0.631849 0.384816
O O14 0.000000 0.500000 0.382985
O O15 0.500000 0.500000 0.942948
O O16 0.750000 0.624234 0.926247
O O17 0.525965 0.676851 0.844342
O O18 0.250000 0.388563 0.765373
O O19 0.029804 0.232824 0.723372
O O20 0.000000 0.500000 0.744096
O O21 0.750000 0.866061 0.648061
O O22 0.500000 0.000000 0.662387
O O23 0.250000 0.106082 0.169567
O O24 0.000000 0.000000 0.170231
#
# Coordination Sequence:
#
# PCOD8168135 Si02
#       8
#     4   4   4   4   4   4   4   4
#     4  10  19  32  52  76 103 135 172 213 256 304
#     4   9  17  30  49  72  99 130 166 208 251 297
#     4  10  21  38  59  80 103 134 171 208 249 302
#     4  10  21  37  56  78 104 134 169 209 253 302
#     4   9  18  33  51  72 100 132 167 207 249 296
#     4   9  19  35  54  75  99 132 171 207 247 298
#     4  11  23  37  54  78 108 137 168 210 256 300
#     4   8  15  28  46  69  97 130 167 206 248 295
#
# _framework density 18.174496999999999
#
# number of rings (size 3 to 8) (size 9 to 14) (size 15 to 20)
#    0.000    2.500    0.000    1.875    0.000    5.500 
#    0.000    0.625    0.000    1.500    0.000    0.000 
#    0.000    0.000    0.000    0.000    0.000    0.000 
#
# Total GULP energy -396600.926963 kJ/mol
# GULP energy per Si atom -12393.778968 kJ/mol
# Density = 1.813313 g / cm^3
# Si number density = 18.174497 Si / 1000 Ang^3
#
#
#
# Elastic Constant Matrix: (Units=GPa)
#
#
# Indices 1 2 3 4 5 6 
#
# 1 82.4399 55.2774 49.5902 0.0000 0.0000 0.0000
# 2 55.2774 125.5515 66.4818 0.0000 0.0000 0.0000
# 3 49.5902 66.4818 90.0214 0.0000 0.0000 0.0000
# 4 0.0000 0.0000 0.0000 18.5317 0.0000 0.0000
# 5 0.0000 0.0000 0.0000 0.0000-2162.6230 0.0000
# 6 0.0000 0.0000 0.0000 0.0000 0.0000 34.0030
#
#
#
# Elastic Compliance Matrix: (Units=1/GPa)
#
#
# Indices 1 2 3 4 5 6 
#
# 1 0.019774 -0.004825 -0.007330 0.000000 0.000000 0.000000
# 2 -0.004825 0.014257 -0.007871 0.000000 0.000000 0.000000
# 3 -0.007330 -0.007871 0.020959 0.000000 0.000000 0.000000
# 4 0.000000 0.000000 0.000000 0.053962 0.000000 0.000000
# 5 0.000000 0.000000 0.000000 0.000000 -0.000462 0.000000
# 6 0.000000 0.000000 0.000000 0.000000 0.000000 0.029409
#
#
# Mechanical properties :
#
#
# Convention : Reuss Voigt Hill
#
# Bulk Modulus (GPa) = 66.93957 71.19019 69.06488
# Shear Modulus (GPa) = 27.33281 -413.57343 -193.12031
#
# Velocity S-wave (km/s) = 3.88223 -15.10136 -10.31938
# Velocity P-wave (km/s) = 7.55031 16.27306 10.19327
#
# Compressibility (1/GPa) = 0.01493885
#
# Stress axis : x y z
#
# Youngs Moduli (GPa) = 50.57043 70.14088 47.71179
#
# Poissons Ratio (x) = 0.33842 0.34972
# Poissons Ratio (y) = 0.24400 0.37554
# Poissons Ratio (z) = 0.37068 0.55208
#
# Static dielectric constant tensor:
#      x y z
#    x 4.142260 0.000000 0.000000 
#    y 0.000000 3.168260 0.000000 
#    z 0.000000 0.000000 3.883810 
# 
# 
# High freq. dielectric constant tensor:
#      x y z
#    x 1.711390 0.000000 0.000000 
#    y 0.000000 1.681540 0.000000 
#    z 0.000000 0.000000 1.721680 
# 
# From -- ./inp_files/7056.got.cif
#   From: 2010.03.12/outbox.cif.g09.slc.cpg/sg28_4_cif.got.tgz:7056.got - 2010.04.14 03:39:34.
