data_PCOD8168403
_publ_section_title
;
Structure prediction by ZEFSAII (Michael W. Deem and Ramdas Pophale) SiO2 
 PCOD8168403
Probable space group: P M A 2
;
_chemical_formula_sum "Si O2"
_cell_formula_units_Z 32
_cell_length_a 8.696403
_cell_length_b 15.389935
_cell_length_c 11.797356
_cell_angle_alpha 90.000000
_cell_angle_beta 90.000000
_cell_angle_gamma 90.000000
_cell_volume 1578.923642
_symmetry_space_group_name_H-M "P M A 2"
_symmetry_group_IT_number 28
_symmetry_cell_setting 'orthorhombic'
loop_
_space_group_symop_operation_xyz
x,y,z
-x,-y,z
1/2-x,y,z
1/2+x,-y,z
loop_
_atom_site_type_symbol
_atom_site_label
_atom_site_fract_x
_atom_site_fract_y
_atom_site_fract_z
Si Si1 0.426957 0.163914 0.776750
Si Si2 0.572436 0.908928 0.019705
Si Si3 0.931009 0.588528 0.006663
Si Si4 0.569756 0.348555 0.779966
Si Si5 0.570489 0.589702 0.546368
Si Si6 0.570959 0.750085 0.383869
Si Si7 0.929573 0.253608 0.141663
Si Si8 0.069452 0.090600 0.539603
O O1 0.250000 0.194438 0.759975
O O2 0.531846 0.247521 0.793827
O O3 0.486396 0.111558 0.667215
O O4 0.445348 0.102373 0.884944
O O5 0.750000 0.905369 0.056651
O O6 0.480193 0.836160 0.086304
O O7 0.500000 0.000000 0.056011
O O8 0.750000 0.582644 0.008130
O O9 0.000000 0.500000 0.058729
O O10 0.980212 0.668511 0.083609
O O11 0.987375 0.598023 0.878316
O O12 0.750000 0.362647 0.792088
O O13 0.513968 0.384908 0.661115
O O14 0.500000 0.500000 0.499335
O O15 0.750000 0.579242 0.571554
O O16 0.539172 0.662768 0.453291
O O17 0.750000 0.758260 0.350790
O O18 0.466158 0.747642 0.273909
O O19 0.515139 0.832226 0.457570
O O20 0.750000 0.267613 0.121685
O O21 0.250000 0.081137 0.536541
O O22 0.000000 0.000000 0.497128
#
# Coordination Sequence:
#
# PCOD8168403 Si02
#       8
#     4   4   4   4   4   4   4   4
#     4  10  20  38  63  92 128 170 204 252 316 377
#     4  11  23  40  66  95 130 170 212 261 317 379
#     4  12  25  44  68  95 129 167 210 259 316 380
#     4  12  23  37  63  97 131 167 208 255 312 377
#     4  11  23  42  66  93 128 166 209 258 312 375
#     4  10  23  44  66  87 123 171 213 261 317 372
#     4  12  26  44  66  94 127 165 215 267 319 380
#     4  10  21  39  63  93 126 164 208 253 311 370
#
# _framework density 20.266971000000002
#
# number of rings (size 3 to 8) (size 9 to 14) (size 15 to 20)
#    0.000    1.000    2.500    4.875    0.000    3.500 
#    0.000    2.500    0.000    0.000    0.000    0.000 
#    0.000    0.000    0.000    0.000    0.000    0.000 
#
# Total GULP energy -397013.163043 kJ/mol
# GULP energy per Si atom -12406.661345 kJ/mol
# Density = 2.022084 g / cm^3
# Si number density = 20.266971 Si / 1000 Ang^3
#
#
#
# Elastic Constant Matrix: (Units=GPa)
#
#
# Indices 1 2 3 4 5 6 
#
# 1 132.0330 52.5617 43.7570 0.0000 0.0000 0.0000
# 2 52.5617 146.6669 33.1374 0.0000 0.0000 0.0000
# 3 43.7570 33.1374 95.3150 0.0000 0.0000 0.0000
# 4 0.0000 0.0000 0.0000 7.4574 0.0000 0.0000
# 5 0.0000 0.0000 0.0000 0.0000 38.8413 0.0000
# 6 0.0000 0.0000 0.0000 0.0000 0.0000 36.7761
#
#
#
# Elastic Compliance Matrix: (Units=1/GPa)
#
#
# Indices 1 2 3 4 5 6 
#
# 1 0.009840 -0.002719 -0.003572 0.000000 0.000000 0.000000
# 2 -0.002719 0.008151 -0.001585 0.000000 0.000000 0.000000
# 3 -0.003572 -0.001585 0.012682 0.000000 0.000000 0.000000
# 4 0.000000 0.000000 0.000000 0.134096 0.000000 0.000000
# 5 0.000000 0.000000 0.000000 0.000000 0.025746 0.000000
# 6 0.000000 0.000000 0.000000 0.000000 0.000000 0.027192
#
#
# Mechanical properties :
#
#
# Convention : Reuss Voigt Hill
#
# Bulk Modulus (GPa) = 67.02344 70.32521 68.67433
# Shear Modulus (GPa) = 20.97021 32.91888 26.94454
#
# Velocity S-wave (km/s) = 3.22016 4.03459 3.65016
# Velocity P-wave (km/s) = 6.85332 7.51522 7.19189
#
# Compressibility (1/GPa) = 0.01492015
#
# Stress axis : x y z
#
# Youngs Moduli (GPa) = 101.62331 122.68527 78.84881
#
# Poissons Ratio (x) = 0.33364 0.28165
# Poissons Ratio (y) = 0.27636 0.12500
# Poissons Ratio (z) = 0.36300 0.19450
#
# Static dielectric constant tensor:
#      x y z
#    x 3.761740 0.000000 0.000000 
#    y 0.000000 4.005300 0.000000 
#    z 0.000000 0.000000 3.719140 
# 
# 
# High freq. dielectric constant tensor:
#      x y z
#    x 1.796320 0.000000 0.000000 
#    y 0.000000 1.807820 0.000000 
#    z 0.000000 0.000000 1.791160 
# 
# From -- ./inp_files/5007.got.cif
#   From: 2010.03.12/outbox.cif.g09.slc.cpg/sg28_3_cif.got.tgz:5007.got - 2010.04.14 03:39:34.
