data_PCOD8168786
_publ_section_title
;
Structure prediction by ZEFSAII (Michael W. Deem and Ramdas Pophale) SiO2 
 PCOD8168786
Probable space group: P C A 21
;
_chemical_formula_sum "Si O2"
_cell_formula_units_Z 20
_cell_length_a 18.671754
_cell_length_b 7.941912
_cell_length_c 5.261255
_cell_angle_alpha 90.000000
_cell_angle_beta 90.000000
_cell_angle_gamma 90.000000
_cell_volume 780.188490
_symmetry_space_group_name_H-M "P C A 21"
_symmetry_group_IT_number 29
_symmetry_cell_setting 'orthorhombic'
loop_
_space_group_symop_operation_xyz
x,y,z
-x,-y,1/2+z
1/2-x,y,1/2+z
1/2+x,-y,z
loop_
_atom_site_type_symbol
_atom_site_label
_atom_site_fract_x
_atom_site_fract_y
_atom_site_fract_z
Si Si1 0.718143 0.327974 0.623810
Si Si2 0.718212 0.703155 0.705260
Si Si3 0.581833 0.340276 0.323550
Si Si4 0.045175 0.007312 0.209058
Si Si5 0.919332 0.656827 0.494044
O O1 0.760451 0.236521 0.389007
O O2 0.749702 0.515721 0.663240
O O3 0.632455 0.332415 0.573033
O O4 0.739228 0.794864 0.439522
O O5 0.632600 0.694993 0.755113
O O6 0.607756 0.491660 0.142366
O O7 0.499882 0.372224 0.400687
O O8 0.591594 0.163238 0.172773
O O9 0.088435 0.181118 0.179463
O O10 0.016312 0.996573 0.496061
#
# Coordination Sequence:
#
# PCOD8168786 Si02
#       5
#     4   4   4   4   4
#     4  10  21  38  61  91 127 164 203 254 313 367
#     4  10  21  38  61  91 127 164 203 254 313 367
#     4  11  22  39  67  95 122 165 213 256 307 373
#     4  10  24  42  60  92 132 160 200 266 318 358
#     4  11  22  39  67  95 122 165 213 256 307 373
#
# _framework density 25.634830999999998
#
# number of rings (size 3 to 8) (size 9 to 14) (size 15 to 20)
#    0.000    1.600    0.000    6.000    0.000    9.600 
#    0.000    2.000    0.000    0.000    0.000    2.800 
#    0.000    0.000    0.000    0.000    0.000    0.000 
#
# Total GULP energy -247812.925242 kJ/mol
# GULP energy per Si atom -12390.646262 kJ/mol
# Density = 2.557649 g / cm^3
# Si number density = 25.634831 Si / 1000 Ang^3
#
#
#
# Elastic Constant Matrix: (Units=GPa)
#
#
# Indices 1 2 3 4 5 6 
#
# 1 164.8293 -21.2781 52.7501 0.0000 0.0000 0.0000
# 2 -21.2781 122.1272 7.4035 0.0000 0.0000 0.0000
# 3 52.7501 7.4035 151.0040 0.0000 0.0000 0.0000
# 4 0.0000 0.0000 0.0000 21.2251 0.0000 0.0000
# 5 0.0000 0.0000 0.0000 0.0000 34.3215 0.0000
# 6 0.0000 0.0000 0.0000 0.0000 0.0000 -5.5869
#
#
#
# Elastic Compliance Matrix: (Units=1/GPa)
#
#
# Indices 1 2 3 4 5 6 
#
# 1 0.007056 0.001383 -0.002533 0.000000 0.000000 0.000000
# 2 0.001383 0.008484 -0.000899 0.000000 0.000000 0.000000
# 3 -0.002533 -0.000899 0.007551 0.000000 0.000000 0.000000
# 4 0.000000 0.000000 0.000000 0.047114 0.000000 0.000000
# 5 0.000000 0.000000 0.000000 0.000000 0.029136 0.000000
# 6 0.000000 0.000000 0.000000 0.000000 0.000000 -0.178990
#
#
# Mechanical properties :
#
#
# Convention : Reuss Voigt Hill
#
# Bulk Modulus (GPa) = 52.65065 57.30130 54.97597
# Shear Modulus (GPa) = -72.23309 36.59760 -17.81774
#
# Velocity S-wave (km/s) = -5.31403 3.78253 -2.63926
# Velocity P-wave (km/s) = 4.13141 6.44035 3.49353
#
# Compressibility (1/GPa) = 0.01899312
#
# Stress axis : x y z
#
# Youngs Moduli (GPa) = 141.72504 117.87419 132.43029
#
# Poissons Ratio (x) = -0.16301 0.33540
# Poissons Ratio (y) = -0.19599 0.11906
# Poissons Ratio (z) = 0.35894 0.10597
#
# Static dielectric constant tensor:
#      x y z
#    x 4.295410 0.000000 0.000000 
#    y 0.000000 4.790720 0.000000 
#    z 0.000000 0.000000 5.078130 
# 
# 
# High freq. dielectric constant tensor:
#      x y z
#    x 2.021510 0.000000 0.000000 
#    y 0.000000 1.988550 0.000000 
#    z 0.000000 0.000000 2.035150 
# 
# From -- ./inp_files/358.got.cif
#   From: 2010.03.12/outbox.cif.g09.slc.cpg/sg29_1_cif.got.tgz:358.got - 2010.04.14 03:43:10.
