data_PCOD8168011
_publ_section_title
;
Structure prediction by ZEFSAII (Michael W. Deem and Ramdas Pophale) SiO2 
 PCOD8168011
Probable space group: P M A 2
;
_chemical_formula_sum "Si O2"
_cell_formula_units_Z 28
_cell_length_a 9.209116
_cell_length_b 17.710435
_cell_length_c 9.364354
_cell_angle_alpha 90.000000
_cell_angle_beta 90.000000
_cell_angle_gamma 90.000000
_cell_volume 1527.302261
_symmetry_space_group_name_H-M "P M A 2"
_symmetry_group_IT_number 28
_symmetry_cell_setting 'orthorhombic'
loop_
_space_group_symop_operation_xyz
x,y,z
-x,-y,z
1/2-x,y,z
1/2+x,-y,z
loop_
_atom_site_type_symbol
_atom_site_label
_atom_site_fract_x
_atom_site_fract_y
_atom_site_fract_z
Si Si1 0.909268 0.197279 0.672220
Si Si2 0.418351 0.074899 0.139750
Si Si3 0.580585 0.577242 0.702004
Si Si4 0.582590 0.928877 0.809947
Si Si5 0.913105 0.706054 0.479371
Si Si6 0.587637 0.320751 0.912960
Si Si7 0.083536 0.244549 0.169447
O O1 0.750000 0.160817 0.645424
O O2 0.896222 0.257140 0.796305
O O3 0.032821 0.139771 0.714909
O O4 0.965881 0.234602 0.527566
O O5 0.250000 0.058522 0.166273
O O6 0.464181 0.156985 0.205323
O O7 0.500000 0.000000 0.202765
O O8 0.458649 0.084360 0.974046
O O9 0.500000 0.500000 0.667697
O O10 0.750000 0.563365 0.732883
O O11 0.557503 0.626839 0.558727
O O12 0.511448 0.613362 0.845429
O O13 0.750000 0.942727 0.787569
O O14 0.500000 0.000000 0.746784
O O15 0.750000 0.733517 0.519358
O O16 0.929164 0.702032 0.308528
O O17 0.750000 0.351152 0.951523
O O18 0.515217 0.284582 0.052296
O O19 0.250000 0.241427 0.113074
#
# Coordination Sequence:
#
# PCOD8168011 Si02
#       7
#     4   4   4   4   4   4   4
#     4  10  19  32  50  74 103 135 176 222 266 316
#     4   9  18  30  48  73 103 139 179 225 274 321
#     4  10  20  37  60  84 109 140 176 218 266 323
#     4  10  18  29  47  72 101 134 176 226 277 322
#     4   9  20  36  56  78 106 144 182 217 267 327
#     4  10  20  33  54  82 108 137 174 219 266 315
#     4  10  19  35  55  79 109 145 186 227 272 324
#
# _framework density 18.332979000000002
#
# number of rings (size 3 to 8) (size 9 to 14) (size 15 to 20)
#    0.000    2.286    1.429    1.714    0.000    3.429 
#    0.000    1.429    0.000    3.429    0.000    0.000 
#    0.000    0.000    0.000    0.000    0.000    0.000 
#
# Total GULP energy -347016.525701 kJ/mol
# GULP energy per Si atom -12393.447346 kJ/mol
# Density = 1.829125 g / cm^3
# Si number density = 18.332979 Si / 1000 Ang^3
#
#
#
# Elastic Constant Matrix: (Units=GPa)
#
#
# Indices 1 2 3 4 5 6 
#
# 1 104.0673 42.5090 36.8065 0.0000 0.0000 0.0000
# 2 42.5090 85.3993 25.6469 0.0000 0.0000 0.0000
# 3 36.8065 25.6469 64.2053 0.0000 0.0000 0.0000
# 4 0.0000 0.0000 0.0000 20.8447 0.0000 0.0000
# 5 0.0000 0.0000 0.0000 0.0000 37.3794 0.0000
# 6 0.0000 0.0000 0.0000 0.0000 0.0000 36.2907
#
#
#
# Elastic Compliance Matrix: (Units=1/GPa)
#
#
# Indices 1 2 3 4 5 6 
#
# 1 0.013759 -0.005091 -0.005854 0.000000 0.000000 0.000000
# 2 -0.005091 0.015189 -0.003149 0.000000 0.000000 0.000000
# 3 -0.005854 -0.003149 0.020189 0.000000 0.000000 0.000000
# 4 0.000000 0.000000 0.000000 0.047974 0.000000 0.000000
# 5 0.000000 0.000000 0.000000 0.000000 0.026753 0.000000
# 6 0.000000 0.000000 0.000000 0.000000 0.000000 0.027555
#
#
# Mechanical properties :
#
#
# Convention : Reuss Voigt Hill
#
# Bulk Modulus (GPa) = 47.73373 51.51076 49.62224
# Shear Modulus (GPa) = 26.79669 28.81693 27.80681
#
# Velocity S-wave (km/s) = 3.82732 3.96897 3.89879
# Velocity P-wave (km/s) = 6.75461 7.01156 6.88429
#
# Compressibility (1/GPa) = 0.02094955
#
# Stress axis : x y z
#
# Youngs Moduli (GPa) = 72.67935 65.83519 49.53224
#
# Poissons Ratio (x) = 0.33515 0.28996
# Poissons Ratio (y) = 0.36999 0.15598
# Poissons Ratio (z) = 0.42547 0.20732
#
# Static dielectric constant tensor:
#      x y z
#    x 3.634460 0.000000 0.000000 
#    y 0.000000 1.581120 0.000000 
#    z 0.000000 0.000000 3.168670 
# 
# 
# High freq. dielectric constant tensor:
#      x y z
#    x 1.723530 0.000000 0.000000 
#    y 0.000000 1.701100 0.000000 
#    z 0.000000 0.000000 1.685700 
# 
# From -- ./inp_files/2630.got.cif
#   From: 2010.03.12/outbox.cif.g09.slc.cpg/sg28_2_cif.got.tgz:2630.got - 2010.04.14 03:39:34.
