data_PCOD8168537
_publ_section_title
;
Structure prediction by ZEFSAII (Michael W. Deem and Ramdas Pophale) SiO2 
 PCOD8168537
Probable space group: P C A 21
;
_chemical_formula_sum "Si O2"
_cell_formula_units_Z 28
_cell_length_a 27.620864
_cell_length_b 10.471212
_cell_length_c 5.226268
_cell_angle_alpha 90.000000
_cell_angle_beta 90.000000
_cell_angle_gamma 90.000000
_cell_volume 1511.561731
_symmetry_space_group_name_H-M "P C A 21"
_symmetry_group_IT_number 29
_symmetry_cell_setting 'orthorhombic'
loop_
_space_group_symop_operation_xyz
x,y,z
-x,-y,1/2+z
1/2-x,y,1/2+z
1/2+x,-y,z
loop_
_atom_site_type_symbol
_atom_site_label
_atom_site_fract_x
_atom_site_fract_y
_atom_site_fract_z
Si Si1 0.621221 0.024242 0.708640
Si Si2 0.951619 0.393484 0.863429
Si Si3 0.877148 0.863234 0.713307
Si Si4 0.058043 0.741620 0.853744
Si Si5 0.228194 0.915809 0.681066
Si Si6 0.461536 0.330193 0.671173
Si Si7 0.769469 0.798739 0.730641
O O1 0.578973 0.119821 0.793076
O O2 0.670711 0.097639 0.640592
O O3 0.603995 0.944894 0.457999
O O4 0.632785 0.942226 0.958285
O O5 0.928032 0.309654 0.634691
O O6 0.943788 0.541799 0.810873
O O7 0.924208 0.355525 0.127969
O O8 0.009820 0.366339 0.905862
O O9 0.915071 0.756272 0.626970
O O10 0.826298 0.801080 0.793139
O O11 0.999374 0.748466 0.848381
O O12 0.254122 0.846531 0.440289
O O13 0.245414 0.062518 0.683485
O O14 0.757444 0.725783 0.464842
#
# Coordination Sequence:
#
# PCOD8168537 Si02
#       7
#     4   4   4   4   4   4   4
#     4  12  22  34  51  87 122 141 177 216 284 351
#     4  10  20  42  59  73 102 141 200 226 261 307
#     4  12  23  31  57  86 113 144 182 219 286 334
#     4  10  22  37  57  77 110 148 176 228 269 316
#     4  10  16  31  52  70 109 150 178 211 251 327
#     4  10  23  38  62  76 106 143 194 234 266 314
#     4  10  16  33  48  73 112 141 177 216 257 333
#
# _framework density 18.523889
#
# number of rings (size 3 to 8) (size 9 to 14) (size 15 to 20)
#    0.857    0.571    7.143    0.857    2.000    1.143 
#    0.000    0.000    0.000    0.000    0.000    6.000 
#    0.000    0.000    0.000    0.000    0.000    0.000 
#
# Total GULP energy -346881.970909 kJ/mol
# GULP energy per Si atom -12388.641818 kJ/mol
# Density = 1.848173 g / cm^3
# Si number density = 18.523889 Si / 1000 Ang^3
#
#
#
# Elastic Constant Matrix: (Units=GPa)
#
#
# Indices 1 2 3 4 5 6 
#
# 1 53.4072 28.2694 4.9182 0.0000 0.0000 0.0000
# 2 28.2694 44.0198 18.6157 0.0000 0.0000 0.0000
# 3 4.9182 18.6157 145.6177 0.0000 0.0000 0.0000
# 4 0.0000 0.0000 0.0000 13.6434 0.0000 0.0000
# 5 0.0000 0.0000 0.0000 0.0000 24.5786 0.0000
# 6 0.0000 0.0000 0.0000 0.0000 0.0000 1.6095
#
#
#
# Elastic Compliance Matrix: (Units=1/GPa)
#
#
# Indices 1 2 3 4 5 6 
#
# 1 0.028659 -0.019024 0.001464 0.000000 0.000000 0.000000
# 2 -0.019024 0.036643 -0.004042 0.000000 0.000000 0.000000
# 3 0.001464 -0.004042 0.007335 0.000000 0.000000 0.000000
# 4 0.000000 0.000000 0.000000 0.073295 0.000000 0.000000
# 5 0.000000 0.000000 0.000000 0.000000 0.040686 0.000000
# 6 0.000000 0.000000 0.000000 0.000000 0.000000 0.621298
#
#
# Mechanical properties :
#
#
# Convention : Reuss Voigt Hill
#
# Bulk Modulus (GPa) = 33.97494 38.51681 36.24587
# Shear Modulus (GPa) = 5.80767 20.71573 13.26170
#
# Velocity S-wave (km/s) = 1.77258 3.34777 2.67858
# Velocity P-wave (km/s) = 4.75083 5.98177 5.40148
#
# Compressibility (1/GPa) = 0.02943346
#
# Stress axis : x y z
#
# Youngs Moduli (GPa) = 34.89321 27.29008 136.34060
#
# Poissons Ratio (x) = 0.51916 -0.19961
# Poissons Ratio (y) = 0.66380 0.55108
# Poissons Ratio (z) = -0.05109 0.11031
#
# Static dielectric constant tensor:
#      x y z
#    x 3.228740 0.000000 0.000000 
#    y 0.000000 2.831360 0.000000 
#    z 0.000000 0.000000 4.753730 
# 
# 
# High freq. dielectric constant tensor:
#      x y z
#    x 1.702400 0.000000 0.000000 
#    y 0.000000 1.653270 0.000000 
#    z 0.000000 0.000000 1.750000 
# 
# From -- ./inp_files/885.got.cif
#   From: 2010.03.12/outbox.cif.g09.slc.cpg/sg29_1_cif.got.tgz:885.got - 2010.04.14 03:43:10.
