data_PCOD8168946
_publ_section_title
;
Structure prediction by ZEFSAII (Michael W. Deem and Ramdas Pophale) SiO2 
 PCOD8168946
Probable space group: P C A 21
;
_chemical_formula_sum "Si O2"
_cell_formula_units_Z 32
_cell_length_a 18.451740
_cell_length_b 6.574357
_cell_length_c 12.453485
_cell_angle_alpha 90.000000
_cell_angle_beta 90.000000
_cell_angle_gamma 90.000000
_cell_volume 1510.711419
_symmetry_space_group_name_H-M "P C A 21"
_symmetry_group_IT_number 29
_symmetry_cell_setting 'orthorhombic'
loop_
_space_group_symop_operation_xyz
x,y,z
-x,-y,1/2+z
1/2-x,y,1/2+z
1/2+x,-y,z
loop_
_atom_site_type_symbol
_atom_site_label
_atom_site_fract_x
_atom_site_fract_y
_atom_site_fract_z
Si Si1 0.538220 0.273346 0.575880
Si Si2 0.961780 0.226654 0.831681
Si Si3 0.313519 0.678517 0.336186
Si Si4 0.670608 0.017241 0.650033
Si Si5 0.404438 0.375952 0.203566
Si Si6 0.095562 0.124048 0.203995
Si Si7 0.670607 0.482759 0.257528
Si Si8 0.813519 0.178517 0.571375
O O1 0.512182 0.250000 0.453781
O O2 0.597489 0.101779 0.598234
O O3 0.570960 0.497257 0.598566
O O4 0.470316 0.251042 0.654896
O O5 0.902511 0.398223 0.809327
O O6 0.029685 0.248957 0.752665
O O7 0.929040 0.002744 0.808995
O O8 0.308882 0.879335 0.263026
O O9 0.376147 0.531107 0.293532
O O10 0.236841 0.559423 0.338975
O O11 0.335793 0.750000 0.453780
O O12 0.736841 0.059423 0.568585
O O13 0.659709 0.776373 0.667957
O O14 0.159709 0.276373 0.239604
O O15 0.123853 0.968894 0.114028
O O16 0.691117 0.379335 0.144535
#
# Coordination Sequence:
#
# PCOD8168946 Si02
#       8
#     4   4   4   4   4   4   4   4
#     4  11  24  40  65  93 132 173 216 270 327 386
#     4  11  24  40  65  93 132 173 216 270 327 386
#     4  10  23  40  67  94 128 170 214 271 327 385
#     4  10  22  44  61  95 133 164 219 270 316 398
#     4  11  23  41  63  95 129 170 220 269 323 389
#     4  11  23  41  63  95 129 170 220 269 323 389
#     4  10  22  44  61  95 133 164 219 270 316 398
#     4  10  23  40  67  94 128 170 214 271 327 385
#
# _framework density 21.182072999999999
#
# number of rings (size 3 to 8) (size 9 to 14) (size 15 to 20)
#    0.000    1.500    2.500    1.500    3.500    1.000 
#    0.000    2.500    0.000    0.000    0.000    0.000 
#    0.000    0.000    0.000    0.000    0.000    0.000 
#
# Total GULP energy -396995.820785 kJ/mol
# GULP energy per Si atom -12406.119400 kJ/mol
# Density = 2.113386 g / cm^3
# Si number density = 21.182073 Si / 1000 Ang^3
#
#
#
# Elastic Constant Matrix: (Units=GPa)
#
#
# Indices 1 2 3 4 5 6 
#
# 1 77.1117 24.3566 7.0737 0.0000 0.0000 0.0000
# 2 24.3566 133.9377 38.7777 0.0000 0.0000 0.0000
# 3 7.0737 38.7777 86.5178 0.0000 0.0000 0.0000
# 4 0.0000 0.0000 0.0000 19.0745 0.0000 0.0000
# 5 0.0000 0.0000 0.0000 0.0000 22.8846 0.0000
# 6 0.0000 0.0000 0.0000 0.0000 0.0000 41.9058
#
#
#
# Elastic Compliance Matrix: (Units=1/GPa)
#
#
# Indices 1 2 3 4 5 6 
#
# 1 0.013758 -0.002501 -0.000004 0.000000 0.000000 0.000000
# 2 -0.002501 0.009034 -0.003845 0.000000 0.000000 0.000000
# 3 -0.000004 -0.003845 0.013282 0.000000 0.000000 0.000000
# 4 0.000000 0.000000 0.000000 0.052426 0.000000 0.000000
# 5 0.000000 0.000000 0.000000 0.000000 0.043697 0.000000
# 6 0.000000 0.000000 0.000000 0.000000 0.000000 0.023863
#
#
# Mechanical properties :
#
#
# Convention : Reuss Voigt Hill
#
# Bulk Modulus (GPa) = 42.77998 48.66479 45.72239
# Shear Modulus (GPa) = 28.32032 31.93026 30.12529
#
# Velocity S-wave (km/s) = 3.66046 3.88676 3.77531
# Velocity P-wave (km/s) = 6.17296 6.57016 6.37465
#
# Compressibility (1/GPa) = 0.02337542
#
# Stress axis : x y z
#
# Youngs Moduli (GPa) = 72.68243 110.69253 75.29085
#
# Poissons Ratio (x) = 0.27682 0.00030
# Poissons Ratio (y) = 0.18177 0.28947
# Poissons Ratio (z) = 0.00029 0.42557
#
# Static dielectric constant tensor:
#      x y z
#    x 3.853590 0.000000 0.000000 
#    y 0.000000 3.846580 0.000000 
#    z 0.000000 0.000000 3.550760 
# 
# 
# High freq. dielectric constant tensor:
#      x y z
#    x 1.842140 0.000000 0.000000 
#    y 0.000000 1.835220 0.000000 
#    z 0.000000 0.000000 1.812510 
# 
# From -- ./inp_files/3839.got.cif
#   From: 2010.03.12/outbox.cif.g09.slc.cpg/sg29_2_cif.got.tgz:3839.got - 2010.04.14 03:43:10.
