data_PCOD8168293
_publ_section_title
;
Structure prediction by ZEFSAII (Michael W. Deem and Ramdas Pophale) SiO2 
 PCOD8168293
Probable space group: P M A 2
;
_chemical_formula_sum "Si O2"
_cell_formula_units_Z 32
_cell_length_a 14.942088
_cell_length_b 9.234269
_cell_length_c 12.152858
_cell_angle_alpha 90.000000
_cell_angle_beta 90.000000
_cell_angle_gamma 90.000000
_cell_volume 1676.842354
_symmetry_space_group_name_H-M "P M A 2"
_symmetry_group_IT_number 28
_symmetry_cell_setting 'orthorhombic'
loop_
_space_group_symop_operation_xyz
x,y,z
-x,-y,z
1/2-x,y,z
1/2+x,-y,z
loop_
_atom_site_type_symbol
_atom_site_label
_atom_site_fract_x
_atom_site_fract_y
_atom_site_fract_z
Si Si1 0.349977 0.151397 0.728790
Si Si2 0.908364 0.906722 0.961712
Si Si3 0.646193 0.696888 0.155499
Si Si4 0.646484 0.361162 0.157148
Si Si5 0.498866 0.332826 0.331860
Si Si6 0.652388 0.204525 0.950453
Si Si7 0.995516 0.827429 0.559281
Si Si8 0.150225 0.809981 0.711029
O O1 0.250000 0.220111 0.726832
O O2 0.397498 0.180331 0.846808
O O3 0.408931 0.221650 0.630569
O O4 0.343806 0.981831 0.708437
O O5 0.834068 0.032124 0.969762
O O6 0.897119 0.792926 0.059574
O O7 0.000000 0.000000 0.966698
O O8 0.750000 0.739419 0.175860
O O9 0.636712 0.528573 0.125649
O O10 0.589170 0.718495 0.266012
O O11 0.750000 0.318370 0.180416
O O12 0.589288 0.308846 0.261652
O O13 0.601469 0.278378 0.052598
O O14 0.500000 0.500000 0.367713
O O15 0.495306 0.233213 0.437695
O O16 0.750000 0.276326 0.949330
O O17 0.609369 0.236654 0.830603
O O18 0.083010 0.757400 0.617053
O O19 0.000000 0.000000 0.554231
O O20 0.250000 0.745246 0.691483
#
# Coordination Sequence:
#
# PCOD8168293 Si02
#       8
#     4   4   4   4   4   4   4   4
#     4   9  17  31  51  76 106 136 166 206 261 317
#     4  11  19  30  53  82 109 137 170 214 266 323
#     4  10  21  37  55  76 107 144 178 217 272 331
#     4   9  19  36  56  77 105 142 179 220 273 329
#     4  10  22  38  52  70 101 140 180 222 269 317
#     4   9  16  29  51  78 105 131 165 208 257 318
#     4  10  20  34  52  73  97 131 177 220 256 305
#     4   8  15  29  50  76 105 133 160 203 265 320
#
# _framework density 19.083489
#
# number of rings (size 3 to 8) (size 9 to 14) (size 15 to 20)
#    0.000    2.500    0.000    4.500    0.000    2.500 
#    0.000    1.250    0.000    1.500    0.000    0.000 
#    0.000    0.000    0.000    0.000    0.000    0.000 
#
# Total GULP energy -396453.664507 kJ/mol
# GULP energy per Si atom -12389.177016 kJ/mol
# Density = 1.904005 g / cm^3
# Si number density = 19.083489 Si / 1000 Ang^3
#
#
#
# Elastic Constant Matrix: (Units=GPa)
#
#
# Indices 1 2 3 4 5 6 
#
# 1 135.3782 29.5192 73.6656 0.0000 0.0000 0.0000
# 2 29.5192 38.3181 54.2620 0.0000 0.0000 0.0000
# 3 73.6656 54.2620 163.2415 0.0000 0.0000 0.0000
# 4 0.0000 0.0000 0.0000 1.6145 0.0000 0.0000
# 5 0.0000 0.0000 0.0000 0.0000 25.7265 0.0000
# 6 0.0000 0.0000 0.0000 0.0000 0.0000 11.5050
#
#
#
# Elastic Compliance Matrix: (Units=1/GPa)
#
#
# Indices 1 2 3 4 5 6 
#
# 1 0.009912 -0.002460 -0.003655 0.000000 0.000000 0.000000
# 2 -0.002460 0.049917 -0.015483 0.000000 0.000000 0.000000
# 3 -0.003655 -0.015483 0.012922 0.000000 0.000000 0.000000
# 4 0.000000 0.000000 0.000000 0.619377 0.000000 0.000000
# 5 0.000000 0.000000 0.000000 0.000000 0.038870 0.000000
# 6 0.000000 0.000000 0.000000 0.000000 0.000000 0.086919
#
#
# Mechanical properties :
#
#
# Convention : Reuss Voigt Hill
#
# Bulk Modulus (GPa) = 33.83440 72.42570 53.13005
# Shear Modulus (GPa) = 5.74076 19.73528 12.73802
#
# Velocity S-wave (km/s) = 1.73631 3.21932 2.58638
# Velocity P-wave (km/s) = 4.66775 7.20091 6.06799
#
# Compressibility (1/GPa) = 0.02955571
#
# Stress axis : x y z
#
# Youngs Moduli (GPa) = 100.88659 20.03330 77.38766
#
# Poissons Ratio (x) = 0.04927 0.28289
# Poissons Ratio (y) = 0.24814 1.19816
# Poissons Ratio (z) = 0.36879 0.31017
#
# Static dielectric constant tensor:
#      x y z
#    x 4.010490 0.000000 0.000000 
#    y 0.000000 3.230780 0.000000 
#    z 0.000000 0.000000 3.487970 
# 
# 
# High freq. dielectric constant tensor:
#      x y z
#    x 1.758220 0.000000 0.000000 
#    y 0.000000 1.700320 0.000000 
#    z 0.000000 0.000000 1.740690 
# 
# From -- ./inp_files/5589.got.cif
#   From: 2010.03.12/outbox.cif.g09.slc.cpg/sg28_3_cif.got.tgz:5589.got - 2010.04.14 03:39:34.
