data_PCOD8168370
_publ_section_title
;
Structure prediction by ZEFSAII (Michael W. Deem and Ramdas Pophale) SiO2 
 PCOD8168370
Probable space group: P M A 2
;
_chemical_formula_sum "Si O2"
_cell_formula_units_Z 24
_cell_length_a 8.704430
_cell_length_b 9.053681
_cell_length_c 15.376701
_cell_angle_alpha 90.000000
_cell_angle_beta 90.000000
_cell_angle_gamma 90.000000
_cell_volume 1211.793713
_symmetry_space_group_name_H-M "P M A 2"
_symmetry_group_IT_number 28
_symmetry_cell_setting 'orthorhombic'
loop_
_space_group_symop_operation_xyz
x,y,z
-x,-y,z
1/2-x,y,z
1/2+x,-y,z
loop_
_atom_site_type_symbol
_atom_site_label
_atom_site_fract_x
_atom_site_fract_y
_atom_site_fract_z
Si Si1 0.068672 0.840150 0.511490
Si Si2 0.072459 0.342956 0.665261
Si Si3 0.929082 0.662460 0.358040
Si Si4 0.427737 0.340715 0.165405
Si Si5 0.430848 0.663045 0.993905
Si Si6 0.572795 0.842593 0.838552
O O1 0.250000 0.853824 0.509802
O O2 0.018531 0.728765 0.586241
O O3 0.011079 0.779507 0.419518
O O4 0.000000 0.000000 0.530839
O O5 0.250000 0.358920 0.638794
O O6 0.050912 0.247623 0.750934
O O7 0.000000 0.500000 0.686018
O O8 0.750000 0.649914 0.381431
O O9 0.951906 0.730688 0.260695
O O10 0.000000 0.500000 0.369401
O O11 0.500000 0.500000 0.173030
O O12 0.250000 0.352778 0.140922
O O13 0.513435 0.260078 0.084890
O O14 0.500000 0.500000 0.983398
O O15 0.250000 0.649874 0.993259
O O16 0.483015 0.764773 0.915715
O O17 0.750000 0.857815 0.864893
O O18 0.500000 0.000000 0.820702
#
# Coordination Sequence:
#
# PCOD8168370 Si02
#       6
#     4   4   4   4   4   4
#     4  12  25  41  61  85 118 155 192 237 289 346
#     4  11  24  42  65  91 118 150 191 237 284 338
#     4  10  20  36  59  87 118 153 195 241 288 340
#     4   9  17  31  54  83 115 150 192 241 289 338
#     4  11  21  35  58  86 118 154 195 242 289 341
#     4  11  24  41  61  86 118 154 192 236 288 345
#
# _framework density 19.805351000000002
#
# number of rings (size 3 to 8) (size 9 to 14) (size 15 to 20)
#    0.000    1.333    0.000    7.500    0.000    7.333 
#    0.000    0.833    0.000    4.000    0.000    0.000 
#    0.000    0.000    0.000    0.000    0.000    0.000 
#
# Total GULP energy -297610.093821 kJ/mol
# GULP energy per Si atom -12400.420576 kJ/mol
# Density = 1.976027 g / cm^3
# Si number density = 19.805351 Si / 1000 Ang^3
#
#
#
# Elastic Constant Matrix: (Units=GPa)
#
#
# Indices 1 2 3 4 5 6 
#
# 1 187.6711 54.3053 71.4434 0.0000 0.0000 0.0000
# 2 54.3053 91.7512 32.8062 0.0000 0.0000 0.0000
# 3 71.4434 32.8062 114.5508 0.0000 0.0000 0.0000
# 4 0.0000 0.0000 0.0000 -30.5952 0.0000 0.0000
# 5 0.0000 0.0000 0.0000 0.0000 -1.1840 0.0000
# 6 0.0000 0.0000 0.0000 0.0000 0.0000 31.2212
#
#
#
# Elastic Compliance Matrix: (Units=1/GPa)
#
#
# Indices 1 2 3 4 5 6 
#
# 1 0.007740 -0.003181 -0.003916 0.000000 0.000000 0.000000
# 2 -0.003181 0.013450 -0.001868 0.000000 0.000000 0.000000
# 3 -0.003916 -0.001868 0.011707 0.000000 0.000000 0.000000
# 4 0.000000 0.000000 0.000000 -0.032685 0.000000 0.000000
# 5 0.000000 0.000000 0.000000 0.000000 -0.844573 0.000000
# 6 0.000000 0.000000 0.000000 0.000000 0.000000 0.032030
#
#
# Mechanical properties :
#
#
# Convention : Reuss Voigt Hill
#
# Bulk Modulus (GPa) = 66.81569 79.00922 72.91245
# Shear Modulus (GPa) = -6.33382 15.58293 4.62456
#
# Velocity S-wave (km/s) = -1.79024 2.80805 1.52973
# Velocity P-wave (km/s) = 5.43471 7.10584 6.32570
#
# Compressibility (1/GPa) = 0.01496654
#
# Stress axis : x y z
#
# Youngs Moduli (GPa) = 129.20437 74.35196 85.41744
#
# Poissons Ratio (x) = 0.23649 0.33451
# Poissons Ratio (y) = 0.41096 0.15957
# Poissons Ratio (z) = 0.50599 0.13890
#
# Static dielectric constant tensor:
#      x y z
#    x 3.847370 0.000000 0.000000 
#    y 0.000000 3.419360 0.000000 
#    z 0.000000 0.000000 4.291260 
# 
# 
# High freq. dielectric constant tensor:
#      x y z
#    x 1.795000 0.000000 0.000000 
#    y 0.000000 1.750050 0.000000 
#    z 0.000000 0.000000 1.797470 
# 
# From -- ./inp_files/6104.got.cif
#   From: 2010.03.12/outbox.cif.g09.slc.cpg/sg28_4_cif.got.tgz:6104.got - 2010.04.14 03:39:34.
