data_PCOD8168193
_publ_section_title
;
Structure prediction by ZEFSAII (Michael W. Deem and Ramdas Pophale) SiO2 
 PCOD8168193
Probable space group: P M A 2
;
_chemical_formula_sum "Si O2"
_cell_formula_units_Z 32
_cell_length_a 8.542447
_cell_length_b 16.087931
_cell_length_c 11.681901
_cell_angle_alpha 90.000000
_cell_angle_beta 90.000000
_cell_angle_gamma 90.000000
_cell_volume 1605.447135
_symmetry_space_group_name_H-M "P M A 2"
_symmetry_group_IT_number 28
_symmetry_cell_setting 'orthorhombic'
loop_
_space_group_symop_operation_xyz
x,y,z
-x,-y,z
1/2-x,y,z
1/2+x,-y,z
loop_
_atom_site_type_symbol
_atom_site_label
_atom_site_fract_x
_atom_site_fract_y
_atom_site_fract_z
Si Si1 0.427979 0.917018 0.962180
Si Si2 0.436047 0.592260 0.450782
Si Si3 0.073002 0.852294 0.723451
Si Si4 0.433474 0.696269 0.860907
Si Si5 0.063015 0.908725 0.479086
Si Si6 0.569749 0.761698 0.075547
Si Si7 0.067463 0.755946 0.323243
Si Si8 0.065992 0.411448 0.680407
O O1 0.250000 0.903434 0.004633
O O2 0.434601 0.921134 0.823779
O O3 0.500000 0.000000 0.014309
O O4 0.540305 0.846491 0.008854
O O5 0.500000 0.500000 0.415659
O O6 0.250000 0.584637 0.465495
O O7 0.487065 0.663076 0.359665
O O8 0.512928 0.635012 0.564646
O O9 0.250000 0.829026 0.691083
O O10 0.995462 0.768646 0.777580
O O11 0.994810 0.886094 0.606523
O O12 0.250000 0.710688 0.880427
O O13 0.474049 0.612244 0.795527
O O14 0.512682 0.691065 0.986190
O O15 0.250000 0.914192 0.478314
O O16 0.998589 0.835459 0.394343
O O17 0.000000 0.000000 0.442098
O O18 0.750000 0.748874 0.105668
O O19 0.472683 0.763248 0.190923
O O20 0.250000 0.761962 0.342036
O O21 0.250000 0.407109 0.701842
O O22 0.000000 0.500000 0.646854
#
# Coordination Sequence:
#
# PCOD8168193 Si02
#       8
#     4   4   4   4   4   4   4   4
#     4  10  19  33  54  79 108 142 182 229 283 339
#     4  10  20  37  62  89 116 148 187 233 286 342
#     4   8  16  31  53  79 107 140 175 220 278 337
#     4  10  19  36  59  81 109 144 183 227 280 338
#     4  10  20  35  54  79 111 146 186 227 274 333
#     4  11  23  38  56  79 107 141 187 237 283 336
#     4  10  22  40  59  78 109 154 196 235 285 342
#     4  11  21  34  55  86 120 149 180 220 272 333
#
# _framework density 19.932141999999999
#
# number of rings (size 3 to 8) (size 9 to 14) (size 15 to 20)
#    0.000    2.000    0.000    6.000    0.000    4.000 
#    0.000    6.250    0.000    1.500    0.000    0.000 
#    0.000    0.000    0.000    0.000    0.000    0.000 
#
# Total GULP energy -396478.007456 kJ/mol
# GULP energy per Si atom -12389.937733 kJ/mol
# Density = 1.988678 g / cm^3
# Si number density = 19.932142 Si / 1000 Ang^3
#
#
#
# Elastic Constant Matrix: (Units=GPa)
#
#
# Indices 1 2 3 4 5 6 
#
# 1 42.3203 21.7922 5.1389 0.0000 0.0000 0.0000
# 2 21.7922 78.5559 46.8294 0.0000 0.0000 0.0000
# 3 5.1389 46.8294 118.9633 0.0000 0.0000 0.0000
# 4 0.0000 0.0000 0.0000 17.3743 0.0000 0.0000
# 5 0.0000 0.0000 0.0000 0.0000 24.4870 0.0000
# 6 0.0000 0.0000 0.0000 0.0000 0.0000 27.4537
#
#
#
# Elastic Compliance Matrix: (Units=1/GPa)
#
#
# Indices 1 2 3 4 5 6 
#
# 1 0.028092 -0.009237 0.002423 0.000000 0.000000 0.000000
# 2 -0.009237 0.019670 -0.007344 0.000000 0.000000 0.000000
# 3 0.002423 -0.007344 0.011192 0.000000 0.000000 0.000000
# 4 0.000000 0.000000 0.000000 0.057556 0.000000 0.000000
# 5 0.000000 0.000000 0.000000 0.000000 0.040838 0.000000
# 6 0.000000 0.000000 0.000000 0.000000 0.000000 0.036425
#
#
# Mechanical properties :
#
#
# Convention : Reuss Voigt Hill
#
# Bulk Modulus (GPa) = 32.64015 43.04005 37.84010
# Shear Modulus (GPa) = 21.52362 24.93493 23.22928
#
# Velocity S-wave (km/s) = 3.28966 3.54077 3.41753
# Velocity P-wave (km/s) = 5.55341 6.19324 5.88203
#
# Compressibility (1/GPa) = 0.03063711
#
# Stress axis : x y z
#
# Youngs Moduli (GPa) = 35.59771 50.83810 89.34737
#
# Poissons Ratio (x) = 0.46960 -0.21646
# Poissons Ratio (y) = 0.32882 0.65618
# Poissons Ratio (z) = -0.08624 0.37336
#
# Static dielectric constant tensor:
#      x y z
#    x 3.413250 0.000000 0.000000 
#    y 0.000000 3.701850 0.000000 
#    z 0.000000 0.000000 3.646110 
# 
# 
# High freq. dielectric constant tensor:
#      x y z
#    x 1.762400 0.000000 0.000000 
#    y 0.000000 1.772920 0.000000 
#    z 0.000000 0.000000 1.775250 
# 
# From -- ./inp_files/5031.got.cif
#   From: 2010.03.12/outbox.cif.g09.slc.cpg/sg28_3_cif.got.tgz:5031.got - 2010.04.14 03:39:34.
