data_PCOD8168295
_publ_section_title
;
Structure prediction by ZEFSAII (Michael W. Deem and Ramdas Pophale) SiO2 
 PCOD8168295
Probable space group: P M A 2
;
_chemical_formula_sum "Si O2"
_cell_formula_units_Z 20
_cell_length_a 8.900242
_cell_length_b 9.364623
_cell_length_c 13.067560
_cell_angle_alpha 90.000000
_cell_angle_beta 90.000000
_cell_angle_gamma 90.000000
_cell_volume 1089.147293
_symmetry_space_group_name_H-M "P M A 2"
_symmetry_group_IT_number 28
_symmetry_cell_setting 'orthorhombic'
loop_
_space_group_symop_operation_xyz
x,y,z
-x,-y,z
1/2-x,y,z
1/2+x,-y,z
loop_
_atom_site_type_symbol
_atom_site_label
_atom_site_fract_x
_atom_site_fract_y
_atom_site_fract_z
Si Si1 0.077130 0.347679 0.662170
Si Si2 0.071469 0.845757 0.059336
Si Si3 0.574735 0.347745 0.245632
Si Si4 0.425371 0.345245 0.889125
Si Si5 0.074259 0.654564 0.470437
O O1 0.250000 0.366328 0.634204
O O2 0.056295 0.278679 0.774482
O O3 0.000000 0.500000 0.669461
O O4 0.999026 0.259651 0.567525
O O5 0.250000 0.857696 0.051857
O O6 0.017682 0.763171 0.161145
O O7 0.000000 0.000000 0.064301
O O8 0.009520 0.764836 0.961073
O O9 0.500000 0.500000 0.226919
O O10 0.750000 0.376150 0.234337
O O11 0.538261 0.279985 0.358177
O O12 0.500000 0.500000 0.900701
O O13 0.250000 0.359100 0.918184
O O14 0.250000 0.643484 0.489520
O O15 0.000000 0.500000 0.470914
#
# Coordination Sequence:
#
# PCOD8168295 Si02
#       5
#     4   4   4   4   4
#     4   9  16  26  43  70 102 131 161 199 244 292
#     4  11  23  38  54  73 100 134 172 213 259 307
#     4   9  19  33  51  76 103 131 165 206 249 296
#     4  10  20  34  53  78 106 135 170 211 253 299
#     4   9  15  25  43  69 100 129 159 197 244 294
#
# _framework density 18.362988999999999
#
# number of rings (size 3 to 8) (size 9 to 14) (size 15 to 20)
#    0.000    2.400    0.000    4.200    0.000    6.400 
#    0.000    0.000    0.000    1.200    0.000    5.600 
#    0.000    0.000    0.000    0.000    0.000    0.000 
#
# Total GULP energy -247791.071123 kJ/mol
# GULP energy per Si atom -12389.553556 kJ/mol
# Density = 1.832119 g / cm^3
# Si number density = 18.362989 Si / 1000 Ang^3
#
#
#
# Elastic Constant Matrix: (Units=GPa)
#
#
# Indices 1 2 3 4 5 6 
#
# 1 107.8606 38.2023 73.7956 0.0000 0.0000 0.0000
# 2 38.2023 78.9413 64.2656 0.0000 0.0000 0.0000
# 3 73.7956 64.2656 184.7706 0.0000 0.0000 0.0000
# 4 0.0000 0.0000 0.0000 1.7798 0.0000 0.0000
# 5 0.0000 0.0000 0.0000 0.0000 37.6132 0.0000
# 6 0.0000 0.0000 0.0000 0.0000 0.0000 21.2137
#
#
#
# Elastic Compliance Matrix: (Units=1/GPa)
#
#
# Indices 1 2 3 4 5 6 
#
# 1 0.013226 -0.002930 -0.004263 0.000000 0.000000 0.000000
# 2 -0.002930 0.018320 -0.005202 0.000000 0.000000 0.000000
# 3 -0.004263 -0.005202 0.008924 0.000000 0.000000 0.000000
# 4 0.000000 0.000000 0.000000 0.561870 0.000000 0.000000
# 5 0.000000 0.000000 0.000000 0.000000 0.026586 0.000000
# 6 0.000000 0.000000 0.000000 0.000000 0.000000 0.047139
#
#
# Mechanical properties :
#
#
# Convention : Reuss Voigt Hill
#
# Bulk Modulus (GPa) = 63.77403 80.45551 72.11477
# Shear Modulus (GPa) = 7.08133 25.14194 16.11164
#
# Velocity S-wave (km/s) = 1.96588 3.70424 2.96530
# Velocity P-wave (km/s) = 6.32123 7.88697 7.14710
#
# Compressibility (1/GPa) = 0.01568036
#
# Stress axis : x y z
#
# Youngs Moduli (GPa) = 75.61057 54.58433 112.05599
#
# Poissons Ratio (x) = 0.15991 0.47772
# Poissons Ratio (y) = 0.22151 0.58291
# Poissons Ratio (z) = 0.32235 0.28394
#
# Static dielectric constant tensor:
#      x y z
#    x 3.546630 0.000000 0.000000 
#    y 0.000000 2.821910 0.000000 
#    z 0.000000 0.000000 4.996430 
# 
# 
# High freq. dielectric constant tensor:
#      x y z
#    x 1.728740 0.000000 0.000000 
#    y 0.000000 1.643410 0.000000 
#    z 0.000000 0.000000 1.748610 
# 
# From -- ./inp_files/5966.got.cif
#   From: 2010.03.12/outbox.cif.g09.slc.cpg/sg28_3_cif.got.tgz:5966.got - 2010.04.14 03:39:34.
