data_PCOD8168492
_publ_section_title
;
Structure prediction by ZEFSAII (Michael W. Deem and Ramdas Pophale) SiO2 
 PCOD8168492
Probable space group: P M A 2
;
_chemical_formula_sum "Si O2"
_cell_formula_units_Z 20
_cell_length_a 13.976948
_cell_length_b 11.537799
_cell_length_c 4.939560
_cell_angle_alpha 90.000000
_cell_angle_beta 90.000000
_cell_angle_gamma 90.000000
_cell_volume 796.569334
_symmetry_space_group_name_H-M "P M A 2"
_symmetry_group_IT_number 28
_symmetry_cell_setting 'orthorhombic'
loop_
_space_group_symop_operation_xyz
x,y,z
-x,-y,z
1/2-x,y,z
1/2+x,-y,z
loop_
_atom_site_type_symbol
_atom_site_label
_atom_site_fract_x
_atom_site_fract_y
_atom_site_fract_z
Si Si1 0.904020 0.063273 0.201810
Si Si2 0.642799 0.575296 0.239172
Si Si3 0.001311 0.749768 0.508847
Si Si4 0.147899 0.064719 0.684675
Si Si5 0.642307 0.418364 0.745307
O O1 0.922604 0.196175 0.292412
O O2 0.830303 0.998882 0.400983
O O3 0.000000 0.000000 0.282705
O O4 0.876221 0.041524 0.891270
O O5 0.750000 0.629147 0.222198
O O6 0.569124 0.673499 0.325837
O O7 0.640789 0.469612 0.445828
O O8 0.611995 0.520585 0.951330
O O9 0.936632 0.840255 0.682510
O O10 0.062873 0.682881 0.737980
O O11 0.250000 0.123480 0.767450
O O12 0.750000 0.372556 0.817032
#
# Coordination Sequence:
#
# PCOD8168492 Si02
#       5
#     4   4   4   4   4
#     4  10  23  42  64  96 135 174 226 283 338 405
#     4  10  23  44  68 100 138 178 228 286 342 407
#     4  11  24  44  74 102 135 188 234 280 345 413
#     4  11  24  43  67 101 139 177 228 288 343 406
#     4  10  24  43  66 101 142 181 228 281 340 409
#
# _framework density 25.107669000000001
#
# number of rings (size 3 to 8) (size 9 to 14) (size 15 to 20)
#    0.000    1.600    0.000    3.600    0.000   14.400 
#    0.000    8.000    0.000    3.600    0.000    0.000 
#    0.000    0.000    0.000    0.000    0.000    0.000 
#
# Total GULP energy -247839.204501 kJ/mol
# GULP energy per Si atom -12391.960225 kJ/mol
# Density = 2.505052 g / cm^3
# Si number density = 25.107669 Si / 1000 Ang^3
#
#
#
# Elastic Constant Matrix: (Units=GPa)
#
#
# Indices 1 2 3 4 5 6 
#
# 1 146.0980 67.6181 37.1349 0.0000 0.0000 0.0000
# 2 67.6181 91.5412 36.0173 0.0000 0.0000 0.0000
# 3 37.1349 36.0173 105.9310 0.0000 0.0000 0.0000
# 4 0.0000 0.0000 0.0000 35.0881 0.0000 0.0000
# 5 0.0000 0.0000 0.0000 0.0000 10.1714 0.0000
# 6 0.0000 0.0000 0.0000 0.0000 0.0000 20.2950
#
#
#
# Elastic Compliance Matrix: (Units=1/GPa)
#
#
# Indices 1 2 3 4 5 6 
#
# 1 0.010533 -0.007305 -0.001209 0.000000 0.000000 0.000000
# 2 -0.007305 0.017677 -0.003450 0.000000 0.000000 0.000000
# 3 -0.001209 -0.003450 0.011037 0.000000 0.000000 0.000000
# 4 0.000000 0.000000 0.000000 0.028500 0.000000 0.000000
# 5 0.000000 0.000000 0.000000 0.000000 0.098315 0.000000
# 6 0.000000 0.000000 0.000000 0.000000 0.000000 0.049273
#
#
# Mechanical properties :
#
#
# Convention : Reuss Voigt Hill
#
# Bulk Modulus (GPa) = 65.27165 69.45674 67.36419
# Shear Modulus (GPa) = 20.46105 26.63088 23.54597
#
# Velocity S-wave (km/s) = 2.85780 3.26032 3.06567
# Velocity P-wave (km/s) = 6.07803 6.47275 6.27850
#
# Compressibility (1/GPa) = 0.01532059
#
# Stress axis : x y z
#
# Youngs Moduli (GPa) = 94.94257 56.57100 90.60655
#
# Poissons Ratio (x) = 0.41322 0.10952
# Poissons Ratio (y) = 0.69351 0.31256
# Poissons Ratio (z) = 0.11476 0.19515
#
# Static dielectric constant tensor:
#      x y z
#    x 5.077730 0.000000 0.000000 
#    y 0.000000 4.495370 0.000000 
#    z 0.000000 0.000000 4.383070 
# 
# 
# High freq. dielectric constant tensor:
#      x y z
#    x 2.019360 0.000000 0.000000 
#    y 0.000000 1.976160 0.000000 
#    z 0.000000 0.000000 2.006680 
# 
# From -- ./inp_files/697.got.cif
#   From: 2010.03.12/outbox.cif.g09.slc.cpg/sg28_1_cif.got.tgz:697.got - 2010.04.14 03:39:34.
