data_PCOD8168539
_publ_section_title
;
Structure prediction by ZEFSAII (Michael W. Deem and Ramdas Pophale) SiO2 
 PCOD8168539
Probable space group: P C A 21
;
_chemical_formula_sum "Si O2"
_cell_formula_units_Z 32
_cell_length_a 34.337715
_cell_length_b 8.327309
_cell_length_c 5.262668
_cell_angle_alpha 90.000000
_cell_angle_beta 90.000000
_cell_angle_gamma 90.000000
_cell_volume 1504.811304
_symmetry_space_group_name_H-M "P C A 21"
_symmetry_group_IT_number 29
_symmetry_cell_setting 'orthorhombic'
loop_
_space_group_symop_operation_xyz
x,y,z
-x,-y,1/2+z
1/2-x,y,1/2+z
1/2+x,-y,z
loop_
_atom_site_type_symbol
_atom_site_label
_atom_site_fract_x
_atom_site_fract_y
_atom_site_fract_z
Si Si1 0.390983 0.812765 0.459850
Si Si2 0.390983 0.187241 0.492445
Si Si3 0.353610 0.817817 0.955224
Si Si4 0.476070 0.687247 0.474420
Si Si5 0.353610 0.182191 0.997071
Si Si6 0.523931 0.687245 0.977777
Si Si7 0.734940 0.820494 0.658515
Si Si8 0.734940 0.179495 0.293778
O O1 0.374271 0.730528 0.716440
O O2 0.436901 0.788121 0.452657
O O3 0.380569 0.000003 0.476147
O O4 0.368469 0.734445 0.216855
O O5 0.374272 0.269479 0.235854
O O6 0.436901 0.211885 0.499649
O O7 0.368469 0.265561 0.735439
O O8 0.307613 0.812605 0.913727
O O9 0.368398 0.000004 0.976148
O O10 0.500008 0.736482 0.726066
O O11 0.465541 0.500001 0.476119
O O12 0.499991 0.734875 0.226062
O O13 0.307613 0.187406 0.038570
O O14 0.761702 0.736100 0.436825
O O15 0.750000 0.999994 0.726147
O O16 0.761702 0.263888 0.515468
#
# Coordination Sequence:
#
# PCOD8168539 Si02
#       8
#     4   4   4   4   4   4   4   4
#     4  10  21  32  49  75 106 136 157 208 255 310
#     4  10  21  32  49  75 106 136 157 208 255 310
#     4  10  18  29  43  68 107 139 162 199 256 296
#     4  10  21  38  58  76  97 129 173 214 247 297
#     4  10  18  29  43  68 107 139 162 199 256 296
#     4  10  21  38  58  76  97 129 173 214 247 297
#     4  10  17  24  41  63  95 143 169 202 235 298
#     4  10  17  24  41  63  95 143 169 202 235 298
#
# _framework density 21.265122000000002
#
# number of rings (size 3 to 8) (size 9 to 14) (size 15 to 20)
#    0.000    2.000    2.500    3.000    7.000    1.000 
#    0.000    0.000    0.000    0.000    0.000    0.000 
#    0.000   20.000    0.000    0.000    0.000    0.000 
#
# Total GULP energy -396427.728275 kJ/mol
# GULP energy per Si atom -12388.366509 kJ/mol
# Density = 2.121672 g / cm^3
# Si number density = 21.265122 Si / 1000 Ang^3
#
#
#
# Elastic Constant Matrix: (Units=GPa)
#
#
# Indices 1 2 3 4 5 6 
#
# 1 147.2591 4.4468 95.8361 0.0000 0.0000 0.0000
# 2 4.4468 5.2861 10.4333 0.0000 0.0000 0.0000
# 3 95.8361 10.4333 273.2107 0.0000 0.0000 0.0000
# 4 0.0000 0.0000 0.0000 0.5638 0.0000 0.0000
# 5 0.0000 0.0000 0.0000 0.0000 47.6967 0.0000
# 6 0.0000 0.0000 0.0000 0.0000 0.0000 -1.8828
#
#
#
# Elastic Compliance Matrix: (Units=1/GPa)
#
#
# Indices 1 2 3 4 5 6 
#
# 1 0.008809 -0.001418 -0.003036 0.000000 0.000000 0.000000
# 2 -0.001418 0.204823 -0.007324 0.000000 0.000000 0.000000
# 3 -0.003036 -0.007324 0.005005 0.000000 0.000000 0.000000
# 4 0.000000 0.000000 0.000000 1.773548 0.000000 0.000000
# 5 0.000000 0.000000 0.000000 0.000000 0.020966 0.000000
# 6 0.000000 0.000000 0.000000 0.000000 0.000000 -0.531110
#
#
# Mechanical properties :
#
#
# Convention : Reuss Voigt Hill
#
# Bulk Modulus (GPa) = 5.12611 71.90982 38.51796
# Shear Modulus (GPa) = 3.18345 30.27818 16.73081
#
# Velocity S-wave (km/s) = 1.22486 3.77748 2.80799
# Velocity P-wave (km/s) = 2.10147 7.27427 5.35403
#
# Compressibility (1/GPa) = 0.19507983
#
# Stress axis : x y z
#
# Youngs Moduli (GPa) = 113.51526 4.88227 199.80734
#
# Poissons Ratio (x) = 0.00693 0.60661
# Poissons Ratio (y) = 0.16101 1.46343
# Poissons Ratio (z) = 0.34463 0.03576
#
# Static dielectric constant tensor:
#      x y z
#    x 3.699560 0.000000 0.000000 
#    y 0.000000 3.074790 0.000000 
#    z 0.000000 0.000000 7.408870 
# 
# 
# High freq. dielectric constant tensor:
#      x y z
#    x 1.839200 0.000000 0.000000 
#    y 0.000000 1.745300 0.000000 
#    z 0.000000 0.000000 1.882010 
# 
# From -- ./inp_files/888.got.cif
#   From: 2010.03.12/outbox.cif.g09.slc.cpg/sg29_1_cif.got.tgz:888.got - 2010.04.14 03:43:10.
