data_PCOD8168155
_publ_section_title
;
Structure prediction by ZEFSAII (Michael W. Deem and Ramdas Pophale) SiO2 
 PCOD8168155
Probable space group: P M A 2
;
_chemical_formula_sum "Si O2"
_cell_formula_units_Z 32
_cell_length_a 8.840178
_cell_length_b 14.553084
_cell_length_c 12.186571
_cell_angle_alpha 90.000000
_cell_angle_beta 90.000000
_cell_angle_gamma 90.000000
_cell_volume 1567.824941
_symmetry_space_group_name_H-M "P M A 2"
_symmetry_group_IT_number 28
_symmetry_cell_setting 'orthorhombic'
loop_
_space_group_symop_operation_xyz
x,y,z
-x,-y,z
1/2-x,y,z
1/2+x,-y,z
loop_
_atom_site_type_symbol
_atom_site_label
_atom_site_fract_x
_atom_site_fract_y
_atom_site_fract_z
Si Si1 0.578615 0.868306 0.662920
Si Si2 0.422241 0.585617 0.792373
Si Si3 0.928088 0.600763 0.172407
Si Si4 0.071846 0.909892 0.437144
Si Si5 0.428845 0.908344 0.893998
Si Si6 0.572199 0.291600 0.371809
Si Si7 0.077769 0.717202 0.987276
Si Si8 0.579548 0.663356 0.592633
O O1 0.750000 0.906321 0.662369
O O2 0.488986 0.909905 0.560811
O O3 0.497361 0.898185 0.773489
O O4 0.577322 0.759382 0.655155
O O5 0.500000 0.500000 0.856427
O O6 0.250000 0.562667 0.765971
O O7 0.436093 0.675990 0.865690
O O8 0.511490 0.591877 0.678118
O O9 0.750000 0.587339 0.178315
O O10 0.000000 0.500000 0.164029
O O11 0.983324 0.655412 0.278295
O O12 0.968070 0.663038 0.067958
O O13 0.250000 0.919810 0.439650
O O14 0.025344 0.816558 0.372747
O O15 0.000000 0.000000 0.377545
O O16 0.250000 0.916726 0.882877
O O17 0.471223 0.823522 0.974411
O O18 0.500000 0.000000 0.948379
O O19 0.750000 0.303547 0.352951
O O20 0.526886 0.337163 0.486545
O O21 0.250000 0.708536 0.031272
O O22 0.750000 0.635970 0.558289
#
# Coordination Sequence:
#
# PCOD8168155 Si02
#       8
#     4   4   4   4   4   4   4   4
#     4  10  19  32  53  82 120 164 207 250 295 353
#     4  11  22  37  58  87 121 159 200 244 303 367
#     4  12  26  45  71  96 120 153 201 255 309 369
#     4  10  20  34  56  86 123 165 206 250 299 356
#     4  11  22  37  58  87 123 163 206 251 301 359
#     4  10  22  41  64  90 123 160 203 254 307 360
#     4  10  23  43  65  89 122 160 203 255 306 360
#     4  10  20  35  57  87 123 161 201 248 303 361
#
# _framework density 20.410440999999999
#
# number of rings (size 3 to 8) (size 9 to 14) (size 15 to 20)
#    0.000    1.500    1.250    4.125    0.000    6.000 
#    0.000    3.125    0.000    0.000    0.000    0.000 
#    0.000    0.000    0.000    0.000    0.000    0.000 
#
# Total GULP energy -396813.044514 kJ/mol
# GULP energy per Si atom -12400.407641 kJ/mol
# Density = 2.036399 g / cm^3
# Si number density = 20.410441 Si / 1000 Ang^3
#
#
#
# Elastic Constant Matrix: (Units=GPa)
#
#
# Indices 1 2 3 4 5 6 
#
# 1 126.6419 67.1250 45.7512 0.0000 0.0000 0.0000
# 2 67.1250 140.9396 53.5862 0.0000 0.0000 0.0000
# 3 45.7512 53.5862 77.3187 0.0000 0.0000 0.0000
# 4 0.0000 0.0000 0.0000 22.0779 0.0000 0.0000
# 5 0.0000 0.0000 0.0000 0.0000 34.2227 0.0000
# 6 0.0000 0.0000 0.0000 0.0000 0.0000 36.3224
#
#
#
# Elastic Compliance Matrix: (Units=1/GPa)
#
#
# Indices 1 2 3 4 5 6 
#
# 1 0.011430 -0.003900 -0.004061 0.000000 0.000000 0.000000
# 2 -0.003900 0.010964 -0.005291 0.000000 0.000000 0.000000
# 3 -0.004061 -0.005291 0.019003 0.000000 0.000000 0.000000
# 4 0.000000 0.000000 0.000000 0.045294 0.000000 0.000000
# 5 0.000000 0.000000 0.000000 0.000000 0.029220 0.000000
# 6 0.000000 0.000000 0.000000 0.000000 0.000000 0.027531
#
#
# Mechanical properties :
#
#
# Convention : Reuss Voigt Hill
#
# Bulk Modulus (GPa) = 67.13956 75.31388 71.22672
# Shear Modulus (GPa) = 28.58568 30.42046 29.50307
#
# Velocity S-wave (km/s) = 3.74644 3.86481 3.80608
# Velocity P-wave (km/s) = 7.18892 7.54290 7.36804
#
# Compressibility (1/GPa) = 0.01489435
#
# Stress axis : x y z
#
# Youngs Moduli (GPa) = 87.48572 91.20372 52.62212
#
# Poissons Ratio (x) = 0.35570 0.21368
# Poissons Ratio (y) = 0.34120 0.27844
# Poissons Ratio (z) = 0.35525 0.48258
#
# Static dielectric constant tensor:
#      x y z
#    x 3.865880 0.000000 0.000000 
#    y 0.000000 4.104540 0.000000 
#    z 0.000000 0.000000 3.412680 
# 
# 
# High freq. dielectric constant tensor:
#      x y z
#    x 1.809530 0.000000 0.000000 
#    y 0.000000 1.816790 0.000000 
#    z 0.000000 0.000000 1.770640 
# 
# From -- ./inp_files/4976.got.cif
#   From: 2010.03.12/outbox.cif.g09.slc.cpg/sg28_3_cif.got.tgz:4976.got - 2010.04.14 03:39:34.
