data_PCOD8168496
_publ_section_title
;
Structure prediction by ZEFSAII (Michael W. Deem and Ramdas Pophale) SiO2 
 PCOD8168496
Probable space group: P M A 2
;
_chemical_formula_sum "Si O2"
_cell_formula_units_Z 18
_cell_length_a 8.874832
_cell_length_b 16.343033
_cell_length_c 5.015573
_cell_angle_alpha 90.000000
_cell_angle_beta 90.000000
_cell_angle_gamma 90.000000
_cell_volume 727.467095
_symmetry_space_group_name_H-M "P M A 2"
_symmetry_group_IT_number 28
_symmetry_cell_setting 'orthorhombic'
loop_
_space_group_symop_operation_xyz
x,y,z
-x,-y,z
1/2-x,y,z
1/2+x,-y,z
loop_
_atom_site_type_symbol
_atom_site_label
_atom_site_fract_x
_atom_site_fract_y
_atom_site_fract_z
Si Si1 0.750000 0.558555 0.532341
Si Si2 0.750000 0.448518 0.048294
Si Si3 0.750000 0.113067 0.898303
Si Si4 0.001122 0.340025 0.246749
Si Si5 0.500000 0.000000 0.738384
Si Si6 0.250000 0.112758 0.557070
Si Si7 0.750000 0.224846 0.397155
Si Si8 0.250000 0.228459 0.058230
O O1 0.750000 0.479318 0.350567
O O2 0.600129 0.610098 0.462967
O O3 0.750000 0.523978 0.837556
O O4 0.902937 0.394856 0.038550
O O5 0.750000 0.151937 0.605279
O O6 0.602543 0.056328 0.930447
O O7 0.750000 0.185844 0.105068
O O8 0.896502 0.281726 0.427235
O O9 0.104516 0.286614 0.049744
O O10 0.602669 0.944228 0.546625
O O11 0.250000 0.175052 0.320369
O O12 0.250000 0.166517 0.819582
#
# Coordination Sequence:
#
# PCOD8168496 Si02
#       8
#     2   2   2   4   2   2   2   2
#     4  11  26  45  68 100 136 175 224 283 347 414
#     4  11  26  45  68 100 136 175 224 283 347 414
#     4  11  24  41  64  95 133 174 224 278 337 404
#     4  10  25  44  70  99 134 178 228 282 346 415
#     4  10  24  40  64  96 132 176 222 276 340 404
#     4  11  24  41  64  95 133 174 224 278 337 404
#     4  11  24  43  67  97 132 176 226 280 339 406
#     4  11  24  43  67  97 132 176 226 280 339 406
#
# _framework density 24.743386999999998
#
# number of rings (size 3 to 8) (size 9 to 14) (size 15 to 20)
#    0.000    1.333    0.000    3.333    0.000   19.556 
#    0.000    3.333    0.000    0.000    0.000    0.000 
#    0.000    0.000    0.000    0.000    0.000    0.000 
#
# Total GULP energy -223244.980052 kJ/mol
# GULP energy per Si atom -12402.498892 kJ/mol
# Density = 2.468707 g / cm^3
# Si number density = 24.743387 Si / 1000 Ang^3
#
#
#
# Elastic Constant Matrix: (Units=GPa)
#
#
# Indices 1 2 3 4 5 6 
#
# 1 198.8923 85.0404 35.0326 0.0000 0.0000 0.0000
# 2 85.0404 153.2733 44.9968 0.0000 0.0000 0.0000
# 3 35.0326 44.9968 95.5922 0.0000 0.0000 0.0000
# 4 0.0000 0.0000 0.0000 31.8755 0.0000 0.0000
# 5 0.0000 0.0000 0.0000 0.0000 15.2208 0.0000
# 6 0.0000 0.0000 0.0000 0.0000 0.0000 60.8458
#
#
#
# Elastic Compliance Matrix: (Units=1/GPa)
#
#
# Indices 1 2 3 4 5 6 
#
# 1 0.006645 -0.003449 -0.000812 0.000000 0.000000 0.000000
# 2 -0.003449 0.009360 -0.003142 0.000000 0.000000 0.000000
# 3 -0.000812 -0.003142 0.012238 0.000000 0.000000 0.000000
# 4 0.000000 0.000000 0.000000 0.031372 0.000000 0.000000
# 5 0.000000 0.000000 0.000000 0.000000 0.065700 0.000000
# 6 0.000000 0.000000 0.000000 0.000000 0.000000 0.016435
#
#
# Mechanical properties :
#
#
# Convention : Reuss Voigt Hill
#
# Bulk Modulus (GPa) = 74.41786 86.43305 80.42546
# Shear Modulus (GPa) = 31.04915 40.43428 35.74171
#
# Velocity S-wave (km/s) = 3.54622 4.04684 3.80478
# Velocity P-wave (km/s) = 6.84900 7.53946 7.20251
#
# Compressibility (1/GPa) = 0.01343763
#
# Stress axis : x y z
#
# Youngs Moduli (GPa) = 150.47921 106.83581 81.71435
#
# Poissons Ratio (x) = 0.36844 0.06636
# Poissons Ratio (y) = 0.51895 0.25676
# Poissons Ratio (z) = 0.12220 0.33569
#
# Static dielectric constant tensor:
#      x y z
#    x 4.885710 0.000000 0.000000 
#    y 0.000000 4.856050 0.000000 
#    z 0.000000 0.000000 3.739790 
# 
# 
# High freq. dielectric constant tensor:
#      x y z
#    x 2.008260 0.000000 0.000000 
#    y 0.000000 2.013420 0.000000 
#    z 0.000000 0.000000 1.956170 
# 
# From -- ./inp_files/203.got.cif
#   From: 2010.03.12/outbox.cif.g09.slc.cpg/sg28_1_cif.got.tgz:203.got - 2010.04.14 03:39:34.
