data_PCOD8168319
_publ_section_title
;
Structure prediction by ZEFSAII (Michael W. Deem and Ramdas Pophale) SiO2 
 PCOD8168319
Probable space group: P M A 2
;
_chemical_formula_sum "Si O2"
_cell_formula_units_Z 30
_cell_length_a 18.814430
_cell_length_b 5.130210
_cell_length_c 15.582651
_cell_angle_alpha 90.000000
_cell_angle_beta 90.000000
_cell_angle_gamma 90.000000
_cell_volume 1504.068280
_symmetry_space_group_name_H-M "P M A 2"
_symmetry_group_IT_number 28
_symmetry_cell_setting 'orthorhombic'
loop_
_space_group_symop_operation_xyz
x,y,z
-x,-y,z
1/2-x,y,z
1/2+x,-y,z
loop_
_atom_site_type_symbol
_atom_site_label
_atom_site_fract_x
_atom_site_fract_y
_atom_site_fract_z
Si Si1 0.546015 0.245476 0.400100
Si Si2 0.331236 0.189958 0.961397
Si Si3 0.047047 0.757670 0.207643
Si Si4 0.925679 0.855783 0.798744
Si Si5 0.171388 0.106560 0.650876
Si Si6 0.168937 0.688696 0.072596
Si Si7 0.000000 0.500000 0.675819
Si Si8 0.881469 0.365381 0.566465
O O1 0.500000 0.500000 0.392102
O O2 0.574657 0.184689 0.304361
O O3 0.609757 0.320262 0.464580
O O4 0.500000 0.000000 0.434270
O O5 0.250000 0.219089 0.927829
O O6 0.387714 0.230586 0.885683
O O7 0.347677 0.407582 0.032256
O O8 0.344277 0.905327 0.000077
O O9 0.117896 0.734179 0.152179
O O10 0.000000 0.500000 0.199078
O O11 0.000000 0.000000 0.174398
O O12 0.869552 0.999320 0.736481
O O13 0.940716 0.608027 0.739813
O O14 0.000000 0.000000 0.818159
O O15 0.250000 0.195613 0.678051
O O16 0.137448 0.337744 0.592807
O O17 0.176710 0.846499 0.593552
O O18 0.250000 0.703789 0.106057
O O19 0.042377 0.700297 0.613318
#
# Coordination Sequence:
#
# PCOD8168319 Si02
#       8
#     4   4   4   4   4   4   2   4
#     4  10  20  34  60  91 121 152 189 241 301 352
#     4  10  23  40  61  83 116 158 198 237 294 357
#     4  10  21  38  61  94 121 148 195 246 299 347
#     4  11  23  38  57  88 117 150 201 251 294 346
#     4  11  24  40  58  82 120 162 198 246 296 352
#     4  10  22  42  62  85 116 162 197 233 298 367
#     4  10  22  36  56  90 116 146 198 244 294 340
#     4  11  21  37  62  84 119 156 201 237 294 355
#
# _framework density 19.945900999999999
#
# number of rings (size 3 to 8) (size 9 to 14) (size 15 to 20)
#    0.000    1.600    2.000    2.400    3.733    1.600 
#    0.000    4.000    0.000    1.600    0.000    0.000 
#    0.000    0.000    0.000    0.000    0.000    0.000 
#
# Total GULP energy -371754.305659 kJ/mol
# GULP energy per Si atom -12391.810189 kJ/mol
# Density = 1.990050 g / cm^3
# Si number density = 19.945901 Si / 1000 Ang^3
#
#
#
# Elastic Constant Matrix: (Units=GPa)
#
#
# Indices 1 2 3 4 5 6 
#
# 1 116.7202 21.5870 69.2948 0.0000 0.0000 0.0000
# 2 21.5870 93.0542 18.2244 0.0000 0.0000 0.0000
# 3 69.2948 18.2244 104.6814 0.0000 0.0000 0.0000
# 4 0.0000 0.0000 0.0000 23.7544 0.0000 0.0000
# 5 0.0000 0.0000 0.0000 0.0000 20.1117 0.0000
# 6 0.0000 0.0000 0.0000 0.0000 0.0000 25.1184
#
#
#
# Elastic Compliance Matrix: (Units=1/GPa)
#
#
# Indices 1 2 3 4 5 6 
#
# 1 0.014318 -0.001517 -0.009214 0.000000 0.000000 0.000000
# 2 -0.001517 0.011286 -0.000961 0.000000 0.000000 0.000000
# 3 -0.009214 -0.000961 0.015819 0.000000 0.000000 0.000000
# 4 0.000000 0.000000 0.000000 0.042097 0.000000 0.000000
# 5 0.000000 0.000000 0.000000 0.000000 0.049722 0.000000
# 6 0.000000 0.000000 0.000000 0.000000 0.000000 0.039811
#
#
# Mechanical properties :
#
#
# Convention : Reuss Voigt Hill
#
# Bulk Modulus (GPa) = 55.43046 59.18537 57.30791
# Shear Modulus (GPa) = 24.69717 27.48687 26.09202
#
# Velocity S-wave (km/s) = 3.52264 3.71627 3.62074
# Velocity P-wave (km/s) = 6.66303 6.93913 6.80248
#
# Compressibility (1/GPa) = 0.01804062
#
# Stress axis : x y z
#
# Youngs Moduli (GPa) = 69.84088 88.60143 63.21377
#
# Poissons Ratio (x) = 0.13441 0.58245
# Poissons Ratio (y) = 0.10595 0.06073
# Poissons Ratio (z) = 0.64351 0.08512
#
# Static dielectric constant tensor:
#      x y z
#    x 3.698190 0.000000 0.000000 
#    y 0.000000 3.648930 0.000000 
#    z 0.000000 0.000000 3.662590 
# 
# 
# High freq. dielectric constant tensor:
#      x y z
#    x 1.768990 0.000000 0.000000 
#    y 0.000000 1.786720 0.000000 
#    z 0.000000 0.000000 1.774020 
# 
# From -- ./inp_files/6583.got.cif
#   From: 2010.03.12/outbox.cif.g09.slc.cpg/sg28_4_cif.got.tgz:6583.got - 2010.04.14 03:39:34.
