data_PCOD8168287
_publ_section_title
;
Structure prediction by ZEFSAII (Michael W. Deem and Ramdas Pophale) SiO2 
 PCOD8168287
Probable space group: P M A 2
;
_chemical_formula_sum "Si O2"
_cell_formula_units_Z 24
_cell_length_a 8.817486
_cell_length_b 16.363932
_cell_length_c 9.140456
_cell_angle_alpha 90.000000
_cell_angle_beta 90.000000
_cell_angle_gamma 90.000000
_cell_volume 1318.864891
_symmetry_space_group_name_H-M "P M A 2"
_symmetry_group_IT_number 28
_symmetry_cell_setting 'orthorhombic'
loop_
_space_group_symop_operation_xyz
x,y,z
-x,-y,z
1/2-x,y,z
1/2+x,-y,z
loop_
_atom_site_type_symbol
_atom_site_label
_atom_site_fract_x
_atom_site_fract_y
_atom_site_fract_z
Si Si1 0.929082 0.243744 0.846860
Si Si2 0.583086 0.834888 0.272739
Si Si3 0.425647 0.916972 0.023902
Si Si4 0.570377 0.731609 0.534787
Si Si5 0.930418 0.415017 0.360558
Si Si6 0.579618 0.667453 0.097958
O O1 0.750000 0.252000 0.822659
O O2 0.974090 0.157131 0.918774
O O3 0.018334 0.248265 0.696609
O O4 0.986090 0.318126 0.948751
O O5 0.750000 0.875168 0.275407
O O6 0.528583 0.811631 0.436518
O O7 0.588216 0.750672 0.186210
O O8 0.472394 0.898153 0.192080
O O9 0.250000 0.931553 0.021162
O O10 0.500000 0.000000 0.965466
O O11 0.750000 0.714385 0.526962
O O12 0.481921 0.652859 0.476491
O O13 0.750000 0.418956 0.356555
O O14 0.000000 0.500000 0.416318
O O15 0.992328 0.398400 0.196950
O O16 0.750000 0.636095 0.062196
#
# Coordination Sequence:
#
# PCOD8168287 Si02
#       6
#     4   4   4   4   4   4
#     4  10  20  34  53  79 107 140 177 215 260 313
#     4   8  16  31  51  73  98 129 168 207 249 302
#     4  10  20  33  52  76 103 134 173 217 263 310
#     4  10  20  35  55  79 106 140 176 213 260 316
#     4  11  21  35  55  79 107 138 174 218 262 309
#     4   9  17  32  53  76 101 133 171 210 252 304
#
# _framework density 18.197467
#
# number of rings (size 3 to 8) (size 9 to 14) (size 15 to 20)
#    0.000    2.333    0.000    4.500    0.000    6.667 
#    0.000    1.667    0.000    2.000    0.000    0.000 
#    0.000    0.000    0.000    0.000    0.000    0.000 
#
# Total GULP energy -297553.834378 kJ/mol
# GULP energy per Si atom -12398.076432 kJ/mol
# Density = 1.815605 g / cm^3
# Si number density = 18.197467 Si / 1000 Ang^3
#
#
#
# Elastic Constant Matrix: (Units=GPa)
#
#
# Indices 1 2 3 4 5 6 
#
# 1 106.9725 44.5042 36.9167 0.0000 0.0000 0.0000
# 2 44.5042 76.4673 30.9172 0.0000 0.0000 0.0000
# 3 36.9167 30.9172 109.5429 0.0000 0.0000 0.0000
# 4 0.0000 0.0000 0.0000 15.4852 0.0000 0.0000
# 5 0.0000 0.0000 0.0000 0.0000 31.9399 0.0000
# 6 0.0000 0.0000 0.0000 0.0000 0.0000 29.9983
#
#
#
# Elastic Compliance Matrix: (Units=1/GPa)
#
#
# Indices 1 2 3 4 5 6 
#
# 1 0.012923 -0.006502 -0.002520 0.000000 0.000000 0.000000
# 2 -0.006502 0.018034 -0.002898 0.000000 0.000000 0.000000
# 3 -0.002520 -0.002898 0.010796 0.000000 0.000000 0.000000
# 4 0.000000 0.000000 0.000000 0.064578 0.000000 0.000000
# 5 0.000000 0.000000 0.000000 0.000000 0.031309 0.000000
# 6 0.000000 0.000000 0.000000 0.000000 0.000000 0.033335
#
#
# Mechanical properties :
#
#
# Convention : Reuss Voigt Hill
#
# Bulk Modulus (GPa) = 55.83041 57.51766 56.67404
# Shear Modulus (GPa) = 24.90202 27.52765 26.21484
#
# Velocity S-wave (km/s) = 3.70325 3.89359 3.79961
# Velocity P-wave (km/s) = 7.00231 7.20344 7.10358
#
# Compressibility (1/GPa) = 0.01791139
#
# Stress axis : x y z
#
# Youngs Moduli (GPa) = 77.38110 55.45143 92.62569
#
# Poissons Ratio (x) = 0.36057 0.23341
# Poissons Ratio (y) = 0.50316 0.26847
# Poissons Ratio (z) = 0.19500 0.16072
#
# Static dielectric constant tensor:
#      x y z
#    x 3.494280 0.000000 0.000000 
#    y 0.000000 3.314240 0.000000 
#    z 0.000000 0.000000 3.446500 
# 
# 
# High freq. dielectric constant tensor:
#      x y z
#    x 1.720270 0.000000 0.000000 
#    y 0.000000 1.684340 0.000000 
#    z 0.000000 0.000000 1.696870 
# 
# From -- ./inp_files/2469.got.cif
#   From: 2010.03.12/outbox.cif.g09.slc.cpg/sg28_2_cif.got.tgz:2469.got - 2010.04.14 03:39:34.
