data_PCOD8168565
_publ_section_title
;
Structure prediction by ZEFSAII (Michael W. Deem and Ramdas Pophale) SiO2 
 PCOD8168565
Probable space group: P C A 21
;
_chemical_formula_sum "Si O2"
_cell_formula_units_Z 32
_cell_length_a 15.623441
_cell_length_b 11.759868
_cell_length_c 8.436162
_cell_angle_alpha 90.000000
_cell_angle_beta 90.000000
_cell_angle_gamma 90.000000
_cell_volume 1549.972702
_symmetry_space_group_name_H-M "P C A 21"
_symmetry_group_IT_number 29
_symmetry_cell_setting 'orthorhombic'
loop_
_space_group_symop_operation_xyz
x,y,z
-x,-y,1/2+z
1/2-x,y,1/2+z
1/2+x,-y,z
loop_
_atom_site_type_symbol
_atom_site_label
_atom_site_fract_x
_atom_site_fract_y
_atom_site_fract_z
Si Si1 0.992406 0.112171 0.456660
Si Si2 0.086851 0.084317 0.132036
Si Si3 0.285907 0.446973 0.871028
Si Si4 0.765186 0.009645 0.829022
Si Si5 0.709795 0.387940 0.617708
Si Si6 0.190386 0.298008 0.097720
Si Si7 0.661525 0.871969 0.618253
Si Si8 0.824984 0.239845 0.390372
O O1 0.912116 0.196145 0.468249
O O2 0.026784 0.112502 0.279427
O O3 0.062041 0.155771 0.586142
O O4 0.966183 0.983233 0.500483
O O5 0.168523 0.007266 0.182671
O O6 0.120024 0.203069 0.055856
O O7 0.257887 0.537416 0.744295
O O8 0.337041 0.351189 0.770173
O O9 0.340224 0.521468 0.001617
O O10 0.202307 0.390602 0.958434
O O11 0.678584 0.938209 0.784877
O O12 0.743047 0.140616 0.852231
O O13 0.808976 0.959265 0.982809
O O14 0.781235 0.323315 0.514963
O O15 0.652101 0.300757 0.720471
O O16 0.285478 0.244555 0.117269
#
# Coordination Sequence:
#
# PCOD8168565 Si02
#       8
#     4   4   4   4   4   4   4   4
#     4  11  22  34  51  82 123 150 172 213 269 330
#     4  10  22  35  52  83 115 146 180 216 261 325
#     4   9  18  34  59  82  98 127 190 246 263 296
#     4  10  19  33  53  78 108 148 188 218 254 319
#     4   9  20  34  55  80 101 135 186 234 272 314
#     4  10  18  35  60  80 104 141 183 221 267 315
#     4  10  20  33  53  83 112 142 180 217 262 326
#     4  11  19  34  55  78 111 147 179 219 276 327
#
# _framework density 20.645526
#
# number of rings (size 3 to 8) (size 9 to 14) (size 15 to 20)
#    0.000    2.000    0.000    6.000    0.000    2.000 
#    0.000    0.000    0.000   24.000    0.000    0.000 
#    0.000    0.000    0.000    0.000    0.000    0.000 
#
# Total GULP energy -396451.683385 kJ/mol
# GULP energy per Si atom -12389.115106 kJ/mol
# Density = 2.059854 g / cm^3
# Si number density = 20.645526 Si / 1000 Ang^3
#
#
#
# Elastic Constant Matrix: (Units=GPa)
#
#
# Indices 1 2 3 4 5 6 
#
# 1 66.8241 28.1820 9.4080 0.0000 0.0000 0.0000
# 2 28.1820 105.5984 34.2221 0.0000 0.0000 0.0000
# 3 9.4080 34.2221 54.4208 0.0000 0.0000 0.0000
# 4 0.0000 0.0000 0.0000 49.6891 0.0000 0.0000
# 5 0.0000 0.0000 0.0000 0.0000 28.2214 0.0000
# 6 0.0000 0.0000 0.0000 0.0000 0.0000 11.1637
#
#
#
# Elastic Compliance Matrix: (Units=1/GPa)
#
#
# Indices 1 2 3 4 5 6 
#
# 1 0.016863 -0.004466 -0.000107 0.000000 0.000000 0.000000
# 2 -0.004466 0.013076 -0.007451 0.000000 0.000000 0.000000
# 3 -0.000107 -0.007451 0.023079 0.000000 0.000000 0.000000
# 4 0.000000 0.000000 0.000000 0.020125 0.000000 0.000000
# 5 0.000000 0.000000 0.000000 0.000000 0.035434 0.000000
# 6 0.000000 0.000000 0.000000 0.000000 0.000000 0.089576
#
#
# Mechanical properties :
#
#
# Convention : Reuss Voigt Hill
#
# Bulk Modulus (GPa) = 34.51680 41.16307 37.83993
# Shear Modulus (GPa) = 21.56487 28.15024 24.85756
#
# Velocity S-wave (km/s) = 3.23543 3.69657 3.47366
# Velocity P-wave (km/s) = 5.54187 6.18068 5.86997
#
# Compressibility (1/GPa) = 0.02897140
#
# Stress axis : x y z
#
# Youngs Moduli (GPa) = 59.30115 76.47398 43.32892
#
# Poissons Ratio (x) = 0.34151 0.00463
# Poissons Ratio (y) = 0.26482 0.32284
# Poissons Ratio (z) = 0.00634 0.56980
#
# Static dielectric constant tensor:
#      x y z
#    x 3.566790 0.000000 0.000000 
#    y 0.000000 4.238890 0.000000 
#    z 0.000000 0.000000 4.446750 
# 
# 
# High freq. dielectric constant tensor:
#      x y z
#    x 1.752950 0.000000 0.000000 
#    y 0.000000 1.817600 0.000000 
#    z 0.000000 0.000000 1.832490 
# 
# From -- ./inp_files/1837.got.cif
#   From: 2010.03.12/outbox.cif.g09.slc.cpg/sg29_1_cif.got.tgz:1837.got - 2010.04.14 03:43:10.
