data_PCOD8168255
_publ_section_title
;
Structure prediction by ZEFSAII (Michael W. Deem and Ramdas Pophale) SiO2 
 PCOD8168255
Probable space group: P M A 2
;
_chemical_formula_sum "Si O2"
_cell_formula_units_Z 28
_cell_length_a 8.689193
_cell_length_b 9.432121
_cell_length_c 17.840822
_cell_angle_alpha 90.000000
_cell_angle_beta 90.000000
_cell_angle_gamma 90.000000
_cell_volume 1462.189522
_symmetry_space_group_name_H-M "P M A 2"
_symmetry_group_IT_number 28
_symmetry_cell_setting 'orthorhombic'
loop_
_space_group_symop_operation_xyz
x,y,z
-x,-y,z
1/2-x,y,z
1/2+x,-y,z
loop_
_atom_site_type_symbol
_atom_site_label
_atom_site_fract_x
_atom_site_fract_y
_atom_site_fract_z
Si Si1 0.067841 0.657210 0.998960
Si Si2 0.572498 0.348963 0.836646
Si Si3 0.570254 0.351258 0.249553
Si Si4 0.567841 0.342790 0.674333
Si Si5 0.931802 0.845172 0.128899
Si Si6 0.068198 0.154828 0.544393
Si Si7 0.429746 0.648742 0.423739
O O1 0.250000 0.652931 0.014975
O O2 0.029835 0.725826 0.916028
O O3 0.000000 0.500000 0.005766
O O4 0.984642 0.755370 0.058080
O O5 0.500000 0.500000 0.836646
O O6 0.750000 0.380592 0.836646
O O7 0.529835 0.274174 0.757264
O O8 0.500000 0.500000 0.222089
O O9 0.750000 0.353574 0.231641
O O10 0.490954 0.223934 0.205616
O O11 0.535315 0.325890 0.336646
O O12 0.500000 0.500000 0.667527
O O13 0.750000 0.347069 0.658318
O O14 0.484642 0.244630 0.615213
O O15 0.750000 0.854253 0.131143
O O16 0.000000 0.000000 0.121316
O O17 0.250000 0.145747 0.542149
O O18 0.009046 0.223934 0.467676
O O19 0.000000 0.000000 0.551976
O O20 0.500000 0.500000 0.451204
O O21 0.250000 0.646426 0.441652
#
# Coordination Sequence:
#
# PCOD8168255 Si02
#       7
#     4   4   4   4   4   4   4
#     4  10  19  35  58  85 114 146 186 230 277 328
#     4   8  16  30  53  82 111 142 180 228 276 324
#     4  10  21  39  63  89 115 145 183 227 274 325
#     4  10  19  35  58  85 114 146 186 230 277 328
#     4  12  25  40  57  80 112 150 189 230 278 331
#     4  12  25  40  57  80 112 150 189 230 278 331
#     4  10  21  39  63  89 115 145 183 227 274 325
#
# _framework density 19.149363999999998
#
# number of rings (size 3 to 8) (size 9 to 14) (size 15 to 20)
#    0.000    1.714    0.000    5.143    0.000    3.429 
#    0.000    0.714    0.000    0.000    0.000    0.000 
#    0.000    0.000    0.000    0.000    0.000    0.000 
#
# Total GULP energy -347079.901649 kJ/mol
# GULP energy per Si atom -12395.710773 kJ/mol
# Density = 1.910578 g / cm^3
# Si number density = 19.149364 Si / 1000 Ang^3
#
#
#
# Elastic Constant Matrix: (Units=GPa)
#
#
# Indices 1 2 3 4 5 6 
#
# 1 133.6270 53.7547 62.9825 0.0000 0.0000 0.0000
# 2 53.7547 114.3584 65.4495 0.0000 0.0000 0.0000
# 3 62.9825 65.4495 126.4681 0.0000 0.0000 0.0000
# 4 0.0000 0.0000 0.0000 -0.3104 0.0000 0.0000
# 5 0.0000 0.0000 0.0000 0.0000 21.2775 0.0000
# 6 0.0000 0.0000 0.0000 0.0000 0.0000 35.4426
#
#
#
# Elastic Compliance Matrix: (Units=1/GPa)
#
#
# Indices 1 2 3 4 5 6 
#
# 1 0.010341 -0.002719 -0.003743 0.000000 0.000000 0.000000
# 2 -0.002719 0.013139 -0.005446 0.000000 0.000000 0.000000
# 3 -0.003743 -0.005446 0.012590 0.000000 0.000000 0.000000
# 4 0.000000 0.000000 0.000000 -3.222070 0.000000 0.000000
# 5 0.000000 0.000000 0.000000 0.000000 0.046998 0.000000
# 6 0.000000 0.000000 0.000000 0.000000 0.000000 0.028215
#
#
# Mechanical properties :
#
#
# Convention : Reuss Voigt Hill
#
# Bulk Modulus (GPa) = 81.60088 82.09189 81.84638
# Shear Modulus (GPa) = -1.62186 24.09973 11.23894
#
# Velocity S-wave (km/s) = -0.92130 3.55140 2.42525
# Velocity P-wave (km/s) = 6.44776 7.73168 7.11873
#
# Compressibility (1/GPa) = 0.01225477
#
# Stress axis : x y z
#
# Youngs Moduli (GPa) = 96.69795 76.10856 79.43099
#
# Poissons Ratio (x) = 0.20692 0.29732
# Poissons Ratio (y) = 0.26290 0.43256
# Poissons Ratio (z) = 0.36196 0.41447
#
# Static dielectric constant tensor:
#      x y z
#    x 3.719970 0.000000 0.000000 
#    y 0.000000 3.309080 0.000000 
#    z 0.000000 0.000000 4.220940 
# 
# 
# High freq. dielectric constant tensor:
#      x y z
#    x 1.763930 0.000000 0.000000 
#    y 0.000000 1.719260 0.000000 
#    z 0.000000 0.000000 1.771600 
# 
# From -- ./inp_files/6710.got.cif
#   From: 2010.03.12/outbox.cif.g09.slc.cpg/sg28_4_cif.got.tgz:6710.got - 2010.04.14 03:39:34.
