data_PCOD8168401
_publ_section_title
;
Structure prediction by ZEFSAII (Michael W. Deem and Ramdas Pophale) SiO2 
 PCOD8168401
Probable space group: P M A 2
;
_chemical_formula_sum "Si O2"
_cell_formula_units_Z 24
_cell_length_a 8.516169
_cell_length_b 9.549322
_cell_length_c 15.025232
_cell_angle_alpha 90.000000
_cell_angle_beta 90.000000
_cell_angle_gamma 90.000000
_cell_volume 1221.906558
_symmetry_space_group_name_H-M "P M A 2"
_symmetry_group_IT_number 28
_symmetry_cell_setting 'orthorhombic'
loop_
_space_group_symop_operation_xyz
x,y,z
-x,-y,z
1/2-x,y,z
1/2+x,-y,z
loop_
_atom_site_type_symbol
_atom_site_label
_atom_site_fract_x
_atom_site_fract_y
_atom_site_fract_z
Si Si1 0.934478 0.147308 0.632640
Si Si2 0.564025 0.345242 0.788051
Si Si3 0.064502 0.344554 0.281852
Si Si4 0.436611 0.849308 0.430688
Si Si5 0.435386 0.149710 0.937963
Si Si6 0.935437 0.148539 0.131687
O O1 0.750000 0.135937 0.636049
O O2 0.995911 0.267267 0.698852
O O3 0.989485 0.180305 0.532226
O O4 0.000000 0.000000 0.666783
O O5 0.500000 0.500000 0.783284
O O6 0.750000 0.345709 0.794657
O O7 0.495646 0.271187 0.874525
O O8 0.250000 0.344211 0.267886
O O9 0.000000 0.500000 0.286842
O O10 0.020033 0.269267 0.373448
O O11 0.981790 0.268873 0.199680
O O12 0.250000 0.843519 0.417230
O O13 0.500000 0.000000 0.399455
O O14 0.250000 0.143546 0.936362
O O15 0.500000 0.000000 0.905479
O O16 0.492400 0.186526 0.036594
O O17 0.750000 0.138077 0.122534
O O18 0.000000 0.000000 0.166950
#
# Coordination Sequence:
#
# PCOD8168401 Si02
#       6
#     4   4   4   4   4   4
#     4   9  20  37  60  86 115 149 193 240 287 339
#     4  11  23  39  57  84 118 156 195 238 289 345
#     4  12  25  41  59  85 118 155 193 237 289 346
#     4  10  20  38  61  88 117 152 194 240 287 339
#     4  11  22  39  62  89 117 151 192 239 287 340
#     4  11  22  40  64  90 117 151 192 238 285 339
#
# _framework density 19.641437
#
# number of rings (size 3 to 8) (size 9 to 14) (size 15 to 20)
#    0.000    1.333    0.000    7.500    0.000    4.667 
#    0.000    5.000    0.000    0.000    0.000    0.000 
#    0.000    0.000    0.000    0.000    0.000    0.000 
#
# Total GULP energy -297720.685828 kJ/mol
# GULP energy per Si atom -12405.028576 kJ/mol
# Density = 1.959673 g / cm^3
# Si number density = 19.641437 Si / 1000 Ang^3
#
#
#
# Elastic Constant Matrix: (Units=GPa)
#
#
# Indices 1 2 3 4 5 6 
#
# 1 44.8182 27.3611 13.7922 0.0000 0.0000 0.0000
# 2 27.3611 168.2327 85.1529 0.0000 0.0000 0.0000
# 3 13.7922 85.1529 108.8305 0.0000 0.0000 0.0000
# 4 0.0000 0.0000 0.0000 18.9964 0.0000 0.0000
# 5 0.0000 0.0000 0.0000 0.0000 28.3043 0.0000
# 6 0.0000 0.0000 0.0000 0.0000 0.0000 38.1218
#
#
#
# Elastic Compliance Matrix: (Units=1/GPa)
#
#
# Indices 1 2 3 4 5 6 
#
# 1 0.024772 -0.004040 0.000021 0.000000 0.000000 0.000000
# 2 -0.004040 0.010501 -0.007704 0.000000 0.000000 0.000000
# 3 0.000021 -0.007704 0.015214 0.000000 0.000000 0.000000
# 4 0.000000 0.000000 0.000000 0.052642 0.000000 0.000000
# 5 0.000000 0.000000 0.000000 0.000000 0.035330 0.000000
# 6 0.000000 0.000000 0.000000 0.000000 0.000000 0.026232
#
#
# Mechanical properties :
#
#
# Convention : Reuss Voigt Hill
#
# Bulk Modulus (GPa) = 36.97995 63.83263 50.40629
# Shear Modulus (GPa) = 25.36152 30.12284 27.74218
#
# Velocity S-wave (km/s) = 3.59726 3.92042 3.76231
# Velocity P-wave (km/s) = 6.01017 7.28439 6.67774
#
# Compressibility (1/GPa) = 0.02704168
#
# Stress axis : x y z
#
# Youngs Moduli (GPa) = 40.36823 95.23152 65.72930
#
# Poissons Ratio (x) = 0.38471 -0.00141
# Poissons Ratio (y) = 0.16308 0.50639
# Poissons Ratio (z) = -0.00087 0.73368
#
# Static dielectric constant tensor:
#      x y z
#    x 3.728290 0.000000 0.000000 
#    y 0.000000 3.665390 0.000000 
#    z 0.000000 0.000000 3.860980 
# 
# 
# High freq. dielectric constant tensor:
#      x y z
#    x 1.782180 0.000000 0.000000 
#    y 0.000000 1.765930 0.000000 
#    z 0.000000 0.000000 1.779970 
# 
# From -- ./inp_files/6097.got.cif
#   From: 2010.03.12/outbox.cif.g09.slc.cpg/sg28_4_cif.got.tgz:6097.got - 2010.04.14 03:39:34.
