data_PCOD8168863
_publ_section_title
;
Structure prediction by ZEFSAII (Michael W. Deem and Ramdas Pophale) SiO2 
 PCOD8168863
Probable space group: P C A 21
;
_chemical_formula_sum "Si O2"
_cell_formula_units_Z 32
_cell_length_a 8.617605
_cell_length_b 19.079129
_cell_length_c 8.668956
_cell_angle_alpha 90.000000
_cell_angle_beta 90.000000
_cell_angle_gamma 90.000000
_cell_volume 1425.318515
_symmetry_space_group_name_H-M "P C A 21"
_symmetry_group_IT_number 29
_symmetry_cell_setting 'orthorhombic'
loop_
_space_group_symop_operation_xyz
x,y,z
-x,-y,1/2+z
1/2-x,y,1/2+z
1/2+x,-y,z
loop_
_atom_site_type_symbol
_atom_site_label
_atom_site_fract_x
_atom_site_fract_y
_atom_site_fract_z
Si Si1 0.610750 0.349473 0.228770
Si Si2 0.698147 0.259208 0.961722
Si Si3 0.539964 0.963877 0.202302
Si Si4 0.034392 0.124091 0.721844
Si Si5 0.794363 0.482414 0.112639
Si Si6 0.319805 0.834929 0.199607
Si Si7 0.239262 0.096915 0.465639
Si Si8 0.925345 0.554587 0.403557
O O1 0.582849 0.293848 0.089489
O O2 0.728819 0.318750 0.354283
O O3 0.678065 0.418976 0.147624
O O4 0.449479 0.369701 0.317785
O O5 0.834527 0.216174 0.051730
O O6 0.608539 0.203563 0.851072
O O7 0.401424 0.908370 0.171593
O O8 0.662862 0.959169 0.064715
O O9 0.624230 0.948819 0.362490
O O10 0.466166 0.039764 0.210795
O O11 0.134610 0.148313 0.572516
O O12 0.865492 0.156922 0.727958
O O13 0.138211 0.144760 0.870554
O O14 0.883987 0.499588 0.269365
O O15 0.699102 0.549735 0.042768
O O16 0.907172 0.462350 0.973550
#
# Coordination Sequence:
#
# PCOD8168863 Si02
#       8
#     4   4   4   4   4   4   4   4
#     4  11  21  40  64  93 131 172 212 262 318 362
#     4  10  23  39  62  91 120 175 223 265 293 373
#     4  11  22  38  60  91 123 155 196 267 335 389
#     4  11  22  38  60  92 125 152 196 264 337 391
#     4  12  22  38  66 106 135 175 208 274 327 378
#     4  11  22  40  66  92 116 160 233 265 300 405
#     4  10  22  35  54  85 119 157 174 238 342 390
#     4  12  22  38  64 102 141 170 218 265 336 376
#
# _framework density 22.451122000000002
#
# number of rings (size 3 to 8) (size 9 to 14) (size 15 to 20)
#    0.000    1.000    3.750    3.750    0.000    2.000 
#    0.000    0.000    0.000   22.500    0.000    0.000 
#    0.000    0.000    0.000    0.000    0.000    0.000 
#
# Total GULP energy -396510.317663 kJ/mol
# GULP energy per Si atom -12390.947427 kJ/mol
# Density = 2.240002 g / cm^3
# Si number density = 22.451122 Si / 1000 Ang^3
#
#
#
# Elastic Constant Matrix: (Units=GPa)
#
#
# Indices 1 2 3 4 5 6 
#
# 1 81.5838 9.8305 26.9402 0.0000 0.0000 0.0000
# 2 9.8305 63.4429 20.3465 0.0000 0.0000 0.0000
# 3 26.9402 20.3465 123.4638 0.0000 0.0000 0.0000
# 4 0.0000 0.0000 0.0000 24.8299 0.0000 0.0000
# 5 0.0000 0.0000 0.0000 0.0000 33.5262 0.0000
# 6 0.0000 0.0000 0.0000 0.0000 0.0000 25.0283
#
#
#
# Elastic Compliance Matrix: (Units=1/GPa)
#
#
# Indices 1 2 3 4 5 6 
#
# 1 0.013294 -0.001193 -0.002704 0.000000 0.000000 0.000000
# 2 -0.001193 0.016749 -0.002500 0.000000 0.000000 0.000000
# 3 -0.002704 -0.002500 0.009102 0.000000 0.000000 0.000000
# 4 0.000000 0.000000 0.000000 0.040274 0.000000 0.000000
# 5 0.000000 0.000000 0.000000 0.000000 0.029827 0.000000
# 6 0.000000 0.000000 0.000000 0.000000 0.000000 0.039955
#
#
# Mechanical properties :
#
#
# Convention : Reuss Voigt Hill
#
# Bulk Modulus (GPa) = 37.94957 42.52498 40.23728
# Shear Modulus (GPa) = 29.27781 30.76843 30.02312
#
# Velocity S-wave (km/s) = 3.61511 3.70599 3.66083
# Velocity P-wave (km/s) = 5.86219 6.10694 5.98582
#
# Compressibility (1/GPa) = 0.02635076
#
# Stress axis : x y z
#
# Youngs Moduli (GPa) = 75.22177 59.70599 109.87081
#
# Poissons Ratio (x) = 0.07121 0.29712
# Poissons Ratio (y) = 0.08971 0.27467
# Poissons Ratio (z) = 0.20342 0.14926
#
# Static dielectric constant tensor:
#      x y z
#    x 3.960310 0.000000 0.000000 
#    y 0.000000 3.887640 0.000000 
#    z 0.000000 0.000000 4.657380 
# 
# 
# High freq. dielectric constant tensor:
#      x y z
#    x 1.863930 0.000000 0.000000 
#    y 0.000000 1.851150 0.000000 
#    z 0.000000 0.000000 1.923660 
# 
# From -- ./inp_files/1281.got.cif
#   From: 2010.03.12/outbox.cif.g09.slc.cpg/sg29_1_cif.got.tgz:1281.got - 2010.04.14 03:43:10.
