data_PCOD8168758
_publ_section_title
;
Structure prediction by ZEFSAII (Michael W. Deem and Ramdas Pophale) SiO2 
 PCOD8168758
Probable space group: P C A 21
;
_chemical_formula_sum "Si O2"
_cell_formula_units_Z 32
_cell_length_a 22.904248
_cell_length_b 5.062231
_cell_length_c 10.873571
_cell_angle_alpha 90.000000
_cell_angle_beta 90.000000
_cell_angle_gamma 90.000000
_cell_volume 1260.753525
_symmetry_space_group_name_H-M "P C A 21"
_symmetry_group_IT_number 29
_symmetry_cell_setting 'orthorhombic'
loop_
_space_group_symop_operation_xyz
x,y,z
-x,-y,1/2+z
1/2-x,y,1/2+z
1/2+x,-y,z
loop_
_atom_site_type_symbol
_atom_site_label
_atom_site_fract_x
_atom_site_fract_y
_atom_site_fract_z
Si Si1 0.231246 0.934503 0.147390
Si Si2 0.428560 0.301529 0.998415
Si Si3 0.674960 0.555100 0.049327
Si Si4 0.953840 0.482307 0.603040
Si Si5 0.408001 0.995804 0.250135
Si Si6 0.162249 0.633331 0.603714
Si Si7 0.297723 0.274043 0.303978
Si Si8 0.534767 0.981474 0.267992
O O1 0.197315 0.655649 0.150408
O O2 0.293538 0.878213 0.073384
O O3 0.187079 0.142575 0.087051
O O4 0.248855 0.042644 0.284360
O O5 0.493154 0.431204 0.007628
O O6 0.417103 0.140577 0.120507
O O7 0.375830 0.520438 0.989010
O O8 0.423581 0.109519 0.880005
O O9 0.606600 0.495969 0.028124
O O10 0.711477 0.528180 0.919680
O O11 0.964030 0.769246 0.659773
O O12 0.948283 0.267053 0.713557
O O13 0.360502 0.141511 0.334248
O O14 0.384425 0.707550 0.211410
O O15 0.468793 0.987265 0.322988
O O16 0.203417 0.415067 0.670197
#
# Coordination Sequence:
#
# PCOD8168758 Si02
#       8
#     4   4   4   4   4   4   4   4
#     4  11  25  48  67 104 136 175 253 299 338 435
#     4  10  23  41  71 101 147 189 226 290 365 421
#     4  12  27  47  72 100 146 188 232 299 372 419
#     4  11  26  45  65 107 148 179 239 292 351 452
#     4   9  21  39  68 103 137 172 247 284 328 446
#     4  10  20  46  70 102 134 177 247 289 331 440
#     4  10  24  45  75  99 131 194 238 295 359 418
#     4  11  24  43  66 106 145 186 222 292 368 415
#
# _framework density 25.381647999999998
#
# number of rings (size 3 to 8) (size 9 to 14) (size 15 to 20)
#    0.000    1.500    2.500    0.750    7.000    2.000 
#    6.750    0.000    0.000    0.000    0.000    0.000 
#    0.000    0.000    0.000    0.000    0.000    0.000 
#
# Total GULP energy -396423.969198 kJ/mol
# GULP energy per Si atom -12388.249037 kJ/mol
# Density = 2.532388 g / cm^3
# Si number density = 25.381648 Si / 1000 Ang^3
#
#
#
# Elastic Constant Matrix: (Units=GPa)
#
#
# Indices 1 2 3 4 5 6 
#
# 1 74.9802 26.0013 -6.5302 0.0000 0.0000 0.0000
# 2 26.0013 99.4139 -0.5672 0.0000 0.0000 0.0000
# 3 -6.5302 -0.5672 36.4419 0.0000 0.0000 0.0000
# 4 0.0000 0.0000 0.0000 29.8454 0.0000 0.0000
# 5 0.0000 0.0000 0.0000 0.0000 19.0824 0.0000
# 6 0.0000 0.0000 0.0000 0.0000 0.0000 44.7564
#
#
#
# Elastic Compliance Matrix: (Units=1/GPa)
#
#
# Indices 1 2 3 4 5 6 
#
# 1 0.014912 -0.003885 0.002612 0.000000 0.000000 0.000000
# 2 -0.003885 0.011072 -0.000524 0.000000 0.000000 0.000000
# 3 0.002612 -0.000524 0.027901 0.000000 0.000000 0.000000
# 4 0.000000 0.000000 0.000000 0.033506 0.000000 0.000000
# 5 0.000000 0.000000 0.000000 0.000000 0.052404 0.000000
# 6 0.000000 0.000000 0.000000 0.000000 0.000000 0.022343
#
#
# Mechanical properties :
#
#
# Convention : Reuss Voigt Hill
#
# Bulk Modulus (GPa) = 19.88482 27.62709 23.75596
# Shear Modulus (GPa) = 27.39785 31.53231 29.46508
#
# Velocity S-wave (km/s) = 3.28904 3.52849 3.41087
# Velocity P-wave (km/s) = 4.71965 5.24487 4.98917
#
# Compressibility (1/GPa) = 0.05028961
#
# Stress axis : x y z
#
# Youngs Moduli (GPa) = 67.06201 90.31698 35.84130
#
# Poissons Ratio (x) = 0.35090 -0.09360
# Poissons Ratio (y) = 0.26055 0.01878
# Poissons Ratio (z) = -0.17514 0.04731
#
# Static dielectric constant tensor:
#      x y z
#    x 5.081960 0.000000 0.000000 
#    y 0.000000 4.826680 0.000000 
#    z 0.000000 0.000000 3.962440 
# 
# 
# High freq. dielectric constant tensor:
#      x y z
#    x 2.022880 0.000000 0.000000 
#    y 0.000000 2.028280 0.000000 
#    z 0.000000 0.000000 1.963160 
# 
# From -- ./inp_files/3958.got.cif
#   From: 2010.03.12/outbox.cif.g09.slc.cpg/sg29_2_cif.got.tgz:3958.got - 2010.04.14 03:43:10.
