data_PCOD8168812
_publ_section_title
;
Structure prediction by ZEFSAII (Michael W. Deem and Ramdas Pophale) SiO2 
 PCOD8168812
Probable space group: P C A 21
;
_chemical_formula_sum "Si O2"
_cell_formula_units_Z 28
_cell_length_a 5.266866
_cell_length_b 18.968896
_cell_length_c 13.449003
_cell_angle_alpha 90.000000
_cell_angle_beta 90.000000
_cell_angle_gamma 90.000000
_cell_volume 1343.644612
_symmetry_space_group_name_H-M "P C A 21"
_symmetry_group_IT_number 29
_symmetry_cell_setting 'orthorhombic'
loop_
_space_group_symop_operation_xyz
x,y,z
-x,-y,1/2+z
1/2-x,y,1/2+z
1/2+x,-y,z
loop_
_atom_site_type_symbol
_atom_site_label
_atom_site_fract_x
_atom_site_fract_y
_atom_site_fract_z
Si Si1 0.042950 0.289890 0.873920
Si Si2 0.025067 0.044266 0.711144
Si Si3 0.544629 0.303197 0.995713
Si Si4 0.047021 0.615651 0.195729
Si Si5 0.546647 0.141400 0.029689
Si Si6 0.544770 0.871959 0.908894
Si Si7 0.621880 0.482326 0.791476
O O1 0.785803 0.317302 0.925718
O O2 0.035039 0.205876 0.862467
O O3 0.284974 0.315501 0.936528
O O4 0.065739 0.321959 0.763969
O O5 0.010004 0.070993 0.823371
O O6 0.989310 0.110324 0.638701
O O7 0.799993 0.989188 0.690843
O O8 0.562577 0.359686 0.083297
O O9 0.549652 0.225307 0.041809
O O10 0.885867 0.543078 0.203859
O O11 0.328327 0.593888 0.240652
O O12 0.814580 0.115408 0.985403
O O13 0.315966 0.115290 0.960444
O O14 0.366636 0.490730 0.856894
#
# Coordination Sequence:
#
# PCOD8168812 Si02
#       7
#     4   4   4   4   4   4   4
#     4  10  23  37  62  89 108 151 198 230 288 342
#     4  12  25  38  62  91 112 156 198 218 284 353
#     4  10  23  37  62  89 108 151 198 230 288 342
#     4  10  21  40  60  77 126 146 188 246 280 331
#     4  10  22  42  59  85 121 147 187 244 283 327
#     4  10  22  42  59  85 121 147 187 244 283 327
#     4   8  20  34  56  80 112 158 182 222 302 332
#
# _framework density 20.838842
#
# number of rings (size 3 to 8) (size 9 to 14) (size 15 to 20)
#    0.857    1.143    0.000    2.571    4.000    3.429 
#    0.000   12.857    0.000    0.000    0.000    0.000 
#    0.000    0.000    0.000    0.000    0.000    0.000 
#
# Total GULP energy -346904.075450 kJ/mol
# GULP energy per Si atom -12389.431266 kJ/mol
# Density = 2.079141 g / cm^3
# Si number density = 20.838842 Si / 1000 Ang^3
#
#
#
# Elastic Constant Matrix: (Units=GPa)
#
#
# Indices 1 2 3 4 5 6 
#
# 1 133.5385 7.2389 12.6923 0.0000 0.0000 0.0000
# 2 7.2389 51.3488 22.2335 0.0000 0.0000 0.0000
# 3 12.6923 22.2335 51.8579 0.0000 0.0000 0.0000
# 4 0.0000 0.0000 0.0000 16.4839 0.0000 0.0000
# 5 0.0000 0.0000 0.0000 0.0000 17.4883 0.0000
# 6 0.0000 0.0000 0.0000 0.0000 0.0000 23.8231
#
#
#
# Elastic Compliance Matrix: (Units=1/GPa)
#
#
# Indices 1 2 3 4 5 6 
#
# 1 0.007671 -0.000330 -0.001736 0.000000 0.000000 0.000000
# 2 -0.000330 0.023928 -0.010178 0.000000 0.000000 0.000000
# 3 -0.001736 -0.010178 0.024072 0.000000 0.000000 0.000000
# 4 0.000000 0.000000 0.000000 0.060665 0.000000 0.000000
# 5 0.000000 0.000000 0.000000 0.000000 0.057181 0.000000
# 6 0.000000 0.000000 0.000000 0.000000 0.000000 0.041976
#
#
# Mechanical properties :
#
#
# Convention : Reuss Voigt Hill
#
# Bulk Modulus (GPa) = 32.06832 35.67497 33.87165
# Shear Modulus (GPa) = 19.96990 24.53111 22.25050
#
# Velocity S-wave (km/s) = 3.09900 3.43473 3.27118
# Velocity P-wave (km/s) = 5.31293 5.73467 5.52782
#
# Compressibility (1/GPa) = 0.03118342
#
# Stress axis : x y z
#
# Youngs Moduli (GPa) = 130.35480 41.79169 41.54163
#
# Poissons Ratio (x) = 0.01378 0.07213
# Poissons Ratio (y) = 0.04298 0.42282
# Poissons Ratio (z) = 0.22633 0.42537
#
# Static dielectric constant tensor:
#      x y z
#    x 4.130000 0.000000 0.000000 
#    y 0.000000 3.783100 0.000000 
#    z 0.000000 0.000000 3.361240 
# 
# 
# High freq. dielectric constant tensor:
#      x y z
#    x 1.835930 0.000000 0.000000 
#    y 0.000000 1.822660 0.000000 
#    z 0.000000 0.000000 1.786650 
# 
# From -- ./inp_files/2696.got.cif
#   From: 2010.03.12/outbox.cif.g09.slc.cpg/sg29_2_cif.got.tgz:2696.got - 2010.04.14 03:43:10.
