data_PCOD8168031
_publ_section_title
;
Structure prediction by ZEFSAII (Michael W. Deem and Ramdas Pophale) SiO2 
 PCOD8168031
Probable space group: P M A 2
;
_chemical_formula_sum "Si O2"
_cell_formula_units_Z 32
_cell_length_a 8.495306
_cell_length_b 14.178038
_cell_length_c 15.559183
_cell_angle_alpha 90.000000
_cell_angle_beta 90.000000
_cell_angle_gamma 90.000000
_cell_volume 1874.053356
_symmetry_space_group_name_H-M "P M A 2"
_symmetry_group_IT_number 28
_symmetry_cell_setting 'orthorhombic'
loop_
_space_group_symop_operation_xyz
x,y,z
-x,-y,z
1/2-x,y,z
1/2+x,-y,z
loop_
_atom_site_type_symbol
_atom_site_label
_atom_site_fract_x
_atom_site_fract_y
_atom_site_fract_z
Si Si1 0.564542 0.895108 0.285160
Si Si2 0.934467 0.401771 0.523343
Si Si3 0.065802 0.104314 0.617455
Si Si4 0.933531 0.896455 0.935000
Si Si5 0.935835 0.601328 0.710502
Si Si6 0.566717 0.213054 0.777799
Si Si7 0.066495 0.221861 0.448032
Si Si8 0.435286 0.894936 0.109446
O O1 0.750000 0.901968 0.285681
O O2 0.504238 0.829377 0.362399
O O3 0.506651 0.847771 0.195538
O O4 0.500000 0.000000 0.297692
O O5 0.750000 0.410843 0.542470
O O6 0.000000 0.500000 0.485057
O O7 0.024290 0.377797 0.611457
O O8 0.969524 0.318837 0.456075
O O9 0.250000 0.103775 0.640059
O O10 0.030520 0.153392 0.527184
O O11 0.972838 0.160165 0.690006
O O12 0.000000 0.000000 0.611859
O O13 0.750000 0.906472 0.950998
O O14 0.966858 0.830046 0.854881
O O15 0.000000 0.000000 0.915107
O O16 0.009660 0.847306 0.020109
O O17 0.750000 0.607570 0.723323
O O18 0.000000 0.500000 0.739431
O O19 0.020482 0.677629 0.770423
O O20 0.750000 0.202244 0.798392
O O21 0.250000 0.246743 0.442087
O O22 0.250000 0.893286 0.117160
O O23 0.500000 0.000000 0.104606
#
# Coordination Sequence:
#
# PCOD8168031 Si02
#       8
#     4   4   4   4   4   4   4   4
#     4  10  19  32  50  74 103 138 173 212 254 301
#     4  11  21  34  54  75  99 131 169 214 261 305
#     4  11  22  35  49  68 100 140 176 212 248 297
#     4  11  21  35  53  75 103 137 173 214 257 306
#     4  11  21  36  55  76 101 131 169 213 260 304
#     4  12  23  36  52  75 102 135 174 212 255 305
#     4  10  21  35  51  72 102 136 174 213 254 302
#     4  10  18  31  50  73 100 132 169 214 257 302
#
# _framework density 17.075286999999999
#
# number of rings (size 3 to 8) (size 9 to 14) (size 15 to 20)
#    0.000    1.250    1.250    9.375    0.000    1.500 
#    0.000    0.000    0.000    0.000    0.000    0.875 
#    0.000    4.000    0.000    0.000    0.000    0.000 
#
# Total GULP energy -396879.162961 kJ/mol
# GULP energy per Si atom -12402.473843 kJ/mol
# Density = 1.703642 g / cm^3
# Si number density = 17.075287 Si / 1000 Ang^3
#
#
#
# Elastic Constant Matrix: (Units=GPa)
#
#
# Indices 1 2 3 4 5 6 
#
# 1 70.4292 15.8208 8.3496 0.0000 0.0000 0.0000
# 2 15.8208 95.3186 37.3849 0.0000 0.0000 0.0000
# 3 8.3496 37.3849 98.2965 0.0000 0.0000 0.0000
# 4 0.0000 0.0000 0.0000 5.1962 0.0000 0.0000
# 5 0.0000 0.0000 0.0000 0.0000 16.3189 0.0000
# 6 0.0000 0.0000 0.0000 0.0000 0.0000 27.4371
#
#
#
# Elastic Compliance Matrix: (Units=1/GPa)
#
#
# Indices 1 2 3 4 5 6 
#
# 1 0.014761 -0.002301 -0.000378 0.000000 0.000000 0.000000
# 2 -0.002301 0.012689 -0.004631 0.000000 0.000000 0.000000
# 3 -0.000378 -0.004631 0.011967 0.000000 0.000000 0.000000
# 4 0.000000 0.000000 0.000000 0.192450 0.000000 0.000000
# 5 0.000000 0.000000 0.000000 0.000000 0.061279 0.000000
# 6 0.000000 0.000000 0.000000 0.000000 0.000000 0.036447
#
#
# Mechanical properties :
#
#
# Convention : Reuss Voigt Hill
#
# Bulk Modulus (GPa) = 40.33025 43.01722 41.67373
# Shear Modulus (GPa) = 14.18528 23.28969 18.73749
#
# Velocity S-wave (km/s) = 2.88540 3.69716 3.31621
# Velocity P-wave (km/s) = 5.89670 6.59339 6.25475
#
# Compressibility (1/GPa) = 0.02479528
#
# Stress axis : x y z
#
# Youngs Moduli (GPa) = 67.74829 78.80654 83.56594
#
# Poissons Ratio (x) = 0.18137 0.03163
# Poissons Ratio (y) = 0.15592 0.38696
# Poissons Ratio (z) = 0.02564 0.36492
#
# Static dielectric constant tensor:
#      x y z
#    x 3.326940 0.000000 0.000000 
#    y 0.000000 3.156970 0.000000 
#    z 0.000000 0.000000 3.514520 
# 
# 
# High freq. dielectric constant tensor:
#      x y z
#    x 1.680170 0.000000 0.000000 
#    y 0.000000 1.637970 0.000000 
#    z 0.000000 0.000000 1.651410 
# 
# From -- ./inp_files/6421.got.cif
#   From: 2010.03.12/outbox.cif.g09.slc.cpg/sg28_4_cif.got.tgz:6421.got - 2010.04.14 03:39:34.
