data_PCOD8168302
_publ_section_title
;
Structure prediction by ZEFSAII (Michael W. Deem and Ramdas Pophale) SiO2 
 PCOD8168302
Probable space group: P M A 2
;
_chemical_formula_sum "Si O2"
_cell_formula_units_Z 24
_cell_length_a 8.867534
_cell_length_b 9.102549
_cell_length_c 15.582319
_cell_angle_alpha 90.000000
_cell_angle_beta 90.000000
_cell_angle_gamma 90.000000
_cell_volume 1257.760579
_symmetry_space_group_name_H-M "P M A 2"
_symmetry_group_IT_number 28
_symmetry_cell_setting 'orthorhombic'
loop_
_space_group_symop_operation_xyz
x,y,z
-x,-y,z
1/2-x,y,z
1/2+x,-y,z
loop_
_atom_site_type_symbol
_atom_site_label
_atom_site_fract_x
_atom_site_fract_y
_atom_site_fract_z
Si Si1 0.073608 0.844096 0.912210
Si Si2 0.427455 0.158807 0.593460
Si Si3 0.073354 0.341092 0.425377
Si Si4 0.926429 0.341913 0.070272
Si Si5 0.426521 0.658525 0.258786
Si Si6 0.072285 0.658749 0.745448
O O1 0.250000 0.869964 0.919829
O O2 0.031813 0.739267 0.833664
O O3 0.009325 0.770360 0.999394
O O4 0.000000 0.000000 0.896255
O O5 0.250000 0.145633 0.609491
O O6 0.466101 0.236476 0.504085
O O7 0.500361 0.252375 0.668332
O O8 0.500000 0.000000 0.592545
O O9 0.250000 0.363463 0.413706
O O10 0.000000 0.500000 0.441568
O O11 0.005780 0.260705 0.339577
O O12 0.750000 0.367137 0.056473
O O13 0.958707 0.271101 0.164863
O O14 0.000000 0.500000 0.058267
O O15 0.500000 0.500000 0.256615
O O16 0.250000 0.647310 0.277152
O O17 0.250000 0.645184 0.730586
O O18 0.000000 0.500000 0.749321
#
# Coordination Sequence:
#
# PCOD8168302 Si02
#       6
#     4   4   4   4   4   4
#     4  10  22  38  55  79 111 145 180 219 266 320
#     4  11  24  40  58  81 111 146 182 223 273 327
#     4  10  20  34  54  80 108 140 180 224 269 319
#     4   9  18  33  53  79 108 139 179 223 267 316
#     4   9  16  28  50  77 106 139 176 222 269 313
#     4  11  23  39  61  86 111 141 180 225 270 321
#
# _framework density 19.081530999999998
#
# number of rings (size 3 to 8) (size 9 to 14) (size 15 to 20)
#    0.000    2.000    0.000    4.500    0.000    8.000 
#    0.000    0.833    0.000    4.000    0.000    0.000 
#    0.000    0.000    0.000    0.000    0.000    0.000 
#
# Total GULP energy -297534.809612 kJ/mol
# GULP energy per Si atom -12397.283734 kJ/mol
# Density = 1.903810 g / cm^3
# Si number density = 19.081531 Si / 1000 Ang^3
#
#
#
# Elastic Constant Matrix: (Units=GPa)
#
#
# Indices 1 2 3 4 5 6 
#
# 1 91.7247 61.5620 84.5592 0.0000 0.0000 0.0000
# 2 61.5620 131.6497 86.1221 0.0000 0.0000 0.0000
# 3 84.5592 86.1221 192.2462 0.0000 0.0000 0.0000
# 4 0.0000 0.0000 0.0000 64.4185 0.0000 0.0000
# 5 0.0000 0.0000 0.0000 0.0000 21.6916 0.0000
# 6 0.0000 0.0000 0.0000 0.0000 0.0000 28.1778
#
#
#
# Elastic Compliance Matrix: (Units=1/GPa)
#
#
# Indices 1 2 3 4 5 6 
#
# 1 0.020616 -0.005246 -0.006718 0.000000 0.000000 0.000000
# 2 -0.005246 0.012080 -0.003104 0.000000 0.000000 0.000000
# 3 -0.006718 -0.003104 0.009547 0.000000 0.000000 0.000000
# 4 0.000000 0.000000 0.000000 0.015523 0.000000 0.000000
# 5 0.000000 0.000000 0.000000 0.000000 0.046101 0.000000
# 6 0.000000 0.000000 0.000000 0.000000 0.000000 0.035489
#
#
# Mechanical properties :
#
#
# Convention : Reuss Voigt Hill
#
# Bulk Modulus (GPa) = 82.59549 97.78970 90.19259
# Shear Modulus (GPa) = 28.81394 35.08275 31.94835
#
# Velocity S-wave (km/s) = 3.89014 4.29251 4.09627
# Velocity P-wave (km/s) = 7.97227 8.71362 8.35118
#
# Compressibility (1/GPa) = 0.01210720
#
# Stress axis : x y z
#
# Youngs Moduli (GPa) = 48.50580 82.78488 104.74396
#
# Poissons Ratio (x) = 0.43427 0.70367
# Poissons Ratio (y) = 0.25445 0.32513
# Poissons Ratio (z) = 0.32586 0.25697
#
# Static dielectric constant tensor:
#      x y z
#    x 3.599150 0.000000 0.000000 
#    y 0.000000 3.247730 0.000000 
#    z 0.000000 0.000000 4.359920 
# 
# 
# High freq. dielectric constant tensor:
#      x y z
#    x 1.751210 0.000000 0.000000 
#    y 0.000000 1.718510 0.000000 
#    z 0.000000 0.000000 1.771230 
# 
# From -- ./inp_files/6028.got.cif
#   From: 2010.03.12/outbox.cif.g09.slc.cpg/sg28_4_cif.got.tgz:6028.got - 2010.04.14 03:39:34.
