data_PCOD8168346
_publ_section_title
;
Structure prediction by ZEFSAII (Michael W. Deem and Ramdas Pophale) SiO2 
 PCOD8168346
Probable space group: P M A 2
;
_chemical_formula_sum "Si O2"
_cell_formula_units_Z 28
_cell_length_a 8.899063
_cell_length_b 18.124104
_cell_length_c 10.346982
_cell_angle_alpha 90.000000
_cell_angle_beta 90.000000
_cell_angle_gamma 90.000000
_cell_volume 1668.839307
_symmetry_space_group_name_H-M "P M A 2"
_symmetry_group_IT_number 28
_symmetry_cell_setting 'orthorhombic'
loop_
_space_group_symop_operation_xyz
x,y,z
-x,-y,z
1/2-x,y,z
1/2+x,-y,z
loop_
_atom_site_type_symbol
_atom_site_label
_atom_site_fract_x
_atom_site_fract_y
_atom_site_fract_z
Si Si1 0.928654 0.921637 0.005680
Si Si2 0.426458 0.922522 0.532664
Si Si3 0.077564 0.290097 0.901986
Si Si4 0.573467 0.170779 0.778672
Si Si5 0.076405 0.710262 0.153378
Si Si6 0.424803 0.860341 0.260552
Si Si7 0.578431 0.577757 0.065467
O O1 0.750000 0.927271 0.003578
O O2 0.979521 0.896844 0.147842
O O3 0.000000 0.000000 0.972587
O O4 0.982851 0.867758 0.893092
O O5 0.250000 0.934386 0.528719
O O6 0.471852 0.863622 0.641644
O O7 0.485378 0.892185 0.395667
O O8 0.500000 0.000000 0.567482
O O9 0.250000 0.266198 0.889276
O O10 0.063487 0.379050 0.926355
O O11 0.983565 0.256981 0.780571
O O12 0.003364 0.251845 0.029054
O O13 0.750000 0.165610 0.804320
O O14 0.250000 0.694849 0.123561
O O15 0.055292 0.770654 0.266645
O O16 0.997280 0.630013 0.177087
O O17 0.250000 0.879641 0.237437
O O18 0.500000 0.500000 0.052958
O O19 0.750000 0.565252 0.104832
#
# Coordination Sequence:
#
# PCOD8168346 Si02
#       7
#     4   4   4   4   4   4   4
#     4  12  23  33  49  71  95 123 162 207 255 308
#     4  10  23  39  53  73  99 132 174 217 263 313
#     4   9  18  30  47  73 102 129 165 204 242 295
#     4  11  21  35  53  72  98 131 168 211 258 307
#     4   9  16  28  49  72 100 132 163 200 248 295
#     4  10  20  36  54  73  99 130 167 210 256 308
#     4   9  17  27  44  73 109 138 165 203 249 299
#
# _framework density 16.778127999999999
#
# number of rings (size 3 to 8) (size 9 to 14) (size 15 to 20)
#    0.857    1.143    1.429    3.429    0.000    4.571 
#    0.000    0.000    0.000    0.000    0.000    1.000 
#    0.000    2.286    0.000    0.000    0.000    0.000 
#
# Total GULP energy -346870.794580 kJ/mol
# GULP energy per Si atom -12388.242664 kJ/mol
# Density = 1.673994 g / cm^3
# Si number density = 16.778128 Si / 1000 Ang^3
#
#
#
# Elastic Constant Matrix: (Units=GPa)
#
#
# Indices 1 2 3 4 5 6 
#
# 1 95.1725 32.4901 25.6264 0.0000 0.0000 0.0000
# 2 32.4901 78.5709 9.3103 0.0000 0.0000 0.0000
# 3 25.6264 9.3103 56.1996 0.0000 0.0000 0.0000
# 4 0.0000 0.0000 0.0000 18.0862 0.0000 0.0000
# 5 0.0000 0.0000 0.0000 0.0000 14.1280 0.0000
# 6 0.0000 0.0000 0.0000 0.0000 0.0000 29.9883
#
#
#
# Elastic Compliance Matrix: (Units=1/GPa)
#
#
# Indices 1 2 3 4 5 6 
#
# 1 0.013674 -0.005014 -0.005405 0.000000 0.000000 0.000000
# 2 -0.005014 0.014821 -0.000169 0.000000 0.000000 0.000000
# 3 -0.005405 -0.000169 0.020286 0.000000 0.000000 0.000000
# 4 0.000000 0.000000 0.000000 0.055291 0.000000 0.000000
# 5 0.000000 0.000000 0.000000 0.000000 0.070781 0.000000
# 6 0.000000 0.000000 0.000000 0.000000 0.000000 0.033346
#
#
# Mechanical properties :
#
#
# Convention : Reuss Voigt Hill
#
# Bulk Modulus (GPa) = 36.22414 40.53295 38.37854
# Shear Modulus (GPa) = 20.95762 23.27492 22.11627
#
# Velocity S-wave (km/s) = 3.53810 3.72858 3.63459
# Velocity P-wave (km/s) = 6.19095 6.53812 6.36690
#
# Compressibility (1/GPa) = 0.02760590
#
# Stress axis : x y z
#
# Youngs Moduli (GPa) = 73.13037 67.47298 49.29465
#
# Poissons Ratio (x) = 0.33831 0.26642
# Poissons Ratio (y) = 0.36668 0.00833
# Poissons Ratio (z) = 0.39524 0.01140
#
# Static dielectric constant tensor:
#      x y z
#    x 3.246600 0.000000 0.000000 
#    y 0.000000 3.253410 0.000000 
#    z 0.000000 0.000000 2.961500 
# 
# 
# High freq. dielectric constant tensor:
#      x y z
#    x 1.661650 0.000000 0.000000 
#    y 0.000000 1.647290 0.000000 
#    z 0.000000 0.000000 1.604950 
# 
# From -- ./inp_files/2655.got.cif
#   From: 2010.03.12/outbox.cif.g09.slc.cpg/sg28_2_cif.got.tgz:2655.got - 2010.04.14 03:39:34.
