data_PCOD8168476
_publ_section_title
;
Structure prediction by ZEFSAII (Michael W. Deem and Ramdas Pophale) SiO2 
 PCOD8168476
Probable space group: P M A 2
;
_chemical_formula_sum "Si O2"
_cell_formula_units_Z 20
_cell_length_a 9.962185
_cell_length_b 7.460894
_cell_length_c 12.667445
_cell_angle_alpha 90.000000
_cell_angle_beta 90.000000
_cell_angle_gamma 90.000000
_cell_volume 941.530731
_symmetry_space_group_name_H-M "P M A 2"
_symmetry_group_IT_number 28
_symmetry_cell_setting 'orthorhombic'
loop_
_space_group_symop_operation_xyz
x,y,z
-x,-y,z
1/2-x,y,z
1/2+x,-y,z
loop_
_atom_site_type_symbol
_atom_site_label
_atom_site_fract_x
_atom_site_fract_y
_atom_site_fract_z
Si Si1 0.250000 0.304052 0.394140
Si Si2 0.500000 0.000000 0.074189
Si Si3 0.596082 0.339256 0.943838
Si Si4 0.985211 0.211324 0.500002
Si Si5 0.250000 0.691441 0.346239
Si Si6 0.250000 0.022152 0.212450
Si Si7 0.403353 0.832739 0.725647
O O1 0.123872 0.308381 0.472589
O O2 0.250000 0.479768 0.318966
O O3 0.250000 0.127905 0.322462
O O4 0.444027 0.841883 0.002643
O O5 0.618615 0.924146 0.147310
O O6 0.500000 0.500000 0.981304
O O7 0.750000 0.388409 0.971384
O O8 0.578165 0.309947 0.818993
O O9 0.881067 0.266316 0.412058
O O10 0.938629 0.269949 0.616843
O O11 0.000000 0.000000 0.498573
O O12 0.250000 0.808751 0.239037
O O13 0.250000 0.904382 0.721940
O O14 0.500000 0.000000 0.745938
#
# Coordination Sequence:
#
# PCOD8168476 Si02
#       7
#     2   2   4   4   2   2   4
#     4  12  26  42  71  99 132 185 227 278 339 400
#     4  12  26  48  74  96 136 180 230 296 352 402
#     4  11  26  47  73 107 140 178 228 282 347 415
#     4  11  21  42  67  99 138 182 222 271 332 402
#     4  12  24  44  67  97 136 173 229 276 335 412
#     4  12  26  46  70  98 134 176 232 296 350 396
#     4  10  22  40  69 103 139 184 224 268 335 410
#
# _framework density 21.242004000000001
#
# number of rings (size 3 to 8) (size 9 to 14) (size 15 to 20)
#    0.000    0.800    5.000    1.800    5.600    4.000 
#    0.000    0.000    0.000    0.000    0.000    0.000 
#    0.000    0.000    0.000    0.000    0.000    0.000 
#
# Total GULP energy -248091.114525 kJ/mol
# GULP energy per Si atom -12404.555726 kJ/mol
# Density = 2.119366 g / cm^3
# Si number density = 21.242004 Si / 1000 Ang^3
#
#
#
# Elastic Constant Matrix: (Units=GPa)
#
#
# Indices 1 2 3 4 5 6 
#
# 1 173.2253 26.8152 43.6472 0.0000 0.0000 0.0000
# 2 26.8152 87.7103 17.3381 0.0000 0.0000 0.0000
# 3 43.6472 17.3381 82.3045 0.0000 0.0000 0.0000
# 4 0.0000 0.0000 0.0000 12.8336 0.0000 0.0000
# 5 0.0000 0.0000 0.0000 0.0000 36.5491 0.0000
# 6 0.0000 0.0000 0.0000 0.0000 0.0000 30.3840
#
#
#
# Elastic Compliance Matrix: (Units=1/GPa)
#
#
# Indices 1 2 3 4 5 6 
#
# 1 0.006831 -0.001432 -0.003321 0.000000 0.000000 0.000000
# 2 -0.001432 0.012197 -0.001810 0.000000 0.000000 0.000000
# 3 -0.003321 -0.001810 0.014292 0.000000 0.000000 0.000000
# 4 0.000000 0.000000 0.000000 0.077921 0.000000 0.000000
# 5 0.000000 0.000000 0.000000 0.000000 0.027360 0.000000
# 6 0.000000 0.000000 0.000000 0.000000 0.000000 0.032912
#
#
# Mechanical properties :
#
#
# Convention : Reuss Voigt Hill
#
# Bulk Modulus (GPa) = 49.51838 57.64902 53.58370
# Shear Modulus (GPa) = 26.12723 32.98264 29.55494
#
# Velocity S-wave (km/s) = 3.51091 3.94472 3.73412
# Velocity P-wave (km/s) = 6.30852 6.92429 6.62357
#
# Compressibility (1/GPa) = 0.02019452
#
# Stress axis : x y z
#
# Youngs Moduli (GPa) = 146.38491 81.98905 69.96685
#
# Poissons Ratio (x) = 0.11741 0.23236
# Poissons Ratio (y) = 0.20962 0.12664
# Poissons Ratio (z) = 0.48615 0.14839
#
# Static dielectric constant tensor:
#      x y z
#    x 4.018520 0.000000 0.000000 
#    y 0.000000 3.792140 0.000000 
#    z 0.000000 0.000000 3.964610 
# 
# 
# High freq. dielectric constant tensor:
#      x y z
#    x 1.854150 0.000000 0.000000 
#    y 0.000000 1.821960 0.000000 
#    z 0.000000 0.000000 1.836680 
# 
# From -- ./inp_files/4641.got.cif
#   From: 2010.03.12/outbox.cif.g09.slc.cpg/sg28_3_cif.got.tgz:4641.got - 2010.04.14 03:39:34.
