data_PCOD8168332
_publ_section_title
;
Structure prediction by ZEFSAII (Michael W. Deem and Ramdas Pophale) SiO2 
 PCOD8168332
Probable space group: P M A 2
;
_chemical_formula_sum "Si O2"
_cell_formula_units_Z 24
_cell_length_a 8.957226
_cell_length_b 9.454653
_cell_length_c 14.977911
_cell_angle_alpha 90.000000
_cell_angle_beta 90.000000
_cell_angle_gamma 90.000000
_cell_volume 1268.441294
_symmetry_space_group_name_H-M "P M A 2"
_symmetry_group_IT_number 28
_symmetry_cell_setting 'orthorhombic'
loop_
_space_group_symop_operation_xyz
x,y,z
-x,-y,z
1/2-x,y,z
1/2+x,-y,z
loop_
_atom_site_type_symbol
_atom_site_label
_atom_site_fract_x
_atom_site_fract_y
_atom_site_fract_z
Si Si1 0.923726 0.352267 0.674900
Si Si2 0.077860 0.643962 0.467204
Si Si3 0.422853 0.149785 0.133467
Si Si4 0.923209 0.851199 0.333590
Si Si5 0.073638 0.151648 0.811088
Si Si6 0.424775 0.348790 0.977799
O O1 0.750000 0.361103 0.701289
O O2 0.945883 0.320699 0.570719
O O3 0.000000 0.500000 0.702773
O O4 0.003222 0.222129 0.723390
O O5 0.250000 0.632448 0.441848
O O6 0.000000 0.500000 0.440097
O O7 0.001589 0.761462 0.408568
O O8 0.250000 0.122352 0.113478
O O9 0.448007 0.209530 0.233600
O O10 0.500000 0.000000 0.116762
O O11 0.485917 0.268333 0.065927
O O12 0.750000 0.865062 0.356903
O O13 0.000000 0.000000 0.338094
O O14 0.250000 0.132830 0.797762
O O15 0.033978 0.252045 0.893721
O O16 0.000000 0.000000 0.827967
O O17 0.500000 0.500000 0.967255
O O18 0.250000 0.375734 0.984904
#
# Coordination Sequence:
#
# PCOD8168332 Si02
#       6
#     4   4   4   4   4   4
#     4  10  21  38  59  82 110 144 182 225 273 325
#     4  10  21  37  57  81 110 145 183 225 274 325
#     4   9  19  36  56  80 109 142 181 223 269 320
#     4  10  20  35  56  81 111 146 184 227 273 323
#     4  11  23  38  58  83 111 144 182 225 272 323
#     4  10  22  38  56  81 111 143 180 221 268 322
#
# _framework density 18.920860000000001
#
# number of rings (size 3 to 8) (size 9 to 14) (size 15 to 20)
#    0.000    2.000    0.000    3.000    0.000    7.333 
#    0.000    1.667    0.000    0.000    0.000    0.000 
#    0.000    0.000    0.000    0.000    0.000    0.000 
#
# Total GULP energy -297650.935614 kJ/mol
# GULP energy per Si atom -12402.122317 kJ/mol
# Density = 1.887780 g / cm^3
# Si number density = 18.920860 Si / 1000 Ang^3
#
#
#
# Elastic Constant Matrix: (Units=GPa)
#
#
# Indices 1 2 3 4 5 6 
#
# 1 111.8432 58.6590 54.9825 0.0000 0.0000 0.0000
# 2 58.6590 104.0593 51.9144 0.0000 0.0000 0.0000
# 3 54.9825 51.9144 82.6445 0.0000 0.0000 0.0000
# 4 0.0000 0.0000 0.0000 35.6762 0.0000 0.0000
# 5 0.0000 0.0000 0.0000 0.0000 20.2510 0.0000
# 6 0.0000 0.0000 0.0000 0.0000 0.0000 40.9126
#
#
#
# Elastic Compliance Matrix: (Units=1/GPa)
#
#
# Indices 1 2 3 4 5 6 
#
# 1 0.014899 -0.005030 -0.006752 0.000000 0.000000 0.000000
# 2 -0.005030 0.015694 -0.006512 0.000000 0.000000 0.000000
# 3 -0.006752 -0.006512 0.020683 0.000000 0.000000 0.000000
# 4 0.000000 0.000000 0.000000 0.028030 0.000000 0.000000
# 5 0.000000 0.000000 0.000000 0.000000 0.049380 0.000000
# 6 0.000000 0.000000 0.000000 0.000000 0.000000 0.024442
#
#
# Mechanical properties :
#
#
# Convention : Reuss Voigt Hill
#
# Bulk Modulus (GPa) = 68.08725 69.96209 69.02467
# Shear Modulus (GPa) = 25.69207 28.23403 26.96305
#
# Velocity S-wave (km/s) = 3.68893 3.86711 3.77907
# Velocity P-wave (km/s) = 7.36258 7.54956 7.45666
#
# Compressibility (1/GPa) = 0.01468704
#
# Stress axis : x y z
#
# Youngs Moduli (GPa) = 67.12070 63.71812 48.34876
#
# Poissons Ratio (x) = 0.32048 0.32647
# Poissons Ratio (y) = 0.33760 0.31486
# Poissons Ratio (z) = 0.45322 0.41495
#
# Static dielectric constant tensor:
#      x y z
#    x 3.605340 0.000000 0.000000 
#    y 0.000000 3.734280 0.000000 
#    z 0.000000 0.000000 3.720040 
# 
# 
# High freq. dielectric constant tensor:
#      x y z
#    x 1.745860 0.000000 0.000000 
#    y 0.000000 1.735860 0.000000 
#    z 0.000000 0.000000 1.747010 
# 
# From -- ./inp_files/6013.got.cif
#   From: 2010.03.12/outbox.cif.g09.slc.cpg/sg28_4_cif.got.tgz:6013.got - 2010.04.14 03:39:34.
