data_PCOD8168538
_publ_section_title
;
Structure prediction by ZEFSAII (Michael W. Deem and Ramdas Pophale) SiO2 
 PCOD8168538
Probable space group: P C A 21
;
_chemical_formula_sum "Si O2"
_cell_formula_units_Z 32
_cell_length_a 8.948285
_cell_length_b 11.786730
_cell_length_c 14.267660
_cell_angle_alpha 90.000000
_cell_angle_beta 90.000000
_cell_angle_gamma 90.000000
_cell_volume 1504.824643
_symmetry_space_group_name_H-M "P C A 21"
_symmetry_group_IT_number 29
_symmetry_cell_setting 'orthorhombic'
loop_
_space_group_symop_operation_xyz
x,y,z
-x,-y,1/2+z
1/2-x,y,1/2+z
1/2+x,-y,z
loop_
_atom_site_type_symbol
_atom_site_label
_atom_site_fract_x
_atom_site_fract_y
_atom_site_fract_z
Si Si1 0.238061 0.751161 0.170260
Si Si2 0.611392 0.533443 0.315331
Si Si3 0.293297 0.254263 0.319231
Si Si4 0.743988 0.884470 0.986949
Si Si5 0.901234 0.117194 0.028996
Si Si6 0.147791 0.519929 0.682509
Si Si7 0.096690 0.279921 0.620575
Si Si8 0.127845 0.704302 0.371171
O O1 0.336864 0.856639 0.132869
O O2 0.333830 0.641758 0.132555
O O3 0.225640 0.751335 0.283327
O O4 0.073649 0.761555 0.126200
O O5 0.666807 0.655221 0.352652
O O6 0.685654 0.513105 0.213542
O O7 0.439057 0.531397 0.282728
O O8 0.657822 0.430846 0.386948
O O9 0.263039 0.137703 0.374885
O O10 0.300638 0.235925 0.207567
O O11 0.454446 0.299232 0.347249
O O12 0.579350 0.893223 0.031353
O O13 0.828698 0.776114 0.030339
O O14 0.836436 0.997797 0.997763
O O15 0.839515 0.216762 0.960346
O O16 0.091887 0.418049 0.614786
#
# Coordination Sequence:
#
# PCOD8168538 Si02
#       8
#     4   4   4   4   4   4   4   4
#     4  10  21  39  63  93 122 165 200 251 309 365
#     4  10  16  35  60  93 121 154 192 243 300 371
#     4   9  20  38  64  88 122 162 200 247 314 363
#     4  11  25  44  60  87 120 162 213 265 301 366
#     4  11  25  43  61  85 122 160 216 262 305 363
#     4  10  18  33  62  93 126 152 192 243 301 369
#     4  10  20  40  64  88 128 161 201 252 306 368
#     4   9  19  40  62  87 125 162 196 253 306 369
#
# _framework density 21.264935999999999
#
# number of rings (size 3 to 8) (size 9 to 14) (size 15 to 20)
#    0.000    2.000    5.000    0.750    3.500    2.000 
#    9.000    5.000    0.000    0.000    0.000    0.000 
#    0.000    0.000    0.000    0.000    0.000    0.000 
#
# Total GULP energy -396426.198286 kJ/mol
# GULP energy per Si atom -12388.318696 kJ/mol
# Density = 2.121654 g / cm^3
# Si number density = 21.264936 Si / 1000 Ang^3
#
#
#
# Elastic Constant Matrix: (Units=GPa)
#
#
# Indices 1 2 3 4 5 6 
#
# 1 61.7521 36.9333 20.6080 0.0000 0.0000 0.0000
# 2 36.9333 96.5507 22.8249 0.0000 0.0000 0.0000
# 3 20.6080 22.8249 51.9228 0.0000 0.0000 0.0000
# 4 0.0000 0.0000 0.0000 35.5517 0.0000 0.0000
# 5 0.0000 0.0000 0.0000 0.0000 20.3093 0.0000
# 6 0.0000 0.0000 0.0000 0.0000 0.0000 33.0632
#
#
#
# Elastic Compliance Matrix: (Units=1/GPa)
#
#
# Indices 1 2 3 4 5 6 
#
# 1 0.022425 -0.007225 -0.005724 0.000000 0.000000 0.000000
# 2 -0.007225 0.013886 -0.003237 0.000000 0.000000 0.000000
# 3 -0.005724 -0.003237 0.022954 0.000000 0.000000 0.000000
# 4 0.000000 0.000000 0.000000 0.028128 0.000000 0.000000
# 5 0.000000 0.000000 0.000000 0.000000 0.049239 0.000000
# 6 0.000000 0.000000 0.000000 0.000000 0.000000 0.030245
#
#
# Mechanical properties :
#
#
# Convention : Reuss Voigt Hill
#
# Bulk Modulus (GPa) = 37.18388 41.21757 39.20072
# Shear Modulus (GPa) = 24.01370 26.44211 25.22791
#
# Velocity S-wave (km/s) = 3.36410 3.53010 3.44810
# Velocity P-wave (km/s) = 5.71082 6.00337 5.85892
#
# Compressibility (1/GPa) = 0.02689337
#
# Stress axis : x y z
#
# Youngs Moduli (GPa) = 44.59232 72.01395 43.56500
#
# Poissons Ratio (x) = 0.52030 0.24939
# Poissons Ratio (y) = 0.32218 0.14101
# Poissons Ratio (z) = 0.25527 0.23309
#
# Static dielectric constant tensor:
#      x y z
#    x 3.877700 0.000000 0.000000 
#    y 0.000000 3.848790 0.000000 
#    z 0.000000 0.000000 3.766710 
# 
# 
# High freq. dielectric constant tensor:
#      x y z
#    x 1.842720 0.000000 0.000000 
#    y 0.000000 1.828290 0.000000 
#    z 0.000000 0.000000 1.800570 
# 
# From -- ./inp_files/4266.got.cif
#   From: 2010.03.12/outbox.cif.g09.slc.cpg/sg29_3_cif.got.tgz:4266.got - 2010.04.14 03:43:10.
