data_PCOD8168308
_publ_section_title
;
Structure prediction by ZEFSAII (Michael W. Deem and Ramdas Pophale) SiO2 
 PCOD8168308
Probable space group: P M A 2
;
_chemical_formula_sum "Si O2"
_cell_formula_units_Z 24
_cell_length_a 9.043269
_cell_length_b 13.999610
_cell_length_c 9.980378
_cell_angle_alpha 90.000000
_cell_angle_beta 90.000000
_cell_angle_gamma 90.000000
_cell_volume 1263.538202
_symmetry_space_group_name_H-M "P M A 2"
_symmetry_group_IT_number 28
_symmetry_cell_setting 'orthorhombic'
loop_
_space_group_symop_operation_xyz
x,y,z
-x,-y,z
1/2-x,y,z
1/2+x,-y,z
loop_
_atom_site_type_symbol
_atom_site_label
_atom_site_fract_x
_atom_site_fract_y
_atom_site_fract_z
Si Si1 0.582193 0.404790 0.906290
Si Si2 0.925216 0.292255 0.648487
Si Si3 0.074248 0.397926 0.410902
Si Si4 0.923704 0.094652 0.776751
Si Si5 0.076674 0.905747 0.081280
Si Si6 0.918941 0.296122 0.176035
O O1 0.500000 0.500000 0.948207
O O2 0.750000 0.433953 0.883415
O O3 0.520265 0.359684 0.769565
O O4 0.565456 0.327975 0.022984
O O5 0.750000 0.302147 0.623257
O O6 0.968490 0.183795 0.684042
O O7 0.016079 0.321785 0.518132
O O8 0.250000 0.409203 0.419108
O O9 0.000000 0.500000 0.437787
O O10 0.029419 0.357957 0.265750
O O11 0.750000 0.079062 0.774290
O O12 0.978542 0.112798 0.929124
O O13 0.000000 0.000000 0.716985
O O14 0.250000 0.923004 0.081969
O O15 0.036245 0.815663 0.175928
O O16 0.000000 0.000000 0.142057
O O17 0.750000 0.310703 0.226617
#
# Coordination Sequence:
#
# PCOD8168308 Si02
#       6
#     4   4   4   4   4   4
#     4  10  20  34  55  82 110 140 183 234 283 336
#     4  10  20  38  60  83 114 151 189 233 285 338
#     4  12  26  42  59  82 113 152 195 236 284 342
#     4   9  17  32  56  86 118 150 184 228 283 338
#     4   9  17  32  56  86 118 150 184 228 283 338
#     4  10  20  38  60  83 114 151 189 233 285 338
#
# _framework density 18.994281999999998
#
# number of rings (size 3 to 8) (size 9 to 14) (size 15 to 20)
#    0.000    2.000    1.667    2.500    0.000    5.333 
#    0.000    0.833    0.000    0.000    0.000    0.000 
#    0.000    0.000    0.000    0.000    0.000    0.000 
#
# Total GULP energy -297625.277398 kJ/mol
# GULP energy per Si atom -12401.053225 kJ/mol
# Density = 1.895105 g / cm^3
# Si number density = 18.994282 Si / 1000 Ang^3
#
#
#
# Elastic Constant Matrix: (Units=GPa)
#
#
# Indices 1 2 3 4 5 6 
#
# 1 67.7097 45.7829 23.5865 0.0000 0.0000 0.0000
# 2 45.7829 128.8305 18.2075 0.0000 0.0000 0.0000
# 3 23.5865 18.2075 55.5418 0.0000 0.0000 0.0000
# 4 0.0000 0.0000 0.0000 27.3886 0.0000 0.0000
# 5 0.0000 0.0000 0.0000 0.0000 15.4893 0.0000
# 6 0.0000 0.0000 0.0000 0.0000 0.0000 35.3675
#
#
#
# Elastic Compliance Matrix: (Units=1/GPa)
#
#
# Indices 1 2 3 4 5 6 
#
# 1 0.021782 -0.006746 -0.007039 0.000000 0.000000 0.000000
# 2 -0.006746 0.010229 -0.000488 0.000000 0.000000 0.000000
# 3 -0.007039 -0.000488 0.021154 0.000000 0.000000 0.000000
# 4 0.000000 0.000000 0.000000 0.036512 0.000000 0.000000
# 5 0.000000 0.000000 0.000000 0.000000 0.064561 0.000000
# 6 0.000000 0.000000 0.000000 0.000000 0.000000 0.028275
#
#
# Mechanical properties :
#
#
# Convention : Reuss Voigt Hill
#
# Bulk Modulus (GPa) = 40.62004 47.47064 44.04534
# Shear Modulus (GPa) = 22.80364 26.61608 24.70986
#
# Velocity S-wave (km/s) = 3.46866 3.74741 3.61073
# Velocity P-wave (km/s) = 6.12160 6.61592 6.37356
#
# Compressibility (1/GPa) = 0.02461839
#
# Stress axis : x y z
#
# Youngs Moduli (GPa) = 45.90883 97.76587 47.27339
#
# Poissons Ratio (x) = 0.65954 0.33274
# Poissons Ratio (y) = 0.30970 0.02308
# Poissons Ratio (z) = 0.32314 0.04773
#
# Static dielectric constant tensor:
#      x y z
#    x 3.363160 0.000000 0.000000 
#    y 0.000000 3.634590 0.000000 
#    z 0.000000 0.000000 3.300460 
# 
# 
# High freq. dielectric constant tensor:
#      x y z
#    x 1.724520 0.000000 0.000000 
#    y 0.000000 1.753010 0.000000 
#    z 0.000000 0.000000 1.722180 
# 
# From -- ./inp_files/2438.got.cif
#   From: 2010.03.12/outbox.cif.g09.slc.cpg/sg28_2_cif.got.tgz:2438.got - 2010.04.14 03:39:34.
