data_PCOD8168252
_publ_section_title
;
Structure prediction by ZEFSAII (Michael W. Deem and Ramdas Pophale) SiO2 
 PCOD8168252
Probable space group: P M A 2
;
_chemical_formula_sum "Si O2"
_cell_formula_units_Z 28
_cell_length_a 8.611840
_cell_length_b 14.405841
_cell_length_c 12.654529
_cell_angle_alpha 90.000000
_cell_angle_beta 90.000000
_cell_angle_gamma 90.000000
_cell_volume 1569.930963
_symmetry_space_group_name_H-M "P M A 2"
_symmetry_group_IT_number 28
_symmetry_cell_setting 'orthorhombic'
loop_
_space_group_symop_operation_xyz
x,y,z
-x,-y,z
1/2-x,y,z
1/2+x,-y,z
loop_
_atom_site_type_symbol
_atom_site_label
_atom_site_fract_x
_atom_site_fract_y
_atom_site_fract_z
Si Si1 0.432246 0.897780 0.681840
Si Si2 0.434554 0.596834 0.562901
Si Si3 0.567380 0.404842 0.804186
Si Si4 0.066632 0.900957 0.304450
Si Si5 0.567809 0.902012 0.078269
Si Si6 0.568495 0.211507 0.894553
Si Si7 0.066983 0.216644 0.489400
O O1 0.250000 0.899661 0.657559
O O2 0.468958 0.851920 0.793984
O O3 0.514585 0.838024 0.592765
O O4 0.500000 0.000000 0.681583
O O5 0.500000 0.500000 0.517965
O O6 0.250000 0.602026 0.551507
O O7 0.489972 0.608736 0.684101
O O8 0.513697 0.677142 0.495101
O O9 0.500000 0.500000 0.853234
O O10 0.750000 0.412191 0.805479
O O11 0.512310 0.316679 0.872334
O O12 0.250000 0.908111 0.302007
O O13 0.006422 0.872446 0.189116
O O14 0.013469 0.823686 0.385943
O O15 0.000000 0.000000 0.340791
O O16 0.750000 0.912876 0.093276
O O17 0.500000 0.000000 0.038111
O O18 0.530388 0.823339 0.993215
O O19 0.750000 0.207487 0.922268
O O20 0.250000 0.209404 0.476960
#
# Coordination Sequence:
#
# PCOD8168252 Si02
#       7
#     4   4   4   4   4   4   4
#     4  11  22  36  51  75 111 147 183 222 271 330
#     4  10  19  35  55  81 111 146 184 227 273 325
#     4   9  18  33  53  78 109 143 181 224 268 320
#     4  11  22  39  60  81 108 144 185 230 275 326
#     4  11  22  37  57  82 109 142 185 229 272 325
#     4  10  20  36  55  78 110 146 182 224 272 324
#     4  12  23  36  55  81 111 146 184 226 275 330
#
# _framework density 17.835179
#
# number of rings (size 3 to 8) (size 9 to 14) (size 15 to 20)
#    0.000    1.429    1.429    6.429    0.000    3.429 
#    0.000    0.000    0.000    0.857    0.000    4.000 
#    0.000    0.000    0.000    0.000    0.000    0.000 
#
# Total GULP energy -347320.656970 kJ/mol
# GULP energy per Si atom -12404.309177 kJ/mol
# Density = 1.779459 g / cm^3
# Si number density = 17.835179 Si / 1000 Ang^3
#
#
#
# Elastic Constant Matrix: (Units=GPa)
#
#
# Indices 1 2 3 4 5 6 
#
# 1 112.6125 36.5089 40.5503 0.0000 0.0000 0.0000
# 2 36.5089 126.3310 55.2628 0.0000 0.0000 0.0000
# 3 40.5503 55.2628 85.2784 0.0000 0.0000 0.0000
# 4 0.0000 0.0000 0.0000 5.3912 0.0000 0.0000
# 5 0.0000 0.0000 0.0000 0.0000 7.0213 0.0000
# 6 0.0000 0.0000 0.0000 0.0000 0.0000 33.7933
#
#
#
# Elastic Compliance Matrix: (Units=1/GPa)
#
#
# Indices 1 2 3 4 5 6 
#
# 1 0.010849 -0.001226 -0.004364 0.000000 0.000000 0.000000
# 2 -0.001226 0.011186 -0.006666 0.000000 0.000000 0.000000
# 3 -0.004364 -0.006666 0.018121 0.000000 0.000000 0.000000
# 4 0.000000 0.000000 0.000000 0.185487 0.000000 0.000000
# 5 0.000000 0.000000 0.000000 0.000000 0.142423 0.000000
# 6 0.000000 0.000000 0.000000 0.000000 0.000000 0.029592
#
#
# Mechanical properties :
#
#
# Convention : Reuss Voigt Hill
#
# Bulk Modulus (GPa) = 63.92293 65.42952 64.67623
# Shear Modulus (GPa) = 11.69906 22.03450 16.86678
#
# Velocity S-wave (km/s) = 2.56394 3.51871 3.07856
# Velocity P-wave (km/s) = 6.68459 7.29889 6.99848
#
# Compressibility (1/GPa) = 0.01564384
#
# Stress axis : x y z
#
# Youngs Moduli (GPa) = 92.17423 89.39758 55.18442
#
# Poissons Ratio (x) = 0.10962 0.24083
# Poissons Ratio (y) = 0.11303 0.36785
# Poissons Ratio (z) = 0.40226 0.59590
#
# Static dielectric constant tensor:
#      x y z
#    x 3.627690 0.000000 0.000000 
#    y 0.000000 3.524950 0.000000 
#    z 0.000000 0.000000 3.218360 
# 
# 
# High freq. dielectric constant tensor:
#      x y z
#    x 1.704170 0.000000 0.000000 
#    y 0.000000 1.696680 0.000000 
#    z 0.000000 0.000000 1.672920 
# 
# From -- ./inp_files/4848.got.cif
#   From: 2010.03.12/outbox.cif.g09.slc.cpg/sg28_3_cif.got.tgz:4848.got - 2010.04.14 03:39:34.
