data_PCOD8168189
_publ_section_title
;
Structure prediction by ZEFSAII (Michael W. Deem and Ramdas Pophale) SiO2 
 PCOD8168189
Probable space group: P M A 2
;
_chemical_formula_sum "Si O2"
_cell_formula_units_Z 28
_cell_length_a 8.743194
_cell_length_b 14.415224
_cell_length_c 12.752304
_cell_angle_alpha 90.000000
_cell_angle_beta 90.000000
_cell_angle_gamma 90.000000
_cell_volume 1607.237910
_symmetry_space_group_name_H-M "P M A 2"
_symmetry_group_IT_number 28
_symmetry_cell_setting 'orthorhombic'
loop_
_space_group_symop_operation_xyz
x,y,z
-x,-y,z
1/2-x,y,z
1/2+x,-y,z
loop_
_atom_site_type_symbol
_atom_site_label
_atom_site_fract_x
_atom_site_fract_y
_atom_site_fract_z
Si Si1 0.069403 0.399640 0.524630
Si Si2 0.569625 0.903766 0.648684
Si Si3 0.568377 0.712004 0.325322
Si Si4 0.928056 0.281567 0.707276
Si Si5 0.068418 0.400458 0.126155
Si Si6 0.071039 0.094837 0.405653
Si Si7 0.428208 0.597464 0.907895
O O1 0.250000 0.408981 0.521842
O O2 0.005325 0.354657 0.417344
O O3 0.000000 0.500000 0.541350
O O4 0.024602 0.335108 0.620851
O O5 0.750000 0.901578 0.668232
O O6 0.487816 0.823303 0.714593
O O7 0.527370 0.889919 0.526826
O O8 0.500000 0.000000 0.690134
O O9 0.750000 0.714154 0.333722
O O10 0.513171 0.673207 0.213495
O O11 0.505681 0.816845 0.341221
O O12 0.750000 0.285086 0.677540
O O13 0.959396 0.326534 0.819942
O O14 0.250000 0.408413 0.122894
O O15 0.000000 0.500000 0.156057
O O16 0.006194 0.365974 0.014439
O O17 0.250000 0.085667 0.391283
O O18 0.000000 0.000000 0.360859
O O19 0.500000 0.500000 0.871590
O O20 0.250000 0.581249 0.929039
#
# Coordination Sequence:
#
# PCOD8168189 Si02
#       7
#     4   4   4   4   4   4   4
#     4  11  21  34  49  72 106 140 169 207 257 311
#     4  10  19  33  54  77 106 139 171 213 257 308
#     4   9  18  33  51  73 104 136 167 206 256 306
#     4  11  22  35  52  76 104 137 175 215 258 308
#     4  10  19  33  54  75  99 133 173 214 254 305
#     4   9  17  32  50  73 102 134 167 204 249 300
#     4  10  21  36  53  74 102 134 174 220 258 303
#
# _framework density 17.421192000000001
#
# number of rings (size 3 to 8) (size 9 to 14) (size 15 to 20)
#    0.000    2.000    1.429    3.857    0.000    4.000 
#    0.000    3.571    0.000    0.857    0.000    4.000 
#    0.000    0.000    0.000    0.000    0.000    0.000 
#
# Total GULP energy -347243.593797 kJ/mol
# GULP energy per Si atom -12401.556921 kJ/mol
# Density = 1.738154 g / cm^3
# Si number density = 17.421192 Si / 1000 Ang^3
#
#
#
# Elastic Constant Matrix: (Units=GPa)
#
#
# Indices 1 2 3 4 5 6 
#
# 1 65.7299 39.5704 39.3230 0.0000 0.0000 0.0000
# 2 39.5704 145.7091 66.1837 0.0000 0.0000 0.0000
# 3 39.3230 66.1837 94.7384 0.0000 0.0000 0.0000
# 4 0.0000 0.0000 0.0000 477.1678 0.0000 0.0000
# 5 0.0000 0.0000 0.0000 0.0000 12.5989 0.0000
# 6 0.0000 0.0000 0.0000 0.0000 0.0000 29.1740
#
#
#
# Elastic Compliance Matrix: (Units=1/GPa)
#
#
# Indices 1 2 3 4 5 6 
#
# 1 0.020861 -0.002537 -0.006886 0.000000 0.000000 0.000000
# 2 -0.002537 0.010362 -0.006185 0.000000 0.000000 0.000000
# 3 -0.006886 -0.006185 0.017735 0.000000 0.000000 0.000000
# 4 0.000000 0.000000 0.000000 0.002096 0.000000 0.000000
# 5 0.000000 0.000000 0.000000 0.000000 0.079372 0.000000
# 6 0.000000 0.000000 0.000000 0.000000 0.000000 0.034277
#
#
# Mechanical properties :
#
#
# Convention : Reuss Voigt Hill
#
# Bulk Modulus (GPa) = 56.37159 66.25906 61.31532
# Shear Modulus (GPa) = 24.77296 114.52816 69.65056
#
# Velocity S-wave (km/s) = 3.77503 8.11686 6.32986
# Velocity P-wave (km/s) = 7.17144 11.22322 9.41781
#
# Compressibility (1/GPa) = 0.01773943
#
# Stress axis : x y z
#
# Youngs Moduli (GPa) = 47.93639 96.51043 56.38686
#
# Poissons Ratio (x) = 0.24489 0.38829
# Poissons Ratio (y) = 0.12164 0.34877
# Poissons Ratio (z) = 0.33010 0.59695
#
# Static dielectric constant tensor:
#      x y z
#    x 3.240480 0.000000 0.000000 
#    y 0.000000 -7.284790 0.000000 
#    z 0.000000 0.000000 3.210310 
# 
# 
# High freq. dielectric constant tensor:
#      x y z
#    x 1.674890 0.000000 0.000000 
#    y 0.000000 1.678720 0.000000 
#    z 0.000000 0.000000 1.654750 
# 
# From -- ./inp_files/4850.got.cif
#   From: 2010.03.12/outbox.cif.g09.slc.cpg/sg28_3_cif.got.tgz:4850.got - 2010.04.14 03:39:34.
