data_PCOD8168541
_publ_section_title
;
Structure prediction by ZEFSAII (Michael W. Deem and Ramdas Pophale) SiO2 
 PCOD8168541
Probable space group: P C A 21
;
_chemical_formula_sum "Si O2"
_cell_formula_units_Z 24
_cell_length_a 15.907067
_cell_length_b 12.918265
_cell_length_c 5.325710
_cell_angle_alpha 90.000000
_cell_angle_beta 90.000000
_cell_angle_gamma 90.000000
_cell_volume 1094.389238
_symmetry_space_group_name_H-M "P C A 21"
_symmetry_group_IT_number 29
_symmetry_cell_setting 'orthorhombic'
loop_
_space_group_symop_operation_xyz
x,y,z
-x,-y,1/2+z
1/2-x,y,1/2+z
1/2+x,-y,z
loop_
_atom_site_type_symbol
_atom_site_label
_atom_site_fract_x
_atom_site_fract_y
_atom_site_fract_z
Si Si1 0.457635 0.958192 0.223340
Si Si2 0.412707 0.648329 0.705377
Si Si3 0.109376 0.307213 0.705326
Si Si4 0.803541 0.908814 0.182160
Si Si5 0.902995 0.596155 0.705350
Si Si6 0.072694 0.721743 0.705385
O O1 0.466840 0.835188 0.203636
O O2 0.491958 0.992078 0.493575
O O3 0.359756 0.988363 0.205661
O O4 0.509146 0.686052 0.705617
O O5 0.403177 0.526466 0.704883
O O6 0.371467 0.698982 0.454845
O O7 0.371463 0.698676 0.956165
O O8 0.134928 0.188227 0.708185
O O9 0.145266 0.362923 0.454341
O O10 0.145272 0.362713 0.956633
O O11 0.736709 0.908024 0.406233
O O12 0.998694 0.635819 0.705684
#
# Coordination Sequence:
#
# PCOD8168541 Si02
#       6
#     4   4   4   4   4   4
#     4  12  23  40  64  91 121 158 214 273 315 371
#     4  10  18  30  52  88 122 144 182 245 305 352
#     4  10  18  32  52  77 112 154 192 229 291 367
#     4  12  26  43  61  89 128 169 207 258 330 398
#     4  10  17  30  53  88 121 144 181 244 301 350
#     4  10  18  29  48  79 114 149 186 237 298 346
#
# _framework density 21.930040000000002
#
# number of rings (size 3 to 8) (size 9 to 14) (size 15 to 20)
#    0.000    1.333    0.000   12.000    0.000    0.000 
#    0.000    0.000    0.000    0.000    0.000   39.667 
#    0.000    0.000    0.000    0.000    0.000    0.000 
#
# Total GULP energy -297503.581033 kJ/mol
# GULP energy per Si atom -12395.982543 kJ/mol
# Density = 2.188013 g / cm^3
# Si number density = 21.930040 Si / 1000 Ang^3
#
#
#
# Elastic Constant Matrix: (Units=GPa)
#
#
# Indices 1 2 3 4 5 6 
#
# 1 26.4744 0.5572 0.5428 0.0000 0.0000 0.0000
# 2 0.5572 93.0634 37.1326 0.0000 0.0000 0.0000
# 3 0.5428 37.1326 219.5951 0.0000 0.0000 0.0000
# 4 0.0000 0.0000 0.0000 39.3853 0.0000 0.0000
# 5 0.0000 0.0000 0.0000 0.0000 19.1468 0.0000
# 6 0.0000 0.0000 0.0000 0.0000 0.0000 18.2676
#
#
#
# Elastic Compliance Matrix: (Units=1/GPa)
#
#
# Indices 1 2 3 4 5 6 
#
# 1 0.037778 -0.000203 -0.000059 0.000000 0.000000 0.000000
# 2 -0.000203 0.011524 -0.001948 0.000000 0.000000 0.000000
# 3 -0.000059 -0.001948 0.004883 0.000000 0.000000 0.000000
# 4 0.000000 0.000000 0.000000 0.025390 0.000000 0.000000
# 5 0.000000 0.000000 0.000000 0.000000 0.052228 0.000000
# 6 0.000000 0.000000 0.000000 0.000000 0.000000 0.054742
#
#
# Mechanical properties :
#
#
# Convention : Reuss Voigt Hill
#
# Bulk Modulus (GPa) = 20.09429 46.17757 33.13593
# Shear Modulus (GPa) = 24.09020 35.41996 29.75508
#
# Velocity S-wave (km/s) = 3.31796 4.02323 3.68750
# Velocity P-wave (km/s) = 4.88480 6.53333 5.76826
#
# Compressibility (1/GPa) = 0.04976539
#
# Stress axis : x y z
#
# Youngs Moduli (GPa) = 26.47057 86.77629 204.77520
#
# Poissons Ratio (x) = 0.01758 0.01211
# Poissons Ratio (y) = 0.00536 0.39893
# Poissons Ratio (z) = 0.00156 0.16905
#
# Static dielectric constant tensor:
#      x y z
#    x 3.277650 0.000000 0.000000 
#    y 0.000000 3.969270 0.000000 
#    z 0.000000 0.000000 6.815460 
# 
# 
# High freq. dielectric constant tensor:
#      x y z
#    x 1.786740 0.000000 0.000000 
#    y 0.000000 1.870910 0.000000 
#    z 0.000000 0.000000 1.912740 
# 
# From -- ./inp_files/195.got.cif
#   From: 2010.03.12/outbox.cif.g09.slc.cpg/sg29_1_cif.got.tgz:195.got - 2010.04.14 03:43:10.
