data_PCOD8168695
_publ_section_title
;
Structure prediction by ZEFSAII (Michael W. Deem and Ramdas Pophale) SiO2 
 PCOD8168695
Probable space group: P C A 21
;
_chemical_formula_sum "Si O2"
_cell_formula_units_Z 32
_cell_length_a 23.993251
_cell_length_b 7.786697
_cell_length_c 8.926324
_cell_angle_alpha 90.000000
_cell_angle_beta 90.000000
_cell_angle_gamma 90.000000
_cell_volume 1667.688828
_symmetry_space_group_name_H-M "P C A 21"
_symmetry_group_IT_number 29
_symmetry_cell_setting 'orthorhombic'
loop_
_space_group_symop_operation_xyz
x,y,z
-x,-y,1/2+z
1/2-x,y,1/2+z
1/2+x,-y,z
loop_
_atom_site_type_symbol
_atom_site_label
_atom_site_fract_x
_atom_site_fract_y
_atom_site_fract_z
Si Si1 0.610315 0.805819 0.563660
Si Si2 0.309546 0.502315 0.415988
Si Si3 0.117427 0.812680 0.563707
Si Si4 0.882447 0.187390 0.414008
Si Si5 0.389562 0.194151 0.414265
Si Si6 0.309686 0.502362 0.061374
Si Si7 0.499242 0.314801 0.561319
Si Si8 0.499370 0.314889 0.916724
O O1 0.596278 0.788449 0.739001
O O2 0.653675 0.661344 0.511983
O O3 0.553289 0.791762 0.473005
O O4 0.636426 0.993094 0.526008
O O5 0.338977 0.674382 0.482007
O O6 0.346129 0.338581 0.465628
O O7 0.302342 0.508856 0.238660
O O8 0.249888 0.481855 0.488440
O O9 0.116906 0.777559 0.738853
O O10 0.160840 0.674428 0.495493
O O11 0.054819 0.782020 0.504377
O O12 0.945015 0.218198 0.473559
O O13 0.863447 0.993170 0.451734
O O14 0.446503 0.208298 0.505324
O O15 0.497057 0.332614 0.739023
O O16 0.499936 0.499923 0.488955
#
# Coordination Sequence:
#
# PCOD8168695 Si02
#       8
#     4   4   4   4   4   4   4   4
#     4  10  20  37  59  81 111 146 179 224 278 326
#     4  10  21  38  56  78 108 145 186 227 271 320
#     4   9  19  36  57  81 110 145 180 220 274 329
#     4   9  19  36  57  81 110 145 180 220 274 329
#     4  10  20  37  59  81 111 146 179 224 278 326
#     4  10  21  38  56  78 108 145 186 227 271 320
#     4  11  20  34  57  85 115 145 181 222 272 334
#     4  11  20  34  57  85 115 145 181 222 272 334
#
# _framework density 19.188230999999998
#
# number of rings (size 3 to 8) (size 9 to 14) (size 15 to 20)
#    0.000    2.000    2.500    1.500    0.000    2.000 
#    0.000    2.500    0.000    0.000    0.000    0.000 
#    0.000    0.000    0.000    0.000    0.000    0.000 
#
# Total GULP energy -396775.861207 kJ/mol
# GULP energy per Si atom -12399.245663 kJ/mol
# Density = 1.914456 g / cm^3
# Si number density = 19.188231 Si / 1000 Ang^3
#
#
#
# Elastic Constant Matrix: (Units=GPa)
#
#
# Indices 1 2 3 4 5 6 
#
# 1 137.2014 62.7965 27.8437 0.0000 0.0000 0.0000
# 2 62.7965 159.7001 26.0879 0.0000 0.0000 0.0000
# 3 27.8437 26.0879 35.4033 0.0000 0.0000 0.0000
# 4 0.0000 0.0000 0.0000 15.7766 0.0000 0.0000
# 5 0.0000 0.0000 0.0000 0.0000 31.7915 0.0000
# 6 0.0000 0.0000 0.0000 0.0000 0.0000 18.4364
#
#
#
# Elastic Compliance Matrix: (Units=1/GPa)
#
#
# Indices 1 2 3 4 5 6 
#
# 1 0.009749 -0.002934 -0.005505 0.000000 0.000000 0.000000
# 2 -0.002934 0.008002 -0.003589 0.000000 0.000000 0.000000
# 3 -0.005505 -0.003589 0.035220 0.000000 0.000000 0.000000
# 4 0.000000 0.000000 0.000000 0.063385 0.000000 0.000000
# 5 0.000000 0.000000 0.000000 0.000000 0.031455 0.000000
# 6 0.000000 0.000000 0.000000 0.000000 0.000000 0.054241
#
#
# Mechanical properties :
#
#
# Convention : Reuss Voigt Hill
#
# Bulk Modulus (GPa) = 34.58444 62.86234 48.72339
# Shear Modulus (GPa) = 21.20939 27.57268 24.39103
#
# Velocity S-wave (km/s) = 3.32826 3.79483 3.56918
# Velocity P-wave (km/s) = 5.72998 7.21339 6.51405
#
# Compressibility (1/GPa) = 0.02891474
#
# Stress axis : x y z
#
# Youngs Moduli (GPa) = 102.57838 124.97368 28.39298
#
# Poissons Ratio (x) = 0.36668 0.15630
# Poissons Ratio (y) = 0.30097 0.10189
# Poissons Ratio (z) = 0.56470 0.44850
#
# Static dielectric constant tensor:
#      x y z
#    x 5.813910 0.000000 0.000000 
#    y 0.000000 3.884930 0.000000 
#    z 0.000000 0.000000 3.283180 
# 
# 
# High freq. dielectric constant tensor:
#      x y z
#    x 1.743880 0.000000 0.000000 
#    y 0.000000 1.766510 0.000000 
#    z 0.000000 0.000000 1.717040 
# 
# From -- ./inp_files/2278.got.cif
#   From: 2010.03.12/outbox.cif.g09.slc.cpg/sg29_2_cif.got.tgz:2278.got - 2010.04.14 03:43:10.
