data_PCOD8168578
_publ_section_title
;
Structure prediction by ZEFSAII (Michael W. Deem and Ramdas Pophale) SiO2 
 PCOD8168578
Probable space group: P C A 21
;
_chemical_formula_sum "Si O2"
_cell_formula_units_Z 32
_cell_length_a 8.896455
_cell_length_b 13.775213
_cell_length_c 11.590179
_cell_angle_alpha 90.000000
_cell_angle_beta 90.000000
_cell_angle_gamma 90.000000
_cell_volume 1420.382957
_symmetry_space_group_name_H-M "P C A 21"
_symmetry_group_IT_number 29
_symmetry_cell_setting 'orthorhombic'
loop_
_space_group_symop_operation_xyz
x,y,z
-x,-y,1/2+z
1/2-x,y,1/2+z
1/2+x,-y,z
loop_
_atom_site_type_symbol
_atom_site_label
_atom_site_fract_x
_atom_site_fract_y
_atom_site_fract_z
Si Si1 0.841002 0.666165 0.515620
Si Si2 0.536720 0.839959 0.302711
Si Si3 0.043084 0.938837 0.562930
Si Si4 0.140749 0.444268 0.798640
Si Si5 0.638882 0.847490 0.867194
Si Si6 0.117656 0.876107 0.026575
Si Si7 0.947997 0.728827 0.159120
Si Si8 0.541465 0.623338 0.239247
O O1 0.829810 0.571153 0.434938
O O2 0.895550 0.749617 0.433426
O O3 0.686421 0.700349 0.573648
O O4 0.978249 0.648845 0.604547
O O5 0.518512 0.876535 0.171590
O O6 0.688042 0.882972 0.361525
O O7 0.399996 0.869915 0.386862
O O8 0.551721 0.722989 0.310162
O O9 0.218284 0.916634 0.553583
O O10 0.959639 0.924147 0.438901
O O11 0.006395 0.051887 0.584856
O O12 0.022785 0.367762 0.737804
O O13 0.301126 0.433658 0.738757
O O14 0.089740 0.555112 0.785240
O O15 0.591945 0.823233 0.736517
O O16 0.089370 0.768552 0.083346
#
# Coordination Sequence:
#
# PCOD8168578 Si02
#       8
#     4   4   4   4   4   4   4   4
#     4  10  18  42  68  98 131 188 238 287 359 426
#     4  12  25  48  77 100 147 194 249 302 371 443
#     4  12  30  46  71 113 141 188 249 304 367 453
#     4  10  23  38  68  99 142 183 239 292 361 428
#     4  11  20  44  77  95 136 189 242 299 363 422
#     4  12  29  46  72 105 150 189 244 305 378 434
#     4  10  21  42  72  97 138 192 241 293 365 429
#     4  11  22  42  65 103 137 187 238 290 364 429
#
# _framework density 22.529136000000001
#
# number of rings (size 3 to 8) (size 9 to 14) (size 15 to 20)
#    0.000    1.000    6.250    0.750    5.250    4.000 
#    2.250    1.250    0.000    0.000    0.000    0.000 
#    0.000    0.000    0.000    0.000    0.000    0.000 
#
# Total GULP energy -396463.814985 kJ/mol
# GULP energy per Si atom -12389.494218 kJ/mol
# Density = 2.247786 g / cm^3
# Si number density = 22.529136 Si / 1000 Ang^3
#
#
#
# Elastic Constant Matrix: (Units=GPa)
#
#
# Indices 1 2 3 4 5 6 
#
# 1 102.5710 42.3792 41.0182 0.0000 0.0000 0.0000
# 2 42.3792 80.1569 34.7371 0.0000 0.0000 0.0000
# 3 41.0182 34.7371 122.2900 0.0000 0.0000 0.0000
# 4 0.0000 0.0000 0.0000 33.9121 0.0000 0.0000
# 5 0.0000 0.0000 0.0000 0.0000 32.9836 0.0000
# 6 0.0000 0.0000 0.0000 0.0000 0.0000 39.6213
#
#
#
# Elastic Compliance Matrix: (Units=1/GPa)
#
#
# Indices 1 2 3 4 5 6 
#
# 1 0.013266 -0.005799 -0.002802 0.000000 0.000000 0.000000
# 2 -0.005799 0.016762 -0.002816 0.000000 0.000000 0.000000
# 3 -0.002802 -0.002816 0.009917 0.000000 0.000000 0.000000
# 4 0.000000 0.000000 0.000000 0.029488 0.000000 0.000000
# 5 0.000000 0.000000 0.000000 0.000000 0.030318 0.000000
# 6 0.000000 0.000000 0.000000 0.000000 0.000000 0.025239
#
#
# Mechanical properties :
#
#
# Convention : Reuss Voigt Hill
#
# Bulk Modulus (GPa) = 58.44657 60.14298 59.29478
# Shear Modulus (GPa) = 32.56702 33.76229 33.16466
#
# Velocity S-wave (km/s) = 3.80617 3.87538 3.84093
# Velocity P-wave (km/s) = 6.73163 6.83947 6.78577
#
# Compressibility (1/GPa) = 0.01710964
#
# Stress axis : x y z
#
# Youngs Moduli (GPa) = 75.37988 59.65830 100.83520
#
# Poissons Ratio (x) = 0.34598 0.28257
# Poissons Ratio (y) = 0.43716 0.28397
# Poissons Ratio (z) = 0.21124 0.16801
#
# Static dielectric constant tensor:
#      x y z
#    x 3.633920 0.000000 0.000000 
#    y 0.000000 4.179410 0.000000 
#    z 0.000000 0.000000 4.963950 
# 
# 
# High freq. dielectric constant tensor:
#      x y z
#    x 1.851910 0.000000 0.000000 
#    y 0.000000 1.886010 0.000000 
#    z 0.000000 0.000000 1.911310 
# 
# From -- ./inp_files/2935.got.cif
#   From: 2010.03.12/outbox.cif.g09.slc.cpg/sg29_2_cif.got.tgz:2935.got - 2010.04.14 03:43:10.
