data_PCOD8168090
_publ_section_title
;
Structure prediction by ZEFSAII (Michael W. Deem and Ramdas Pophale) SiO2 
 PCOD8168090
Probable space group: P M A 2
;
_chemical_formula_sum "Si O2"
_cell_formula_units_Z 32
_cell_length_a 9.106800
_cell_length_b 35.938137
_cell_length_c 5.206875
_cell_angle_alpha 90.000000
_cell_angle_beta 90.000000
_cell_angle_gamma 90.000000
_cell_volume 1704.113475
_symmetry_space_group_name_H-M "P M A 2"
_symmetry_group_IT_number 28
_symmetry_cell_setting 'orthorhombic'
loop_
_space_group_symop_operation_xyz
x,y,z
-x,-y,z
1/2-x,y,z
1/2+x,-y,z
loop_
_atom_site_type_symbol
_atom_site_label
_atom_site_fract_x
_atom_site_fract_y
_atom_site_fract_z
Si Si1 0.578191 0.461000 0.256810
Si Si2 0.075854 0.083518 0.778262
Si Si3 0.577701 0.415545 0.756850
Si Si4 0.924559 0.662979 0.772756
Si Si5 0.424524 0.293649 0.273426
Si Si6 0.424520 0.039590 0.278205
Si Si7 0.925165 0.790152 0.279376
Si Si8 0.425238 0.167194 0.779383
O O1 0.500000 0.500000 0.287033
O O2 0.750000 0.468734 0.264862
O O3 0.530028 0.434750 0.491723
O O4 0.530119 0.442006 0.991150
O O5 0.250000 0.085581 0.778613
O O6 0.020014 0.062113 0.526434
O O7 0.011624 0.125286 0.778639
O O8 0.019865 0.061969 0.029446
O O9 0.750000 0.406853 0.765251
O O10 0.490555 0.377692 0.784259
O O11 0.750000 0.659635 0.771672
O O12 0.983206 0.684118 0.520564
O O13 0.981463 0.685905 0.018434
O O14 0.250000 0.292239 0.276897
O O15 0.487559 0.251789 0.278769
O O16 0.250000 0.034360 0.278168
O O17 0.500000 0.000000 0.278935
O O18 0.750000 0.789646 0.279033
O O19 0.985057 0.811357 0.529824
O O20 0.985062 0.811579 0.029788
O O21 0.250000 0.166616 0.779179
#
# Coordination Sequence:
#
# PCOD8168090 Si02
#       8
#     4   4   4   4   4   4   4   4
#     4  10  21  36  54  75  99 126 156 194 236 278
#     4   9  17  28  42  62  89 118 148 186 228 270
#     4  10  21  36  52  73 100 127 158 196 234 271
#     4  10  19  31  48  69  95 127 159 190 227 271
#     4   9  17  28  42  65  96 125 154 190 230 269
#     4  10  19  31  46  64  89 118 148 186 228 270
#     4   9  15  23  37  58  88 121 147 178 223 273
#     4   9  15  23  37  58  85 118 149 176 221 278
#
# _framework density 18.778091
#
# number of rings (size 3 to 8) (size 9 to 14) (size 15 to 20)
#    0.000    2.500    0.000    3.000    0.000    7.000 
#    0.000    0.000    0.000    0.000    0.000    0.000 
#    0.000   20.000    0.000    0.000    0.000    0.000 
#
# Total GULP energy -396839.903401 kJ/mol
# GULP energy per Si atom -12401.246981 kJ/mol
# Density = 1.873535 g / cm^3
# Si number density = 18.778091 Si / 1000 Ang^3
#
#
#
# Elastic Constant Matrix: (Units=GPa)
#
#
# Indices 1 2 3 4 5 6 
#
# 1 13.2159 28.5209 19.6389 0.0000 0.0000 0.0000
# 2 28.5209 161.5833 65.9618 0.0000 0.0000 0.0000
# 3 19.6389 65.9618 164.2265 0.0000 0.0000 0.0000
# 4 0.0000 0.0000 0.0000 41.1980 0.0000 0.0000
# 5 0.0000 0.0000 0.0000 0.0000 6.6314 0.0000
# 6 0.0000 0.0000 0.0000 0.0000 0.0000 19.9509
#
#
#
# Elastic Compliance Matrix: (Units=1/GPa)
#
#
# Indices 1 2 3 4 5 6 
#
# 1 0.129601 -0.019795 -0.007548 0.000000 0.000000 0.000000
# 2 -0.019795 0.010426 -0.001820 0.000000 0.000000 0.000000
# 3 -0.007548 -0.001820 0.007723 0.000000 0.000000 0.000000
# 4 0.000000 0.000000 0.000000 0.024273 0.000000 0.000000
# 5 0.000000 0.000000 0.000000 0.000000 0.150798 0.000000
# 6 0.000000 0.000000 0.000000 0.000000 0.000000 0.050123
#
#
# Mechanical properties :
#
#
# Convention : Reuss Voigt Hill
#
# Bulk Modulus (GPa) = 11.18266 63.02986 37.10626
# Shear Modulus (GPa) = 10.84419 28.54967 19.69693
#
# Velocity S-wave (km/s) = 2.40571 3.90342 3.24223
# Velocity P-wave (km/s) = 3.69928 7.34535 5.81545
#
# Compressibility (1/GPa) = 0.08942413
#
# Stress axis : x y z
#
# Youngs Moduli (GPa) = 7.71601 95.91577 129.48484
#
# Poissons Ratio (x) = 1.89861 0.97731
# Poissons Ratio (y) = 0.15273 0.23572
# Poissons Ratio (z) = 0.05824 0.17461
#
# Static dielectric constant tensor:
#      x y z
#    x 2.815010 0.000000 0.000000 
#    y 0.000000 3.583080 0.000000 
#    z 0.000000 0.000000 4.046280 
# 
# 
# High freq. dielectric constant tensor:
#      x y z
#    x 1.659720 0.000000 0.000000 
#    y 0.000000 1.748550 0.000000 
#    z 0.000000 0.000000 1.753470 
# 
# From -- ./inp_files/252.got.cif
#   From: 2010.03.12/outbox.cif.g09.slc.cpg/sg28_1_cif.got.tgz:252.got - 2010.04.14 03:39:34.
