data_PCOD8168183
_publ_section_title
;
Structure prediction by ZEFSAII (Michael W. Deem and Ramdas Pophale) SiO2 
 PCOD8168183
Probable space group: P M A 2
;
_chemical_formula_sum "Si O2"
_cell_formula_units_Z 32
_cell_length_a 8.750936
_cell_length_b 14.315350
_cell_length_c 12.832729
_cell_angle_alpha 90.000000
_cell_angle_beta 90.000000
_cell_angle_gamma 90.000000
_cell_volume 1607.590760
_symmetry_space_group_name_H-M "P M A 2"
_symmetry_group_IT_number 28
_symmetry_cell_setting 'orthorhombic'
loop_
_space_group_symop_operation_xyz
x,y,z
-x,-y,z
1/2-x,y,z
1/2+x,-y,z
loop_
_atom_site_type_symbol
_atom_site_label
_atom_site_fract_x
_atom_site_fract_y
_atom_site_fract_z
Si Si1 0.071244 0.099919 0.191230
Si Si2 0.429965 0.401158 0.100486
Si Si3 0.931292 0.600653 0.866140
Si Si4 0.068865 0.397147 0.487626
Si Si5 0.428854 0.706814 0.680774
Si Si6 0.572255 0.097274 0.756459
Si Si7 0.068969 0.899511 0.987559
Si Si8 0.429284 0.283633 0.291177
O O1 0.250000 0.086041 0.174740
O O2 0.035378 0.172489 0.285985
O O3 0.000000 0.000000 0.221465
O O4 0.004924 0.153294 0.086915
O O5 0.500000 0.500000 0.127897
O O6 0.250000 0.411063 0.107251
O O7 0.475684 0.369013 0.983683
O O8 0.496622 0.330619 0.186510
O O9 0.750000 0.599467 0.846648
O O10 0.000000 0.500000 0.839137
O O11 0.014656 0.674892 0.793514
O O12 0.250000 0.406271 0.484553
O O13 0.001645 0.332701 0.394241
O O14 0.000000 0.500000 0.479930
O O15 0.022849 0.347313 0.594210
O O16 0.250000 0.685743 0.667500
O O17 0.461998 0.818780 0.675747
O O18 0.750000 0.076887 0.766228
O O19 0.512481 0.129263 0.871782
O O20 0.500000 0.000000 0.717356
O O21 0.250000 0.896732 0.996911
O O22 0.000000 0.000000 0.011709
O O23 0.250000 0.301190 0.293872
#
# Coordination Sequence:
#
# PCOD8168183 Si02
#       8
#     4   4   4   4   4   4   4   4
#     4  10  19  33  53  79 113 151 188 229 273 326
#     4   9  18  34  54  80 111 143 178 222 278 338
#     4  10  20  34  55  82 113 148 185 226 282 344
#     4  11  23  42  65  87 111 144 189 239 290 343
#     4  11  23  39  58  83 115 149 190 236 284 336
#     4   9  20  36  55  80 114 151 189 234 281 332
#     4   9  16  29  48  75 108 146 185 224 270 321
#     4   9  20  37  58  82 111 146 186 230 281 336
#
# _framework density 19.905564999999999
#
# number of rings (size 3 to 8) (size 9 to 14) (size 15 to 20)
#    0.000    2.250    0.000    3.375    1.750    2.000 
#    0.000    5.000    0.000    3.000    0.000    0.000 
#    0.000    0.000    0.000    0.000    0.000    0.000 
#
# Total GULP energy -396548.767194 kJ/mol
# GULP energy per Si atom -12392.148975 kJ/mol
# Density = 1.986026 g / cm^3
# Si number density = 19.905565 Si / 1000 Ang^3
#
#
#
# Elastic Constant Matrix: (Units=GPa)
#
#
# Indices 1 2 3 4 5 6 
#
# 1 63.2551 36.1589 24.9026 0.0000 0.0000 0.0000
# 2 36.1589 120.4520 63.2746 0.0000 0.0000 0.0000
# 3 24.9026 63.2746 89.7079 0.0000 0.0000 0.0000
# 4 0.0000 0.0000 0.0000 32.6150 0.0000 0.0000
# 5 0.0000 0.0000 0.0000 0.0000 6.4059 0.0000
# 6 0.0000 0.0000 0.0000 0.0000 0.0000 23.3533
#
#
#
# Elastic Compliance Matrix: (Units=1/GPa)
#
#
# Indices 1 2 3 4 5 6 
#
# 1 0.019312 -0.004736 -0.002020 0.000000 0.000000 0.000000
# 2 -0.004736 0.014350 -0.008807 0.000000 0.000000 0.000000
# 3 -0.002020 -0.008807 0.017920 0.000000 0.000000 0.000000
# 4 0.000000 0.000000 0.000000 0.030661 0.000000 0.000000
# 5 0.000000 0.000000 0.000000 0.000000 0.156107 0.000000
# 6 0.000000 0.000000 0.000000 0.000000 0.000000 0.042820
#
#
# Mechanical properties :
#
#
# Convention : Reuss Voigt Hill
#
# Bulk Modulus (GPa) = 48.88747 58.00968 53.44857
# Shear Modulus (GPa) = 15.66832 22.41343 19.04087
#
# Velocity S-wave (km/s) = 2.80863 3.35922 3.09619
# Velocity P-wave (km/s) = 5.92713 6.65218 6.30009
#
# Compressibility (1/GPa) = 0.02045514
#
# Stress axis : x y z
#
# Youngs Moduli (GPa) = 51.78234 69.68549 55.80304
#
# Poissons Ratio (x) = 0.33002 0.11275
# Poissons Ratio (y) = 0.24523 0.49146
# Poissons Ratio (z) = 0.10462 0.61373
#
# Static dielectric constant tensor:
#      x y z
#    x 3.516890 0.000000 0.000000 
#    y 0.000000 3.654050 0.000000 
#    z 0.000000 0.000000 3.795920 
# 
# 
# High freq. dielectric constant tensor:
#      x y z
#    x 1.767880 0.000000 0.000000 
#    y 0.000000 1.779790 0.000000 
#    z 0.000000 0.000000 1.766910 
# 
# From -- ./inp_files/4998.got.cif
#   From: 2010.03.12/outbox.cif.g09.slc.cpg/sg28_3_cif.got.tgz:4998.got - 2010.04.14 03:39:34.
