data_PCOD8168361
_publ_section_title
;
Structure prediction by ZEFSAII (Michael W. Deem and Ramdas Pophale) SiO2 
 PCOD8168361
Probable space group: P M A 2
;
_chemical_formula_sum "Si O2"
_cell_formula_units_Z 32
_cell_length_a 9.489313
_cell_length_b 13.811611
_cell_length_c 12.190729
_cell_angle_alpha 90.000000
_cell_angle_beta 90.000000
_cell_angle_gamma 90.000000
_cell_volume 1597.749855
_symmetry_space_group_name_H-M "P M A 2"
_symmetry_group_IT_number 28
_symmetry_cell_setting 'orthorhombic'
loop_
_space_group_symop_operation_xyz
x,y,z
-x,-y,z
1/2-x,y,z
1/2+x,-y,z
loop_
_atom_site_type_symbol
_atom_site_label
_atom_site_fract_x
_atom_site_fract_y
_atom_site_fract_z
Si Si1 0.092238 0.904047 0.185500
Si Si2 0.912436 0.740834 0.277896
Si Si3 0.962992 0.111286 0.944980
Si Si4 0.082486 0.403420 0.475895
Si Si5 0.600123 0.089833 0.705307
Si Si6 0.082200 0.699163 0.666625
Si Si7 0.090401 0.408193 0.094201
Si Si8 0.906540 0.701354 0.875536
O O1 0.250000 0.924703 0.229071
O O2 0.016151 0.832383 0.271324
O O3 0.107534 0.860340 0.061207
O O4 0.000000 0.000000 0.184059
O O5 0.750000 0.775590 0.272675
O O6 0.941523 0.679984 0.387032
O O7 0.954003 0.678046 0.173204
O O8 0.871735 0.116049 0.833640
O O9 0.088343 0.188500 0.923647
O O10 0.000000 0.000000 0.958231
O O11 0.250000 0.423798 0.493420
O O12 0.000000 0.500000 0.437305
O O13 0.007501 0.367663 0.586320
O O14 0.750000 0.058608 0.655647
O O15 0.547558 0.187061 0.643528
O O16 0.500000 0.000000 0.683945
O O17 0.250000 0.677838 0.658729
O O18 0.026476 0.675527 0.788075
O O19 0.250000 0.438207 0.117544
O O20 0.000000 0.500000 0.124786
O O21 0.066129 0.375926 0.970171
O O22 0.750000 0.689193 0.825117
#
# Coordination Sequence:
#
# PCOD8168361 Si02
#       8
#     4   4   4   4   4   4   4   4
#     4  11  22  35  57  88 124 164 203 245 294 352
#     4  10  22  42  63  87 119 153 196 248 301 357
#     4   9  18  30  50  82 118 157 200 239 285 343
#     4  11  24  43  69  92 114 149 198 253 307 362
#     4   9  18  32  52  81 117 156 195 238 285 341
#     4  10  22  39  59  86 122 155 197 251 298 355
#     4  10  21  37  57  83 115 151 189 238 297 358
#     4  10  20  36  58  83 119 162 198 241 298 359
#
# _framework density 20.028165000000001
#
# number of rings (size 3 to 8) (size 9 to 14) (size 15 to 20)
#    0.000    2.000    1.250    1.875    0.000   10.000 
#    0.000    1.875    0.000    1.500    0.000    0.000 
#    0.000    0.000    0.000    0.000    0.000    0.000 
#
# Total GULP energy -396461.018342 kJ/mol
# GULP energy per Si atom -12389.406823 kJ/mol
# Density = 1.998258 g / cm^3
# Si number density = 20.028165 Si / 1000 Ang^3
#
#
#
# Elastic Constant Matrix: (Units=GPa)
#
#
# Indices 1 2 3 4 5 6 
#
# 1 128.8292 54.7096 36.4343 0.0000 0.0000 0.0000
# 2 54.7096 77.3074 28.5896 0.0000 0.0000 0.0000
# 3 36.4343 28.5896 54.3679 0.0000 0.0000 0.0000
# 4 0.0000 0.0000 0.0000 49.0545 0.0000 0.0000
# 5 0.0000 0.0000 0.0000 0.0000 18.5164 0.0000
# 6 0.0000 0.0000 0.0000 0.0000 0.0000 37.9157
#
#
#
# Elastic Compliance Matrix: (Units=1/GPa)
#
#
# Indices 1 2 3 4 5 6 
#
# 1 0.011888 -0.006787 -0.004398 0.000000 0.000000 0.000000
# 2 -0.006787 0.019933 -0.005934 0.000000 0.000000 0.000000
# 3 -0.004398 -0.005934 0.024461 0.000000 0.000000 0.000000
# 4 0.000000 0.000000 0.000000 0.020385 0.000000 0.000000
# 5 0.000000 0.000000 0.000000 0.000000 0.054006 0.000000
# 6 0.000000 0.000000 0.000000 0.000000 0.000000 0.026374
#
#
# Mechanical properties :
#
#
# Convention : Reuss Voigt Hill
#
# Bulk Modulus (GPa) = 45.36190 55.55241 50.45715
# Shear Modulus (GPa) = 25.17218 30.48204 27.82711
#
# Velocity S-wave (km/s) = 3.54904 3.90546 3.73151
# Velocity P-wave (km/s) = 6.28430 6.93788 6.61916
#
# Compressibility (1/GPa) = 0.02204493
#
# Stress axis : x y z
#
# Youngs Moduli (GPa) = 84.11805 50.16921 40.88197
#
# Poissons Ratio (x) = 0.34048 0.17980
# Poissons Ratio (y) = 0.57088 0.24258
# Poissons Ratio (z) = 0.36994 0.29769
#
# Static dielectric constant tensor:
#      x y z
#    x 3.625460 0.000000 0.000000 
#    y 0.000000 3.657730 0.000000 
#    z 0.000000 0.000000 3.600640 
# 
# 
# High freq. dielectric constant tensor:
#      x y z
#    x 1.782460 0.000000 0.000000 
#    y 0.000000 1.782250 0.000000 
#    z 0.000000 0.000000 1.764690 
# 
# From -- ./inp_files/5036.got.cif
#   From: 2010.03.12/outbox.cif.g09.slc.cpg/sg28_3_cif.got.tgz:5036.got - 2010.04.14 03:39:34.
