data_PCOD8168064
_publ_section_title
;
Structure prediction by ZEFSAII (Michael W. Deem and Ramdas Pophale) SiO2 
 PCOD8168064
Probable space group: P M A 2
;
_chemical_formula_sum "Si O2"
_cell_formula_units_Z 24
_cell_length_a 8.653234
_cell_length_b 14.081108
_cell_length_c 10.272617
_cell_angle_alpha 90.000000
_cell_angle_beta 90.000000
_cell_angle_gamma 90.000000
_cell_volume 1251.688822
_symmetry_space_group_name_H-M "P M A 2"
_symmetry_group_IT_number 28
_symmetry_cell_setting 'orthorhombic'
loop_
_space_group_symop_operation_xyz
x,y,z
-x,-y,z
1/2-x,y,z
1/2+x,-y,z
loop_
_atom_site_type_symbol
_atom_site_label
_atom_site_fract_x
_atom_site_fract_y
_atom_site_fract_z
Si Si1 0.933365 0.396881 0.574470
Si Si2 0.932891 0.099065 0.723911
Si Si3 0.068028 0.604565 0.091630
Si Si4 0.428134 0.094990 0.442921
Si Si5 0.927760 0.707329 0.333665
Si Si6 0.432962 0.705644 0.834969
O O1 0.750000 0.396140 0.556471
O O2 0.985597 0.360962 0.716092
O O3 0.000000 0.500000 0.550500
O O4 0.010937 0.328702 0.470635
O O5 0.750000 0.093867 0.727298
O O6 0.993747 0.186560 0.813134
O O7 0.983928 0.118675 0.576418
O O8 0.000000 0.000000 0.778681
O O9 0.250000 0.594348 0.079284
O O10 0.000000 0.500000 0.102017
O O11 0.028697 0.665038 0.218343
O O12 0.997798 0.660302 0.966878
O O13 0.250000 0.077920 0.478623
O O14 0.447236 0.178715 0.337524
O O15 0.500000 0.000000 0.379122
O O16 0.750000 0.677253 0.314042
O O17 0.250000 0.707954 0.843304
#
# Coordination Sequence:
#
# PCOD8168064 Si02
#       6
#     4   4   4   4   4   4
#     4  11  21  36  57  83 112 145 185 238 288 336
#     4  10  18  33  56  85 117 148 185 228 282 340
#     4  11  23  41  61  82 112 154 194 236 288 341
#     4  10  20  34  56  85 116 147 186 232 283 336
#     4  11  23  39  57  84 115 149 192 235 280 340
#     4   9  20  37  58  83 113 148 189 232 282 340
#
# _framework density 19.174094
#
# number of rings (size 3 to 8) (size 9 to 14) (size 15 to 20)
#    0.000    1.667    1.667    4.500    0.000    2.000 
#    0.000    6.667    0.000    4.000    0.000    0.000 
#    0.000    0.000    0.000    0.000    0.000    0.000 
#
# Total GULP energy -297614.539216 kJ/mol
# GULP energy per Si atom -12400.605801 kJ/mol
# Density = 1.913045 g / cm^3
# Si number density = 19.174094 Si / 1000 Ang^3
#
#
#
# Elastic Constant Matrix: (Units=GPa)
#
#
# Indices 1 2 3 4 5 6 
#
# 1 64.8208 36.2229 8.9233 0.0000 0.0000 0.0000
# 2 36.2229 139.1589 43.9921 0.0000 0.0000 0.0000
# 3 8.9233 43.9921 83.0036 0.0000 0.0000 0.0000
# 4 0.0000 0.0000 0.0000 25.0597 0.0000 0.0000
# 5 0.0000 0.0000 0.0000 0.0000 10.1461 0.0000
# 6 0.0000 0.0000 0.0000 0.0000 0.0000 22.9408
#
#
#
# Elastic Compliance Matrix: (Units=1/GPa)
#
#
# Indices 1 2 3 4 5 6 
#
# 1 0.018083 -0.004916 0.000662 0.000000 0.000000 0.000000
# 2 -0.004916 0.009969 -0.004755 0.000000 0.000000 0.000000
# 3 0.000662 -0.004755 0.014497 0.000000 0.000000 0.000000
# 4 0.000000 0.000000 0.000000 0.039905 0.000000 0.000000
# 5 0.000000 0.000000 0.000000 0.000000 0.098560 0.000000
# 6 0.000000 0.000000 0.000000 0.000000 0.000000 0.043590
#
#
# Mechanical properties :
#
#
# Convention : Reuss Voigt Hill
#
# Bulk Modulus (GPa) = 40.76706 51.69553 46.23129
# Shear Modulus (GPa) = 19.93624 24.81901 22.37763
#
# Velocity S-wave (km/s) = 3.22801 3.60168 3.41996
# Velocity P-wave (km/s) = 5.93305 6.65701 6.30543
#
# Compressibility (1/GPa) = 0.02452961
#
# Stress axis : x y z
#
# Youngs Moduli (GPa) = 55.29955 100.31191 68.98110
#
# Poissons Ratio (x) = 0.49315 -0.04563
# Poissons Ratio (y) = 0.27186 0.32801
# Poissons Ratio (z) = -0.03658 0.47699
#
# Static dielectric constant tensor:
#      x y z
#    x 3.487010 0.000000 0.000000 
#    y 0.000000 4.657860 0.000000 
#    z 0.000000 0.000000 3.466540 
# 
# 
# High freq. dielectric constant tensor:
#      x y z
#    x 1.745660 0.000000 0.000000 
#    y 0.000000 1.767070 0.000000 
#    z 0.000000 0.000000 1.726240 
# 
# From -- ./inp_files/2450.got.cif
#   From: 2010.03.12/outbox.cif.g09.slc.cpg/sg28_2_cif.got.tgz:2450.got - 2010.04.14 03:39:34.
