data_PCOD8168891
_publ_section_title
;
Structure prediction by ZEFSAII (Michael W. Deem and Ramdas Pophale) SiO2 
 PCOD8168891
Probable space group: P C A 21
;
_chemical_formula_sum "Si O2"
_cell_formula_units_Z 28
_cell_length_a 16.936222
_cell_length_b 10.890922
_cell_length_c 6.459017
_cell_angle_alpha 90.000000
_cell_angle_beta 90.000000
_cell_angle_gamma 90.000000
_cell_volume 1191.372615
_symmetry_space_group_name_H-M "P C A 21"
_symmetry_group_IT_number 29
_symmetry_cell_setting 'orthorhombic'
loop_
_space_group_symop_operation_xyz
x,y,z
-x,-y,1/2+z
1/2-x,y,1/2+z
1/2+x,-y,z
loop_
_atom_site_type_symbol
_atom_site_label
_atom_site_fract_x
_atom_site_fract_y
_atom_site_fract_z
Si Si1 0.427394 0.876605 0.724990
Si Si2 0.319189 0.664196 0.665782
Si Si3 0.680833 0.664207 0.485822
Si Si4 0.499988 0.714789 0.075900
Si Si5 0.572617 0.876598 0.426807
Si Si6 0.650909 0.407817 0.619593
Si Si7 0.349109 0.407796 0.532011
O O1 0.359402 0.795440 0.607593
O O2 0.500032 0.911281 0.575983
O O3 0.390331 0.000022 0.825819
O O4 0.457393 0.798454 0.913025
O O5 0.356443 0.610782 0.872976
O O6 0.224422 0.677413 0.696133
O O7 0.334981 0.556391 0.487859
O O8 0.640643 0.795451 0.544090
O O9 0.665047 0.556406 0.663746
O O10 0.643561 0.610820 0.278626
O O11 0.775596 0.677413 0.455421
O O12 0.542541 0.798383 0.238936
O O13 0.565275 0.634410 0.949739
O O14 0.434706 0.634334 0.201934
#
# Coordination Sequence:
#
# PCOD8168891 Si02
#       7
#     4   4   4   4   4   4   4
#     4  11  23  41  62  88 122 167 211 255 304 370
#     4   9  20  37  59  90 121 160 205 250 317 374
#     4   9  20  37  59  90 121 160 205 250 317 374
#     4  10  22  40  62  88 126 156 210 262 310 368
#     4  11  23  41  62  88 122 167 211 255 304 370
#     4   9  19  38  59  90 126 154 200 262 312 372
#     4   9  19  38  59  90 126 154 200 262 312 372
#
# _framework density 23.502302
#
# number of rings (size 3 to 8) (size 9 to 14) (size 15 to 20)
#    0.000    2.286    1.429    0.000    6.000    0.000 
#    0.000    7.143    0.000    0.000    0.000    0.000 
#    0.000    0.000    0.000    0.000    0.000    0.000 
#
# Total GULP energy -347020.080699 kJ/mol
# GULP energy per Si atom -12393.574311 kJ/mol
# Density = 2.344881 g / cm^3
# Si number density = 23.502302 Si / 1000 Ang^3
#
#
#
# Elastic Constant Matrix: (Units=GPa)
#
#
# Indices 1 2 3 4 5 6 
#
# 1 166.1801 98.0164 7.1889 0.0000 0.0000 0.0000
# 2 98.0164 169.7279 27.3168 0.0000 0.0000 0.0000
# 3 7.1889 27.3168 19.7723 0.0000 0.0000 0.0000
# 4 0.0000 0.0000 0.0000 34.5478 0.0000 0.0000
# 5 0.0000 0.0000 0.0000 0.0000 26.0555 0.0000
# 6 0.0000 0.0000 0.0000 0.0000 0.0000 39.1748
#
#
#
# Elastic Compliance Matrix: (Units=1/GPa)
#
#
# Indices 1 2 3 4 5 6 
#
# 1 0.009544 -0.006369 0.005329 0.000000 0.000000 0.000000
# 2 -0.006369 0.011827 -0.014024 0.000000 0.000000 0.000000
# 3 0.005329 -0.014024 0.068014 0.000000 0.000000 0.000000
# 4 0.000000 0.000000 0.000000 0.028945 0.000000 0.000000
# 5 0.000000 0.000000 0.000000 0.000000 0.038380 0.000000
# 6 0.000000 0.000000 0.000000 0.000000 0.000000 0.025527
#
#
# Mechanical properties :
#
#
# Convention : Reuss Voigt Hill
#
# Bulk Modulus (GPa) = 16.87574 68.96937 42.92256
# Shear Modulus (GPa) = 21.54099 34.83284 28.18692
#
# Velocity S-wave (km/s) = 3.03074 3.85399 3.46689
# Velocity P-wave (km/s) = 4.40945 7.01525 5.85905
#
# Compressibility (1/GPa) = 0.05925665
#
# Stress axis : x y z
#
# Youngs Moduli (GPa) = 104.78156 84.55218 14.70295
#
# Poissons Ratio (x) = 0.53852 -0.07836
# Poissons Ratio (y) = 0.66737 0.20620
# Poissons Ratio (z) = -0.55843 1.18577
#
# Static dielectric constant tensor:
#      x y z
#    x 4.896230 0.000000 0.000000 
#    y 0.000000 4.671930 0.000000 
#    z 0.000000 0.000000 4.779030 
# 
# 
# High freq. dielectric constant tensor:
#      x y z
#    x 1.926360 0.000000 0.000000 
#    y 0.000000 1.911470 0.000000 
#    z 0.000000 0.000000 1.949740 
# 
# From -- ./inp_files/1792.got.cif
#   From: 2010.03.12/outbox.cif.g09.slc.cpg/sg29_1_cif.got.tgz:1792.got - 2010.04.14 03:43:10.
