data_PCOD8168036
_publ_section_title
;
Structure prediction by ZEFSAII (Michael W. Deem and Ramdas Pophale) SiO2 
 PCOD8168036
Probable space group: P M A 2
;
_chemical_formula_sum "Si O2"
_cell_formula_units_Z 32
_cell_length_a 8.740969
_cell_length_b 14.640310
_cell_length_c 12.443313
_cell_angle_alpha 90.000000
_cell_angle_beta 90.000000
_cell_angle_gamma 90.000000
_cell_volume 1592.376935
_symmetry_space_group_name_H-M "P M A 2"
_symmetry_group_IT_number 28
_symmetry_cell_setting 'orthorhombic'
loop_
_space_group_symop_operation_xyz
x,y,z
-x,-y,z
1/2-x,y,z
1/2+x,-y,z
loop_
_atom_site_type_symbol
_atom_site_label
_atom_site_fract_x
_atom_site_fract_y
_atom_site_fract_z
Si Si1 0.570024 0.090849 0.409840
Si Si2 0.428031 0.711211 0.344010
Si Si3 0.070023 0.092226 0.866982
Si Si4 0.923036 0.316747 0.578291
Si Si5 0.571676 0.863775 0.628900
Si Si6 0.075482 0.592363 0.788539
Si Si7 0.068689 0.600838 0.142282
Si Si8 0.570329 0.715970 0.952096
O O1 0.750000 0.086527 0.398741
O O2 0.506334 0.184590 0.354457
O O3 0.524023 0.087285 0.535267
O O4 0.500000 0.000000 0.353274
O O5 0.250000 0.719457 0.319594
O O6 0.461307 0.656336 0.455121
O O7 0.501293 0.652269 0.247486
O O8 0.250000 0.083849 0.862721
O O9 0.008803 0.104022 0.744944
O O10 0.024932 0.176974 0.944444
O O11 0.000000 0.000000 0.917415
O O12 0.750000 0.274840 0.580630
O O13 0.932874 0.402940 0.658379
O O14 0.044548 0.244167 0.620920
O O15 0.750000 0.885317 0.613540
O O16 0.250000 0.596524 0.829501
O O17 0.000000 0.500000 0.830248
O O18 0.977775 0.674689 0.837545
O O19 0.250000 0.590203 0.148237
O O20 0.000000 0.500000 0.130977
O O21 0.025092 0.664598 0.042842
O O22 0.750000 0.702457 0.972364
#
# Coordination Sequence:
#
# PCOD8168036 Si02
#       8
#     4   4   4   4   4   4   4   4
#     4  10  19  33  53  82 117 157 196 236 281 338
#     4   8  18  37  59  82 114 149 188 234 285 341
#     4  10  22  36  55  82 115 152 190 233 283 338
#     4   9  18  34  55  81 115 155 190 231 284 342
#     4  10  18  31  51  80 115 156 195 234 280 333
#     4  11  22  35  56  85 116 153 191 231 288 351
#     4  11  23  42  66  89 111 146 193 244 297 351
#     4  11  23  42  61  83 116 150 192 245 290 340
#
# _framework density 20.095742999999999
#
# number of rings (size 3 to 8) (size 9 to 14) (size 15 to 20)
#    0.000    2.000    1.250    3.375    0.000    4.000 
#    0.000    6.875    0.000    3.000    0.000    0.000 
#    0.000    0.000    0.000    0.000    0.000    0.000 
#
# Total GULP energy -396628.208780 kJ/mol
# GULP energy per Si atom -12394.631524 kJ/mol
# Density = 2.005000 g / cm^3
# Si number density = 20.095743 Si / 1000 Ang^3
#
#
#
# Elastic Constant Matrix: (Units=GPa)
#
#
# Indices 1 2 3 4 5 6 
#
# 1 50.5942 36.0753 20.7649 0.0000 0.0000 0.0000
# 2 36.0753 137.8797 57.6859 0.0000 0.0000 0.0000
# 3 20.7649 57.6859 103.6665 0.0000 0.0000 0.0000
# 4 0.0000 0.0000 0.0000 23.6332 0.0000 0.0000
# 5 0.0000 0.0000 0.0000 0.0000 14.1644 0.0000
# 6 0.0000 0.0000 0.0000 0.0000 0.0000 30.8297
#
#
#
# Elastic Compliance Matrix: (Units=1/GPa)
#
#
# Indices 1 2 3 4 5 6 
#
# 1 0.024539 -0.005688 -0.001750 0.000000 0.000000 0.000000
# 2 -0.005688 0.010772 -0.004855 0.000000 0.000000 0.000000
# 3 -0.001750 -0.004855 0.012698 0.000000 0.000000 0.000000
# 4 0.000000 0.000000 0.000000 0.042313 0.000000 0.000000
# 5 0.000000 0.000000 0.000000 0.000000 0.070600 0.000000
# 6 0.000000 0.000000 0.000000 0.000000 0.000000 0.032436
#
#
# Mechanical properties :
#
#
# Convention : Reuss Voigt Hill
#
# Bulk Modulus (GPa) = 42.69227 57.91026 50.30127
# Shear Modulus (GPa) = 22.14807 25.56642 23.85724
#
# Velocity S-wave (km/s) = 3.32343 3.57070 3.44928
# Velocity P-wave (km/s) = 6.00146 6.77345 6.39911
#
# Compressibility (1/GPa) = 0.02342344
#
# Stress axis : x y z
#
# Youngs Moduli (GPa) = 40.75082 92.83159 78.75031
#
# Poissons Ratio (x) = 0.52806 0.13781
# Poissons Ratio (y) = 0.23181 0.38232
# Poissons Ratio (z) = 0.07131 0.45068
#
# Static dielectric constant tensor:
#      x y z
#    x 3.494160 0.000000 0.000000 
#    y 0.000000 4.037590 0.000000 
#    z 0.000000 0.000000 3.640180 
# 
# 
# High freq. dielectric constant tensor:
#      x y z
#    x 1.773410 0.000000 0.000000 
#    y 0.000000 1.787370 0.000000 
#    z 0.000000 0.000000 1.767610 
# 
# From -- ./inp_files/5038.got.cif
#   From: 2010.03.12/outbox.cif.g09.slc.cpg/sg28_3_cif.got.tgz:5038.got - 2010.04.14 03:39:34.
