data_PCOD8168001
_publ_section_title
;
Structure prediction by ZEFSAII (Michael W. Deem and Ramdas Pophale) SiO2 
 PCOD8168001
Probable space group: P M A 2
;
_chemical_formula_sum "Si O2"
_cell_formula_units_Z 16
_cell_length_a 10.084246
_cell_length_b 7.173723
_cell_length_c 10.247718
_cell_angle_alpha 90.000000
_cell_angle_beta 90.000000
_cell_angle_gamma 90.000000
_cell_volume 741.336188
_symmetry_space_group_name_H-M "P M A 2"
_symmetry_group_IT_number 28
_symmetry_cell_setting 'orthorhombic'
loop_
_space_group_symop_operation_xyz
x,y,z
-x,-y,z
1/2-x,y,z
1/2+x,-y,z
loop_
_atom_site_type_symbol
_atom_site_label
_atom_site_fract_x
_atom_site_fract_y
_atom_site_fract_z
Si Si1 0.500000 0.000000 0.713351
Si Si2 0.250000 0.763910 0.276260
Si Si3 0.402755 0.338970 0.880798
Si Si4 0.983101 0.778857 0.165278
Si Si5 0.750000 0.085170 0.548216
Si Si6 0.250000 0.172243 0.326674
O O1 0.572482 0.849071 0.801896
O O2 0.614305 0.102232 0.629311
O O3 0.380090 0.677023 0.208193
O O4 0.250000 0.752366 0.436095
O O5 0.250000 0.982973 0.240413
O O6 0.500000 0.500000 0.827040
O O7 0.250000 0.401000 0.862185
O O8 0.432330 0.305797 0.031666
O O9 0.882172 0.720340 0.282075
O O10 0.000000 0.000000 0.153348
O O11 0.750000 0.878233 0.480460
#
# Coordination Sequence:
#
# PCOD8168001 Si02
#       6
#     2   2   4   4   2   2
#     4  12  24  42  70  96 130 184 232 264 324 392
#     4   8  18  29  60 100 123 154 206 269 326 390
#     4  12  28  44  66  98 136 177 225 278 328 394
#     4  10  17  35  64  94 126 163 203 266 337 386
#     4  10  20  36  64 104 124 172 230 264 326 398
#     4   8  16  31  58  94 125 156 212 265 320 386
#
# _framework density 21.582653000000001
#
# number of rings (size 3 to 8) (size 9 to 14) (size 15 to 20)
#    0.750    1.000    3.750    1.500    3.500    0.000 
#    0.000    0.000    0.000    9.000    0.000    0.000 
#    0.000    0.000    0.000    0.000    0.000    0.000 
#
# Total GULP energy -198252.931274 kJ/mol
# GULP energy per Si atom -12390.808205 kJ/mol
# Density = 2.153353 g / cm^3
# Si number density = 21.582653 Si / 1000 Ang^3
#
#
#
# Elastic Constant Matrix: (Units=GPa)
#
#
# Indices 1 2 3 4 5 6 
#
# 1 193.3425 14.1236 40.7865 0.0000 0.0000 0.0000
# 2 14.1236 46.6228 4.6981 0.0000 0.0000 0.0000
# 3 40.7865 4.6981 90.2471 0.0000 0.0000 0.0000
# 4 0.0000 0.0000 0.0000 -0.9421 0.0000 0.0000
# 5 0.0000 0.0000 0.0000 0.0000 32.5989 0.0000
# 6 0.0000 0.0000 0.0000 0.0000 0.0000 12.7077
#
#
#
# Elastic Compliance Matrix: (Units=1/GPa)
#
#
# Indices 1 2 3 4 5 6 
#
# 1 0.005821 -0.001506 -0.002552 0.000000 0.000000 0.000000
# 2 -0.001506 0.021952 -0.000462 0.000000 0.000000 0.000000
# 3 -0.002552 -0.000462 0.012258 0.000000 0.000000 0.000000
# 4 0.000000 0.000000 0.000000 -1.061409 0.000000 0.000000
# 5 0.000000 0.000000 0.000000 0.000000 0.030676 0.000000
# 6 0.000000 0.000000 0.000000 0.000000 0.000000 0.078692
#
#
# Mechanical properties :
#
#
# Convention : Reuss Voigt Hill
#
# Bulk Modulus (GPa) = 32.26886 49.93653 41.10270
# Shear Modulus (GPa) = -5.60136 26.91316 10.65590
#
# Velocity S-wave (km/s) = -1.61274 3.53509 2.22440
# Velocity P-wave (km/s) = 3.39350 6.31269 5.06784
#
# Compressibility (1/GPa) = 0.03098963
#
# Stress axis : x y z
#
# Youngs Moduli (GPa) = 171.80430 45.55487 81.57821
#
# Poissons Ratio (x) = 0.06861 0.20820
# Poissons Ratio (y) = 0.25875 0.03770
# Poissons Ratio (z) = 0.43847 0.02105
#
# Static dielectric constant tensor:
#      x y z
#    x 4.280300 0.000000 0.000000 
#    y 0.000000 3.515620 0.000000 
#    z 0.000000 0.000000 3.716190 
# 
# 
# High freq. dielectric constant tensor:
#      x y z
#    x 1.874290 0.000000 0.000000 
#    y 0.000000 1.809490 0.000000 
#    z 0.000000 0.000000 1.837260 
# 
# From -- ./inp_files/4525.got.cif
#   From: 2010.03.12/outbox.cif.g09.slc.cpg/sg28_3_cif.got.tgz:4525.got - 2010.04.14 03:39:34.
