data_PCOD8168201
_publ_section_title
;
Structure prediction by ZEFSAII (Michael W. Deem and Ramdas Pophale) SiO2 
 PCOD8168201
Probable space group: P M A 2
;
_chemical_formula_sum "Si O2"
_cell_formula_units_Z 32
_cell_length_a 8.690567
_cell_length_b 14.598259
_cell_length_c 12.476837
_cell_angle_alpha 90.000000
_cell_angle_beta 90.000000
_cell_angle_gamma 90.000000
_cell_volume 1582.900725
_symmetry_space_group_name_H-M "P M A 2"
_symmetry_group_IT_number 28
_symmetry_cell_setting 'orthorhombic'
loop_
_space_group_symop_operation_xyz
x,y,z
-x,-y,z
1/2-x,y,z
1/2+x,-y,z
loop_
_atom_site_type_symbol
_atom_site_label
_atom_site_fract_x
_atom_site_fract_y
_atom_site_fract_z
Si Si1 0.430874 0.225048 0.210420
Si Si2 0.073172 0.593865 0.767732
Si Si3 0.069937 0.594641 0.295481
Si Si4 0.067567 0.897496 0.023605
Si Si5 0.070269 0.089269 0.390372
Si Si6 0.065839 0.214419 0.826917
Si Si7 0.928338 0.830726 0.598427
Si Si8 0.075276 0.652303 0.532390
O O1 0.250000 0.225426 0.184319
O O2 0.492721 0.327720 0.221368
O O3 0.516640 0.166202 0.121143
O O4 0.472718 0.178658 0.323415
O O5 0.250000 0.599317 0.803270
O O6 0.057666 0.589875 0.638315
O O7 0.000000 0.500000 0.812893
O O8 0.987441 0.679812 0.823583
O O9 0.250000 0.597524 0.273532
O O10 0.032281 0.600652 0.422545
O O11 0.000000 0.500000 0.253175
O O12 0.250000 0.906382 0.021321
O O13 0.000000 0.000000 0.031954
O O14 0.009919 0.845367 0.918596
O O15 0.250000 0.075705 0.392686
O O16 0.001887 0.097814 0.511951
O O17 0.000000 0.000000 0.334174
O O18 0.250000 0.212507 0.837224
O O19 0.002082 0.165431 0.717752
O O20 0.750000 0.848850 0.609307
O O21 0.952954 0.732421 0.544956
O O22 0.250000 0.690811 0.525919
#
# Coordination Sequence:
#
# PCOD8168201 Si02
#       8
#     4   4   4   4   4   4   4   4
#     4  11  23  42  65  89 121 158 203 255 307 362
#     4  10  19  33  54  86 125 167 211 253 301 357
#     4  11  22  36  57  88 124 165 208 251 302 360
#     4  12  26  46  70  94 120 154 203 256 308 366
#     4  10  21  35  55  85 119 156 194 239 297 360
#     4  10  21  39  63  90 122 159 204 254 307 362
#     4   9  18  34  55  83 120 160 198 243 300 358
#     4   9  18  31  51  81 119 163 208 249 294 351
#
# _framework density 20.216049999999999
#
# number of rings (size 3 to 8) (size 9 to 14) (size 15 to 20)
#    0.000    1.750    1.250    3.375    0.000    4.500 
#    0.000    1.875    0.000    0.000    0.000    0.000 
#    0.000    0.000    0.000    0.000    0.000    0.000 
#
# Total GULP energy -396582.936514 kJ/mol
# GULP energy per Si atom -12393.216766 kJ/mol
# Density = 2.017004 g / cm^3
# Si number density = 20.216050 Si / 1000 Ang^3
#
#
#
# Elastic Constant Matrix: (Units=GPa)
#
#
# Indices 1 2 3 4 5 6 
#
# 1 81.4461 54.2780 55.4760 0.0000 0.0000 0.0000
# 2 54.2780 145.2506 64.4751 0.0000 0.0000 0.0000
# 3 55.4760 64.4751 103.5141 0.0000 0.0000 0.0000
# 4 0.0000 0.0000 0.0000 25.6145 0.0000 0.0000
# 5 0.0000 0.0000 0.0000 0.0000 26.5399 0.0000
# 6 0.0000 0.0000 0.0000 0.0000 0.0000 37.8239
#
#
#
# Elastic Compliance Matrix: (Units=1/GPa)
#
#
# Indices 1 2 3 4 5 6 
#
# 1 0.020828 -0.003909 -0.008727 0.000000 0.000000 0.000000
# 2 -0.003909 0.010249 -0.004289 0.000000 0.000000 0.000000
# 3 -0.008727 -0.004289 0.017009 0.000000 0.000000 0.000000
# 4 0.000000 0.000000 0.000000 0.039040 0.000000 0.000000
# 5 0.000000 0.000000 0.000000 0.000000 0.037679 0.000000
# 6 0.000000 0.000000 0.000000 0.000000 0.000000 0.026438
#
#
# Mechanical properties :
#
#
# Convention : Reuss Voigt Hill
#
# Bulk Modulus (GPa) = 70.24696 75.40767 72.82731
# Shear Modulus (GPa) = 26.33806 28.39445 27.36626
#
# Velocity S-wave (km/s) = 3.61339 3.75180 3.68324
# Velocity P-wave (km/s) = 7.22719 7.49332 7.36146
#
# Compressibility (1/GPa) = 0.01423549
#
# Stress axis : x y z
#
# Youngs Moduli (GPa) = 48.01306 97.56870 58.79197
#
# Poissons Ratio (x) = 0.38140 0.51310
# Poissons Ratio (y) = 0.18768 0.25215
# Poissons Ratio (z) = 0.41903 0.41846
#
# Static dielectric constant tensor:
#      x y z
#    x 3.832790 0.000000 0.000000 
#    y 0.000000 3.690000 0.000000 
#    z 0.000000 0.000000 3.879460 
# 
# 
# High freq. dielectric constant tensor:
#      x y z
#    x 1.792010 0.000000 0.000000 
#    y 0.000000 1.790660 0.000000 
#    z 0.000000 0.000000 1.781770 
# 
# From -- ./inp_files/5101.got.cif
#   From: 2010.03.12/outbox.cif.g09.slc.cpg/sg28_3_cif.got.tgz:5101.got - 2010.04.14 03:39:34.
