data_PCOD8168254
_publ_section_title
;
Structure prediction by ZEFSAII (Michael W. Deem and Ramdas Pophale) SiO2 
 PCOD8168254
Probable space group: P M A 2
;
_chemical_formula_sum "Si O2"
_cell_formula_units_Z 32
_cell_length_a 8.925529
_cell_length_b 15.463907
_cell_length_c 11.936103
_cell_angle_alpha 90.000000
_cell_angle_beta 90.000000
_cell_angle_gamma 90.000000
_cell_volume 1647.463314
_symmetry_space_group_name_H-M "P M A 2"
_symmetry_group_IT_number 28
_symmetry_cell_setting 'orthorhombic'
loop_
_space_group_symop_operation_xyz
x,y,z
-x,-y,z
1/2-x,y,z
1/2+x,-y,z
loop_
_atom_site_type_symbol
_atom_site_label
_atom_site_fract_x
_atom_site_fract_y
_atom_site_fract_z
Si Si1 0.074301 0.410114 0.041440
Si Si2 0.427944 0.744291 0.907115
Si Si3 0.575646 0.088429 0.041181
Si Si4 0.075280 0.345279 0.287022
Si Si5 0.924471 0.088183 0.516380
Si Si6 0.923466 0.163194 0.278624
Si Si7 0.572194 0.411891 0.506137
Si Si8 0.927682 0.251377 0.651638
O O1 0.250000 0.415034 0.019002
O O2 0.037040 0.390788 0.170249
O O3 0.000000 0.500000 0.005713
O O4 0.005680 0.336163 0.964775
O O5 0.250000 0.733615 0.918304
O O6 0.482731 0.747097 0.779070
O O7 0.483807 0.832278 0.966085
O O8 0.750000 0.076379 0.022059
O O9 0.536408 0.106472 0.170524
O O10 0.500000 0.000000 0.001120
O O11 0.250000 0.351471 0.316683
O O12 0.028913 0.245860 0.280547
O O13 0.980064 0.394997 0.379804
O O14 0.750000 0.078863 0.539403
O O15 0.958714 0.104904 0.386082
O O16 0.992397 0.166428 0.590066
O O17 0.000000 0.000000 0.556012
O O18 0.750000 0.193831 0.277237
O O19 0.500000 0.500000 0.551942
O O20 0.750000 0.419851 0.507811
O O21 0.512701 0.335740 0.586706
O O22 0.750000 0.249742 0.644093
#
# Coordination Sequence:
#
# PCOD8168254 Si02
#       8
#     4   4   4   4   4   4   4   4
#     4  11  24  40  60  88 119 152 189 237 290 346
#     4  10  21  40  63  85 113 154 200 243 289 340
#     4  10  21  35  57  86 117 154 193 236 290 346
#     4  11  22  36  59  90 119 150 189 234 288 347
#     4  10  20  36  57  84 117 152 191 234 287 345
#     4  10  19  35  58  84 115 155 191 232 294 349
#     4  11  22  39  61  86 118 153 190 236 288 345
#     4   9  20  39  61  83 114 154 194 240 290 338
#
# _framework density 19.423802999999999
#
# number of rings (size 3 to 8) (size 9 to 14) (size 15 to 20)
#    0.000    1.750    2.500    1.875    0.000    5.000 
#    0.000    3.125    0.000    0.000    0.000    0.000 
#    0.000    0.000    0.000    0.000    0.000    0.000 
#
# Total GULP energy -396931.156343 kJ/mol
# GULP energy per Si atom -12404.098636 kJ/mol
# Density = 1.937959 g / cm^3
# Si number density = 19.423803 Si / 1000 Ang^3
#
#
#
# Elastic Constant Matrix: (Units=GPa)
#
#
# Indices 1 2 3 4 5 6 
#
# 1 50.9552 51.8089 42.9997 0.0000 0.0000 0.0000
# 2 51.8089 194.8190 82.6843 0.0000 0.0000 0.0000
# 3 42.9997 82.6843 145.2944 0.0000 0.0000 0.0000
# 4 0.0000 0.0000 0.0000 9.1208 0.0000 0.0000
# 5 0.0000 0.0000 0.0000 0.0000 -0.4262 0.0000
# 6 0.0000 0.0000 0.0000 0.0000 0.0000 39.7682
#
#
#
# Elastic Compliance Matrix: (Units=1/GPa)
#
#
# Indices 1 2 3 4 5 6 
#
# 1 0.030146 -0.005577 -0.005748 0.000000 0.000000 0.000000
# 2 -0.005577 0.007799 -0.002788 0.000000 0.000000 0.000000
# 3 -0.005748 -0.002788 0.010170 0.000000 0.000000 0.000000
# 4 0.000000 0.000000 0.000000 0.109639 0.000000 0.000000
# 5 0.000000 0.000000 0.000000 0.000000 -2.346490 0.000000
# 6 0.000000 0.000000 0.000000 0.000000 0.000000 0.025146
#
#
# Mechanical properties :
#
#
# Convention : Reuss Voigt Hill
#
# Bulk Modulus (GPa) = 50.27716 82.89494 66.58605
# Shear Modulus (GPa) = -2.34881 23.93095 10.79107
#
# Velocity S-wave (km/s) = -1.10085 3.51385 2.35959
# Velocity P-wave (km/s) = 4.93200 7.69627 6.46364
#
# Compressibility (1/GPa) = 0.01988975
#
# Stress axis : x y z
#
# Youngs Moduli (GPa) = 33.17152 128.21472 98.32720
#
# Poissons Ratio (x) = 0.71512 0.56516
# Poissons Ratio (y) = 0.18501 0.27412
# Poissons Ratio (z) = 0.19066 0.35744
#
# Static dielectric constant tensor:
#      x y z
#    x 3.353180 0.000000 0.000000 
#    y 0.000000 3.703290 0.000000 
#    z 0.000000 0.000000 3.679180 
# 
# 
# High freq. dielectric constant tensor:
#      x y z
#    x 1.739920 0.000000 0.000000 
#    y 0.000000 1.770750 0.000000 
#    z 0.000000 0.000000 1.757340 
# 
# From -- ./inp_files/5008.got.cif
#   From: 2010.03.12/outbox.cif.g09.slc.cpg/sg28_3_cif.got.tgz:5008.got - 2010.04.14 03:39:34.
