data_PCOD8168911
_publ_section_title
;
Structure prediction by ZEFSAII (Michael W. Deem and Ramdas Pophale) SiO2 
 PCOD8168911
Probable space group: P C A 21
;
_chemical_formula_sum "Si O2"
_cell_formula_units_Z 32
_cell_length_a 21.586230
_cell_length_b 4.797973
_cell_length_c 13.274954
_cell_angle_alpha 90.000000
_cell_angle_beta 90.000000
_cell_angle_gamma 90.000000
_cell_volume 1374.888960
_symmetry_space_group_name_H-M "P C A 21"
_symmetry_group_IT_number 29
_symmetry_cell_setting 'orthorhombic'
loop_
_space_group_symop_operation_xyz
x,y,z
-x,-y,1/2+z
1/2-x,y,1/2+z
1/2+x,-y,z
loop_
_atom_site_type_symbol
_atom_site_label
_atom_site_fract_x
_atom_site_fract_y
_atom_site_fract_z
Si Si1 0.027425 0.335709 0.905360
Si Si2 0.598904 0.178871 0.977489
Si Si3 0.599978 0.699397 0.714196
Si Si4 0.887336 0.172653 0.891900
Si Si5 0.335902 0.746410 0.674515
Si Si6 0.645263 0.661686 0.513606
Si Si7 0.252899 0.219667 0.666330
Si Si8 0.328942 0.810325 0.284262
O O1 0.038736 0.645841 0.944093
O O2 0.042629 0.367883 0.785266
O O3 0.957353 0.248157 0.918885
O O4 0.074817 0.138193 0.967675
O O5 0.658992 0.215172 0.903867
O O6 0.616212 0.315873 0.084869
O O7 0.588122 0.653855 0.595119
O O8 0.664015 0.508833 0.738807
O O9 0.613992 0.024788 0.732721
O O10 0.875183 0.218719 0.775301
O O11 0.843461 0.361938 0.963342
O O12 0.872398 0.856607 0.920008
O O13 0.280224 0.523341 0.695970
O O14 0.311544 0.041366 0.630396
O O15 0.705571 0.765394 0.573409
O O16 0.230741 0.003747 0.757749
#
# Coordination Sequence:
#
# PCOD8168911 Si02
#       8
#     4   4   4   4   4   4   4   4
#     4  10  22  41  65  93 127 165 207 265 320 362
#     4  10  22  42  65  91 124 169 218 255 309 388
#     4   9  18  37  64  92 119 155 211 259 298 367
#     4  12  26  41  62  97 132 162 207 261 316 378
#     4  12  26  42  62  95 131 164 209 260 317 379
#     4  11  23  43  65  93 126 169 216 251 306 386
#     4  11  23  42  65  90 127 168 207 263 319 365
#     4   9  18  36  64  93 118 154 211 260 299 365
#
# _framework density 23.274607
#
# number of rings (size 3 to 8) (size 9 to 14) (size 15 to 20)
#    0.000    1.500    0.000    6.000    0.000    5.000 
#    0.000    2.500    0.000    0.000    0.000    0.000 
#    0.000    0.000    0.000    0.000    0.000    0.000 
#
# Total GULP energy -396425.741404 kJ/mol
# GULP energy per Si atom -12388.304419 kJ/mol
# Density = 2.322163 g / cm^3
# Si number density = 23.274607 Si / 1000 Ang^3
#
#
#
# Elastic Constant Matrix: (Units=GPa)
#
#
# Indices 1 2 3 4 5 6 
#
# 1 60.7207 -0.8408 27.9811 0.0000 0.0000 0.0000
# 2 -0.8408 86.0326 26.7891 0.0000 0.0000 0.0000
# 3 27.9811 26.7891 138.0365 0.0000 0.0000 0.0000
# 4 0.0000 0.0000 0.0000 30.1819 0.0000 0.0000
# 5 0.0000 0.0000 0.0000 0.0000 17.5360 0.0000
# 6 0.0000 0.0000 0.0000 0.0000 0.0000 20.7490
#
#
#
# Elastic Compliance Matrix: (Units=1/GPa)
#
#
# Indices 1 2 3 4 5 6 
#
# 1 0.018328 0.001422 -0.003991 0.000000 0.000000 0.000000
# 2 0.001422 0.012481 -0.002711 0.000000 0.000000 0.000000
# 3 -0.003991 -0.002711 0.008580 0.000000 0.000000 0.000000
# 4 0.000000 0.000000 0.000000 0.033132 0.000000 0.000000
# 5 0.000000 0.000000 0.000000 0.000000 0.057025 0.000000
# 6 0.000000 0.000000 0.000000 0.000000 0.000000 0.048195
#
#
# Mechanical properties :
#
#
# Convention : Reuss Voigt Hill
#
# Bulk Modulus (GPa) = 34.68712 43.62760 39.15736
# Shear Modulus (GPa) = 25.26391 29.08409 27.17400
#
# Velocity S-wave (km/s) = 3.29822 3.53881 3.42063
# Velocity P-wave (km/s) = 5.42588 5.95676 5.69751
#
# Compressibility (1/GPa) = 0.02882914
#
# Stress axis : x y z
#
# Youngs Moduli (GPa) = 54.56221 80.11912 116.55649
#
# Poissons Ratio (x) = -0.11392 0.46519
# Poissons Ratio (y) = -0.07758 0.31593
# Poissons Ratio (z) = 0.21776 0.21717
#
# Static dielectric constant tensor:
#      x y z
#    x 3.932470 0.000000 0.000000 
#    y 0.000000 4.538200 0.000000 
#    z 0.000000 0.000000 4.120100 
# 
# 
# High freq. dielectric constant tensor:
#      x y z
#    x 1.892510 0.000000 0.000000 
#    y 0.000000 1.944050 0.000000 
#    z 0.000000 0.000000 1.914490 
# 
# From -- ./inp_files/3881.got.cif
#   From: 2010.03.12/outbox.cif.g09.slc.cpg/sg29_2_cif.got.tgz:3881.got - 2010.04.14 03:43:10.
