data_PCOD8168291
_publ_section_title
;
Structure prediction by ZEFSAII (Michael W. Deem and Ramdas Pophale) SiO2 
 PCOD8168291
Probable space group: P M A 2
;
_chemical_formula_sum "Si O2"
_cell_formula_units_Z 32
_cell_length_a 9.250248
_cell_length_b 16.223053
_cell_length_c 11.272978
_cell_angle_alpha 90.000000
_cell_angle_beta 90.000000
_cell_angle_gamma 90.000000
_cell_volume 1691.704961
_symmetry_space_group_name_H-M "P M A 2"
_symmetry_group_IT_number 28
_symmetry_cell_setting 'orthorhombic'
loop_
_space_group_symop_operation_xyz
x,y,z
-x,-y,z
1/2-x,y,z
1/2+x,-y,z
loop_
_atom_site_type_symbol
_atom_site_label
_atom_site_fract_x
_atom_site_fract_y
_atom_site_fract_z
Si Si1 0.911445 0.115796 0.663340
Si Si2 0.419558 0.075903 0.437081
Si Si3 0.917217 0.254477 0.060642
Si Si4 0.913563 0.576327 0.695608
Si Si5 0.411473 0.781452 0.330426
Si Si6 0.420362 0.916162 0.933723
Si Si7 0.905810 0.297391 0.570561
Si Si8 0.079917 0.416468 0.971746
O O1 0.750000 0.079049 0.641144
O O2 0.963161 0.098114 0.796835
O O3 0.906865 0.212151 0.640119
O O4 0.027184 0.077317 0.573643
O O5 0.250000 0.064637 0.433585
O O6 0.464019 0.154090 0.360276
O O7 0.500000 0.000000 0.373498
O O8 0.750000 0.269345 0.024379
O O9 0.938081 0.254536 0.201439
O O10 0.969832 0.166270 0.006165
O O11 0.012391 0.332121 0.020930
O O12 0.750000 0.557074 0.670081
O O13 0.946703 0.590764 0.832553
O O14 0.000000 0.500000 0.643573
O O15 0.958571 0.654878 0.620773
O O16 0.250000 0.821496 0.339539
O O17 0.424198 0.709959 0.428737
O O18 0.250000 0.929493 0.951268
O O19 0.500000 0.000000 0.979453
O O20 0.750000 0.340220 0.597241
O O21 0.250000 0.421803 0.004300
O O22 0.000000 0.500000 0.019449
#
# Coordination Sequence:
#
# PCOD8168291 Si02
#       8
#     4   4   4   4   4   4   4   4
#     4   9  18  33  52  76 106 138 173 216 270 327
#     4  11  21  33  52  76 103 136 176 223 271 319
#     4  10  21  39  60  80 108 147 188 230 276 323
#     4  10  20  33  52  80 111 139 169 209 259 318
#     4   9  20  38  56  75 102 138 180 222 265 316
#     4  10  21  35  53  79 111 147 184 225 274 328
#     4   9  17  32  54  77 103 134 170 216 268 320
#     4  10  21  37  59  87 115 143 179 223 271 325
#
# _framework density 18.91583
#
# number of rings (size 3 to 8) (size 9 to 14) (size 15 to 20)
#    0.000    2.250    0.000    3.750    0.000    7.500 
#    0.000    1.875    0.000    0.000    0.000    0.000 
#    0.000    0.000    0.000    0.000    0.000    0.000 
#
# Total GULP energy -396617.329788 kJ/mol
# GULP energy per Si atom -12394.291556 kJ/mol
# Density = 1.887278 g / cm^3
# Si number density = 18.915830 Si / 1000 Ang^3
#
#
#
# Elastic Constant Matrix: (Units=GPa)
#
#
# Indices 1 2 3 4 5 6 
#
# 1 117.1961 68.9240 52.5517 0.0000 0.0000 0.0000
# 2 68.9240 120.5084 43.1843 0.0000 0.0000 0.0000
# 3 52.5517 43.1843 56.7850 0.0000 0.0000 0.0000
# 4 0.0000 0.0000 0.0000 4.4487 0.0000 0.0000
# 5 0.0000 0.0000 0.0000 0.0000 2.6533 0.0000
# 6 0.0000 0.0000 0.0000 0.0000 0.0000 39.7311
#
#
#
# Elastic Compliance Matrix: (Units=1/GPa)
#
#
# Indices 1 2 3 4 5 6 
#
# 1 0.016950 -0.005599 -0.011429 0.000000 0.000000 0.000000
# 2 -0.005599 0.013256 -0.004900 0.000000 0.000000 0.000000
# 3 -0.011429 -0.004900 0.031913 0.000000 0.000000 0.000000
# 4 0.000000 0.000000 0.000000 0.224787 0.000000 0.000000
# 5 0.000000 0.000000 0.000000 0.000000 0.376894 0.000000
# 6 0.000000 0.000000 0.000000 0.000000 0.000000 0.025169
#
#
# Mechanical properties :
#
#
# Convention : Reuss Voigt Hill
#
# Bulk Modulus (GPa) = 54.74953 69.31217 62.03085
# Shear Modulus (GPa) = 6.76670 18.02190 12.39430
#
# Velocity S-wave (km/s) = 1.89342 3.09000 2.56253
# Velocity P-wave (km/s) = 5.81263 7.03227 6.45133
#
# Compressibility (1/GPa) = 0.01826500
#
# Stress axis : x y z
#
# Youngs Moduli (GPa) = 58.99615 75.43556 31.33537
#
# Poissons Ratio (x) = 0.42238 0.35812
# Poissons Ratio (y) = 0.33033 0.15353
# Poissons Ratio (z) = 0.67424 0.36960
#
# Static dielectric constant tensor:
#      x y z
#    x 3.557890 0.000000 0.000000 
#    y 0.000000 3.676470 0.000000 
#    z 0.000000 0.000000 3.430060 
# 
# 
# High freq. dielectric constant tensor:
#      x y z
#    x 1.736730 0.000000 0.000000 
#    y 0.000000 1.733990 0.000000 
#    z 0.000000 0.000000 1.722800 
# 
# From -- ./inp_files/5066.got.cif
#   From: 2010.03.12/outbox.cif.g09.slc.cpg/sg28_3_cif.got.tgz:5066.got - 2010.04.14 03:39:34.
