data_PCOD8168646
_publ_section_title
;
Structure prediction by ZEFSAII (Michael W. Deem and Ramdas Pophale) SiO2 
 PCOD8168646
Probable space group: P C A 21
;
_chemical_formula_sum "Si O2"
_cell_formula_units_Z 28
_cell_length_a 18.560537
_cell_length_b 7.674443
_cell_length_c 9.188954
_cell_angle_alpha 90.000000
_cell_angle_beta 90.000000
_cell_angle_gamma 90.000000
_cell_volume 1308.890994
_symmetry_space_group_name_H-M "P C A 21"
_symmetry_group_IT_number 29
_symmetry_cell_setting 'orthorhombic'
loop_
_space_group_symop_operation_xyz
x,y,z
-x,-y,1/2+z
1/2-x,y,1/2+z
1/2+x,-y,z
loop_
_atom_site_type_symbol
_atom_site_label
_atom_site_fract_x
_atom_site_fract_y
_atom_site_fract_z
Si Si1 0.015850 0.116493 0.340350
Si Si2 0.725680 0.322496 0.956844
Si Si3 0.291380 0.064213 0.559771
Si Si4 0.550566 0.811061 0.011836
Si Si5 0.424193 0.579399 0.478092
Si Si6 0.825370 0.450770 0.728861
Si Si7 0.324253 0.169257 0.855320
O O1 0.011771 0.145294 0.165965
O O2 0.097586 0.096661 0.396041
O O3 0.980844 0.277677 0.426626
O O4 0.978153 0.935631 0.384044
O O5 0.738055 0.430064 0.107381
O O6 0.709153 0.123123 0.988846
O O7 0.651144 0.401581 0.885232
O O8 0.798860 0.334333 0.864229
O O9 0.364222 0.165586 0.523461
O O10 0.284596 0.047509 0.734602
O O11 0.224837 0.177535 0.498254
O O12 0.538379 0.610086 0.964095
O O13 0.400161 0.611966 0.649922
O O14 0.835139 0.645064 0.781065
#
# Coordination Sequence:
#
# PCOD8168646 Si02
#       7
#     4   4   4   4   4   4   4
#     4  11  24  45  70 103 137 184 232 279 345 414
#     4  10  20  38  69  99 130 174 218 276 340 398
#     4  11  21  41  68  97 136 170 223 282 336 400
#     4  11  23  47  71  97 140 183 227 286 342 408
#     4  10  22  43  71  95 143 175 223 285 339 402
#     4  10  19  40  65  94 133 170 219 280 331 402
#     4  11  23  42  68  97 133 178 224 278 345 402
#
# _framework density 21.392154000000001
#
# number of rings (size 3 to 8) (size 9 to 14) (size 15 to 20)
#    0.857    0.571    4.286    2.571    0.000    2.286 
#   10.286    2.857    0.000    0.000    0.000    0.000 
#    0.000    0.000    0.000    0.000    0.000    0.000 
#
# Total GULP energy -346875.163017 kJ/mol
# GULP energy per Si atom -12388.398679 kJ/mol
# Density = 2.134346 g / cm^3
# Si number density = 21.392154 Si / 1000 Ang^3
#
#
#
# Elastic Constant Matrix: (Units=GPa)
#
#
# Indices 1 2 3 4 5 6 
#
# 1 56.3688 15.4201 22.1325 0.0000 0.0000 0.0000
# 2 15.4201 89.0921 22.6207 0.0000 0.0000 0.0000
# 3 22.1325 22.6207 43.7543 0.0000 0.0000 0.0000
# 4 0.0000 0.0000 0.0000 30.7315 0.0000 0.0000
# 5 0.0000 0.0000 0.0000 0.0000 47.4717 0.0000
# 6 0.0000 0.0000 0.0000 0.0000 0.0000 23.9463
#
#
#
# Elastic Compliance Matrix: (Units=1/GPa)
#
#
# Indices 1 2 3 4 5 6 
#
# 1 0.022238 -0.001143 -0.010658 0.000000 0.000000 0.000000
# 2 -0.001143 0.012979 -0.006132 0.000000 0.000000 0.000000
# 3 -0.010658 -0.006132 0.031416 0.000000 0.000000 0.000000
# 4 0.000000 0.000000 0.000000 0.032540 0.000000 0.000000
# 5 0.000000 0.000000 0.000000 0.000000 0.021065 0.000000
# 6 0.000000 0.000000 0.000000 0.000000 0.000000 0.041760
#
#
# Mechanical properties :
#
#
# Convention : Reuss Voigt Hill
#
# Bulk Modulus (GPa) = 32.50165 34.39575 33.44870
# Shear Modulus (GPa) = 24.02473 29.03271 26.52872
#
# Velocity S-wave (km/s) = 3.35485 3.68797 3.52535
# Velocity P-wave (km/s) = 5.49845 5.85221 5.67809
#
# Compressibility (1/GPa) = 0.03076767
#
# Stress axis : x y z
#
# Youngs Moduli (GPa) = 44.96895 77.04706 31.83078
#
# Poissons Ratio (x) = 0.08806 0.33924
# Poissons Ratio (y) = 0.05139 0.19519
# Poissons Ratio (z) = 0.47926 0.47245
#
# Static dielectric constant tensor:
#      x y z
#    x 3.846060 0.000000 0.000000 
#    y 0.000000 3.940160 0.000000 
#    z 0.000000 0.000000 4.256590 
# 
# 
# High freq. dielectric constant tensor:
#      x y z
#    x 1.822700 0.000000 0.000000 
#    y 0.000000 1.852480 0.000000 
#    z 0.000000 0.000000 1.825200 
# 
# From -- ./inp_files/2112.got.cif
#   From: 2010.03.12/outbox.cif.g09.slc.cpg/sg29_2_cif.got.tgz:2112.got - 2010.04.14 03:43:10.
