data_PCOD8168488
_publ_section_title
;
Structure prediction by ZEFSAII (Michael W. Deem and Ramdas Pophale) SiO2 
 PCOD8168488
Probable space group: P M A 2
;
_chemical_formula_sum "Si O2"
_cell_formula_units_Z 32
_cell_length_a 8.479027
_cell_length_b 15.414377
_cell_length_c 11.845244
_cell_angle_alpha 90.000000
_cell_angle_beta 90.000000
_cell_angle_gamma 90.000000
_cell_volume 1548.160583
_symmetry_space_group_name_H-M "P M A 2"
_symmetry_group_IT_number 28
_symmetry_cell_setting 'orthorhombic'
loop_
_space_group_symop_operation_xyz
x,y,z
-x,-y,z
1/2-x,y,z
1/2+x,-y,z
loop_
_atom_site_type_symbol
_atom_site_label
_atom_site_fract_x
_atom_site_fract_y
_atom_site_fract_z
Si Si1 0.933564 0.352370 0.284050
Si Si2 0.066489 0.409863 0.053379
Si Si3 0.063678 0.591612 0.527531
Si Si4 0.568273 0.834398 0.287832
Si Si5 0.564824 0.247892 0.677126
Si Si6 0.934654 0.089822 0.066353
Si Si7 0.934220 0.906016 0.531868
Si Si8 0.065210 0.242256 0.922738
O O1 0.750000 0.371958 0.267803
O O2 0.000312 0.390711 0.401313
O O3 0.026580 0.399584 0.184775
O O4 0.958735 0.249647 0.282514
O O5 0.250000 0.413004 0.036183
O O6 0.000000 0.500000 0.005300
O O7 0.998202 0.329769 0.980986
O O8 0.250000 0.590837 0.526100
O O9 0.003730 0.668045 0.608815
O O10 0.000000 0.500000 0.573059
O O11 0.750000 0.804818 0.281038
O O12 0.526776 0.894792 0.182830
O O13 0.533131 0.888134 0.400515
O O14 0.750000 0.253148 0.704154
O O15 0.530632 0.162644 0.605008
O O16 0.464397 0.245826 0.790407
O O17 0.750000 0.084545 0.090552
O O18 0.000000 0.000000 0.015338
O O19 0.968597 0.163143 0.974601
O O20 0.750000 0.899984 0.561483
O O21 0.000000 0.000000 0.563603
O O22 0.250000 0.229555 0.947975
#
# Coordination Sequence:
#
# PCOD8168488 Si02
#       8
#     4   4   4   4   4   4   4   4
#     4  11  21  37  63  94 129 168 207 255 315 376
#     4  11  24  41  64  93 129 166 209 261 313 377
#     4  10  23  40  62  93 127 165 207 257 311 370
#     4  11  22  38  63  96 131 168 207 254 313 377
#     4  11  24  44  66  91 124 164 213 264 315 371
#     4  12  25  42  67  96 129 168 208 258 313 375
#     4  11  24  41  65  95 128 167 208 256 312 372
#     4  11  25  45  66  92 125 164 213 264 315 373
#
# _framework density 20.669688000000001
#
# number of rings (size 3 to 8) (size 9 to 14) (size 15 to 20)
#    0.000    1.000    2.500    4.125    0.000    8.000 
#    0.000    5.000    0.000    0.000    0.000    0.000 
#    0.000    0.000    0.000    0.000    0.000    0.000 
#
# Total GULP energy -397028.742688 kJ/mol
# GULP energy per Si atom -12407.148209 kJ/mol
# Density = 2.062264 g / cm^3
# Si number density = 20.669688 Si / 1000 Ang^3
#
#
#
# Elastic Constant Matrix: (Units=GPa)
#
#
# Indices 1 2 3 4 5 6 
#
# 1 44.8323 19.7141 15.7408 0.0000 0.0000 0.0000
# 2 19.7141 165.6920 48.5050 0.0000 0.0000 0.0000
# 3 15.7408 48.5050 116.8997 0.0000 0.0000 0.0000
# 4 0.0000 0.0000 0.0000 5.3876 0.0000 0.0000
# 5 0.0000 0.0000 0.0000 0.0000 27.4530 0.0000
# 6 0.0000 0.0000 0.0000 0.0000 0.0000 36.0378
#
#
#
# Elastic Compliance Matrix: (Units=1/GPa)
#
#
# Indices 1 2 3 4 5 6 
#
# 1 0.024085 -0.002181 -0.002338 0.000000 0.000000 0.000000
# 2 -0.002181 0.007067 -0.002639 0.000000 0.000000 0.000000
# 3 -0.002338 -0.002639 0.009964 0.000000 0.000000 0.000000
# 4 0.000000 0.000000 0.000000 0.185610 0.000000 0.000000
# 5 0.000000 0.000000 0.000000 0.000000 0.036426 0.000000
# 6 0.000000 0.000000 0.000000 0.000000 0.000000 0.027749
#
#
# Mechanical properties :
#
#
# Convention : Reuss Voigt Hill
#
# Bulk Modulus (GPa) = 37.31252 55.03821 46.17537
# Shear Modulus (GPa) = 15.91593 30.00663 22.96128
#
# Velocity S-wave (km/s) = 2.77792 3.81428 3.33658
# Velocity P-wave (km/s) = 5.32730 6.78849 6.10179
#
# Compressibility (1/GPa) = 0.02680066
#
# Stress axis : x y z
#
# Youngs Moduli (GPa) = 41.51893 141.49719 100.36086
#
# Poissons Ratio (x) = 0.30864 0.23465
# Poissons Ratio (y) = 0.09056 0.26482
# Poissons Ratio (z) = 0.09708 0.37337
#
# Static dielectric constant tensor:
#      x y z
#    x 3.703750 0.000000 0.000000 
#    y 0.000000 4.293410 0.000000 
#    z 0.000000 0.000000 3.725320 
# 
# 
# High freq. dielectric constant tensor:
#      x y z
#    x 1.812890 0.000000 0.000000 
#    y 0.000000 1.824390 0.000000 
#    z 0.000000 0.000000 1.805390 
# 
# From -- ./inp_files/4984.got.cif
#   From: 2010.03.12/outbox.cif.g09.slc.cpg/sg28_3_cif.got.tgz:4984.got - 2010.04.14 03:39:34.
