data_PCOD8168412
_publ_section_title
;
Structure prediction by ZEFSAII (Michael W. Deem and Ramdas Pophale) SiO2 
 PCOD8168412
Probable space group: P M A 2
;
_chemical_formula_sum "Si O2"
_cell_formula_units_Z 28
_cell_length_a 9.541220
_cell_length_b 9.267821
_cell_length_c 18.174808
_cell_angle_alpha 90.000000
_cell_angle_beta 90.000000
_cell_angle_gamma 90.000000
_cell_volume 1607.131371
_symmetry_space_group_name_H-M "P M A 2"
_symmetry_group_IT_number 28
_symmetry_cell_setting 'orthorhombic'
loop_
_space_group_symop_operation_xyz
x,y,z
-x,-y,z
1/2-x,y,z
1/2+x,-y,z
loop_
_atom_site_type_symbol
_atom_site_label
_atom_site_fract_x
_atom_site_fract_y
_atom_site_fract_z
Si Si1 0.588082 0.141326 0.905130
Si Si2 0.412227 0.860746 0.072158
Si Si3 0.912186 0.355821 0.195361
Si Si4 0.086947 0.645452 0.778454
Si Si5 0.586619 0.352672 0.513494
Si Si6 0.586050 0.146478 0.643630
Si Si7 0.091711 0.639160 0.353564
O O1 0.750000 0.100389 0.892177
O O2 0.543764 0.274925 0.854042
O O3 0.500000 0.000000 0.884294
O O4 0.559683 0.191531 0.988810
O O5 0.250000 0.896965 0.085019
O O6 0.467303 0.742564 0.129330
O O7 0.500000 0.000000 0.090816
O O8 0.750000 0.394571 0.182872
O O9 0.933596 0.275995 0.275947
O O10 0.000000 0.500000 0.192074
O O11 0.250000 0.603555 0.777798
O O12 0.049631 0.752957 0.712521
O O13 0.000000 0.500000 0.769919
O O14 0.500000 0.500000 0.524617
O O15 0.750000 0.390215 0.526573
O O16 0.536878 0.231884 0.570798
O O17 0.560370 0.281872 0.431639
O O18 0.750000 0.107580 0.641081
O O19 0.500000 0.000000 0.650250
O O20 0.250000 0.583391 0.355435
O O21 0.000000 0.500000 0.350372
#
# Coordination Sequence:
#
# PCOD8168412 Si02
#       7
#     4   4   4   4   4   4   4
#     4   9  18  33  51  70  93 122 156 191 228 273
#     4   9  18  32  48  67  93 124 156 190 229 273
#     4   9  17  29  46  68  93 121 154 192 232 273
#     4  10  21  35  51  73  98 122 152 190 230 273
#     4   9  17  30  49  71  93 119 154 193 231 273
#     4  10  21  35  50  70  96 125 156 189 227 273
#     4   8  14  26  44  65  90 119 150 187 230 272
#
# _framework density 17.422348
#
# number of rings (size 3 to 8) (size 9 to 14) (size 15 to 20)
#    0.000    2.857    0.000    0.857    0.000    2.857 
#    0.000    0.714    0.000    0.000    0.000    0.000 
#    0.000    0.000    0.000    0.000    0.000    0.000 
#
# Total GULP energy -346951.659657 kJ/mol
# GULP energy per Si atom -12391.130702 kJ/mol
# Density = 1.738269 g / cm^3
# Si number density = 17.422348 Si / 1000 Ang^3
#
#
#
# Elastic Constant Matrix: (Units=GPa)
#
#
# Indices 1 2 3 4 5 6 
#
# 1 51.0379 52.1664 48.4874 0.0000 0.0000 0.0000
# 2 52.1664 113.6400 86.3507 0.0000 0.0000 0.0000
# 3 48.4874 86.3507 157.9571 0.0000 0.0000 0.0000
# 4 0.0000 0.0000 0.0000 12.0009 0.0000 0.0000
# 5 0.0000 0.0000 0.0000 0.0000 -61.6785 0.0000
# 6 0.0000 0.0000 0.0000 0.0000 0.0000 31.3609
#
#
#
# Elastic Compliance Matrix: (Units=1/GPa)
#
#
# Indices 1 2 3 4 5 6 
#
# 1 0.038105 -0.014718 -0.003651 0.000000 0.000000 0.000000
# 2 -0.014718 0.020737 -0.006818 0.000000 0.000000 0.000000
# 3 -0.003651 -0.006818 0.011179 0.000000 0.000000 0.000000
# 4 0.000000 0.000000 0.000000 0.083327 0.000000 0.000000
# 5 0.000000 0.000000 0.000000 0.000000 -0.016213 0.000000
# 6 0.000000 0.000000 0.000000 0.000000 0.000000 0.031887
#
#
# Mechanical properties :
#
#
# Convention : Reuss Voigt Hill
#
# Bulk Modulus (GPa) = 50.89992 77.40488 64.15240
# Shear Modulus (GPa) = 22.12922 5.37872 13.75397
#
# Velocity S-wave (km/s) = 3.56780 1.75896 2.81275
# Velocity P-wave (km/s) = 6.80081 6.97497 6.88844
#
# Compressibility (1/GPa) = 0.01964639
#
# Stress axis : x y z
#
# Youngs Moduli (GPa) = 26.24316 48.22297 89.45267
#
# Poissons Ratio (x) = 0.70973 0.32661
# Poissons Ratio (y) = 0.38624 0.60993
# Poissons Ratio (z) = 0.09582 0.32881
#
# Static dielectric constant tensor:
#      x y z
#    x 3.279510 0.000000 0.000000 
#    y 0.000000 3.413970 0.000000 
#    z 0.000000 0.000000 3.962150 
# 
# 
# High freq. dielectric constant tensor:
#      x y z
#    x 1.672970 0.000000 0.000000 
#    y 0.000000 1.636990 0.000000 
#    z 0.000000 0.000000 1.702770 
# 
# From -- ./inp_files/6781.got.cif
#   From: 2010.03.12/outbox.cif.g09.slc.cpg/sg28_4_cif.got.tgz:6781.got - 2010.04.14 03:39:34.
