data_PCOD8168824
_publ_section_title
;
Structure prediction by ZEFSAII (Michael W. Deem and Ramdas Pophale) SiO2 
 PCOD8168824
Probable space group: P C A 21
;
_chemical_formula_sum "Si O2"
_cell_formula_units_Z 32
_cell_length_a 9.415969
_cell_length_b 18.001649
_cell_length_c 8.767998
_cell_angle_alpha 90.000000
_cell_angle_beta 90.000000
_cell_angle_gamma 90.000000
_cell_volume 1486.201693
_symmetry_space_group_name_H-M "P C A 21"
_symmetry_group_IT_number 29
_symmetry_cell_setting 'orthorhombic'
loop_
_space_group_symop_operation_xyz
x,y,z
-x,-y,1/2+z
1/2-x,y,1/2+z
1/2+x,-y,z
loop_
_atom_site_type_symbol
_atom_site_label
_atom_site_fract_x
_atom_site_fract_y
_atom_site_fract_z
Si Si1 0.647228 0.644894 0.579080
Si Si2 0.131916 0.049777 0.065632
Si Si3 0.857990 0.480398 0.089350
Si Si4 0.417178 0.562609 0.422008
Si Si5 0.636202 0.871655 0.379750
Si Si6 0.340146 0.261586 0.370229
Si Si7 0.865801 0.125948 0.564172
Si Si8 0.422500 0.847306 0.912513
O O1 0.696328 0.563130 0.638113
O O2 0.506203 0.635780 0.473104
O O3 0.607226 0.697660 0.718519
O O4 0.777583 0.678716 0.486003
O O5 0.104064 0.074863 0.238237
O O6 0.142122 0.962264 0.053446
O O7 0.280603 0.083050 0.009357
O O8 0.002311 0.076750 0.959545
O O9 0.736408 0.435478 0.001166
O O10 0.901153 0.435714 0.240299
O O11 0.994066 0.489303 0.976639
O O12 0.723114 0.799875 0.323854
O O13 0.490048 0.843955 0.454839
O O14 0.475127 0.222395 0.449923
O O15 0.720061 0.162704 0.508313
O O16 0.891542 0.151923 0.734454
#
# Coordination Sequence:
#
# PCOD8168824 Si02
#       8
#     4   4   4   4   4   4   4   4
#     4  10  24  39  71  91 127 175 211 261 301 391
#     4  11  21  38  60  95 121 167 212 271 341 403
#     4  10  21  40  67 105 134 169 204 265 320 362
#     4  10  22  38  68 101 140 164 209 256 327 354
#     4  11  23  38  66  87 127 168 214 274 315 393
#     4  11  22  46  61  88 123 175 231 240 318 393
#     4  12  22  39  60  94 127 159 218 279 347 371
#     4  11  25  38  63  87 127 171 209 278 319 393
#
# _framework density 21.531397999999999
#
# number of rings (size 3 to 8) (size 9 to 14) (size 15 to 20)
#    0.750    0.500    0.000    8.250    1.750    0.000 
#    0.000    2.500    0.000    0.000    0.000    0.000 
#    0.000    0.000    0.000    0.000    0.000    0.000 
#
# Total GULP energy -396870.718173 kJ/mol
# GULP energy per Si atom -12402.209943 kJ/mol
# Density = 2.148239 g / cm^3
# Si number density = 21.531398 Si / 1000 Ang^3
#
#
#
# Elastic Constant Matrix: (Units=GPa)
#
#
# Indices 1 2 3 4 5 6 
#
# 1 129.2286 7.1269 37.6737 0.0000 0.0000 0.0000
# 2 7.1269 49.8363 -1.0897 0.0000 0.0000 0.0000
# 3 37.6737 -1.0897 101.6891 0.0000 0.0000 0.0000
# 4 0.0000 0.0000 0.0000 35.0370 0.0000 0.0000
# 5 0.0000 0.0000 0.0000 0.0000 45.0483 0.0000
# 6 0.0000 0.0000 0.0000 0.0000 0.0000 23.5037
#
#
#
# Elastic Compliance Matrix: (Units=1/GPa)
#
#
# Indices 1 2 3 4 5 6 
#
# 1 0.008762 -0.001324 -0.003260 0.000000 0.000000 0.000000
# 2 -0.001324 0.020271 0.000708 0.000000 0.000000 0.000000
# 3 -0.003260 0.000708 0.011049 0.000000 0.000000 0.000000
# 4 0.000000 0.000000 0.000000 0.028541 0.000000 0.000000
# 5 0.000000 0.000000 0.000000 0.000000 0.022198 0.000000
# 6 0.000000 0.000000 0.000000 0.000000 0.000000 0.042546
#
#
# Mechanical properties :
#
#
# Convention : Reuss Voigt Hill
#
# Bulk Modulus (GPa) = 30.93269 40.90842 35.92055
# Shear Modulus (GPa) = 32.91703 36.52068 34.71885
#
# Velocity S-wave (km/s) = 3.91422 4.12291 4.01992
# Velocity P-wave (km/s) = 5.90133 6.45796 6.18591
#
# Compressibility (1/GPa) = 0.03232826
#
# Stress axis : x y z
#
# Youngs Moduli (GPa) = 114.13305 49.33269 90.50323
#
# Poissons Ratio (x) = 0.06533 0.29506
# Poissons Ratio (y) = 0.15114 -0.06406
# Poissons Ratio (z) = 0.37210 -0.03492
#
# Static dielectric constant tensor:
#      x y z
#    x 3.996540 0.000000 0.000000 
#    y 0.000000 3.691280 0.000000 
#    z 0.000000 0.000000 3.945330 
# 
# 
# High freq. dielectric constant tensor:
#      x y z
#    x 1.851380 0.000000 0.000000 
#    y 0.000000 1.824350 0.000000 
#    z 0.000000 0.000000 1.851780 
# 
# From -- ./inp_files/1265.got.cif
#   From: 2010.03.12/outbox.cif.g09.slc.cpg/sg29_1_cif.got.tgz:1265.got - 2010.04.14 03:43:10.
