data_PCOD8168895
_publ_section_title
;
Structure prediction by ZEFSAII (Michael W. Deem and Ramdas Pophale) SiO2 
 PCOD8168895
Probable space group: P C A 21
;
_chemical_formula_sum "Si O2"
_cell_formula_units_Z 28
_cell_length_a 8.814840
_cell_length_b 13.295759
_cell_length_c 11.216968
_cell_angle_alpha 90.000000
_cell_angle_beta 90.000000
_cell_angle_gamma 90.000000
_cell_volume 1314.628518
_symmetry_space_group_name_H-M "P C A 21"
_symmetry_group_IT_number 29
_symmetry_cell_setting 'orthorhombic'
loop_
_space_group_symop_operation_xyz
x,y,z
-x,-y,1/2+z
1/2-x,y,1/2+z
1/2+x,-y,z
loop_
_atom_site_type_symbol
_atom_site_label
_atom_site_fract_x
_atom_site_fract_y
_atom_site_fract_z
Si Si1 0.007772 0.632174 0.254240
Si Si2 0.858590 0.041066 0.523639
Si Si3 0.358591 0.958934 0.257531
Si Si4 0.249998 0.500395 0.640586
Si Si5 0.007769 0.632174 0.526932
Si Si6 0.578447 0.837521 0.658702
Si Si7 0.578450 0.837521 0.122469
O O1 0.162384 0.571600 0.233255
O O2 0.864989 0.568702 0.211441
O O3 0.983579 0.654122 0.390585
O O4 0.020360 0.740996 0.193241
O O5 0.749998 0.056929 0.640584
O O6 0.787385 0.061208 0.390585
O O7 0.001686 0.116499 0.538930
O O8 0.920819 0.926598 0.523946
O O9 0.501688 0.883501 0.242241
O O10 0.420821 0.073401 0.257224
O O11 0.364985 0.431299 0.569728
O O12 0.162381 0.571601 0.547917
O O13 0.020357 0.740995 0.587931
O O14 0.749998 0.800123 0.640586
#
# Coordination Sequence:
#
# PCOD8168895 Si02
#       7
#     4   4   4   4   4   4   4
#     4  11  22  42  66  90 126 167 207 265 323 375
#     4  10  23  42  65  96 133 170 215 265 317 384
#     4  10  23  42  65  96 133 170 215 265 317 384
#     4  10  24  42  62  96 122 156 220 262 316 382
#     4  11  22  42  66  90 126 167 207 265 323 375
#     4  10  22  40  63  94 129 168 213 255 316 379
#     4  10  22  40  63  94 129 168 213 255 316 379
#
# _framework density 21.298793
#
# number of rings (size 3 to 8) (size 9 to 14) (size 15 to 20)
#    0.000    1.714    1.429    1.714    2.000   12.571 
#    0.000    1.429    0.000    0.000    0.000    0.000 
#    0.000    0.000    0.000    0.000    0.000    0.000 
#
# Total GULP energy -346958.817576 kJ/mol
# GULP energy per Si atom -12391.386342 kJ/mol
# Density = 2.125032 g / cm^3
# Si number density = 21.298793 Si / 1000 Ang^3
#
#
#
# Elastic Constant Matrix: (Units=GPa)
#
#
# Indices 1 2 3 4 5 6 
#
# 1 79.6998 34.1198 34.2149 0.0000 0.0000 0.0000
# 2 34.1198 128.0941 44.9426 0.0000 0.0000 0.0000
# 3 34.2149 44.9426 139.0302 0.0000 0.0000 0.0000
# 4 0.0000 0.0000 0.0000 5.6843 0.0000 0.0000
# 5 0.0000 0.0000 0.0000 0.0000 24.5021 0.0000
# 6 0.0000 0.0000 0.0000 0.0000 0.0000 11.8172
#
#
#
# Elastic Compliance Matrix: (Units=1/GPa)
#
#
# Indices 1 2 3 4 5 6 
#
# 1 0.015016 -0.003049 -0.002710 0.000000 0.000000 0.000000
# 2 -0.003049 0.009425 -0.002296 0.000000 0.000000 0.000000
# 3 -0.002710 -0.002296 0.008602 0.000000 0.000000 0.000000
# 4 0.000000 0.000000 0.000000 0.175924 0.000000 0.000000
# 5 0.000000 0.000000 0.000000 0.000000 0.040813 0.000000
# 6 0.000000 0.000000 0.000000 0.000000 0.000000 0.084622
#
#
# Mechanical properties :
#
#
# Convention : Reuss Voigt Hill
#
# Bulk Modulus (GPa) = 59.05891 63.70873 61.38382
# Shear Modulus (GPa) = 14.03883 23.97050 19.00467
#
# Velocity S-wave (km/s) = 2.57015 3.35840 2.99036
# Velocity P-wave (km/s) = 6.04951 6.70934 6.38795
#
# Compressibility (1/GPa) = 0.01693225
#
# Stress axis : x y z
#
# Youngs Moduli (GPa) = 66.59743 106.10614 116.25463
#
# Poissons Ratio (x) = 0.32351 0.31502
# Poissons Ratio (y) = 0.20305 0.26695
# Poissons Ratio (z) = 0.18046 0.24364
#
# Static dielectric constant tensor:
#      x y z
#    x 3.864930 0.000000 0.000000 
#    y 0.000000 3.941160 0.000000 
#    z 0.000000 0.000000 3.628340 
# 
# 
# High freq. dielectric constant tensor:
#      x y z
#    x 1.840800 0.000000 0.000000 
#    y 0.000000 1.846360 0.000000 
#    z 0.000000 0.000000 1.816720 
# 
# From -- ./inp_files/2868.got.cif
#   From: 2010.03.12/outbox.cif.g09.slc.cpg/sg29_2_cif.got.tgz:2868.got - 2010.04.14 03:43:10.
