data_PCOD8168574
_publ_section_title
;
Structure prediction by ZEFSAII (Michael W. Deem and Ramdas Pophale) SiO2 
 PCOD8168574
Probable space group: P C A 21
;
_chemical_formula_sum "Si O2"
_cell_formula_units_Z 32
_cell_length_a 20.201657
_cell_length_b 8.228915
_cell_length_c 9.237823
_cell_angle_alpha 90.000000
_cell_angle_beta 90.000000
_cell_angle_gamma 90.000000
_cell_volume 1535.674618
_symmetry_space_group_name_H-M "P C A 21"
_symmetry_group_IT_number 29
_symmetry_cell_setting 'orthorhombic'
loop_
_space_group_symop_operation_xyz
x,y,z
-x,-y,1/2+z
1/2-x,y,1/2+z
1/2+x,-y,z
loop_
_atom_site_type_symbol
_atom_site_label
_atom_site_fract_x
_atom_site_fract_y
_atom_site_fract_z
Si Si1 0.944182 0.873589 0.196430
Si Si2 0.836151 0.803888 0.602649
Si Si3 0.694868 0.560432 0.852661
Si Si4 0.339346 0.393734 0.876809
Si Si5 0.067197 0.633463 0.859665
Si Si6 0.949876 0.010987 0.488886
Si Si7 0.542307 0.520373 0.564798
Si Si8 0.808218 0.815389 0.123130
O O1 0.866634 0.930523 0.186192
O O2 0.987862 0.987797 0.094883
O O3 0.967444 0.883562 0.362504
O O4 0.950294 0.688436 0.149910
O O5 0.824881 0.711394 0.453225
O O6 0.861064 0.668111 0.717535
O O7 0.765409 0.886675 0.648423
O O8 0.887393 0.951180 0.583009
O O9 0.770871 0.501419 0.876303
O O10 0.644421 0.412436 0.872598
O O11 0.688862 0.632914 0.691709
O O12 0.397390 0.500291 0.949830
O O13 0.325377 0.221150 0.956159
O O14 0.042312 0.616395 0.691643
O O15 0.024806 0.519494 0.969569
O O16 0.062214 0.818367 0.909621
#
# Coordination Sequence:
#
# PCOD8168574 Si02
#       8
#     4   4   4   4   4   4   4   4
#     4  10  21  40  57  84 116 156 205 239 295 364
#     4  10  20  34  65  87 109 149 208 243 293 355
#     4  10  18  37  64  83 112 151 202 253 285 354
#     4   9  19  34  64  88 102 151 210 242 279 353
#     4  11  23  38  58  88 125 154 195 256 310 347
#     4  11  24  36  59  90 122 157 194 255 310 351
#     4  10  22  40  59  84 119 159 205 245 295 369
#     4   9  17  37  62  84 105 153 205 247 275 353
#
# _framework density 20.837745999999999
#
# number of rings (size 3 to 8) (size 9 to 14) (size 15 to 20)
#    0.000    2.000    3.750    0.000    7.000    1.000 
#    0.000    1.250    0.000    0.000    0.000    0.000 
#    0.000    0.000    0.000    0.000    0.000    0.000 
#
# Total GULP energy -396557.892479 kJ/mol
# GULP energy per Si atom -12392.434140 kJ/mol
# Density = 2.079032 g / cm^3
# Si number density = 20.837746 Si / 1000 Ang^3
#
#
#
# Elastic Constant Matrix: (Units=GPa)
#
#
# Indices 1 2 3 4 5 6 
#
# 1 123.7326 30.2941 42.0660 0.0000 0.0000 0.0000
# 2 30.2941 34.3561 14.0233 0.0000 0.0000 0.0000
# 3 42.0660 14.0233 86.2103 0.0000 0.0000 0.0000
# 4 0.0000 0.0000 0.0000 29.5883 0.0000 0.0000
# 5 0.0000 0.0000 0.0000 0.0000 34.6096 0.0000
# 6 0.0000 0.0000 0.0000 0.0000 0.0000 31.8737
#
#
#
# Elastic Compliance Matrix: (Units=1/GPa)
#
#
# Indices 1 2 3 4 5 6 
#
# 1 0.011620 -0.008496 -0.004288 0.000000 0.000000 0.000000
# 2 -0.008496 0.037389 -0.001936 0.000000 0.000000 0.000000
# 3 -0.004288 -0.001936 0.014007 0.000000 0.000000 0.000000
# 4 0.000000 0.000000 0.000000 0.033797 0.000000 0.000000
# 5 0.000000 0.000000 0.000000 0.000000 0.028894 0.000000
# 6 0.000000 0.000000 0.000000 0.000000 0.000000 0.031374
#
#
# Mechanical properties :
#
#
# Convention : Reuss Voigt Hill
#
# Bulk Modulus (GPa) = 29.78383 46.34064 38.06223
# Shear Modulus (GPa) = 25.28938 29.74202 27.51570
#
# Velocity S-wave (km/s) = 3.48750 3.78208 3.63777
# Velocity P-wave (km/s) = 5.52640 6.43112 5.99585
#
# Compressibility (1/GPa) = 0.03357527
#
# Stress axis : x y z
#
# Youngs Moduli (GPa) = 86.06017 26.74614 71.39406
#
# Poissons Ratio (x) = 0.22723 0.30613
# Poissons Ratio (y) = 0.73115 0.13824
# Poissons Ratio (z) = 0.36902 0.05179
#
# Static dielectric constant tensor:
#      x y z
#    x 4.243100 0.000000 0.000000 
#    y 0.000000 3.093240 0.000000 
#    z 0.000000 0.000000 4.049220 
# 
# 
# High freq. dielectric constant tensor:
#      x y z
#    x 1.834420 0.000000 0.000000 
#    y 0.000000 1.745870 0.000000 
#    z 0.000000 0.000000 1.839300 
# 
# From -- ./inp_files/2279.got.cif
#   From: 2010.03.12/outbox.cif.g09.slc.cpg/sg29_2_cif.got.tgz:2279.got - 2010.04.14 03:43:10.
