data_PCOD8168648
_publ_section_title
;
Structure prediction by ZEFSAII (Michael W. Deem and Ramdas Pophale) SiO2 
 PCOD8168648
Probable space group: P C A 21
;
_chemical_formula_sum "Si O2"
_cell_formula_units_Z 24
_cell_length_a 15.304509
_cell_length_b 6.703289
_cell_length_c 11.993074
_cell_angle_alpha 90.000000
_cell_angle_beta 90.000000
_cell_angle_gamma 90.000000
_cell_volume 1230.376020
_symmetry_space_group_name_H-M "P C A 21"
_symmetry_group_IT_number 29
_symmetry_cell_setting 'orthorhombic'
loop_
_space_group_symop_operation_xyz
x,y,z
-x,-y,1/2+z
1/2-x,y,1/2+z
1/2+x,-y,z
loop_
_atom_site_type_symbol
_atom_site_label
_atom_site_fract_x
_atom_site_fract_y
_atom_site_fract_z
Si Si1 0.967721 0.833475 0.146480
Si Si2 0.437608 0.181312 0.394075
Si Si3 0.122163 0.131503 0.198385
Si Si4 0.598199 0.487877 0.064450
Si Si5 0.879804 0.997428 0.939509
Si Si6 0.196610 0.894589 0.017078
O O1 0.015508 0.632304 0.109607
O O2 0.918041 0.797453 0.262835
O O3 0.032137 0.023900 0.158781
O O4 0.896892 0.870383 0.050344
O O5 0.418547 0.392595 0.450614
O O6 0.540376 0.144497 0.413969
O O7 0.378289 0.001856 0.442069
O O8 0.124849 0.360461 0.161696
O O9 0.133788 0.140277 0.330901
O O10 0.200067 0.010212 0.136256
O O11 0.675835 0.336172 0.037429
O O12 0.789589 0.113591 0.956988
#
# Coordination Sequence:
#
# PCOD8168648 Si02
#       6
#     4   4   4   4   4   4
#     4  10  21  37  65  88 121 170 202 248 319 368
#     4  10  22  42  59  91 127 159 206 264 306 366
#     4   9  21  41  60  90 129 153 206 264 304 365
#     4  10  19  42  63  89 123 161 207 268 298 362
#     4  11  21  41  66  87 125 170 199 252 322 371
#     4  10  22  41  61  89 125 165 206 256 313 364
#
# _framework density 19.506233000000002
#
# number of rings (size 3 to 8) (size 9 to 14) (size 15 to 20)
#    0.000    2.000    5.000    0.000    4.667    0.000 
#    6.000    0.000    0.000    0.000    0.000    0.000 
#    0.000    0.000    0.000    0.000    0.000    0.000 
#
# Total GULP energy -297510.903441 kJ/mol
# GULP energy per Si atom -12396.287643 kJ/mol
# Density = 1.946184 g / cm^3
# Si number density = 19.506233 Si / 1000 Ang^3
#
#
#
# Elastic Constant Matrix: (Units=GPa)
#
#
# Indices 1 2 3 4 5 6 
#
# 1 95.2742 43.2925 46.0190 0.0000 0.0000 0.0000
# 2 43.2925 146.6330 62.9429 0.0000 0.0000 0.0000
# 3 46.0190 62.9429 190.6717 0.0000 0.0000 0.0000
# 4 0.0000 0.0000 0.0000 20.8690 0.0000 0.0000
# 5 0.0000 0.0000 0.0000 0.0000 20.4615 0.0000
# 6 0.0000 0.0000 0.0000 0.0000 0.0000 7.2126
#
#
#
# Elastic Compliance Matrix: (Units=1/GPa)
#
#
# Indices 1 2 3 4 5 6 
#
# 1 0.012838 -0.002867 -0.002152 0.000000 0.000000 0.000000
# 2 -0.002867 0.008586 -0.002142 0.000000 0.000000 0.000000
# 3 -0.002152 -0.002142 0.006471 0.000000 0.000000 0.000000
# 4 0.000000 0.000000 0.000000 0.047918 0.000000 0.000000
# 5 0.000000 0.000000 0.000000 0.000000 0.048872 0.000000
# 6 0.000000 0.000000 0.000000 0.000000 0.000000 0.138646
#
#
# Mechanical properties :
#
#
# Convention : Reuss Voigt Hill
#
# Bulk Modulus (GPa) = 73.67668 81.89864 77.78766
# Shear Modulus (GPa) = 17.71931 28.39692 23.05812
#
# Velocity S-wave (km/s) = 3.01722 3.81962 3.44188
# Velocity P-wave (km/s) = 7.07043 7.84408 7.46729
#
# Compressibility (1/GPa) = 0.01357282
#
# Stress axis : x y z
#
# Youngs Moduli (GPa) = 77.89292 116.47269 154.52859
#
# Poissons Ratio (x) = 0.33387 0.33258
# Poissons Ratio (y) = 0.22328 0.33106
# Poissons Ratio (z) = 0.16764 0.24953
#
# Static dielectric constant tensor:
#      x y z
#    x 3.348970 0.000000 0.000000 
#    y 0.000000 3.352230 0.000000 
#    z 0.000000 0.000000 3.937370 
# 
# 
# High freq. dielectric constant tensor:
#      x y z
#    x 1.740890 0.000000 0.000000 
#    y 0.000000 1.747800 0.000000 
#    z 0.000000 0.000000 1.780260 
# 
# From -- ./inp_files/3381.got.cif
#   From: 2010.03.12/outbox.cif.g09.slc.cpg/sg29_2_cif.got.tgz:3381.got - 2010.04.14 03:43:10.
