data_PCOD8168303
_publ_section_title
;
Structure prediction by ZEFSAII (Michael W. Deem and Ramdas Pophale) SiO2 
 PCOD8168303
Probable space group: P M A 2
;
_chemical_formula_sum "Si O2"
_cell_formula_units_Z 32
_cell_length_a 8.825232
_cell_length_b 14.032095
_cell_length_c 12.942426
_cell_angle_alpha 90.000000
_cell_angle_beta 90.000000
_cell_angle_gamma 90.000000
_cell_volume 1602.744657
_symmetry_space_group_name_H-M "P M A 2"
_symmetry_group_IT_number 28
_symmetry_cell_setting 'orthorhombic'
loop_
_space_group_symop_operation_xyz
x,y,z
-x,-y,z
1/2-x,y,z
1/2+x,-y,z
loop_
_atom_site_type_symbol
_atom_site_label
_atom_site_fract_x
_atom_site_fract_y
_atom_site_fract_z
Si Si1 0.427969 0.102564 0.514660
Si Si2 0.423262 0.209038 0.308833
Si Si3 0.428558 0.602003 0.784360
Si Si4 0.923297 0.599706 0.213244
Si Si5 0.570739 0.897053 0.916591
Si Si6 0.571234 0.397238 0.014529
Si Si7 0.571127 0.103411 0.124675
Si Si8 0.428151 0.216350 0.712680
O O1 0.250000 0.087586 0.522219
O O2 0.473726 0.171771 0.420771
O O3 0.489579 0.151129 0.619396
O O4 0.500000 0.000000 0.497735
O O5 0.250000 0.178613 0.284602
O O6 0.438780 0.324247 0.306757
O O7 0.533751 0.164570 0.224533
O O8 0.500000 0.500000 0.758288
O O9 0.250000 0.591459 0.773346
O O10 0.491607 0.680684 0.705644
O O11 0.475562 0.637609 0.900217
O O12 0.750000 0.577239 0.186917
O O13 0.000000 0.500000 0.246406
O O14 0.997892 0.655753 0.113434
O O15 0.750000 0.906361 0.930071
O O16 0.525621 0.832810 0.819600
O O17 0.500000 0.000000 0.897033
O O18 0.498218 0.850010 0.019743
O O19 0.500000 0.500000 0.032092
O O20 0.750000 0.398092 0.026522
O O21 0.750000 0.095555 0.110887
O O22 0.500000 0.000000 0.139879
O O23 0.250000 0.232931 0.703031
#
# Coordination Sequence:
#
# PCOD8168303 Si02
#       8
#     4   4   4   4   4   4   4   4
#     4  10  22  42  65  88 115 148 192 243 294 347
#     4  10  22  39  59  84 115 152 194 238 290 345
#     4  10  21  36  56  83 117 155 196 240 288 341
#     4  10  20  34  54  80 113 152 191 235 283 336
#     4  10  20  35  55  82 115 150 187 231 289 350
#     4   9  17  30  49  76 109 147 188 229 276 329
#     4  11  22  36  56  82 115 150 187 233 288 349
#     4  10  22  38  59  85 115 152 193 239 292 347
#
# _framework density 19.965751000000001
#
# number of rings (size 3 to 8) (size 9 to 14) (size 15 to 20)
#    0.000    2.000    0.000    4.875    1.750    5.500 
#    0.000    0.625    0.000    1.500    0.000    0.000 
#    0.000    0.000    0.000    0.000    0.000    0.000 
#
# Total GULP energy -396712.586154 kJ/mol
# GULP energy per Si atom -12397.268317 kJ/mol
# Density = 1.992031 g / cm^3
# Si number density = 19.965751 Si / 1000 Ang^3
#
#
#
# Elastic Constant Matrix: (Units=GPa)
#
#
# Indices 1 2 3 4 5 6 
#
# 1 88.0427 40.9672 42.8640 0.0000 0.0000 0.0000
# 2 40.9672 100.6728 62.3477 0.0000 0.0000 0.0000
# 3 42.8640 62.3477 108.5772 0.0000 0.0000 0.0000
# 4 0.0000 0.0000 0.0000 36.1854 0.0000 0.0000
# 5 0.0000 0.0000 0.0000 0.0000 28.2795 0.0000
# 6 0.0000 0.0000 0.0000 0.0000 0.0000 29.3012
#
#
#
# Elastic Compliance Matrix: (Units=1/GPa)
#
#
# Indices 1 2 3 4 5 6 
#
# 1 0.014926 -0.003763 -0.003732 0.000000 0.000000 0.000000
# 2 -0.003763 0.016364 -0.007911 0.000000 0.000000 0.000000
# 3 -0.003732 -0.007911 0.015226 0.000000 0.000000 0.000000
# 4 0.000000 0.000000 0.000000 0.027635 0.000000 0.000000
# 5 0.000000 0.000000 0.000000 0.000000 0.035361 0.000000
# 6 0.000000 0.000000 0.000000 0.000000 0.000000 0.034128
#
#
# Mechanical properties :
#
#
# Convention : Reuss Voigt Hill
#
# Bulk Modulus (GPa) = 63.67596 65.51673 64.59635
# Shear Modulus (GPa) = 27.82629 28.82748 28.32689
#
# Velocity S-wave (km/s) = 3.73728 3.80392 3.77075
# Velocity P-wave (km/s) = 7.11230 7.22349 7.16811
#
# Compressibility (1/GPa) = 0.01570451
#
# Stress axis : x y z
#
# Youngs Moduli (GPa) = 66.99820 61.11084 65.67738
#
# Poissons Ratio (x) = 0.22994 0.24509
# Poissons Ratio (y) = 0.25209 0.51957
# Poissons Ratio (z) = 0.25002 0.48345
#
# Static dielectric constant tensor:
#      x y z
#    x 3.488150 0.000000 0.000000 
#    y 0.000000 3.557480 0.000000 
#    z 0.000000 0.000000 3.838960 
# 
# 
# High freq. dielectric constant tensor:
#      x y z
#    x 1.781400 0.000000 0.000000 
#    y 0.000000 1.781890 0.000000 
#    z 0.000000 0.000000 1.767500 
# 
# From -- ./inp_files/5116.got.cif
#   From: 2010.03.12/outbox.cif.g09.slc.cpg/sg28_3_cif.got.tgz:5116.got - 2010.04.14 03:39:34.
