data_PCOD8168905
_publ_section_title
;
Structure prediction by ZEFSAII (Michael W. Deem and Ramdas Pophale) SiO2 
 PCOD8168905
Probable space group: P C A 21
;
_chemical_formula_sum "Si O2"
_cell_formula_units_Z 28
_cell_length_a 17.342439
_cell_length_b 13.493703
_cell_length_c 5.330185
_cell_angle_alpha 90.000000
_cell_angle_beta 90.000000
_cell_angle_gamma 90.000000
_cell_volume 1247.336426
_symmetry_space_group_name_H-M "P C A 21"
_symmetry_group_IT_number 29
_symmetry_cell_setting 'orthorhombic'
loop_
_space_group_symop_operation_xyz
x,y,z
-x,-y,1/2+z
1/2-x,y,1/2+z
1/2+x,-y,z
loop_
_atom_site_type_symbol
_atom_site_label
_atom_site_fract_x
_atom_site_fract_y
_atom_site_fract_z
Si Si1 0.896899 0.501526 0.997060
Si Si2 0.995128 0.345901 0.268069
Si Si3 0.950114 0.994425 0.557736
Si Si4 0.915899 0.203854 0.634650
Si Si5 0.798460 0.366567 0.710868
Si Si6 0.200952 0.332860 0.683951
Si Si7 0.073907 0.213997 0.912426
O O1 0.967565 0.576561 0.960297
O O2 0.855542 0.462076 0.741701
O O3 0.834406 0.555990 0.176414
O O4 0.930251 0.401749 0.111455
O O5 0.947559 0.257717 0.389160
O O6 0.068958 0.301420 0.119370
O O7 0.900231 0.893647 0.518501
O O8 0.893006 0.089780 0.574305
O O9 0.004407 0.015868 0.318872
O O10 0.842721 0.262061 0.743108
O O11 0.985703 0.201523 0.830280
O O12 0.762916 0.372482 0.435378
O O13 0.246478 0.315157 0.426409
O O14 0.132430 0.250587 0.696489
#
# Coordination Sequence:
#
# PCOD8168905 Si02
#       7
#     4   4   4   4   4   4   4
#     4  12  24  42  66 100 136 190 232 280 334 404
#     4  12  22  42  68 104 132 174 234 294 332 388
#     4  10  22  40  74 104 130 166 226 290 346 398
#     4  11  23  45  70 101 131 177 228 288 340 404
#     4  12  27  45  66  98 143 186 226 277 339 407
#     4  12  27  45  66  98 143 186 226 277 339 407
#     4  11  23  45  70 101 131 177 228 288 340 404
#
# _framework density 22.447831999999998
#
# number of rings (size 3 to 8) (size 9 to 14) (size 15 to 20)
#    0.000    0.571    4.286    4.286    0.000    2.286 
#    0.000    1.429    0.000    0.000    0.000    0.000 
#    0.000    0.000    0.000    0.000    0.000    0.000 
#
# Total GULP energy -347083.698752 kJ/mol
# GULP energy per Si atom -12395.846384 kJ/mol
# Density = 2.239674 g / cm^3
# Si number density = 22.447832 Si / 1000 Ang^3
#
#
#
# Elastic Constant Matrix: (Units=GPa)
#
#
# Indices 1 2 3 4 5 6 
#
# 1 64.0834 16.1073 12.2489 0.0000 0.0000 0.0000
# 2 16.1073 116.2070 -5.8744 0.0000 0.0000 0.0000
# 3 12.2489 -5.8744 67.5107 0.0000 0.0000 0.0000
# 4 0.0000 0.0000 0.0000 37.2438 0.0000 0.0000
# 5 0.0000 0.0000 0.0000 0.0000 29.8668 0.0000
# 6 0.0000 0.0000 0.0000 0.0000 0.0000 11.1551
#
#
#
# Elastic Compliance Matrix: (Units=1/GPa)
#
#
# Indices 1 2 3 4 5 6 
#
# 1 0.016860 -0.002503 -0.003277 0.000000 0.000000 0.000000
# 2 -0.002503 0.009015 0.001238 0.000000 0.000000 0.000000
# 3 -0.003277 0.001238 0.015515 0.000000 0.000000 0.000000
# 4 0.000000 0.000000 0.000000 0.026850 0.000000 0.000000
# 5 0.000000 0.000000 0.000000 0.000000 0.033482 0.000000
# 6 0.000000 0.000000 0.000000 0.000000 0.000000 0.089645
#
#
# Mechanical properties :
#
#
# Convention : Reuss Voigt Hill
#
# Bulk Modulus (GPa) = 30.95227 32.52941 31.74084
# Shear Modulus (GPa) = 23.67220 30.67440 27.17330
#
# Velocity S-wave (km/s) = 3.25090 3.70060 3.48301
# Velocity P-wave (km/s) = 5.28295 5.72554 5.50869
#
# Compressibility (1/GPa) = 0.03230781
#
# Stress axis : x y z
#
# Youngs Moduli (GPa) = 59.31187 110.92839 64.45471
#
# Poissons Ratio (x) = 0.27761 0.21121
# Poissons Ratio (y) = 0.14843 -0.07983
# Poissons Ratio (z) = 0.19435 -0.13738
#
# Static dielectric constant tensor:
#      x y z
#    x 4.040660 0.000000 0.000000 
#    y 0.000000 4.597230 0.000000 
#    z 0.000000 0.000000 4.064070 
# 
# 
# High freq. dielectric constant tensor:
#      x y z
#    x 1.861970 0.000000 0.000000 
#    y 0.000000 1.898140 0.000000 
#    z 0.000000 0.000000 1.890560 
# 
# From -- ./inp_files/402.got.cif
#   From: 2010.03.12/outbox.cif.g09.slc.cpg/sg29_1_cif.got.tgz:402.got - 2010.04.14 03:43:10.
