data_PCOD8168624
_publ_section_title
;
Structure prediction by ZEFSAII (Michael W. Deem and Ramdas Pophale) SiO2 
 PCOD8168624
Probable space group: P C A 21
;
_chemical_formula_sum "Si O2"
_cell_formula_units_Z 32
_cell_length_a 17.649915
_cell_length_b 5.600706
_cell_length_c 13.066863
_cell_angle_alpha 90.000000
_cell_angle_beta 90.000000
_cell_angle_gamma 90.000000
_cell_volume 1291.685343
_symmetry_space_group_name_H-M "P C A 21"
_symmetry_group_IT_number 29
_symmetry_cell_setting 'orthorhombic'
loop_
_space_group_symop_operation_xyz
x,y,z
-x,-y,1/2+z
1/2-x,y,1/2+z
1/2+x,-y,z
loop_
_atom_site_type_symbol
_atom_site_label
_atom_site_fract_x
_atom_site_fract_y
_atom_site_fract_z
Si Si1 0.293021 0.128320 0.237260
Si Si2 0.944000 0.857229 0.125608
Si Si3 0.337230 0.392223 0.631089
Si Si4 0.812307 0.252672 0.795142
Si Si5 0.009235 0.648225 0.618285
Si Si6 0.303432 0.477362 0.409200
Si Si7 0.026581 0.877286 0.342922
Si Si8 0.960873 0.371292 0.357023
O O1 0.354423 0.149356 0.148106
O O2 0.211186 0.224256 0.203774
O O3 0.326679 0.254988 0.337622
O O4 0.269449 0.864624 0.269697
O O5 0.969469 0.611092 0.066182
O O6 0.993604 0.881384 0.228264
O O7 0.955443 0.111720 0.064111
O O8 0.345130 0.642880 0.689545
O O9 0.420746 0.293693 0.614602
O O10 0.292234 0.406333 0.525912
O O11 0.780982 0.439072 0.878525
O O12 0.881629 0.106230 0.843703
O O13 0.040763 0.625107 0.733775
O O14 0.375664 0.654563 0.400374
O O15 0.999375 0.624629 0.396702
O O16 0.001908 0.127520 0.397185
#
# Coordination Sequence:
#
# PCOD8168624 Si02
#       8
#     4   4   4   4   4   4   4   4
#     4  11  23  42  71  97 138 189 231 294 354 424
#     4  10  19  36  68  94 126 172 226 275 348 410
#     4  11  25  43  69 101 141 187 241 291 357 427
#     4  11  23  42  71  97 138 189 231 294 354 424
#     4  10  19  39  66  96 126 173 224 281 345 414
#     4  11  25  43  69 101 141 187 241 291 357 427
#     4  10  19  36  68  94 126 172 226 275 348 410
#     4  10  19  39  66  96 126 173 224 281 345 414
#
# _framework density 24.773835999999999
#
# number of rings (size 3 to 8) (size 9 to 14) (size 15 to 20)
#    0.000    1.500    5.000    3.000    3.500    1.000 
#    0.000    1.250    5.500    0.000    0.000    0.000 
#    0.000    0.000    0.000    0.000    0.000    0.000 
#
# Total GULP energy -396501.073777 kJ/mol
# GULP energy per Si atom -12390.658556 kJ/mol
# Density = 2.471745 g / cm^3
# Si number density = 24.773836 Si / 1000 Ang^3
#
#
#
# Elastic Constant Matrix: (Units=GPa)
#
#
# Indices 1 2 3 4 5 6 
#
# 1 123.3688 36.5692 2.4101 0.0000 0.0000 0.0000
# 2 36.5692 186.1949 18.5180 0.0000 0.0000 0.0000
# 3 2.4101 18.5180 38.1143 0.0000 0.0000 0.0000
# 4 0.0000 0.0000 0.0000 30.5792 0.0000 0.0000
# 5 0.0000 0.0000 0.0000 0.0000 38.5431 0.0000
# 6 0.0000 0.0000 0.0000 0.0000 0.0000 16.3285
#
#
#
# Elastic Compliance Matrix: (Units=1/GPa)
#
#
# Indices 1 2 3 4 5 6 
#
# 1 0.008610 -0.001720 0.000291 0.000000 0.000000 0.000000
# 2 -0.001720 0.005987 -0.002800 0.000000 0.000000 0.000000
# 3 0.000291 -0.002800 0.027579 0.000000 0.000000 0.000000
# 4 0.000000 0.000000 0.000000 0.032702 0.000000 0.000000
# 5 0.000000 0.000000 0.000000 0.000000 0.025945 0.000000
# 6 0.000000 0.000000 0.000000 0.000000 0.000000 0.061242
#
#
# Mechanical properties :
#
#
# Convention : Reuss Voigt Hill
#
# Bulk Modulus (GPa) = 29.65759 51.40807 40.53283
# Shear Modulus (GPa) = 27.50847 36.43554 31.97200
#
# Velocity S-wave (km/s) = 3.33586 3.83917 3.59633
# Velocity P-wave (km/s) = 5.18021 6.35989 5.80012
#
# Compressibility (1/GPa) = 0.03371819
#
# Stress axis : x y z
#
# Youngs Moduli (GPa) = 116.14503 167.02849 36.25965
#
# Poissons Ratio (x) = 0.28729 -0.01056
# Poissons Ratio (y) = 0.19977 0.10153
# Poissons Ratio (z) = -0.03382 0.46769
#
# Static dielectric constant tensor:
#      x y z
#    x 4.275080 0.000000 0.000000 
#    y 0.000000 5.331920 0.000000 
#    z 0.000000 0.000000 4.027900 
# 
# 
# High freq. dielectric constant tensor:
#      x y z
#    x 1.991270 0.000000 0.000000 
#    y 0.000000 1.997370 0.000000 
#    z 0.000000 0.000000 1.961850 
# 
# From -- ./inp_files/4808.got.cif
#   From: 2010.03.12/outbox.cif.g09.slc.cpg/sg29_3_cif.got.tgz:4808.got - 2010.04.14 03:43:10.
