data_PCOD8168953
_publ_section_title
;
Structure prediction by ZEFSAII (Michael W. Deem and Ramdas Pophale) SiO2 
 PCOD8168953
Probable space group: P C A 21
;
_chemical_formula_sum "Si O2"
_cell_formula_units_Z 32
_cell_length_a 26.873589
_cell_length_b 5.741819
_cell_length_c 8.724800
_cell_angle_alpha 90.000000
_cell_angle_beta 90.000000
_cell_angle_gamma 90.000000
_cell_volume 1346.265292
_symmetry_space_group_name_H-M "P C A 21"
_symmetry_group_IT_number 29
_symmetry_cell_setting 'orthorhombic'
loop_
_space_group_symop_operation_xyz
x,y,z
-x,-y,1/2+z
1/2-x,y,1/2+z
1/2+x,-y,z
loop_
_atom_site_type_symbol
_atom_site_label
_atom_site_fract_x
_atom_site_fract_y
_atom_site_fract_z
Si Si1 0.227577 0.432378 0.998410
Si Si2 0.918029 0.845312 0.223475
Si Si3 0.227438 0.759903 0.715625
Si Si4 0.172946 0.132126 0.527103
Si Si5 0.527630 0.473345 0.912111
Si Si6 0.182132 0.046123 0.200054
Si Si7 0.996881 0.825536 0.648268
Si Si8 0.093418 0.896126 0.029287
O O1 0.211746 0.547571 0.832197
O O2 0.281382 0.310184 0.007229
O O3 0.187940 0.256246 0.074843
O O4 0.231998 0.661751 0.098097
O O5 0.872527 0.755480 0.119572
O O6 0.943157 0.613785 0.283866
O O7 0.959969 0.983512 0.126985
O O8 0.897216 0.009687 0.358181
O O9 0.183846 0.888221 0.620410
O O10 0.264569 0.963765 0.777577
O O11 0.152131 0.102755 0.354854
O O12 0.496428 0.277170 0.821020
O O13 0.492173 0.632662 0.016730
O O14 0.568085 0.356240 0.024783
O O15 0.146976 0.863927 0.110188
O O16 0.942085 0.927958 0.621866
#
# Coordination Sequence:
#
# PCOD8168953 Si02
#       8
#     4   4   4   4   4   4   4   4
#     4  11  24  44  67  95 136 182 226 280 346 404
#     4  10  24  42  66  99 136 178 229 283 339 408
#     4  11  24  44  67  95 136 182 226 280 346 404
#     4  11  25  43  66 102 134 177 232 285 335 417
#     4  10  22  44  70 100 132 190 218 278 356 398
#     4  11  25  43  66 102 134 177 232 285 335 417
#     4  10  22  44  68 100 138 178 224 276 340 414
#     4  10  24  42  66  99 136 178 229 283 339 408
#
# _framework density 23.769459000000001
#
# number of rings (size 3 to 8) (size 9 to 14) (size 15 to 20)
#    0.000    1.500    2.500    0.750    3.500    9.000 
#    2.250    0.000    2.750    0.000    0.000    0.000 
#    0.000    0.000    0.000    0.000    0.000    0.000 
#
# Total GULP energy -396417.918423 kJ/mol
# GULP energy per Si atom -12388.059951 kJ/mol
# Density = 2.371536 g / cm^3
# Si number density = 23.769459 Si / 1000 Ang^3
#
#
#
# Elastic Constant Matrix: (Units=GPa)
#
#
# Indices 1 2 3 4 5 6 
#
# 1 61.2309 9.0619 39.7570 0.0000 0.0000 0.0000
# 2 9.0619 74.6522 21.1164 0.0000 0.0000 0.0000
# 3 39.7570 21.1164 110.0961 0.0000 0.0000 0.0000
# 4 0.0000 0.0000 0.0000 50.9082 0.0000 0.0000
# 5 0.0000 0.0000 0.0000 0.0000 41.3551 0.0000
# 6 0.0000 0.0000 0.0000 0.0000 0.0000 14.8853
#
#
#
# Elastic Compliance Matrix: (Units=1/GPa)
#
#
# Indices 1 2 3 4 5 6 
#
# 1 0.021347 -0.000434 -0.007625 0.000000 0.000000 0.000000
# 2 -0.000434 0.014173 -0.002561 0.000000 0.000000 0.000000
# 3 -0.007625 -0.002561 0.012328 0.000000 0.000000 0.000000
# 4 0.000000 0.000000 0.000000 0.019643 0.000000 0.000000
# 5 0.000000 0.000000 0.000000 0.000000 0.024181 0.000000
# 6 0.000000 0.000000 0.000000 0.000000 0.000000 0.067180
#
#
# Mechanical properties :
#
#
# Convention : Reuss Voigt Hill
#
# Bulk Modulus (GPa) = 37.58655 42.87222 40.22938
# Shear Modulus (GPa) = 26.46022 33.16598 29.81310
#
# Velocity S-wave (km/s) = 3.34009 3.73945 3.54540
# Velocity P-wave (km/s) = 5.54276 6.05974 5.80701
#
# Compressibility (1/GPa) = 0.02660526
#
# Stress axis : x y z
#
# Youngs Moduli (GPa) = 46.84488 70.55804 81.11694
#
# Poissons Ratio (x) = 0.03065 0.61855
# Poissons Ratio (y) = 0.02035 0.20778
# Poissons Ratio (z) = 0.35721 0.18073
#
# Static dielectric constant tensor:
#      x y z
#    x 3.903490 0.000000 0.000000 
#    y 0.000000 4.297620 0.000000 
#    z 0.000000 0.000000 4.598200 
# 
# 
# High freq. dielectric constant tensor:
#      x y z
#    x 1.921230 0.000000 0.000000 
#    y 0.000000 1.943780 0.000000 
#    z 0.000000 0.000000 1.952410 
# 
# From -- ./inp_files/2617.got.cif
#   From: 2010.03.12/outbox.cif.g09.slc.cpg/sg29_2_cif.got.tgz:2617.got - 2010.04.14 03:43:10.
