data_PCOD8168640
_publ_section_title
;
Structure prediction by ZEFSAII (Michael W. Deem and Ramdas Pophale) SiO2 
 PCOD8168640
Probable space group: P C A 21
;
_chemical_formula_sum "Si O2"
_cell_formula_units_Z 28
_cell_length_a 13.784342
_cell_length_b 7.374982
_cell_length_c 11.638807
_cell_angle_alpha 90.000000
_cell_angle_beta 90.000000
_cell_angle_gamma 90.000000
_cell_volume 1183.192671
_symmetry_space_group_name_H-M "P C A 21"
_symmetry_group_IT_number 29
_symmetry_cell_setting 'orthorhombic'
loop_
_space_group_symop_operation_xyz
x,y,z
-x,-y,1/2+z
1/2-x,y,1/2+z
1/2+x,-y,z
loop_
_atom_site_type_symbol
_atom_site_label
_atom_site_fract_x
_atom_site_fract_y
_atom_site_fract_z
Si Si1 0.177220 0.889087 0.074520
Si Si2 0.103664 0.860461 0.539399
Si Si3 0.065282 0.591297 0.960664
Si Si4 0.046119 0.867487 0.289229
Si Si5 0.019384 0.271303 0.243467
Si Si6 0.407468 0.267269 0.112998
Si Si7 0.685196 0.694116 0.088512
O O1 0.286310 0.818178 0.071960
O O2 0.117646 0.785044 0.977252
O O3 0.134937 0.842734 0.200192
O O4 0.168125 0.101059 0.045201
O O5 0.076720 0.787105 0.412365
O O6 0.039007 0.744429 0.625292
O O7 0.083878 0.074960 0.547823
O O8 0.143064 0.434245 0.988357
O O9 0.971634 0.584333 0.045043
O O10 0.029841 0.581743 0.828173
O O11 0.950834 0.762563 0.241294
O O12 0.024291 0.079429 0.307335
O O13 0.127034 0.340536 0.207845
O O14 0.297936 0.341896 0.115934
#
# Coordination Sequence:
#
# PCOD8168640 Si02
#       7
#     4   4   4   4   4   4   4
#     4   9  22  40  70 103 130 182 235 268 360 422
#     4  10  19  38  70 104 137 180 232 279 349 429
#     4  11  22  45  69  95 142 174 227 299 345 416
#     4   9  18  38  68 100 139 181 225 293 347 419
#     4  10  22  40  63 102 138 175 235 290 347 424
#     4   9  20  42  66 104 133 183 236 283 355 428
#     4  10  23  45  64 100 137 181 234 288 347 424
#
# _framework density 23.664784999999998
#
# number of rings (size 3 to 8) (size 9 to 14) (size 15 to 20)
#    0.000    2.286    1.429    0.857    2.000    1.143 
#    7.714    1.429    0.000    0.000    0.000    0.000 
#    0.000    0.000    0.000    0.000    0.000    0.000 
#
# Total GULP energy -347204.680801 kJ/mol
# GULP energy per Si atom -12400.167171 kJ/mol
# Density = 2.361092 g / cm^3
# Si number density = 23.664785 Si / 1000 Ang^3
#
#
#
# Elastic Constant Matrix: (Units=GPa)
#
#
# Indices 1 2 3 4 5 6 
#
# 1 198.6099 53.5720 73.7940 0.0000 0.0000 0.0000
# 2 53.5720 61.3552 39.1104 0.0000 0.0000 0.0000
# 3 73.7940 39.1104 147.9454 0.0000 0.0000 0.0000
# 4 0.0000 0.0000 0.0000 21.1568 0.0000 0.0000
# 5 0.0000 0.0000 0.0000 0.0000 26.2927 0.0000
# 6 0.0000 0.0000 0.0000 0.0000 0.0000 28.7792
#
#
#
# Elastic Compliance Matrix: (Units=1/GPa)
#
#
# Indices 1 2 3 4 5 6 
#
# 1 0.007191 -0.004802 -0.002318 0.000000 0.000000 0.000000
# 2 -0.004802 0.022808 -0.003634 0.000000 0.000000 0.000000
# 3 -0.002318 -0.003634 0.008876 0.000000 0.000000 0.000000
# 4 0.000000 0.000000 0.000000 0.047266 0.000000 0.000000
# 5 0.000000 0.000000 0.000000 0.000000 0.038033 0.000000
# 6 0.000000 0.000000 0.000000 0.000000 0.000000 0.034747
#
#
# Mechanical properties :
#
#
# Convention : Reuss Voigt Hill
#
# Bulk Modulus (GPa) = 57.57778 82.31815 69.94796
# Shear Modulus (GPa) = 26.85018 31.34136 29.09577
#
# Velocity S-wave (km/s) = 3.37204 3.64316 3.51022
# Velocity P-wave (km/s) = 6.28843 7.24965 6.78608
#
# Compressibility (1/GPa) = 0.01736781
#
# Stress axis : x y z
#
# Youngs Moduli (GPa) = 139.05716 43.84464 112.66320
#
# Poissons Ratio (x) = 0.21053 0.26111
# Poissons Ratio (y) = 0.66771 0.40946
# Poissons Ratio (z) = 0.32228 0.15935
#
# Static dielectric constant tensor:
#      x y z
#    x 4.603060 0.000000 0.000000 
#    y 0.000000 4.108230 0.000000 
#    z 0.000000 0.000000 3.930580 
# 
# 
# High freq. dielectric constant tensor:
#      x y z
#    x 1.944640 0.000000 0.000000 
#    y 0.000000 1.937640 0.000000 
#    z 0.000000 0.000000 1.920150 
# 
# From -- ./inp_files/3413.got.cif
#   From: 2010.03.12/outbox.cif.g09.slc.cpg/sg29_2_cif.got.tgz:3413.got - 2010.04.14 03:43:10.
