data_PCOD8168157
_publ_section_title
;
Structure prediction by ZEFSAII (Michael W. Deem and Ramdas Pophale) SiO2 
 PCOD8168157
Probable space group: P M A 2
;
_chemical_formula_sum "Si O2"
_cell_formula_units_Z 32
_cell_length_a 9.072302
_cell_length_b 14.574700
_cell_length_c 12.249891
_cell_angle_alpha 90.000000
_cell_angle_beta 90.000000
_cell_angle_gamma 90.000000
_cell_volume 1619.755067
_symmetry_space_group_name_H-M "P M A 2"
_symmetry_group_IT_number 28
_symmetry_cell_setting 'orthorhombic'
loop_
_space_group_symop_operation_xyz
x,y,z
-x,-y,z
1/2-x,y,z
1/2+x,-y,z
loop_
_atom_site_type_symbol
_atom_site_label
_atom_site_fract_x
_atom_site_fract_y
_atom_site_fract_z
Si Si1 0.580193 0.214244 0.220800
Si Si2 0.073964 0.592079 0.762268
Si Si3 0.078490 0.587444 0.287560
Si Si4 0.924915 0.099178 0.006685
Si Si5 0.084784 0.088169 0.374275
Si Si6 0.077222 0.219199 0.823305
Si Si7 0.913432 0.813391 0.581796
Si Si8 0.078435 0.640718 0.521678
O O1 0.750000 0.197988 0.250917
O O2 0.546597 0.323064 0.212884
O O3 0.483359 0.178112 0.320361
O O4 0.537521 0.162009 0.110554
O O5 0.250000 0.593944 0.782883
O O6 0.034333 0.588869 0.633138
O O7 0.000000 0.500000 0.812687
O O8 0.000034 0.680764 0.818971
O O9 0.250000 0.566137 0.291716
O O10 0.010494 0.598082 0.410856
O O11 0.000000 0.500000 0.232061
O O12 0.750000 0.086834 0.989650
O O13 0.994577 0.153181 0.906173
O O14 0.000000 0.000000 0.020311
O O15 0.250000 0.077300 0.332126
O O16 0.076676 0.095713 0.506524
O O17 0.000000 0.000000 0.331367
O O18 0.250000 0.231036 0.853300
O O19 0.056152 0.165878 0.708439
O O20 0.750000 0.769189 0.570733
O O21 0.031371 0.745148 0.532539
O O22 0.250000 0.641986 0.503818
#
# Coordination Sequence:
#
# PCOD8168157 Si02
#       8
#     4   4   4   4   4   4   4   4
#     4  10  22  41  62  84 116 152 193 244 291 343
#     4  10  19  32  53  85 121 161 202 242 289 345
#     4  10  20  34  54  83 117 154 193 233 283 339
#     4  11  24  43  66  89 112 146 194 248 300 354
#     4  11  22  35  55  84 116 151 189 232 288 353
#     4  10  21  39  61  86 118 153 195 246 296 349
#     4   9  19  34  53  81 116 152 189 233 286 342
#     4   9  17  30  51  78 114 157 197 234 281 337
#
# _framework density 19.756073000000001
#
# number of rings (size 3 to 8) (size 9 to 14) (size 15 to 20)
#    0.000    2.000    1.250    2.250    0.000    5.000 
#    0.000    1.875    0.000    1.500    0.000    0.000 
#    0.000    0.000    0.000    0.000    0.000    0.000 
#
# Total GULP energy -396632.138144 kJ/mol
# GULP energy per Si atom -12394.754317 kJ/mol
# Density = 1.971111 g / cm^3
# Si number density = 19.756073 Si / 1000 Ang^3
#
#
#
# Elastic Constant Matrix: (Units=GPa)
#
#
# Indices 1 2 3 4 5 6 
#
# 1 70.7249 70.4574 43.5957 0.0000 0.0000 0.0000
# 2 70.4574 140.3946 59.3311 0.0000 0.0000 0.0000
# 3 43.5957 59.3311 89.0246 0.0000 0.0000 0.0000
# 4 0.0000 0.0000 0.0000 22.3032 0.0000 0.0000
# 5 0.0000 0.0000 0.0000 0.0000 30.6249 0.0000
# 6 0.0000 0.0000 0.0000 0.0000 0.0000 37.4874
#
#
#
# Elastic Compliance Matrix: (Units=1/GPa)
#
#
# Indices 1 2 3 4 5 6 
#
# 1 0.030884 -0.012679 -0.006674 0.000000 0.000000 0.000000
# 2 -0.012679 0.015120 -0.003868 0.000000 0.000000 0.000000
# 3 -0.006674 -0.003868 0.017079 0.000000 0.000000 0.000000
# 4 0.000000 0.000000 0.000000 0.044837 0.000000 0.000000
# 5 0.000000 0.000000 0.000000 0.000000 0.032653 0.000000
# 6 0.000000 0.000000 0.000000 0.000000 0.000000 0.026676
#
#
# Mechanical properties :
#
#
# Convention : Reuss Voigt Hill
#
# Bulk Modulus (GPa) = 60.09141 71.87917 65.98529
# Shear Modulus (GPa) = 22.80617 26.53375 24.66996
#
# Velocity S-wave (km/s) = 3.40131 3.66876 3.53757
# Velocity P-wave (km/s) = 6.77554 7.37623 7.08226
#
# Compressibility (1/GPa) = 0.01664131
#
# Stress axis : x y z
#
# Youngs Moduli (GPa) = 32.37906 66.13599 58.55040
#
# Poissons Ratio (x) = 0.83852 0.39078
# Poissons Ratio (y) = 0.41053 0.22649
# Poissons Ratio (z) = 0.21611 0.25583
#
# Static dielectric constant tensor:
#      x y z
#    x 3.552950 0.000000 0.000000 
#    y 0.000000 3.553430 0.000000 
#    z 0.000000 0.000000 3.582440 
# 
# 
# High freq. dielectric constant tensor:
#      x y z
#    x 1.775910 0.000000 0.000000 
#    y 0.000000 1.768600 0.000000 
#    z 0.000000 0.000000 1.754790 
# 
# From -- ./inp_files/5035.got.cif
#   From: 2010.03.12/outbox.cif.g09.slc.cpg/sg28_3_cif.got.tgz:5035.got - 2010.04.14 03:39:34.
