data_PCOD8168823
_publ_section_title
;
Structure prediction by ZEFSAII (Michael W. Deem and Ramdas Pophale) SiO2 
 PCOD8168823
Probable space group: P C A 21
;
_chemical_formula_sum "Si O2"
_cell_formula_units_Z 28
_cell_length_a 15.956872
_cell_length_b 9.480810
_cell_length_c 8.610980
_cell_angle_alpha 90.000000
_cell_angle_beta 90.000000
_cell_angle_gamma 90.000000
_cell_volume 1302.704115
_symmetry_space_group_name_H-M "P C A 21"
_symmetry_group_IT_number 29
_symmetry_cell_setting 'orthorhombic'
loop_
_space_group_symop_operation_xyz
x,y,z
-x,-y,1/2+z
1/2-x,y,1/2+z
1/2+x,-y,z
loop_
_atom_site_type_symbol
_atom_site_label
_atom_site_fract_x
_atom_site_fract_y
_atom_site_fract_z
Si Si1 0.660383 0.773657 0.594200
Si Si2 0.141750 0.912021 0.617491
Si Si3 0.027957 0.415970 0.760085
Si Si4 0.845248 0.381344 0.661953
Si Si5 0.170544 0.296308 0.237297
Si Si6 0.270224 0.784156 0.394628
Si Si7 0.499622 0.307286 0.597294
O O1 0.608385 0.664049 0.695847
O O2 0.752331 0.792083 0.669035
O O3 0.667365 0.714989 0.421680
O O4 0.614889 0.925306 0.601820
O O5 0.222852 0.889779 0.510162
O O6 0.065145 0.815455 0.559467
O O7 0.163500 0.874688 0.795454
O O8 0.943993 0.356136 0.681105
O O9 0.037883 0.582449 0.722345
O O10 0.023093 0.397378 0.944672
O O11 0.819195 0.542112 0.687510
O O12 0.819621 0.336238 0.488851
O O13 0.797878 0.288254 0.787026
O O14 0.084307 0.235283 0.165639
#
# Coordination Sequence:
#
# PCOD8168823 Si02
#       7
#     4   4   4   4   4   4   4
#     4  12  26  45  67  99 139 179 226 278 350 419
#     4  11  25  44  67  99 138 180 223 275 346 415
#     4  11  24  43  66 100 135 173 231 288 337 401
#     4  10  21  40  67 100 126 172 227 283 335 387
#     4  11  25  42  70  98 134 179 224 285 343 407
#     4  10  22  40  68  95 132 175 225 278 334 409
#     4  11  25  44  69 101 136 178 234 285 345 400
#
# _framework density 21.493753000000002
#
# number of rings (size 3 to 8) (size 9 to 14) (size 15 to 20)
#    0.000    1.143    1.429    4.286   10.000    1.143 
#    5.143    0.000    0.000    0.000    0.000    0.000 
#    0.000    0.000    0.000    0.000    0.000    0.000 
#
# Total GULP energy -347374.646883 kJ/mol
# GULP energy per Si atom -12406.237389 kJ/mol
# Density = 2.144483 g / cm^3
# Si number density = 21.493753 Si / 1000 Ang^3
#
#
#
# Elastic Constant Matrix: (Units=GPa)
#
#
# Indices 1 2 3 4 5 6 
#
# 1 89.1166 28.5321 26.8574 0.0000 0.0000 0.0000
# 2 28.5321 81.9618 25.7163 0.0000 0.0000 0.0000
# 3 26.8574 25.7163 125.4166 0.0000 0.0000 0.0000
# 4 0.0000 0.0000 0.0000 22.1690 0.0000 0.0000
# 5 0.0000 0.0000 0.0000 0.0000 32.8733 0.0000
# 6 0.0000 0.0000 0.0000 0.0000 0.0000 28.7239
#
#
#
# Elastic Compliance Matrix: (Units=1/GPa)
#
#
# Indices 1 2 3 4 5 6 
#
# 1 0.013080 -0.003927 -0.001996 0.000000 0.000000 0.000000
# 2 -0.003927 0.014219 -0.002075 0.000000 0.000000 0.000000
# 3 -0.001996 -0.002075 0.008826 0.000000 0.000000 0.000000
# 4 0.000000 0.000000 0.000000 0.045108 0.000000 0.000000
# 5 0.000000 0.000000 0.000000 0.000000 0.030420 0.000000
# 6 0.000000 0.000000 0.000000 0.000000 0.000000 0.034814
#
#
# Mechanical properties :
#
#
# Convention : Reuss Voigt Hill
#
# Bulk Modulus (GPa) = 49.67686 50.96740 50.32213
# Shear Modulus (GPa) = 29.55569 31.11252 30.33410
#
# Velocity S-wave (km/s) = 3.71223 3.80875 3.76080
# Velocity P-wave (km/s) = 6.44489 6.56553 6.50549
#
# Compressibility (1/GPa) = 0.02013010
#
# Stress axis : x y z
#
# Youngs Moduli (GPa) = 76.45212 70.32933 113.29915
#
# Poissons Ratio (x) = 0.27620 0.22612
# Poissons Ratio (y) = 0.30024 0.23504
# Poissons Ratio (z) = 0.15258 0.14590
#
# Static dielectric constant tensor:
#      x y z
#    x 4.040510 0.000000 0.000000 
#    y 0.000000 3.661150 0.000000 
#    z 0.000000 0.000000 4.054820 
# 
# 
# High freq. dielectric constant tensor:
#      x y z
#    x 1.850210 0.000000 0.000000 
#    y 0.000000 1.831220 0.000000 
#    z 0.000000 0.000000 1.860670 
# 
# From -- ./inp_files/1771.got.cif
#   From: 2010.03.12/outbox.cif.g09.slc.cpg/sg29_1_cif.got.tgz:1771.got - 2010.04.14 03:43:10.
