data_PCOD8168188
_publ_section_title
;
Structure prediction by ZEFSAII (Michael W. Deem and Ramdas Pophale) SiO2 
 PCOD8168188
Probable space group: P M A 2
;
_chemical_formula_sum "Si O2"
_cell_formula_units_Z 32
_cell_length_a 8.825857
_cell_length_b 14.556806
_cell_length_c 12.229279
_cell_angle_alpha 90.000000
_cell_angle_beta 90.000000
_cell_angle_gamma 90.000000
_cell_volume 1571.172372
_symmetry_space_group_name_H-M "P M A 2"
_symmetry_group_IT_number 28
_symmetry_cell_setting 'orthorhombic'
loop_
_space_group_symop_operation_xyz
x,y,z
-x,-y,z
1/2-x,y,z
1/2+x,-y,z
loop_
_atom_site_type_symbol
_atom_site_label
_atom_site_fract_x
_atom_site_fract_y
_atom_site_fract_z
Si Si1 0.425508 0.728061 0.244280
Si Si2 0.923477 0.092630 0.795912
Si Si3 0.926169 0.148806 0.551991
Si Si4 0.426487 0.332969 0.615855
Si Si5 0.079763 0.584679 0.425592
Si Si6 0.568393 0.907800 0.330239
Si Si7 0.070049 0.398619 0.060751
Si Si8 0.072179 0.280495 0.851594
O O1 0.250000 0.744947 0.212959
O O2 0.439677 0.679925 0.361998
O O3 0.515140 0.823579 0.253659
O O4 0.503248 0.661286 0.158151
O O5 0.750000 0.090654 0.830574
O O6 0.943091 0.093152 0.664759
O O7 0.994137 0.181053 0.856027
O O8 0.000000 0.000000 0.841383
O O9 0.750000 0.174107 0.529591
O O10 0.028591 0.237870 0.560675
O O11 0.993977 0.092847 0.450817
O O12 0.250000 0.348822 0.603519
O O13 0.511171 0.411036 0.547618
O O14 0.478728 0.334509 0.742116
O O15 0.250000 0.554507 0.437434
O O16 0.000000 0.500000 0.361802
O O17 0.750000 0.910133 0.337009
O O18 0.500000 0.000000 0.274852
O O19 0.250000 0.406999 0.073143
O O20 0.000000 0.500000 0.059617
O O21 0.022310 0.345201 0.950831
O O22 0.250000 0.261324 0.850787
#
# Coordination Sequence:
#
# PCOD8168188 Si02
#       8
#     4   4   4   4   4   4   4   4
#     4  11  24  43  65  90 123 157 201 257 308 363
#     4  10  20  33  55  86 123 165 207 251 299 357
#     4  10  19  33  53  83 122 164 208 249 295 353
#     4  10  19  34  57  85 121 162 201 245 304 361
#     4  11  23  37  57  85 121 158 198 246 302 367
#     4  12  24  38  60  89 124 165 206 250 302 361
#     4  11  24  44  69  94 120 155 204 257 310 367
#     4   9  21  40  61  88 122 158 201 254 305 360
#
# _framework density 20.366956999999999
#
# number of rings (size 3 to 8) (size 9 to 14) (size 15 to 20)
#    0.000    1.500    1.250    4.125    0.000    7.000 
#    0.000    1.875    0.000    3.000    0.000    0.000 
#    0.000    0.000    0.000    0.000    0.000    0.000 
#
# Total GULP energy -396771.427737 kJ/mol
# GULP energy per Si atom -12399.107117 kJ/mol
# Density = 2.032060 g / cm^3
# Si number density = 20.366957 Si / 1000 Ang^3
#
#
#
# Elastic Constant Matrix: (Units=GPa)
#
#
# Indices 1 2 3 4 5 6 
#
# 1 98.7856 51.5221 48.2610 0.0000 0.0000 0.0000
# 2 51.5221 131.8369 52.9504 0.0000 0.0000 0.0000
# 3 48.2610 52.9504 91.8523 0.0000 0.0000 0.0000
# 4 0.0000 0.0000 0.0000 28.2963 0.0000 0.0000
# 5 0.0000 0.0000 0.0000 0.0000 21.9133 0.0000
# 6 0.0000 0.0000 0.0000 0.0000 0.0000 38.9017
#
#
#
# Elastic Compliance Matrix: (Units=1/GPa)
#
#
# Indices 1 2 3 4 5 6 
#
# 1 0.014731 -0.003446 -0.005753 0.000000 0.000000 0.000000
# 2 -0.003446 0.010677 -0.004344 0.000000 0.000000 0.000000
# 3 -0.005753 -0.004344 0.016414 0.000000 0.000000 0.000000
# 4 0.000000 0.000000 0.000000 0.035340 0.000000 0.000000
# 5 0.000000 0.000000 0.000000 0.000000 0.045634 0.000000
# 6 0.000000 0.000000 0.000000 0.000000 0.000000 0.025706
#
#
# Mechanical properties :
#
#
# Convention : Reuss Voigt Hill
#
# Bulk Modulus (GPa) = 67.86723 69.77131 68.81927
# Shear Modulus (GPa) = 27.70064 29.13836 28.41950
#
# Velocity S-wave (km/s) = 3.69192 3.78652 3.73952
# Velocity P-wave (km/s) = 7.18111 7.31085 7.24627
#
# Compressibility (1/GPa) = 0.01473465
#
# Stress axis : x y z
#
# Youngs Moduli (GPa) = 67.88373 93.66225 60.92272
#
# Poissons Ratio (x) = 0.32278 0.35051
# Poissons Ratio (y) = 0.23394 0.26466
# Poissons Ratio (z) = 0.39056 0.40688
#
# Static dielectric constant tensor:
#      x y z
#    x 3.784140 0.000000 0.000000 
#    y 0.000000 3.633920 0.000000 
#    z 0.000000 0.000000 3.703160 
# 
# 
# High freq. dielectric constant tensor:
#      x y z
#    x 1.808260 0.000000 0.000000 
#    y 0.000000 1.806550 0.000000 
#    z 0.000000 0.000000 1.776660 
# 
# From -- ./inp_files/5045.got.cif
#   From: 2010.03.12/outbox.cif.g09.slc.cpg/sg28_3_cif.got.tgz:5045.got - 2010.04.14 03:39:34.
