data_PCOD8168699
_publ_section_title
;
Structure prediction by ZEFSAII (Michael W. Deem and Ramdas Pophale) SiO2 
 PCOD8168699
Probable space group: P C A 21
;
_chemical_formula_sum "Si O2"
_cell_formula_units_Z 24
_cell_length_a 13.808355
_cell_length_b 9.459529
_cell_length_c 8.552403
_cell_angle_alpha 90.000000
_cell_angle_beta 90.000000
_cell_angle_gamma 90.000000
_cell_volume 1117.119452
_symmetry_space_group_name_H-M "P C A 21"
_symmetry_group_IT_number 29
_symmetry_cell_setting 'orthorhombic'
loop_
_space_group_symop_operation_xyz
x,y,z
-x,-y,1/2+z
1/2-x,y,1/2+z
1/2+x,-y,z
loop_
_atom_site_type_symbol
_atom_site_label
_atom_site_fract_x
_atom_site_fract_y
_atom_site_fract_z
Si Si1 0.783385 0.598545 0.115930
Si Si2 0.885052 0.498457 0.806387
Si Si3 0.537723 0.725477 0.728583
Si Si4 0.121289 0.004419 0.851989
Si Si5 0.967266 0.781784 0.861521
Si Si6 0.798444 0.897026 0.661552
O O1 0.698471 0.497144 0.176048
O O2 0.866965 0.625141 0.247434
O O3 0.737637 0.752797 0.076436
O O4 0.831554 0.520215 0.970407
O O5 0.962467 0.626116 0.782975
O O6 0.941950 0.352108 0.791435
O O7 0.547459 0.864160 0.834292
O O8 0.533885 0.770463 0.547963
O O9 0.209757 0.015881 0.733146
O O10 0.153956 0.001983 0.032261
O O11 0.065399 0.859821 0.810103
O O12 0.872965 0.866800 0.802386
#
# Coordination Sequence:
#
# PCOD8168699 Si02
#       6
#     4   4   4   4   4   4
#     4   9  19  37  59  82 114 157 197 232 290 363
#     4  10  21  38  61  86 115 155 198 243 291 349
#     4  10  21  39  61  88 118 155 202 247 295 356
#     4  11  21  39  63  89 119 157 199 245 297 358
#     4  10  22  40  61  88 119 157 205 248 293 354
#     4  10  20  37  65  89 119 163 201 237 296 372
#
# _framework density 21.483826000000001
#
# number of rings (size 3 to 8) (size 9 to 14) (size 15 to 20)
#    0.000    2.000    0.000    6.000    0.000    8.000 
#    0.000    6.667    0.000    0.000    0.000    0.000 
#    0.000    0.000    0.000    0.000    0.000    0.000 
#
# Total GULP energy -297546.514997 kJ/mol
# GULP energy per Si atom -12397.771458 kJ/mol
# Density = 2.143493 g / cm^3
# Si number density = 21.483826 Si / 1000 Ang^3
#
#
#
# Elastic Constant Matrix: (Units=GPa)
#
#
# Indices 1 2 3 4 5 6 
#
# 1 113.7561 59.0576 53.8819 0.0000 0.0000 0.0000
# 2 59.0576 67.5923 46.4574 0.0000 0.0000 0.0000
# 3 53.8819 46.4574 97.1028 0.0000 0.0000 0.0000
# 4 0.0000 0.0000 0.0000 17.4517 0.0000 0.0000
# 5 0.0000 0.0000 0.0000 0.0000 29.9827 0.0000
# 6 0.0000 0.0000 0.0000 0.0000 0.0000 44.5487
#
#
#
# Elastic Compliance Matrix: (Units=1/GPa)
#
#
# Indices 1 2 3 4 5 6 
#
# 1 0.016822 -0.012340 -0.003431 0.000000 0.000000 0.000000
# 2 -0.012340 0.031096 -0.008030 0.000000 0.000000 0.000000
# 3 -0.003431 -0.008030 0.016044 0.000000 0.000000 0.000000
# 4 0.000000 0.000000 0.000000 0.057301 0.000000 0.000000
# 5 0.000000 0.000000 0.000000 0.000000 0.033353 0.000000
# 6 0.000000 0.000000 0.000000 0.000000 0.000000 0.022447
#
#
# Mechanical properties :
#
#
# Convention : Reuss Voigt Hill
#
# Bulk Modulus (GPa) = 61.12284 66.36056 63.74170
# Shear Modulus (GPa) = 21.72808 26.33356 24.03082
#
# Velocity S-wave (km/s) = 3.18365 3.50485 3.34811
# Velocity P-wave (km/s) = 6.48279 6.88000 6.68434
#
# Compressibility (1/GPa) = 0.01636050
#
# Stress axis : x y z
#
# Youngs Moduli (GPa) = 59.44509 32.15883 62.32987
#
# Poissons Ratio (x) = 0.39685 0.21383
# Poissons Ratio (y) = 0.73357 0.50049
# Poissons Ratio (z) = 0.20393 0.25823
#
# Static dielectric constant tensor:
#      x y z
#    x 4.154310 0.000000 0.000000 
#    y 0.000000 3.618090 0.000000 
#    z 0.000000 0.000000 3.668850 
# 
# 
# High freq. dielectric constant tensor:
#      x y z
#    x 1.854400 0.000000 0.000000 
#    y 0.000000 1.810270 0.000000 
#    z 0.000000 0.000000 1.838910 
# 
# From -- ./inp_files/1422.got.cif
#   From: 2010.03.12/outbox.cif.g09.slc.cpg/sg29_1_cif.got.tgz:1422.got - 2010.04.14 03:43:10.
