data_PCOD8168357
_publ_section_title
;
Structure prediction by ZEFSAII (Michael W. Deem and Ramdas Pophale) SiO2 
 PCOD8168357
Probable space group: P M A 2
;
_chemical_formula_sum "Si O2"
_cell_formula_units_Z 32
_cell_length_a 17.605972
_cell_length_b 11.628484
_cell_length_c 7.996704
_cell_angle_alpha 90.000000
_cell_angle_beta 90.000000
_cell_angle_gamma 90.000000
_cell_volume 1637.171317
_symmetry_space_group_name_H-M "P M A 2"
_symmetry_group_IT_number 28
_symmetry_cell_setting 'orthorhombic'
loop_
_space_group_symop_operation_xyz
x,y,z
-x,-y,z
1/2-x,y,z
1/2+x,-y,z
loop_
_atom_site_type_symbol
_atom_site_label
_atom_site_fract_x
_atom_site_fract_y
_atom_site_fract_z
Si Si1 0.612038 0.946176 0.012510
Si Si2 0.453287 0.595619 0.245268
Si Si3 0.833988 0.856013 0.353230
Si Si4 0.159450 0.541582 0.504903
Si Si5 0.336407 0.973360 0.655702
Si Si6 0.574666 0.254829 0.686188
Si Si7 0.934179 0.669737 0.505456
Si Si8 0.960866 0.185615 0.033728
O O1 0.665399 0.905167 0.164216
O O2 0.546350 0.851459 0.990964
O O3 0.584240 0.070218 0.075988
O O4 0.651597 0.957875 0.831055
O O5 0.500000 0.500000 0.130109
O O6 0.369364 0.557997 0.310732
O O7 0.505039 0.593572 0.409858
O O8 0.453458 0.726240 0.185222
O O9 0.750000 0.806699 0.384760
O O10 0.893996 0.754805 0.374732
O O11 0.853187 0.948191 0.496119
O O12 0.250000 0.541343 0.506668
O O13 0.128885 0.645439 0.618569
O O14 0.128187 0.420060 0.580262
O O15 0.250000 0.927921 0.654197
O O16 0.394260 0.868873 0.628795
O O17 0.484604 0.263173 0.642876
O O18 0.578419 0.257326 0.885798
#
# Coordination Sequence:
#
# PCOD8168357 Si02
#       8
#     4   4   4   4   4   4   4   4
#     4  10  21  36  57  84 123 158 197 247 296 353
#     4   9  19  35  56  81 111 144 188 242 288 350
#     4  11  22  35  59  86 116 162 199 238 303 365
#     4  10  21  38  58  82 115 153 192 249 309 360
#     4  10  22  38  54  86 125 157 199 247 298 360
#     4  10  21  36  60  84 113 153 195 248 301 352
#     4  10  20  37  58  84 111 147 199 244 293 359
#     4  10  20  36  56  86 112 152 199 243 295 350
#
# _framework density 19.545908000000001
#
# number of rings (size 3 to 8) (size 9 to 14) (size 15 to 20)
#    0.000    2.000    1.250    3.000    3.500    2.500 
#    0.000    3.125    0.000    0.000    0.000    0.000 
#    0.000    0.000    0.000    0.000    0.000    0.000 
#
# Total GULP energy -396420.055973 kJ/mol
# GULP energy per Si atom -12388.126749 kJ/mol
# Density = 1.950142 g / cm^3
# Si number density = 19.545908 Si / 1000 Ang^3
#
#
#
# Elastic Constant Matrix: (Units=GPa)
#
#
# Indices 1 2 3 4 5 6 
#
# 1 117.5239 47.3501 27.0002 0.0000 0.0000 0.0000
# 2 47.3501 89.2737 38.3256 0.0000 0.0000 0.0000
# 3 27.0002 38.3256 71.0986 0.0000 0.0000 0.0000
# 4 0.0000 0.0000 0.0000 23.8313 0.0000 0.0000
# 5 0.0000 0.0000 0.0000 0.0000 23.1959 0.0000
# 6 0.0000 0.0000 0.0000 0.0000 0.0000 33.3112
#
#
#
# Elastic Compliance Matrix: (Units=1/GPa)
#
#
# Indices 1 2 3 4 5 6 
#
# 1 0.010918 -0.005218 -0.001333 0.000000 0.000000 0.000000
# 2 -0.005218 0.017068 -0.007219 0.000000 0.000000 0.000000
# 3 -0.001333 -0.007219 0.018463 0.000000 0.000000 0.000000
# 4 0.000000 0.000000 0.000000 0.041962 0.000000 0.000000
# 5 0.000000 0.000000 0.000000 0.000000 0.043111 0.000000
# 6 0.000000 0.000000 0.000000 0.000000 0.000000 0.030020
#
#
# Mechanical properties :
#
#
# Convention : Reuss Voigt Hill
#
# Bulk Modulus (GPa) = 52.88826 55.91644 54.40235
# Shear Modulus (GPa) = 25.59053 27.08237 26.33645
#
# Velocity S-wave (km/s) = 3.62228 3.72637 3.67470
# Velocity P-wave (km/s) = 6.67921 6.86908 6.77481
#
# Compressibility (1/GPa) = 0.01890779
#
# Stress axis : x y z
#
# Youngs Moduli (GPa) = 91.59502 58.58772 54.16342
#
# Poissons Ratio (x) = 0.30573 0.07221
# Poissons Ratio (y) = 0.47797 0.39101
# Poissons Ratio (z) = 0.12211 0.42295
#
# Static dielectric constant tensor:
#      x y z
#    x 3.657780 0.000000 0.000000 
#    y 0.000000 3.724750 0.000000 
#    z 0.000000 0.000000 3.391540 
# 
# 
# High freq. dielectric constant tensor:
#      x y z
#    x 1.762240 0.000000 0.000000 
#    y 0.000000 1.774520 0.000000 
#    z 0.000000 0.000000 1.741460 
# 
# From -- ./inp_files/3948.got.cif
#   From: 2010.03.12/outbox.cif.g09.slc.cpg/sg28_2_cif.got.tgz:3948.got - 2010.04.14 03:39:34.
