data_PCOD8168271
_publ_section_title
;
Structure prediction by ZEFSAII (Michael W. Deem and Ramdas Pophale) SiO2 
 PCOD8168271
Probable space group: P M A 2
;
_chemical_formula_sum "Si O2"
_cell_formula_units_Z 32
_cell_length_a 9.534352
_cell_length_b 17.131613
_cell_length_c 11.219379
_cell_angle_alpha 90.000000
_cell_angle_beta 90.000000
_cell_angle_gamma 90.000000
_cell_volume 1832.560224
_symmetry_space_group_name_H-M "P M A 2"
_symmetry_group_IT_number 28
_symmetry_cell_setting 'orthorhombic'
loop_
_space_group_symop_operation_xyz
x,y,z
-x,-y,z
1/2-x,y,z
1/2+x,-y,z
loop_
_atom_site_type_symbol
_atom_site_label
_atom_site_fract_x
_atom_site_fract_y
_atom_site_fract_z
Si Si1 0.404233 0.702795 0.309520
Si Si2 0.003206 0.825686 0.129565
Si Si3 0.088993 0.922036 0.911590
Si Si4 0.415552 0.579462 0.114495
Si Si5 0.595157 0.692686 0.971648
Si Si6 0.593376 0.924891 0.336504
Si Si7 0.913325 0.803495 0.763273
Si Si8 0.413346 0.218685 0.493043
O O1 0.250000 0.693663 0.364320
O O2 0.399472 0.776391 0.219192
O O3 0.445945 0.625063 0.237184
O O4 0.509348 0.712884 0.420032
O O5 0.911842 0.886475 0.205650
O O6 0.900551 0.766130 0.061731
O O7 0.095457 0.872808 0.033937
O O8 0.250000 0.940753 0.874586
O O9 0.012375 0.873507 0.807378
O O10 0.000000 0.000000 0.932796
O O11 0.500000 0.500000 0.122735
O O12 0.250000 0.565900 0.093166
O O13 0.476731 0.629607 0.004101
O O14 0.750000 0.653861 0.975854
O O15 0.561785 0.725366 0.840218
O O16 0.750000 0.952988 0.361521
O O17 0.543638 0.864448 0.437582
O O18 0.500000 0.000000 0.346022
O O19 0.750000 0.830174 0.769315
O O20 0.958905 0.780928 0.630068
O O21 0.250000 0.235086 0.476045
#
# Coordination Sequence:
#
# PCOD8168271 Si02
#       8
#     4   4   4   4   4   4   4   4
#     4   9  18  32  51  76 101 126 160 200 238 282
#     4   9  18  31  49  69  94 126 163 202 248 300
#     4  11  22  33  47  68  95 128 165 209 258 303
#     4  10  20  33  52  80 112 137 158 189 232 284
#     4   9  17  31  53  76  98 126 162 202 244 291
#     4  10  20  31  45  66  93 125 162 204 250 296
#     4   9  19  36  54  71  94 127 168 209 247 291
#     4   9  19  35  52  70  94 127 166 205 244 289
#
# _framework density 17.461908000000001
#
# number of rings (size 3 to 8) (size 9 to 14) (size 15 to 20)
#    0.000    2.500    0.000    1.875    0.000   12.500 
#    0.000    1.250    0.000    0.750    0.000    1.750 
#    0.000    0.000    0.000    0.000    0.000    0.000 
#
# Total GULP energy -396722.320309 kJ/mol
# GULP energy per Si atom -12397.572510 kJ/mol
# Density = 1.742216 g / cm^3
# Si number density = 17.461908 Si / 1000 Ang^3
#
#
#
# Elastic Constant Matrix: (Units=GPa)
#
#
# Indices 1 2 3 4 5 6 
#
# 1 101.5839 62.2976 47.9893 0.0000 0.0000 0.0000
# 2 62.2976 97.1910 46.2835 0.0000 0.0000 0.0000
# 3 47.9893 46.2835 124.1739 0.0000 0.0000 0.0000
# 4 0.0000 0.0000 0.0000 13.0972 0.0000 0.0000
# 5 0.0000 0.0000 0.0000 0.0000 22.7366 0.0000
# 6 0.0000 0.0000 0.0000 0.0000 0.0000 25.8210
#
#
#
# Elastic Compliance Matrix: (Units=1/GPa)
#
#
# Indices 1 2 3 4 5 6 
#
# 1 0.017133 -0.009518 -0.003074 0.000000 0.000000 0.000000
# 2 -0.009518 0.017797 -0.002955 0.000000 0.000000 0.000000
# 3 -0.003074 -0.002955 0.010343 0.000000 0.000000 0.000000
# 4 0.000000 0.000000 0.000000 0.076352 0.000000 0.000000
# 5 0.000000 0.000000 0.000000 0.000000 0.043982 0.000000
# 6 0.000000 0.000000 0.000000 0.000000 0.000000 0.038728
#
#
# Mechanical properties :
#
#
# Convention : Reuss Voigt Hill
#
# Bulk Modulus (GPa) = 70.52717 70.67661 70.60189
# Shear Modulus (GPa) = 20.81979 23.42287 22.12133
#
# Velocity S-wave (km/s) = 3.45671 3.66644 3.56312
# Velocity P-wave (km/s) = 7.51057 7.64764 7.57941
#
# Compressibility (1/GPa) = 0.01417893
#
# Stress axis : x y z
#
# Youngs Moduli (GPa) = 58.36535 56.18789 96.68785
#
# Poissons Ratio (x) = 0.53482 0.29719
# Poissons Ratio (y) = 0.55555 0.28572
# Poissons Ratio (z) = 0.17940 0.16604
#
# Static dielectric constant tensor:
#      x y z
#    x 3.232300 0.000000 0.000000 
#    y 0.000000 3.094330 0.000000 
#    z 0.000000 0.000000 3.283390 
# 
# 
# High freq. dielectric constant tensor:
#      x y z
#    x 1.678960 0.000000 0.000000 
#    y 0.000000 1.655530 0.000000 
#    z 0.000000 0.000000 1.665330 
# 
# From -- ./inp_files/5156.got.cif
#   From: 2010.03.12/outbox.cif.g09.slc.cpg/sg28_3_cif.got.tgz:5156.got - 2010.04.14 03:39:34.
