data_PCOD8168097
_publ_section_title
;
Structure prediction by ZEFSAII (Michael W. Deem and Ramdas Pophale) SiO2 
 PCOD8168097
Probable space group: P M A 2
;
_chemical_formula_sum "Si O2"
_cell_formula_units_Z 32
_cell_length_a 9.116053
_cell_length_b 17.676736
_cell_length_c 11.555035
_cell_angle_alpha 90.000000
_cell_angle_beta 90.000000
_cell_angle_gamma 90.000000
_cell_volume 1862.002169
_symmetry_space_group_name_H-M "P M A 2"
_symmetry_group_IT_number 28
_symmetry_cell_setting 'orthorhombic'
loop_
_space_group_symop_operation_xyz
x,y,z
-x,-y,z
1/2-x,y,z
1/2+x,-y,z
loop_
_atom_site_type_symbol
_atom_site_label
_atom_site_fract_x
_atom_site_fract_y
_atom_site_fract_z
Si Si1 0.082576 0.344549 0.389870
Si Si2 0.422043 0.770673 0.820753
Si Si3 0.918312 0.575357 0.165862
Si Si4 0.411199 0.296362 0.623921
Si Si5 0.418754 0.795806 0.301465
Si Si6 0.575664 0.074310 0.705390
Si Si7 0.415522 0.136817 0.495831
Si Si8 0.421485 0.721770 0.071752
O O1 0.250000 0.311437 0.377278
O O2 0.067746 0.417180 0.306150
O O3 0.053984 0.362002 0.527512
O O4 0.959234 0.286579 0.348697
O O5 0.250000 0.766522 0.814747
O O6 0.478942 0.706380 0.731735
O O7 0.475584 0.854116 0.782712
O O8 0.479111 0.752963 0.948987
O O9 0.750000 0.569089 0.127366
O O10 0.000000 0.500000 0.124910
O O11 0.986683 0.647557 0.102162
O O12 0.250000 0.307639 0.677524
O O13 0.419989 0.220117 0.549004
O O14 0.250000 0.813168 0.330024
O O15 0.516705 0.859679 0.365622
O O16 0.447409 0.790567 0.163152
O O17 0.750000 0.065207 0.703046
O O18 0.514858 0.082547 0.574837
O O19 0.500000 0.000000 0.760800
O O20 0.250000 0.104784 0.489879
O O21 0.250000 0.699623 0.068476
#
# Coordination Sequence:
#
# PCOD8168097 Si02
#       8
#     4   4   4   4   4   4   4   4
#     4   8  15  27  42  62  89 117 144 179 226 276
#     4   9  18  31  47  68  94 125 162 200 236 278
#     4  10  19  31  48  70  95 123 155 195 243 293
#     4   8  14  25  42  64  88 113 143 182 225 268
#     4   9  15  24  42  66  89 114 146 185 228 271
#     4  10  19  31  48  70  95 123 156 195 241 290
#     4   9  16  27  43  64  91 118 145 181 226 275
#     4   9  18  32  48  68  95 127 164 203 239 279
#
# _framework density 17.185801999999999
#
# number of rings (size 3 to 8) (size 9 to 14) (size 15 to 20)
#    0.000    3.000    0.000    2.250    0.000    5.000 
#    0.000    0.000    0.000    1.500    0.000    5.250 
#    0.000    0.000    0.000    0.000    0.000    0.000 
#
# Total GULP energy -396474.305032 kJ/mol
# GULP energy per Si atom -12389.822032 kJ/mol
# Density = 1.714669 g / cm^3
# Si number density = 17.185802 Si / 1000 Ang^3
#
#
#
# Elastic Constant Matrix: (Units=GPa)
#
#
# Indices 1 2 3 4 5 6 
#
# 1 73.6980 32.5843 45.8524 0.0000 0.0000 0.0000
# 2 32.5843 56.1333 37.3860 0.0000 0.0000 0.0000
# 3 45.8524 37.3860 126.6557 0.0000 0.0000 0.0000
# 4 0.0000 0.0000 0.0000 15.7563 0.0000 0.0000
# 5 0.0000 0.0000 0.0000 0.0000 24.2084 0.0000
# 6 0.0000 0.0000 0.0000 0.0000 0.0000 19.6727
#
#
#
# Elastic Compliance Matrix: (Units=1/GPa)
#
#
# Indices 1 2 3 4 5 6 
#
# 1 0.020387 -0.008612 -0.004839 0.000000 0.000000 0.000000
# 2 -0.008612 0.025812 -0.004501 0.000000 0.000000 0.000000
# 3 -0.004839 -0.004501 0.010976 0.000000 0.000000 0.000000
# 4 0.000000 0.000000 0.000000 0.063467 0.000000 0.000000
# 5 0.000000 0.000000 0.000000 0.000000 0.041308 0.000000
# 6 0.000000 0.000000 0.000000 0.000000 0.000000 0.050832
#
#
# Mechanical properties :
#
#
# Convention : Reuss Voigt Hill
#
# Bulk Modulus (GPa) = 47.01211 54.23694 50.62453
# Shear Modulus (GPa) = 19.54852 21.30511 20.42682
#
# Velocity S-wave (km/s) = 3.37631 3.52475 3.45133
# Velocity P-wave (km/s) = 6.52793 6.94210 6.73820
#
# Compressibility (1/GPa) = 0.02127111
#
# Stress axis : x y z
#
# Youngs Moduli (GPa) = 49.05153 38.74223 91.10943
#
# Poissons Ratio (x) = 0.33363 0.44084
# Poissons Ratio (y) = 0.42241 0.41012
# Poissons Ratio (z) = 0.23734 0.17440
#
# Static dielectric constant tensor:
#      x y z
#    x 3.266320 0.000000 0.000000 
#    y 0.000000 2.922070 0.000000 
#    z 0.000000 0.000000 3.476870 
# 
# 
# High freq. dielectric constant tensor:
#      x y z
#    x 1.672540 0.000000 0.000000 
#    y 0.000000 1.615130 0.000000 
#    z 0.000000 0.000000 1.656660 
# 
# From -- ./inp_files/5151.got.cif
#   From: 2010.03.12/outbox.cif.g09.slc.cpg/sg28_3_cif.got.tgz:5151.got - 2010.04.14 03:39:34.
