data_PCOD8168814
_publ_section_title
;
Structure prediction by ZEFSAII (Michael W. Deem and Ramdas Pophale) SiO2 
 PCOD8168814
Probable space group: P C A 21
;
_chemical_formula_sum "Si O2"
_cell_formula_units_Z 24
_cell_length_a 15.301349
_cell_length_b 8.594749
_cell_length_c 8.907345
_cell_angle_alpha 90.000000
_cell_angle_beta 90.000000
_cell_angle_gamma 90.000000
_cell_volume 1171.416111
_symmetry_space_group_name_H-M "P C A 21"
_symmetry_group_IT_number 29
_symmetry_cell_setting 'orthorhombic'
loop_
_space_group_symop_operation_xyz
x,y,z
-x,-y,1/2+z
1/2-x,y,1/2+z
1/2+x,-y,z
loop_
_atom_site_type_symbol
_atom_site_label
_atom_site_fract_x
_atom_site_fract_y
_atom_site_fract_z
Si Si1 0.678463 0.174925 0.206800
Si Si2 0.675327 0.819363 0.175458
Si Si3 0.332118 0.325269 0.998477
Si Si4 0.483276 0.336509 0.536227
Si Si5 0.496120 0.656823 0.683108
Si Si6 0.324497 0.683800 0.016866
O O1 0.579920 0.216800 0.158184
O O2 0.690334 0.194782 0.383816
O O3 0.748551 0.292258 0.135912
O O4 0.700033 0.999689 0.160681
O O5 0.665159 0.775556 0.348794
O O6 0.750506 0.717736 0.101085
O O7 0.585010 0.794078 0.086649
O O8 0.419531 0.287967 0.091478
O O9 0.325049 0.506842 0.955975
O O10 0.458179 0.494934 0.621253
O O11 0.479269 0.361907 0.357494
O O12 0.580108 0.283169 0.588986
#
# Coordination Sequence:
#
# PCOD8168814 Si02
#       6
#     4   4   4   4   4   4
#     4  11  24  39  60  90 124 157 195 252 312 362
#     4  12  24  39  61  91 125 157 198 254 312 363
#     4  11  23  41  65  89 118 163 209 251 296 364
#     4  10  21  40  62  89 119 158 207 253 297 360
#     4  10  22  40  63  89 119 160 207 251 300 359
#     4  10  22  41  63  86 117 159 206 245 293 360
#
# _framework density 20.488022000000001
#
# number of rings (size 3 to 8) (size 9 to 14) (size 15 to 20)
#    0.000    1.333    0.000    7.000    0.000    9.333 
#    0.000    0.000    0.000    0.000    0.000    0.000 
#    0.000    0.000    0.000    0.000    0.000    0.000 
#
# Total GULP energy -297710.654465 kJ/mol
# GULP energy per Si atom -12404.610603 kJ/mol
# Density = 2.044139 g / cm^3
# Si number density = 20.488022 Si / 1000 Ang^3
#
#
#
# Elastic Constant Matrix: (Units=GPa)
#
#
# Indices 1 2 3 4 5 6 
#
# 1 129.8276 29.0783 48.2716 0.0000 0.0000 0.0000
# 2 29.0783 66.0234 16.9991 0.0000 0.0000 0.0000
# 3 48.2716 16.9991 92.4634 0.0000 0.0000 0.0000
# 4 0.0000 0.0000 0.0000 31.2648 0.0000 0.0000
# 5 0.0000 0.0000 0.0000 0.0000 36.4141 0.0000
# 6 0.0000 0.0000 0.0000 0.0000 0.0000 25.2525
#
#
#
# Elastic Compliance Matrix: (Units=1/GPa)
#
#
# Indices 1 2 3 4 5 6 
#
# 1 0.010190 -0.003273 -0.004718 0.000000 0.000000 0.000000
# 2 -0.003273 0.016950 -0.001407 0.000000 0.000000 0.000000
# 3 -0.004718 -0.001407 0.013537 0.000000 0.000000 0.000000
# 4 0.000000 0.000000 0.000000 0.031985 0.000000 0.000000
# 5 0.000000 0.000000 0.000000 0.000000 0.027462 0.000000
# 6 0.000000 0.000000 0.000000 0.000000 0.000000 0.039600
#
#
# Mechanical properties :
#
#
# Convention : Reuss Voigt Hill
#
# Bulk Modulus (GPa) = 45.70433 53.00136 49.35285
# Shear Modulus (GPa) = 30.15429 31.51731 30.83580
#
# Velocity S-wave (km/s) = 3.84057 3.92641 3.88372
# Velocity P-wave (km/s) = 6.48250 6.81771 6.65222
#
# Compressibility (1/GPa) = 0.02187977
#
# Stress axis : x y z
#
# Youngs Moduli (GPa) = 98.13716 58.99677 73.87209
#
# Poissons Ratio (x) = 0.19310 0.34853
# Poissons Ratio (y) = 0.32121 0.10397
# Poissons Ratio (z) = 0.46301 0.08304
#
# Static dielectric constant tensor:
#      x y z
#    x 3.918350 0.000000 0.000000 
#    y 0.000000 3.515040 0.000000 
#    z 0.000000 0.000000 3.676490 
# 
# 
# High freq. dielectric constant tensor:
#      x y z
#    x 1.818800 0.000000 0.000000 
#    y 0.000000 1.793670 0.000000 
#    z 0.000000 0.000000 1.806500 
# 
# From -- ./inp_files/1669.got.cif
#   From: 2010.03.12/outbox.cif.g09.slc.cpg/sg29_1_cif.got.tgz:1669.got - 2010.04.14 03:43:10.
