data_PCOD8168597
_publ_section_title
;
Structure prediction by ZEFSAII (Michael W. Deem and Ramdas Pophale) SiO2 
 PCOD8168597
Probable space group: P C A 21
;
_chemical_formula_sum "Si O2"
_cell_formula_units_Z 24
_cell_length_a 8.899270
_cell_length_b 9.142662
_cell_length_c 16.039280
_cell_angle_alpha 90.000000
_cell_angle_beta 90.000000
_cell_angle_gamma 90.000000
_cell_volume 1305.004222
_symmetry_space_group_name_H-M "P C A 21"
_symmetry_group_IT_number 29
_symmetry_cell_setting 'orthorhombic'
loop_
_space_group_symop_operation_xyz
x,y,z
-x,-y,1/2+z
1/2-x,y,1/2+z
1/2+x,-y,z
loop_
_atom_site_type_symbol
_atom_site_label
_atom_site_fract_x
_atom_site_fract_y
_atom_site_fract_z
Si Si1 0.653733 0.908108 0.583350
Si Si2 0.542390 0.850432 0.155591
Si Si3 0.311112 0.912566 0.921938
Si Si4 0.994060 0.834796 0.844543
Si Si5 0.498823 0.663776 0.998699
Si Si6 0.849715 0.643659 0.974132
O O1 0.778761 0.868223 0.651504
O O2 0.589562 0.758956 0.543096
O O3 0.522906 0.991517 0.630982
O O4 0.725941 0.004766 0.508578
O O5 0.490044 0.802926 0.246803
O O6 0.487420 0.725383 0.092391
O O7 0.157404 0.856085 0.883467
O O8 0.421504 0.775812 0.934962
O O9 0.392804 0.021739 0.858127
O O10 0.915413 0.692496 0.884816
O O11 0.669607 0.641901 0.969960
O O12 0.409036 0.513810 0.998783
#
# Coordination Sequence:
#
# PCOD8168597 Si02
#       6
#     4   4   4   4   4   4
#     4   9  18  34  54  75 104 142 176 211 260 319
#     4  10  20  34  54  82 108 134 175 224 264 304
#     4  10  19  34  56  78 106 144 179 211 262 321
#     4  11  20  34  55  83 110 136 176 227 264 304
#     4  10  21  38  57  76 105 146 182 212 262 325
#     4  10  20  36  56  76 105 144 180 215 260 323
#
# _framework density 18.390744999999999
#
# number of rings (size 3 to 8) (size 9 to 14) (size 15 to 20)
#    0.000    2.000    0.000    7.000    0.000    1.333 
#    0.000    8.333    0.000    0.000    0.000    0.000 
#    0.000    0.000    0.000    0.000    0.000    0.000 
#
# Total GULP energy -297661.525250 kJ/mol
# GULP energy per Si atom -12402.563552 kJ/mol
# Density = 1.834889 g / cm^3
# Si number density = 18.390745 Si / 1000 Ang^3
#
#
#
# Elastic Constant Matrix: (Units=GPa)
#
#
# Indices 1 2 3 4 5 6 
#
# 1 86.2324 34.0956 27.8015 0.0000 0.0000 0.0000
# 2 34.0956 118.4716 24.6259 0.0000 0.0000 0.0000
# 3 27.8015 24.6259 89.7453 0.0000 0.0000 0.0000
# 4 0.0000 0.0000 0.0000 15.0725 0.0000 0.0000
# 5 0.0000 0.0000 0.0000 0.0000 17.5861 0.0000
# 6 0.0000 0.0000 0.0000 0.0000 0.0000 33.1142
#
#
#
# Elastic Compliance Matrix: (Units=1/GPa)
#
#
# Indices 1 2 3 4 5 6 
#
# 1 0.014016 -0.003321 -0.003431 0.000000 0.000000 0.000000
# 2 -0.003321 0.009738 -0.001643 0.000000 0.000000 0.000000
# 3 -0.003431 -0.001643 0.012656 0.000000 0.000000 0.000000
# 4 0.000000 0.000000 0.000000 0.066346 0.000000 0.000000
# 5 0.000000 0.000000 0.000000 0.000000 0.056863 0.000000
# 6 0.000000 0.000000 0.000000 0.000000 0.000000 0.030199
#
#
# Mechanical properties :
#
#
# Convention : Reuss Voigt Hill
#
# Bulk Modulus (GPa) = 50.96643 51.94392 51.45518
# Shear Modulus (GPa) = 23.45798 27.01630 25.23714
#
# Velocity S-wave (km/s) = 3.57533 3.83693 3.70844
# Velocity P-wave (km/s) = 6.69457 6.92353 6.81001
#
# Compressibility (1/GPa) = 0.01962076
#
# Stress axis : x y z
#
# Youngs Moduli (GPa) = 71.34950 102.68958 79.01165
#
# Poissons Ratio (x) = 0.34098 0.27106
# Poissons Ratio (y) = 0.23692 0.12985
# Poissons Ratio (z) = 0.24477 0.16877
#
# Static dielectric constant tensor:
#      x y z
#    x 3.442010 0.000000 0.000000 
#    y 0.000000 3.446060 0.000000 
#    z 0.000000 0.000000 3.293460 
# 
# 
# High freq. dielectric constant tensor:
#      x y z
#    x 1.724100 0.000000 0.000000 
#    y 0.000000 1.710430 0.000000 
#    z 0.000000 0.000000 1.698210 
# 
# From -- ./inp_files/4179.got.cif
#   From: 2010.03.12/outbox.cif.g09.slc.cpg/sg29_3_cif.got.tgz:4179.got - 2010.04.14 03:43:10.
