data_PCOD8168004
_publ_section_title
;
Structure prediction by ZEFSAII (Michael W. Deem and Ramdas Pophale) SiO2 
 PCOD8168004
Probable space group: P M A 2
;
_chemical_formula_sum "Si O2"
_cell_formula_units_Z 28
_cell_length_a 18.243699
_cell_length_b 16.220675
_cell_length_c 5.276265
_cell_angle_alpha 90.000000
_cell_angle_beta 90.000000
_cell_angle_gamma 90.000000
_cell_volume 1561.379313
_symmetry_space_group_name_H-M "P M A 2"
_symmetry_group_IT_number 28
_symmetry_cell_setting 'orthorhombic'
loop_
_space_group_symop_operation_xyz
x,y,z
-x,-y,z
1/2-x,y,z
1/2+x,-y,z
loop_
_atom_site_type_symbol
_atom_site_label
_atom_site_fract_x
_atom_site_fract_y
_atom_site_fract_z
Si Si1 0.588104 0.502867 0.954360
Si Si2 0.572105 0.804360 0.236632
Si Si3 0.166999 0.354221 0.174350
Si Si4 0.333618 0.512394 0.448735
Si Si5 0.488299 0.140518 0.736401
Si Si6 0.170188 0.037266 0.236897
Si Si7 0.113713 0.980178 0.736863
O O1 0.500000 0.500000 0.954510
O O2 0.620928 0.461953 0.698947
O O3 0.617176 0.597859 0.965198
O O4 0.622040 0.453975 0.199073
O O5 0.631282 0.732171 0.245575
O O6 0.522522 0.801714 0.489185
O O7 0.611475 0.891478 0.236696
O O8 0.523479 0.801118 0.981846
O O9 0.250000 0.339949 0.071050
O O10 0.169830 0.412457 0.424397
O O11 0.250000 0.547728 0.458306
O O12 0.569905 0.105320 0.738401
O O13 0.435031 0.062337 0.736311
O O14 0.250000 0.078453 0.238008
O O15 0.162200 0.979711 0.483568
O O16 0.162605 0.980138 0.989184
#
# Coordination Sequence:
#
# PCOD8168004 Si02
#       7
#     4   4   4   4   4   4   4
#     4  10  19  32  50  72 100 134 169 204 233 270
#     4  10  19  29  45  67  96 127 155 186 227 288
#     4   9  20  33  49  72 106 139 159 187 236 298
#     4   9  18  32  49  70  99 135 163 190 233 288
#     4   9  18  30  44  63  85 126 163 191 232 274
#     4  10  18  28  43  66  91 119 155 195 233 280
#     4   9  17  30  44  58  89 121 156 200 235 269
#
# _framework density 17.932860000000002
#
# number of rings (size 3 to 8) (size 9 to 14) (size 15 to 20)
#    0.857    1.714    0.000    3.000    2.000    3.429 
#    0.000    1.429    0.000    0.000    0.000    0.000 
#    0.000   29.714    0.000    0.000    0.000    0.000 
#
# Total GULP energy -346877.576671 kJ/mol
# GULP energy per Si atom -12388.484881 kJ/mol
# Density = 1.789204 g / cm^3
# Si number density = 17.932860 Si / 1000 Ang^3
#
#
#
# Elastic Constant Matrix: (Units=GPa)
#
#
# Indices 1 2 3 4 5 6 
#
# 1 79.8754 7.2567 38.6941 0.0000 0.0000 0.0000
# 2 7.2567 26.2180 8.1398 0.0000 0.0000 0.0000
# 3 38.6941 8.1398 155.9322 0.0000 0.0000 0.0000
# 4 0.0000 0.0000 0.0000 10.8007 0.0000 0.0000
# 5 0.0000 0.0000 0.0000 0.0000 166.6834 0.0000
# 6 0.0000 0.0000 0.0000 0.0000 0.0000 31.8012
#
#
#
# Elastic Compliance Matrix: (Units=1/GPa)
#
#
# Indices 1 2 3 4 5 6 
#
# 1 0.014449 -0.002934 -0.003432 0.000000 0.000000 0.000000
# 2 -0.002934 0.039366 -0.001327 0.000000 0.000000 0.000000
# 3 -0.003432 -0.001327 0.007334 0.000000 0.000000 0.000000
# 4 0.000000 0.000000 0.000000 0.092587 0.000000 0.000000
# 5 0.000000 0.000000 0.000000 0.000000 0.005999 0.000000
# 6 0.000000 0.000000 0.000000 0.000000 0.000000 0.031445
#
#
# Mechanical properties :
#
#
# Convention : Reuss Voigt Hill
#
# Bulk Modulus (GPa) = 21.85183 41.13409 31.49296
# Shear Modulus (GPa) = 22.54080 55.71937 39.13008
#
# Velocity S-wave (km/s) = 3.54920 5.58019 4.67629
# Velocity P-wave (km/s) = 5.38587 8.03154 6.83788
#
# Compressibility (1/GPa) = 0.04576276
#
# Stress axis : x y z
#
# Youngs Moduli (GPa) = 69.21027 25.40286 136.35086
#
# Poissons Ratio (x) = 0.07452 0.46799
# Poissons Ratio (y) = 0.20303 0.18093
# Poissons Ratio (z) = 0.23755 0.03371
#
# Static dielectric constant tensor:
#      x y z
#    x 3.204150 0.000000 0.000000 
#    y 0.000000 2.708960 0.000000 
#    z 0.000000 0.000000 3.627890 
# 
# 
# High freq. dielectric constant tensor:
#      x y z
#    x 1.687110 0.000000 0.000000 
#    y 0.000000 1.626460 0.000000 
#    z 0.000000 0.000000 1.711320 
# 
# From -- ./inp_files/1245.got.cif
#   From: 2010.03.12/outbox.cif.g09.slc.cpg/sg28_1_cif.got.tgz:1245.got - 2010.04.14 03:39:34.
