data_PCOD8168083
_publ_section_title
;
Structure prediction by ZEFSAII (Michael W. Deem and Ramdas Pophale) SiO2 
 PCOD8168083
Probable space group: P M A 2
;
_chemical_formula_sum "Si O2"
_cell_formula_units_Z 32
_cell_length_a 8.970422
_cell_length_b 14.247295
_cell_length_c 15.707964
_cell_angle_alpha 90.000000
_cell_angle_beta 90.000000
_cell_angle_gamma 90.000000
_cell_volume 2007.544535
_symmetry_space_group_name_H-M "P M A 2"
_symmetry_group_IT_number 28
_symmetry_cell_setting 'orthorhombic'
loop_
_space_group_symop_operation_xyz
x,y,z
-x,-y,z
1/2-x,y,z
1/2+x,-y,z
loop_
_atom_site_type_symbol
_atom_site_label
_atom_site_fract_x
_atom_site_fract_y
_atom_site_fract_z
Si Si1 0.922665 0.401942 0.343680
Si Si2 0.424143 0.907160 0.928923
Si Si3 0.076879 0.708254 0.995349
Si Si4 0.075466 0.092941 0.748976
Si Si5 0.074150 0.399467 0.843529
Si Si6 0.925191 0.398798 0.528271
Si Si7 0.075222 0.600519 0.160307
Si Si8 0.077888 0.289794 0.674895
O O1 0.750000 0.423254 0.344222
O O2 0.964856 0.353916 0.434328
O O3 0.965862 0.352483 0.253370
O O4 0.000000 0.500000 0.342159
O O5 0.250000 0.926027 0.914473
O O6 0.451944 0.819843 0.991786
O O7 0.499289 0.883818 0.838787
O O8 0.500000 0.000000 0.969448
O O9 0.250000 0.685184 0.978150
O O10 0.979564 0.655592 0.925919
O O11 0.023429 0.673437 0.088132
O O12 0.250000 0.076001 0.764658
O O13 0.048608 0.178947 0.684995
O O14 0.000000 0.000000 0.708546
O O15 0.250000 0.411519 0.849323
O O16 0.025441 0.342270 0.760131
O O17 0.000000 0.500000 0.838851
O O18 0.750000 0.413113 0.540337
O O19 0.000000 0.500000 0.542505
O O20 0.981569 0.324026 0.595954
O O21 0.250000 0.582342 0.153366
O O22 0.000000 0.500000 0.145715
O O23 0.250000 0.311330 0.656232
#
# Coordination Sequence:
#
# PCOD8168083 Si02
#       8
#     4   4   4   4   4   4   4   4
#     4   8  15  28  45  65  89 117 149 188 229 269
#     4  10  19  31  48  68  90 117 152 191 232 272
#     4  10  20  32  47  68  91 121 156 189 227 270
#     4  10  19  33  50  69  90 116 151 190 233 272
#     4  11  22  34  45  61  91 127 159 187 219 263
#     4  10  19  30  47  69  93 122 156 191 230 272
#     4   9  17  30  46  66  93 121 152 187 225 269
#     4  10  21  34  47  66  92 123 155 187 227 271
#
# _framework density 15.939871
#
# number of rings (size 3 to 8) (size 9 to 14) (size 15 to 20)
#    0.000    2.250    1.250    3.000    0.000    5.500 
#    0.000    0.000    0.000    0.000    0.000    0.875 
#    0.000    4.000    0.000    0.000    0.000    0.000 
#
# Total GULP energy -396556.340116 kJ/mol
# GULP energy per Si atom -12392.385629 kJ/mol
# Density = 1.590359 g / cm^3
# Si number density = 15.939871 Si / 1000 Ang^3
#
#
#
# Elastic Constant Matrix: (Units=GPa)
#
#
# Indices 1 2 3 4 5 6 
#
# 1 65.7656 44.0221 51.0154 0.0000 0.0000 0.0000
# 2 44.0221 103.3187 63.7262 0.0000 0.0000 0.0000
# 3 51.0154 63.7262 140.7975 0.0000 0.0000 0.0000
# 4 0.0000 0.0000 0.0000 8.4312 0.0000 0.0000
# 5 0.0000 0.0000 0.0000 0.0000 17.5561 0.0000
# 6 0.0000 0.0000 0.0000 0.0000 0.0000 24.6230
#
#
#
# Elastic Compliance Matrix: (Units=1/GPa)
#
#
# Indices 1 2 3 4 5 6 
#
# 1 0.024156 -0.006789 -0.005680 0.000000 0.000000 0.000000
# 2 -0.006789 0.015335 -0.004481 0.000000 0.000000 0.000000
# 3 -0.005680 -0.004481 0.011188 0.000000 0.000000 0.000000
# 4 0.000000 0.000000 0.000000 0.118607 0.000000 0.000000
# 5 0.000000 0.000000 0.000000 0.000000 0.056960 0.000000
# 6 0.000000 0.000000 0.000000 0.000000 0.000000 0.040612
#
#
# Mechanical properties :
#
#
# Convention : Reuss Voigt Hill
#
# Bulk Modulus (GPa) = 59.59443 69.71212 64.65328
# Shear Modulus (GPa) = 16.32108 20.19661 18.25884
#
# Velocity S-wave (km/s) = 3.20334 3.56343 3.38817
# Velocity P-wave (km/s) = 7.15192 7.79487 7.48031
#
# Compressibility (1/GPa) = 0.01678009
#
# Stress axis : x y z
#
# Youngs Moduli (GPa) = 41.39796 65.20874 89.37821
#
# Poissons Ratio (x) = 0.44272 0.50763
# Poissons Ratio (y) = 0.28106 0.40050
# Poissons Ratio (z) = 0.23512 0.29220
#
# Static dielectric constant tensor:
#      x y z
#    x 3.115820 0.000000 0.000000 
#    y 0.000000 3.020510 0.000000 
#    z 0.000000 0.000000 3.485850 
# 
# 
# High freq. dielectric constant tensor:
#      x y z
#    x 1.624320 0.000000 0.000000 
#    y 0.000000 1.591430 0.000000 
#    z 0.000000 0.000000 1.607170 
# 
# From -- ./inp_files/6384.got.cif
#   From: 2010.03.12/outbox.cif.g09.slc.cpg/sg28_4_cif.got.tgz:6384.got - 2010.04.14 03:39:34.
