data_PCOD8168558
_publ_section_title
;
Structure prediction by ZEFSAII (Michael W. Deem and Ramdas Pophale) SiO2 
 PCOD8168558
Probable space group: P C A 21
;
_chemical_formula_sum "Si O2"
_cell_formula_units_Z 32
_cell_length_a 19.808219
_cell_length_b 8.858585
_cell_length_c 9.745756
_cell_angle_alpha 90.000000
_cell_angle_beta 90.000000
_cell_angle_gamma 90.000000
_cell_volume 1710.115013
_symmetry_space_group_name_H-M "P C A 21"
_symmetry_group_IT_number 29
_symmetry_cell_setting 'orthorhombic'
loop_
_space_group_symop_operation_xyz
x,y,z
-x,-y,1/2+z
1/2-x,y,1/2+z
1/2+x,-y,z
loop_
_atom_site_type_symbol
_atom_site_label
_atom_site_fract_x
_atom_site_fract_y
_atom_site_fract_z
Si Si1 0.543877 0.391791 0.771760
Si Si2 0.473632 0.085909 0.746083
Si Si3 0.945828 0.543747 0.997004
Si Si4 0.153912 0.246426 0.118055
Si Si5 0.801910 0.801690 0.101585
Si Si6 0.062858 0.099905 0.545939
Si Si7 0.831422 0.573798 0.345448
Si Si8 0.186137 0.424660 0.372811
O O1 0.529902 0.213831 0.775213
O O2 0.526256 0.445246 0.619745
O O3 0.494994 0.484613 0.870767
O O4 0.619608 0.432928 0.816904
O O5 0.409379 0.143586 0.659344
O O6 0.509067 0.955816 0.657875
O O7 0.450043 0.024646 0.895890
O O8 0.871482 0.482155 0.952987
O O9 0.943775 0.719943 0.035027
O O10 0.224124 0.147711 0.128898
O O11 0.159467 0.388730 0.220416
O O12 0.142887 0.318169 0.968056
O O13 0.859625 0.933532 0.098596
O O14 0.825264 0.674641 0.209681
O O15 0.801926 0.735249 0.947959
O O16 0.758912 0.493350 0.375015
#
# Coordination Sequence:
#
# PCOD8168558 Si02
#       8
#     4   4   4   4   4   4   4   4
#     4  11  20  34  54  85 112 143 174 229 281 337
#     4  11  23  36  56  80 118 144 185 230 286 334
#     4  10  20  36  55  78 114 139 184 228 274 327
#     4  10  18  32  55  88 103 142 191 232 266 323
#     4   9  17  34  57  80 107 138 190 238 264 314
#     4  10  21  38  53  79 110 150 181 234 276 331
#     4  10  19  28  58  85 107 137 186 226 280 323
#     4   9  16  34  50  81 111 139 179 235 263 315
#
# _framework density 18.712192999999999
#
# number of rings (size 3 to 8) (size 9 to 14) (size 15 to 20)
#    0.000    2.000    6.250    0.750    1.750    1.000 
#    0.000    0.000    0.000    6.000    0.000    0.000 
#    0.000    0.000    0.000    0.000    0.000    0.000 
#
# Total GULP energy -396455.733128 kJ/mol
# GULP energy per Si atom -12389.241660 kJ/mol
# Density = 1.866960 g / cm^3
# Si number density = 18.712193 Si / 1000 Ang^3
#
#
#
# Elastic Constant Matrix: (Units=GPa)
#
#
# Indices 1 2 3 4 5 6 
#
# 1 150.5660 38.3609 39.7171 0.0000 0.0000 0.0000
# 2 38.3609 22.9371 18.2318 0.0000 0.0000 0.0000
# 3 39.7171 18.2318 98.8034 0.0000 0.0000 0.0000
# 4 0.0000 0.0000 0.0000 20.5666 0.0000 0.0000
# 5 0.0000 0.0000 0.0000 0.0000 35.7742 0.0000
# 6 0.0000 0.0000 0.0000 0.0000 0.0000 29.9395
#
#
#
# Elastic Compliance Matrix: (Units=1/GPa)
#
#
# Indices 1 2 3 4 5 6 
#
# 1 0.011710 -0.018565 -0.001281 0.000000 0.000000 0.000000
# 2 -0.018565 0.080526 -0.007396 0.000000 0.000000 0.000000
# 3 -0.001281 -0.007396 0.012001 0.000000 0.000000 0.000000
# 4 0.000000 0.000000 0.000000 0.048622 0.000000 0.000000
# 5 0.000000 0.000000 0.000000 0.000000 0.027953 0.000000
# 6 0.000000 0.000000 0.000000 0.000000 0.000000 0.033401
#
#
# Mechanical properties :
#
#
# Convention : Reuss Voigt Hill
#
# Bulk Modulus (GPa) = 20.10018 51.65846 35.87932
# Shear Modulus (GPa) = 17.52656 28.98918 23.25787
#
# Velocity S-wave (km/s) = 3.06378 3.94027 3.52934
# Velocity P-wave (km/s) = 4.82501 6.95470 5.98534
#
# Compressibility (1/GPa) = 0.04975079
#
# Stress axis : x y z
#
# Youngs Moduli (GPa) = 85.40020 12.41841 83.32666
#
# Poissons Ratio (x) = 0.23055 0.10676
# Poissons Ratio (y) = 1.58547 0.61631
# Poissons Ratio (z) = 0.10942 0.09185
#
# Static dielectric constant tensor:
#      x y z
#    x 4.062930 0.000000 0.000000 
#    y 0.000000 2.731030 0.000000 
#    z 0.000000 0.000000 3.763640 
# 
# 
# High freq. dielectric constant tensor:
#      x y z
#    x 1.752760 0.000000 0.000000 
#    y 0.000000 1.640160 0.000000 
#    z 0.000000 0.000000 1.754590 
# 
# From -- ./inp_files/2301.got.cif
#   From: 2010.03.12/outbox.cif.g09.slc.cpg/sg29_2_cif.got.tgz:2301.got - 2010.04.14 03:43:10.
