data_PCOD8168374
_publ_section_title
;
Structure prediction by ZEFSAII (Michael W. Deem and Ramdas Pophale) SiO2 
 PCOD8168374
Probable space group: P M A 2
;
_chemical_formula_sum "Si O2"
_cell_formula_units_Z 26
_cell_length_a 20.810814
_cell_length_b 9.267025
_cell_length_c 5.848578
_cell_angle_alpha 90.000000
_cell_angle_beta 90.000000
_cell_angle_gamma 90.000000
_cell_volume 1127.923613
_symmetry_space_group_name_H-M "P M A 2"
_symmetry_group_IT_number 28
_symmetry_cell_setting 'orthorhombic'
loop_
_space_group_symop_operation_xyz
x,y,z
-x,-y,z
1/2-x,y,z
1/2+x,-y,z
loop_
_atom_site_type_symbol
_atom_site_label
_atom_site_fract_x
_atom_site_fract_y
_atom_site_fract_z
Si Si1 0.535808 0.244038 0.547930
Si Si2 0.390411 0.593982 0.167448
Si Si3 0.820703 0.629143 0.418395
Si Si4 0.919849 0.629714 0.803282
Si Si5 0.821470 0.835204 0.031432
Si Si6 0.500000 0.000000 0.234688
Si Si7 0.614079 0.111359 0.937748
O O1 0.565719 0.368321 0.388026
O O2 0.491334 0.319647 0.737316
O O3 0.491212 0.140845 0.393289
O O4 0.590427 0.148765 0.679628
O O5 0.328400 0.495936 0.226286
O O6 0.430032 0.502777 0.977899
O O7 0.365190 0.741758 0.059835
O O8 0.750000 0.616427 0.531299
O O9 0.878005 0.584736 0.585346
O O10 0.828371 0.787747 0.299540
O O11 0.880001 0.763063 0.900190
O O12 0.750000 0.784730 0.950474
O O13 0.825095 0.004909 0.964920
O O14 0.439358 0.978240 0.074590
#
# Coordination Sequence:
#
# PCOD8168374 Si02
#       7
#     4   4   4   4   4   2   4
#     4  11  23  39  63  94 130 169 212 267 331 388
#     4  10  25  41  60  93 128 165 213 264 324 396
#     4  10  22  42  66  91 122 165 216 269 323 380
#     4  11  22  41  66  90 125 168 214 267 322 387
#     4  10  22  40  64  93 122 162 218 267 314 383
#     4  10  20  36  60  90 124 162 212 266 324 392
#     4  11  22  39  60  89 128 169 206 260 332 388
#
# _framework density 23.051207999999999
#
# number of rings (size 3 to 8) (size 9 to 14) (size 15 to 20)
#    0.000    1.538    0.000    4.615    0.000    9.846 
#    0.000    2.308    0.000    0.000    0.000    0.000 
#    0.000    0.000    0.000    0.000    0.000    0.000 
#
# Total GULP energy -322179.667789 kJ/mol
# GULP energy per Si atom -12391.525684 kJ/mol
# Density = 2.299874 g / cm^3
# Si number density = 23.051208 Si / 1000 Ang^3
#
#
#
# Elastic Constant Matrix: (Units=GPa)
#
#
# Indices 1 2 3 4 5 6 
#
# 1 72.3524 39.1776 40.3822 0.0000 0.0000 0.0000
# 2 39.1776 141.8087 51.5208 0.0000 0.0000 0.0000
# 3 40.3822 51.5208 114.6877 0.0000 0.0000 0.0000
# 4 0.0000 0.0000 0.0000 47.8923 0.0000 0.0000
# 5 0.0000 0.0000 0.0000 0.0000 104.7662 0.0000
# 6 0.0000 0.0000 0.0000 0.0000 0.0000 85.0253
#
#
#
# Elastic Compliance Matrix: (Units=1/GPa)
#
#
# Indices 1 2 3 4 5 6 
#
# 1 0.018381 -0.003259 -0.005008 0.000000 0.000000 0.000000
# 2 -0.003259 0.009005 -0.002898 0.000000 0.000000 0.000000
# 3 -0.005008 -0.002898 0.011785 0.000000 0.000000 0.000000
# 4 0.000000 0.000000 0.000000 0.020880 0.000000 0.000000
# 5 0.000000 0.000000 0.000000 0.000000 0.009545 0.000000
# 6 0.000000 0.000000 0.000000 0.000000 0.000000 0.011761
#
#
# Mechanical properties :
#
#
# Convention : Reuss Voigt Hill
#
# Bulk Modulus (GPa) = 59.37867 65.66779 62.52323
# Shear Modulus (GPa) = 45.74578 60.72132 53.23355
#
# Velocity S-wave (km/s) = 4.45964 5.13801 4.81079
# Velocity P-wave (km/s) = 7.23417 7.98426 7.61845
#
# Compressibility (1/GPa) = 0.01684106
#
# Stress axis : x y z
#
# Youngs Moduli (GPa) = 54.40410 111.05159 84.85700
#
# Poissons Ratio (x) = 0.36187 0.42498
# Poissons Ratio (y) = 0.17728 0.24590
# Poissons Ratio (z) = 0.27247 0.32181
#
# Static dielectric constant tensor:
#      x y z
#    x 3.875570 0.000000 0.000000 
#    y 0.000000 4.418850 0.000000 
#    z 0.000000 0.000000 4.375940 
# 
# 
# High freq. dielectric constant tensor:
#      x y z
#    x 1.889070 0.000000 0.000000 
#    y 0.000000 1.923020 0.000000 
#    z 0.000000 0.000000 1.914830 
# 
# From -- ./inp_files/1755.got.cif
#   From: 2010.03.12/outbox.cif.g09.slc.cpg/sg28_1_cif.got.tgz:1755.got - 2010.04.14 03:39:34.
