data_PCOD8168052
_publ_section_title
;
Structure prediction by ZEFSAII (Michael W. Deem and Ramdas Pophale) SiO2 
 PCOD8168052
Probable space group: P M A 2
;
_chemical_formula_sum "Si O2"
_cell_formula_units_Z 32
_cell_length_a 8.566294
_cell_length_b 14.198181
_cell_length_c 15.567413
_cell_angle_alpha 90.000000
_cell_angle_beta 90.000000
_cell_angle_gamma 90.000000
_cell_volume 1893.398947
_symmetry_space_group_name_H-M "P M A 2"
_symmetry_group_IT_number 28
_symmetry_cell_setting 'orthorhombic'
loop_
_space_group_symop_operation_xyz
x,y,z
-x,-y,z
1/2-x,y,z
1/2+x,-y,z
loop_
_atom_site_type_symbol
_atom_site_label
_atom_site_fract_x
_atom_site_fract_y
_atom_site_fract_z
Si Si1 0.065674 0.896314 0.656870
Si Si2 0.065361 0.895386 0.156870
Si Si3 0.433718 0.399919 0.756307
Si Si4 0.933414 0.896138 0.981866
Si Si5 0.434075 0.785962 0.489513
Si Si6 0.434075 0.785963 0.824227
Si Si7 0.066282 0.399920 0.557432
Si Si8 0.566586 0.896138 0.331874
O O1 0.250000 0.900401 0.656871
O O2 0.004882 0.842127 0.572906
O O3 0.004878 0.842132 0.740836
O O4 0.000000 0.000000 0.656865
O O5 0.250000 0.893416 0.156870
O O6 0.001821 0.848618 0.069167
O O7 0.001819 0.848618 0.244572
O O8 0.000000 0.000000 0.156869
O O9 0.500000 0.500000 0.786594
O O10 0.250000 0.395775 0.772443
O O11 0.520549 0.322795 0.813956
O O12 0.476211 0.382166 0.656870
O O13 0.750000 0.905750 0.990969
O O14 0.000000 0.000000 0.963602
O O15 0.976627 0.826786 0.905492
O O16 0.250000 0.796838 0.476278
O O17 0.479455 0.677203 0.499781
O O18 0.523369 0.826788 0.408249
O O19 0.250000 0.796842 0.837462
O O20 0.250000 0.395775 0.541299
O O21 0.000000 0.500000 0.527146
O O22 0.750000 0.905747 0.322774
O O23 0.500000 0.000000 0.350134
#
# Coordination Sequence:
#
# PCOD8168052 Si02
#       8
#     4   4   4   4   4   4   4   4
#     4  10  22  34  47  66  97 136 173 208 246 292
#     4  10  18  32  52  74  99 132 169 212 258 302
#     4  10  20  34  53  75  99 131 169 214 261 306
#     4  11  21  34  51  75 104 137 173 213 256 305
#     4  11  21  35  51  73 101 136 174 213 255 304
#     4  11  21  35  51  73 101 136 174 213 255 304
#     4  10  20  34  53  75  99 131 169 214 261 306
#     4  11  21  34  51  75 104 137 173 213 256 305
#
# _framework density 16.900822000000002
#
# number of rings (size 3 to 8) (size 9 to 14) (size 15 to 20)
#    0.000    1.500    1.250    7.125    0.000    5.000 
#    0.000    0.000    0.000    0.000    0.000    0.875 
#    0.000    0.000    0.000    0.000    0.000    0.000 
#
# Total GULP energy -396884.165427 kJ/mol
# GULP energy per Si atom -12402.630170 kJ/mol
# Density = 1.686236 g / cm^3
# Si number density = 16.900822 Si / 1000 Ang^3
#
#
#
# Elastic Constant Matrix: (Units=GPa)
#
#
# Indices 1 2 3 4 5 6 
#
# 1 107.3729 27.9349 43.1982 0.0000 0.0000 0.0000
# 2 27.9349 99.0102 50.0413 0.0000 0.0000 0.0000
# 3 43.1982 50.0413 128.3227 0.0000 0.0000 0.0000
# 4 0.0000 0.0000 0.0000 7.7422 0.0000 0.0000
# 5 0.0000 0.0000 0.0000 0.0000 26.6027 0.0000
# 6 0.0000 0.0000 0.0000 0.0000 0.0000 30.1316
#
#
#
# Elastic Compliance Matrix: (Units=1/GPa)
#
#
# Indices 1 2 3 4 5 6 
#
# 1 0.010955 -0.001528 -0.003092 0.000000 0.000000 0.000000
# 2 -0.001528 0.012792 -0.004474 0.000000 0.000000 0.000000
# 3 -0.003092 -0.004474 0.010578 0.000000 0.000000 0.000000
# 4 0.000000 0.000000 0.000000 0.129162 0.000000 0.000000
# 5 0.000000 0.000000 0.000000 0.000000 0.037590 0.000000
# 6 0.000000 0.000000 0.000000 0.000000 0.000000 0.033188
#
#
# Mechanical properties :
#
#
# Convention : Reuss Voigt Hill
#
# Bulk Modulus (GPa) = 61.96798 64.11715 63.04256
# Shear Modulus (GPa) = 19.39241 27.13074 23.26158
#
# Velocity S-wave (km/s) = 3.39104 4.01096 3.71395
# Velocity P-wave (km/s) = 7.21647 7.71168 7.46818
#
# Compressibility (1/GPa) = 0.01613737
#
# Stress axis : x y z
#
# Youngs Moduli (GPa) = 91.28390 78.17124 94.53164
#
# Poissons Ratio (x) = 0.11946 0.29228
# Poissons Ratio (y) = 0.13949 0.42295
# Poissons Ratio (z) = 0.28224 0.34975
#
# Static dielectric constant tensor:
#      x y z
#    x 3.226120 0.000000 0.000000 
#    y 0.000000 2.991110 0.000000 
#    z 0.000000 0.000000 3.578860 
# 
# 
# High freq. dielectric constant tensor:
#      x y z
#    x 1.670960 0.000000 0.000000 
#    y 0.000000 1.629270 0.000000 
#    z 0.000000 0.000000 1.647090 
# 
# From -- ./inp_files/6305.got.cif
#   From: 2010.03.12/outbox.cif.g09.slc.cpg/sg28_4_cif.got.tgz:6305.got - 2010.04.14 03:39:34.
