data_PCOD8168130
_publ_section_title
;
Structure prediction by ZEFSAII (Michael W. Deem and Ramdas Pophale) SiO2 
 PCOD8168130
Probable space group: P M A 2
;
_chemical_formula_sum "Si O2"
_cell_formula_units_Z 32
_cell_length_a 9.108564
_cell_length_b 14.563470
_cell_length_c 12.419793
_cell_angle_alpha 90.000000
_cell_angle_beta 90.000000
_cell_angle_gamma 90.000000
_cell_volume 1647.514089
_symmetry_space_group_name_H-M "P M A 2"
_symmetry_group_IT_number 28
_symmetry_cell_setting 'orthorhombic'
loop_
_space_group_symop_operation_xyz
x,y,z
-x,-y,z
1/2-x,y,z
1/2+x,-y,z
loop_
_atom_site_type_symbol
_atom_site_label
_atom_site_fract_x
_atom_site_fract_y
_atom_site_fract_z
Si Si1 0.574691 0.910129 0.304240
Si Si2 0.575619 0.710659 0.247192
Si Si3 0.578427 0.911776 0.768795
Si Si4 0.083991 0.343268 0.479613
Si Si5 0.584839 0.864610 0.536783
Si Si6 0.923000 0.411295 0.672930
Si Si7 0.077157 0.402279 0.043287
Si Si8 0.579999 0.713041 0.833310
O O1 0.750000 0.918908 0.300635
O O2 0.523315 0.817392 0.241772
O O3 0.512456 0.903712 0.427303
O O4 0.500000 0.000000 0.250372
O O5 0.750000 0.712290 0.247586
O O6 0.522554 0.662557 0.357701
O O7 0.514652 0.651090 0.147968
O O8 0.750000 0.931527 0.762795
O O9 0.509598 0.897533 0.648122
O O10 0.548952 0.822093 0.842557
O O11 0.500000 0.000000 0.822168
O O12 0.250000 0.383474 0.482592
O O13 0.082588 0.244632 0.535039
O O14 0.974842 0.406535 0.548521
O O15 0.750000 0.900786 0.538553
O O16 0.750000 0.421321 0.679789
O O17 0.000000 0.500000 0.726811
O O18 0.976439 0.323461 0.738901
O O19 0.250000 0.419622 0.052838
O O20 0.000000 0.500000 0.030092
O O21 0.038087 0.336538 0.944016
O O22 0.750000 0.695418 0.802175
#
# Coordination Sequence:
#
# PCOD8168130 Si02
#       8
#     4   4   4   4   4   4   4   4
#     4   9  16  28  48  75 107 146 183 218 258 313
#     4   8  17  34  57  81 109 144 181 221 273 331
#     4  10  19  32  51  77 108 145 183 221 268 322
#     4   9  16  33  56  77 109 148 181 219 271 328
#     4   8  14  27  48  71 103 144 181 215 260 313
#     4  12  24  36  54  81 112 144 182 225 276 337
#     4  10  21  39  62  85 104 136 184 232 280 331
#     4  10  21  39  60  79 109 146 184 230 278 327
#
# _framework density 19.423203000000001
#
# number of rings (size 3 to 8) (size 9 to 14) (size 15 to 20)
#    0.000    2.500    1.250    3.375    0.000    2.500 
#    0.000    5.625    0.000    0.000    0.000    0.000 
#    0.000    0.000    0.000    0.000    0.000    0.000 
#
# Total GULP energy -396603.622550 kJ/mol
# GULP energy per Si atom -12393.863205 kJ/mol
# Density = 1.937900 g / cm^3
# Si number density = 19.423203 Si / 1000 Ang^3
#
#
#
# Elastic Constant Matrix: (Units=GPa)
#
#
# Indices 1 2 3 4 5 6 
#
# 1 66.9513 48.7622 36.8597 0.0000 0.0000 0.0000
# 2 48.7622 139.9235 61.3132 0.0000 0.0000 0.0000
# 3 36.8597 61.3132 101.8220 0.0000 0.0000 0.0000
# 4 0.0000 0.0000 0.0000 24.2117 0.0000 0.0000
# 5 0.0000 0.0000 0.0000 0.0000 12.3481 0.0000
# 6 0.0000 0.0000 0.0000 0.0000 0.0000 33.4762
#
#
#
# Elastic Compliance Matrix: (Units=1/GPa)
#
#
# Indices 1 2 3 4 5 6 
#
# 1 0.021388 -0.005516 -0.004421 0.000000 0.000000 0.000000
# 2 -0.005516 0.011131 -0.004706 0.000000 0.000000 0.000000
# 3 -0.004421 -0.004706 0.014255 0.000000 0.000000 0.000000
# 4 0.000000 0.000000 0.000000 0.041302 0.000000 0.000000
# 5 0.000000 0.000000 0.000000 0.000000 0.080984 0.000000
# 6 0.000000 0.000000 0.000000 0.000000 0.000000 0.029872
#
#
# Mechanical properties :
#
#
# Convention : Reuss Voigt Hill
#
# Bulk Modulus (GPa) = 57.18131 66.95189 62.06660
# Shear Modulus (GPa) = 21.36321 24.79132 23.07727
#
# Velocity S-wave (km/s) = 3.32004 3.57652 3.45066
# Velocity P-wave (km/s) = 6.64835 7.18333 6.92101
#
# Compressibility (1/GPa) = 0.01748823
#
# Stress axis : x y z
#
# Youngs Moduli (GPa) = 46.75590 89.83732 70.15072
#
# Poissons Ratio (x) = 0.49557 0.31011
# Poissons Ratio (y) = 0.25792 0.33012
# Poissons Ratio (z) = 0.20669 0.42276
#
# Static dielectric constant tensor:
#      x y z
#    x 3.140670 0.000000 0.000000 
#    y 0.000000 3.652720 0.000000 
#    z 0.000000 0.000000 3.627840 
# 
# 
# High freq. dielectric constant tensor:
#      x y z
#    x 1.716060 0.000000 0.000000 
#    y 0.000000 1.766420 0.000000 
#    z 0.000000 0.000000 1.739900 
# 
# From -- ./inp_files/5039.got.cif
#   From: 2010.03.12/outbox.cif.g09.slc.cpg/sg28_3_cif.got.tgz:5039.got - 2010.04.14 03:39:34.
