data_PCOD8168426
_publ_section_title
;
Structure prediction by ZEFSAII (Michael W. Deem and Ramdas Pophale) SiO2 
 PCOD8168426
Probable space group: P M A 2
;
_chemical_formula_sum "Si O2"
_cell_formula_units_Z 24
_cell_length_a 8.725657
_cell_length_b 9.137166
_cell_length_c 15.632387
_cell_angle_alpha 90.000000
_cell_angle_beta 90.000000
_cell_angle_gamma 90.000000
_cell_volume 1246.335456
_symmetry_space_group_name_H-M "P M A 2"
_symmetry_group_IT_number 28
_symmetry_cell_setting 'orthorhombic'
loop_
_space_group_symop_operation_xyz
x,y,z
-x,-y,z
1/2-x,y,z
1/2+x,-y,z
loop_
_atom_site_type_symbol
_atom_site_label
_atom_site_fract_x
_atom_site_fract_y
_atom_site_fract_z
Si Si1 0.928817 0.158847 0.521730
Si Si2 0.568251 0.340990 0.362396
Si Si3 0.929549 0.158894 0.709102
Si Si4 0.931747 0.340460 0.034366
Si Si5 0.931599 0.837581 0.879411
Si Si6 0.930336 0.159221 0.200077
O O1 0.750000 0.135358 0.508211
O O2 0.993958 0.269068 0.450318
O O3 0.960992 0.231052 0.615803
O O4 0.000000 0.000000 0.509809
O O5 0.500000 0.500000 0.352012
O O6 0.750000 0.353668 0.361976
O O7 0.508307 0.242770 0.283846
O O8 0.750000 0.150791 0.730219
O O9 0.015899 0.236019 0.788704
O O10 0.000000 0.000000 0.701507
O O11 0.750000 0.348572 0.023580
O O12 0.982156 0.248063 0.116728
O O13 0.000000 0.500000 0.046175
O O14 0.005018 0.266368 0.952105
O O15 0.750000 0.846417 0.884716
O O16 0.000000 0.000000 0.889477
O O17 0.750000 0.142812 0.203916
O O18 0.000000 0.000000 0.195670
#
# Coordination Sequence:
#
# PCOD8168426 Si02
#       6
#     4   4   4   4   4   4
#     4   9  18  32  53  79 108 140 180 225 269 316
#     4  10  21  37  54  79 111 144 179 218 264 318
#     4   9  16  29  50  77 107 140 178 226 273 317
#     4  11  23  39  57  81 111 145 181 222 271 326
#     4  11  21  35  56  82 110 144 184 229 274 323
#     4  10  22  38  59  84 110 139 178 222 266 316
#
# _framework density 19.256453
#
# number of rings (size 3 to 8) (size 9 to 14) (size 15 to 20)
#    0.000    2.000    0.000    5.000    0.000    4.667 
#    0.000    0.833    0.000    2.000    0.000    0.000 
#    0.000    0.000    0.000    0.000    0.000    0.000 
#
# Total GULP energy -297530.194209 kJ/mol
# GULP energy per Si atom -12397.091425 kJ/mol
# Density = 1.921262 g / cm^3
# Si number density = 19.256453 Si / 1000 Ang^3
#
#
#
# Elastic Constant Matrix: (Units=GPa)
#
#
# Indices 1 2 3 4 5 6 
#
# 1 75.3668 45.7073 58.6542 0.0000 0.0000 0.0000
# 2 45.7073 136.4196 91.5788 0.0000 0.0000 0.0000
# 3 58.6542 91.5788 201.4741 0.0000 0.0000 0.0000
# 4 0.0000 0.0000 0.0000 11.0699 0.0000 0.0000
# 5 0.0000 0.0000 0.0000 0.0000 15.7989 0.0000
# 6 0.0000 0.0000 0.0000 0.0000 0.0000 31.9626
#
#
#
# Elastic Compliance Matrix: (Units=1/GPa)
#
#
# Indices 1 2 3 4 5 6 
#
# 1 0.018361 -0.003689 -0.003668 0.000000 0.000000 0.000000
# 2 -0.003689 0.011291 -0.004058 0.000000 0.000000 0.000000
# 3 -0.003668 -0.004058 0.007876 0.000000 0.000000 0.000000
# 4 0.000000 0.000000 0.000000 0.090335 0.000000 0.000000
# 5 0.000000 0.000000 0.000000 0.000000 0.063296 0.000000
# 6 0.000000 0.000000 0.000000 0.000000 0.000000 0.031287
#
#
# Mechanical properties :
#
#
# Convention : Reuss Voigt Hill
#
# Bulk Modulus (GPa) = 68.04557 89.46011 78.75284
# Shear Modulus (GPa) = 19.98608 26.25430 23.12019
#
# Velocity S-wave (km/s) = 3.22512 3.69643 3.46879
# Velocity P-wave (km/s) = 7.02010 8.04837 7.55176
#
# Compressibility (1/GPa) = 0.01469603
#
# Stress axis : x y z
#
# Youngs Moduli (GPa) = 54.46419 88.56972 126.96911
#
# Poissons Ratio (x) = 0.32675 0.46577
# Poissons Ratio (y) = 0.20093 0.51525
# Poissons Ratio (z) = 0.19980 0.35942
#
# Static dielectric constant tensor:
#      x y z
#    x 3.518810 0.000000 0.000000 
#    y 0.000000 3.286330 0.000000 
#    z 0.000000 0.000000 4.455580 
# 
# 
# High freq. dielectric constant tensor:
#      x y z
#    x 1.751330 0.000000 0.000000 
#    y 0.000000 1.725910 0.000000 
#    z 0.000000 0.000000 1.778950 
# 
# From -- ./inp_files/6022.got.cif
#   From: 2010.03.12/outbox.cif.g09.slc.cpg/sg28_4_cif.got.tgz:6022.got - 2010.04.14 03:39:34.
