data_PCOD8168123
_publ_section_title
;
Structure prediction by ZEFSAII (Michael W. Deem and Ramdas Pophale) SiO2 
 PCOD8168123
Probable space group: P M A 2
;
_chemical_formula_sum "Si O2"
_cell_formula_units_Z 24
_cell_length_a 8.956796
_cell_length_b 15.495970
_cell_length_c 9.701025
_cell_angle_alpha 90.000000
_cell_angle_beta 90.000000
_cell_angle_gamma 90.000000
_cell_volume 1346.446413
_symmetry_space_group_name_H-M "P M A 2"
_symmetry_group_IT_number 28
_symmetry_cell_setting 'orthorhombic'
loop_
_space_group_symop_operation_xyz
x,y,z
-x,-y,z
1/2-x,y,z
1/2+x,-y,z
loop_
_atom_site_type_symbol
_atom_site_label
_atom_site_fract_x
_atom_site_fract_y
_atom_site_fract_z
Si Si1 0.070760 0.269802 0.793560
Si Si2 0.072626 0.740006 0.085356
Si Si3 0.923195 0.413155 0.284921
Si Si4 0.913150 0.919226 0.778216
Si Si5 0.073593 0.588872 0.602508
Si Si6 0.582724 0.916326 0.104798
O O1 0.250000 0.275051 0.803086
O O2 0.017614 0.174458 0.742873
O O3 0.004777 0.335544 0.685250
O O4 0.002898 0.288926 0.943075
O O5 0.250000 0.747029 0.065892
O O6 0.024627 0.668457 0.196349
O O7 0.010649 0.830859 0.141581
O O8 0.750000 0.429652 0.267149
O O9 0.965255 0.394852 0.443166
O O10 0.000000 0.500000 0.229662
O O11 0.750000 0.925045 0.712740
O O12 0.906584 0.927810 0.941908
O O13 0.000000 0.000000 0.712225
O O14 0.250000 0.586991 0.631386
O O15 0.000000 0.500000 0.653472
O O16 0.750000 0.909178 0.166832
O O17 0.500000 0.000000 0.169107
#
# Coordination Sequence:
#
# PCOD8168123 Si02
#       6
#     4   4   4   4   4   4
#     4  10  20  33  49  75 105 132 165 206 247 293
#     4  10  19  32  50  75 104 133 165 207 251 292
#     4   9  20  36  54  74  97 127 166 205 247 299
#     4   8  15  26  42  65  95 126 158 194 235 281
#     4  10  20  36  55  74  96 128 166 205 249 300
#     4   9  16  27  44  69  99 132 166 203 245 293
#
# _framework density 17.824698000000001
#
# number of rings (size 3 to 8) (size 9 to 14) (size 15 to 20)
#    0.000    2.667    0.000    3.000    0.000    7.333 
#    0.000    1.667    0.000    1.000    0.000    2.333 
#    0.000    0.000    0.000    0.000    0.000    0.000 
#
# Total GULP energy -297521.414404 kJ/mol
# GULP energy per Si atom -12396.725600 kJ/mol
# Density = 1.778413 g / cm^3
# Si number density = 17.824698 Si / 1000 Ang^3
#
#
#
# Elastic Constant Matrix: (Units=GPa)
#
#
# Indices 1 2 3 4 5 6 
#
# 1 100.2816 74.2075 37.5367 0.0000 0.0000 0.0000
# 2 74.2075 181.6358 66.1244 0.0000 0.0000 0.0000
# 3 37.5367 66.1244 51.4610 0.0000 0.0000 0.0000
# 4 0.0000 0.0000 0.0000 -8.4602 0.0000 0.0000
# 5 0.0000 0.0000 0.0000 0.0000 11.8499 0.0000
# 6 0.0000 0.0000 0.0000 0.0000 0.0000 37.8852
#
#
#
# Elastic Compliance Matrix: (Units=1/GPa)
#
#
# Indices 1 2 3 4 5 6 
#
# 1 0.015169 -0.004076 -0.005827 0.000000 0.000000 0.000000
# 2 -0.004076 0.011440 -0.011726 0.000000 0.000000 0.000000
# 3 -0.005827 -0.011726 0.038750 0.000000 0.000000 0.000000
# 4 0.000000 0.000000 0.000000 -0.118201 0.000000 0.000000
# 5 0.000000 0.000000 0.000000 0.000000 0.084389 0.000000
# 6 0.000000 0.000000 0.000000 0.000000 0.000000 0.026396
#
#
# Mechanical properties :
#
#
# Convention : Reuss Voigt Hill
#
# Bulk Modulus (GPa) = 45.24862 76.56841 60.90851
# Shear Modulus (GPa) = 46.05365 18.62232 32.33798
#
# Velocity S-wave (km/s) = 5.08852 3.23576 4.26399
# Velocity P-wave (km/s) = 7.74368 7.55049 7.64769
#
# Compressibility (1/GPa) = 0.02210012
#
# Stress axis : x y z
#
# Youngs Moduli (GPa) = 65.92214 87.41485 25.80617
#
# Poissons Ratio (x) = 0.35630 0.15038
# Poissons Ratio (y) = 0.26870 0.30261
# Poissons Ratio (z) = 0.38416 1.02505
#
# Static dielectric constant tensor:
#      x y z
#    x 3.514670 0.000000 0.000000 
#    y 0.000000 3.634880 0.000000 
#    z 0.000000 0.000000 2.959260 
# 
# 
# High freq. dielectric constant tensor:
#      x y z
#    x 1.702090 0.000000 0.000000 
#    y 0.000000 1.707510 0.000000 
#    z 0.000000 0.000000 1.642380 
# 
# From -- ./inp_files/4686.got.cif
#   From: 2010.03.12/outbox.cif.g09.slc.cpg/sg28_3_cif.got.tgz:4686.got - 2010.04.14 03:39:34.
