data_PCOD8168973
_publ_section_title
;
Structure prediction by ZEFSAII (Michael W. Deem and Ramdas Pophale) SiO2 
 PCOD8168973
Probable space group: P C A 21
;
_chemical_formula_sum "Si O2"
_cell_formula_units_Z 28
_cell_length_a 19.880354
_cell_length_b 5.162868
_cell_length_c 11.651341
_cell_angle_alpha 90.000000
_cell_angle_beta 90.000000
_cell_angle_gamma 90.000000
_cell_volume 1195.889486
_symmetry_space_group_name_H-M "P C A 21"
_symmetry_group_IT_number 29
_symmetry_cell_setting 'orthorhombic'
loop_
_space_group_symop_operation_xyz
x,y,z
-x,-y,1/2+z
1/2-x,y,1/2+z
1/2+x,-y,z
loop_
_atom_site_type_symbol
_atom_site_label
_atom_site_fract_x
_atom_site_fract_y
_atom_site_fract_z
Si Si1 0.196058 0.009192 0.715320
Si Si2 0.408328 0.630288 0.293206
Si Si3 0.936287 0.174711 0.683201
Si Si4 0.554299 0.688424 0.328940
Si Si5 0.920897 0.725941 0.089135
Si Si6 0.692595 0.661814 0.913705
Si Si7 0.696613 0.173850 0.053444
O O1 0.152498 0.835410 0.804266
O O2 0.254303 0.831312 0.663073
O O3 0.144359 0.103109 0.617776
O O4 0.227767 0.242240 0.793692
O O5 0.475464 0.756478 0.343134
O O6 0.418348 0.541765 0.160821
O O7 0.385410 0.390480 0.374886
O O8 0.938343 0.408907 0.772498
O O9 0.879713 0.241401 0.589035
O O10 0.008710 0.131884 0.621864
O O11 0.913751 0.914947 0.750990
O O12 0.586647 0.672880 0.454416
O O13 0.723954 0.399101 0.968101
O O14 0.699136 0.883858 0.006840
#
# Coordination Sequence:
#
# PCOD8168973 Si02
#       7
#     4   4   4   4   4   4   4
#     4  11  25  48  70 106 142 181 245 283 347 436
#     4  10  22  47  70 103 138 185 237 284 344 444
#     4  11  25  45  66 106 139 177 237 292 339 426
#     4  11  24  43  71 103 140 178 231 295 356 401
#     4  10  24  41  74  99 138 183 231 287 354 410
#     4  11  25  46  73  99 136 194 229 282 356 423
#     4  12  27  46  72 102 143 188 234 293 354 418
#
# _framework density 23.413533999999999
#
# number of rings (size 3 to 8) (size 9 to 14) (size 15 to 20)
#    0.000    1.143    2.857    1.714    6.000    2.286 
#    2.571    0.000    0.000    0.000    0.000    0.000 
#    0.000    0.000    0.000    0.000    0.000    0.000 
#
# Total GULP energy -347111.860808 kJ/mol
# GULP energy per Si atom -12396.852172 kJ/mol
# Density = 2.336024 g / cm^3
# Si number density = 23.413534 Si / 1000 Ang^3
#
#
#
# Elastic Constant Matrix: (Units=GPa)
#
#
# Indices 1 2 3 4 5 6 
#
# 1 65.5904 18.3905 13.7564 0.0000 0.0000 0.0000
# 2 18.3905 112.8587 35.3267 0.0000 0.0000 0.0000
# 3 13.7564 35.3267 79.9277 0.0000 0.0000 0.0000
# 4 0.0000 0.0000 0.0000 47.9370 0.0000 0.0000
# 5 0.0000 0.0000 0.0000 0.0000 32.9180 0.0000
# 6 0.0000 0.0000 0.0000 0.0000 0.0000 21.8461
#
#
#
# Elastic Compliance Matrix: (Units=1/GPa)
#
#
# Indices 1 2 3 4 5 6 
#
# 1 0.016217 -0.002053 -0.001884 0.000000 0.000000 0.000000
# 2 -0.002053 0.010543 -0.004307 0.000000 0.000000 0.000000
# 3 -0.001884 -0.004307 0.014739 0.000000 0.000000 0.000000
# 4 0.000000 0.000000 0.000000 0.020861 0.000000 0.000000
# 5 0.000000 0.000000 0.000000 0.000000 0.030379 0.000000
# 6 0.000000 0.000000 0.000000 0.000000 0.000000 0.045775
#
#
# Mechanical properties :
#
#
# Convention : Reuss Voigt Hill
#
# Bulk Modulus (GPa) = 39.97999 43.70266 41.84133
# Shear Modulus (GPa) = 30.61157 33.26710 31.93934
#
# Velocity S-wave (km/s) = 3.61976 3.77350 3.69743
# Velocity P-wave (km/s) = 5.88072 6.13937 6.01144
#
# Compressibility (1/GPa) = 0.02501251
#
# Stress axis : x y z
#
# Youngs Moduli (GPa) = 61.66437 94.84793 67.84747
#
# Poissons Ratio (x) = 0.19472 0.12781
# Poissons Ratio (y) = 0.12659 0.29219
# Poissons Ratio (z) = 0.11616 0.40847
#
# Static dielectric constant tensor:
#      x y z
#    x 4.113080 0.000000 0.000000 
#    y 0.000000 4.253770 0.000000 
#    z 0.000000 0.000000 4.165080 
# 
# 
# High freq. dielectric constant tensor:
#      x y z
#    x 1.904470 0.000000 0.000000 
#    y 0.000000 1.932540 0.000000 
#    z 0.000000 0.000000 1.932970 
# 
# From -- ./inp_files/3741.got.cif
#   From: 2010.03.12/outbox.cif.g09.slc.cpg/sg29_2_cif.got.tgz:3741.got - 2010.04.14 03:43:10.
