data_PCOD8168115
_publ_section_title
;
Structure prediction by ZEFSAII (Michael W. Deem and Ramdas Pophale) SiO2 
 PCOD8168115
Probable space group: P M A 2
;
_chemical_formula_sum "Si O2"
_cell_formula_units_Z 32
_cell_length_a 8.698347
_cell_length_b 14.364062
_cell_length_c 15.688657
_cell_angle_alpha 90.000000
_cell_angle_beta 90.000000
_cell_angle_gamma 90.000000
_cell_volume 1960.197216
_symmetry_space_group_name_H-M "P M A 2"
_symmetry_group_IT_number 28
_symmetry_cell_setting 'orthorhombic'
loop_
_space_group_symop_operation_xyz
x,y,z
-x,-y,z
1/2-x,y,z
1/2+x,-y,z
loop_
_atom_site_type_symbol
_atom_site_label
_atom_site_fract_x
_atom_site_fract_y
_atom_site_fract_z
Si Si1 0.430379 0.595548 0.455120
Si Si2 0.933012 0.211503 0.523139
Si Si3 0.931945 0.101189 0.359172
Si Si4 0.432121 0.897577 0.684878
Si Si5 0.431828 0.597057 0.258173
Si Si6 0.431974 0.896543 0.053792
Si Si7 0.927986 0.099269 0.868562
Si Si8 0.431474 0.216579 0.205784
O O1 0.500000 0.500000 0.491894
O O2 0.250000 0.587509 0.464623
O O3 0.495433 0.683461 0.508676
O O4 0.477117 0.610880 0.356979
O O5 0.750000 0.214082 0.521198
O O6 0.992619 0.144501 0.447698
O O7 0.997388 0.172025 0.612640
O O8 0.750000 0.094760 0.357560
O O9 0.984339 0.166002 0.282767
O O10 0.000000 0.000000 0.346017
O O11 0.250000 0.905651 0.674774
O O12 0.480846 0.854336 0.778245
O O13 0.500000 0.000000 0.671331
O O14 0.500000 0.500000 0.224418
O O15 0.250000 0.600465 0.243893
O O16 0.513725 0.676866 0.203386
O O17 0.250000 0.900110 0.073314
O O18 0.519343 0.829291 0.117431
O O19 0.500000 0.000000 0.062538
O O20 0.465089 0.851271 0.959051
O O21 0.750000 0.081598 0.860859
O O22 0.000000 0.000000 0.874755
O O23 0.250000 0.209471 0.217686
#
# Coordination Sequence:
#
# PCOD8168115 Si02
#       8
#     4   4   4   4   4   4   4   4
#     4   9  17  31  48  67  89 119 153 191 233 272
#     4   9  17  30  47  66  93 125 155 188 231 277
#     4  11  21  34  46  63  93 130 163 194 230 275
#     4   9  16  28  46  68  94 123 155 190 228 276
#     4  10  19  34  53  72  95 122 156 197 240 282
#     4  10  19  32  48  68  95 125 158 198 240 286
#     4   8  15  27  45  67  90 118 153 192 235 278
#     4  12  23  34  48  69  93 125 163 197 237 281
#
# _framework density 16.324888000000001
#
# number of rings (size 3 to 8) (size 9 to 14) (size 15 to 20)
#    0.000    2.250    1.250    3.000    0.000    1.000 
#    0.000    1.250    0.000    0.000    0.000    0.875 
#    0.000    2.000    0.000    0.000    0.000    0.000 
#
# Total GULP energy -396556.564061 kJ/mol
# GULP energy per Si atom -12392.392627 kJ/mol
# Density = 1.628773 g / cm^3
# Si number density = 16.324888 Si / 1000 Ang^3
#
#
#
# Elastic Constant Matrix: (Units=GPa)
#
#
# Indices 1 2 3 4 5 6 
#
# 1 39.5860 22.2699 22.0762 0.0000 0.0000 0.0000
# 2 22.2699 107.2944 48.8059 0.0000 0.0000 0.0000
# 3 22.0762 48.8059 109.8104 0.0000 0.0000 0.0000
# 4 0.0000 0.0000 0.0000 8.8783 0.0000 0.0000
# 5 0.0000 0.0000 0.0000 0.0000 12.9899 0.0000
# 6 0.0000 0.0000 0.0000 0.0000 0.0000 25.7289
#
#
#
# Elastic Compliance Matrix: (Units=1/GPa)
#
#
# Indices 1 2 3 4 5 6 
#
# 1 0.029999 -0.004366 -0.004091 0.000000 0.000000 0.000000
# 2 -0.004366 0.012317 -0.004597 0.000000 0.000000 0.000000
# 3 -0.004091 -0.004597 0.011972 0.000000 0.000000 0.000000
# 4 0.000000 0.000000 0.000000 0.112634 0.000000 0.000000
# 5 0.000000 0.000000 0.000000 0.000000 0.076983 0.000000
# 6 0.000000 0.000000 0.000000 0.000000 0.000000 0.038867
#
#
# Mechanical properties :
#
#
# Convention : Reuss Voigt Hill
#
# Bulk Modulus (GPa) = 35.48385 49.22162 42.35274
# Shear Modulus (GPa) = 15.70984 20.42202 18.06593
#
# Velocity S-wave (km/s) = 3.10550 3.54075 3.33024
# Velocity P-wave (km/s) = 5.88575 6.85074 6.38650
#
# Compressibility (1/GPa) = 0.02818183
#
# Stress axis : x y z
#
# Youngs Moduli (GPa) = 33.33472 81.18663 83.52798
#
# Poissons Ratio (x) = 0.35445 0.34167
# Poissons Ratio (y) = 0.14553 0.38396
# Poissons Ratio (z) = 0.13636 0.37320
#
# Static dielectric constant tensor:
#      x y z
#    x 3.030890 0.000000 0.000000 
#    y 0.000000 3.119720 0.000000 
#    z 0.000000 0.000000 3.547740 
# 
# 
# High freq. dielectric constant tensor:
#      x y z
#    x 1.627350 0.000000 0.000000 
#    y 0.000000 1.608730 0.000000 
#    z 0.000000 0.000000 1.624530 
# 
# From -- ./inp_files/6385.got.cif
#   From: 2010.03.12/outbox.cif.g09.slc.cpg/sg28_4_cif.got.tgz:6385.got - 2010.04.14 03:39:34.
