data_PCOD8168356
_publ_section_title
;
Structure prediction by ZEFSAII (Michael W. Deem and Ramdas Pophale) SiO2 
 PCOD8168356
Probable space group: P M A 2
;
_chemical_formula_sum "Si O2"
_cell_formula_units_Z 24
_cell_length_a 8.469397
_cell_length_b 9.437064
_cell_length_c 15.237014
_cell_angle_alpha 90.000000
_cell_angle_beta 90.000000
_cell_angle_gamma 90.000000
_cell_volume 1217.837261
_symmetry_space_group_name_H-M "P M A 2"
_symmetry_group_IT_number 28
_symmetry_cell_setting 'orthorhombic'
loop_
_space_group_symop_operation_xyz
x,y,z
-x,-y,z
1/2-x,y,z
1/2+x,-y,z
loop_
_atom_site_type_symbol
_atom_site_label
_atom_site_fract_x
_atom_site_fract_y
_atom_site_fract_z
Si Si1 0.064323 0.843893 0.273830
Si Si2 0.563018 0.845274 0.458745
Si Si3 0.435982 0.350373 0.612577
Si Si4 0.063559 0.841380 0.961027
Si Si5 0.935953 0.657733 0.118568
Si Si6 0.437780 0.345694 0.811065
O O1 0.250000 0.856898 0.277570
O O2 0.001740 0.785226 0.366812
O O3 0.014720 0.730614 0.201980
O O4 0.000000 0.000000 0.250841
O O5 0.750000 0.843191 0.454670
O O6 0.495863 0.758779 0.541535
O O7 0.500000 0.000000 0.474312
O O8 0.500000 0.500000 0.582031
O O9 0.250000 0.353537 0.609613
O O10 0.491351 0.313352 0.711181
O O11 0.250000 0.840348 0.977524
O O12 0.022038 0.776274 0.866649
O O13 0.000000 0.000000 0.966794
O O14 0.976925 0.746540 0.032713
O O15 0.750000 0.653389 0.132082
O O16 0.000000 0.500000 0.107108
O O17 0.500000 0.500000 0.840574
O O18 0.250000 0.339898 0.823988
#
# Coordination Sequence:
#
# PCOD8168356 Si02
#       6
#     4   4   4   4   4   4
#     4  11  22  39  61  87 117 154 194 239 289 343
#     4  10  20  36  56  83 115 152 194 240 288 342
#     4   9  20  36  57  83 115 151 193 238 286 340
#     4  12  25  42  62  88 118 153 192 237 287 342
#     4  12  25  43  64  89 118 152 191 236 285 342
#     4  10  20  38  60  86 117 154 195 240 289 343
#
# _framework density 19.707066999999999
#
# number of rings (size 3 to 8) (size 9 to 14) (size 15 to 20)
#    0.000    1.333    0.000    7.500    0.000    3.333 
#    0.000    3.333    0.000    0.000    0.000    0.000 
#    0.000    0.000    0.000    0.000    0.000    0.000 
#
# Total GULP energy -297668.576665 kJ/mol
# GULP energy per Si atom -12402.857361 kJ/mol
# Density = 1.966221 g / cm^3
# Si number density = 19.707067 Si / 1000 Ang^3
#
#
#
# Elastic Constant Matrix: (Units=GPa)
#
#
# Indices 1 2 3 4 5 6 
#
# 1 56.7468 -3.3231 4.8511 0.0000 0.0000 0.0000
# 2 -3.3231 101.1448 64.2638 0.0000 0.0000 0.0000
# 3 4.8511 64.2638 123.0083 0.0000 0.0000 0.0000
# 4 0.0000 0.0000 0.0000 55.6143 0.0000 0.0000
# 5 0.0000 0.0000 0.0000 0.0000 14.7431 0.0000
# 6 0.0000 0.0000 0.0000 0.0000 0.0000 34.2612
#
#
#
# Elastic Compliance Matrix: (Units=1/GPa)
#
#
# Indices 1 2 3 4 5 6 
#
# 1 0.017842 0.001547 -0.001512 0.000000 0.000000 0.000000
# 2 0.001547 0.014933 -0.007863 0.000000 0.000000 0.000000
# 3 -0.001512 -0.007863 0.012297 0.000000 0.000000 0.000000
# 4 0.000000 0.000000 0.000000 0.017981 0.000000 0.000000
# 5 0.000000 0.000000 0.000000 0.000000 0.067828 0.000000
# 6 0.000000 0.000000 0.000000 0.000000 0.000000 0.029188
#
#
# Mechanical properties :
#
#
# Convention : Reuss Voigt Hill
#
# Bulk Modulus (GPa) = 33.99421 45.83149 39.91285
# Shear Modulus (GPa) = 26.94981 35.26424 31.10702
#
# Velocity S-wave (km/s) = 3.70201 4.23474 3.97731
# Velocity P-wave (km/s) = 5.96325 6.87151 6.43343
#
# Compressibility (1/GPa) = 0.02941677
#
# Stress axis : x y z
#
# Youngs Moduli (GPa) = 56.04768 66.96445 81.32145
#
# Poissons Ratio (x) = -0.10357 0.12293
# Poissons Ratio (y) = -0.08669 0.63940
# Poissons Ratio (z) = 0.08472 0.52652
#
# Static dielectric constant tensor:
#      x y z
#    x 3.731390 0.000000 0.000000 
#    y 0.000000 3.677410 0.000000 
#    z 0.000000 0.000000 4.024870 
# 
# 
# High freq. dielectric constant tensor:
#      x y z
#    x 1.783620 0.000000 0.000000 
#    y 0.000000 1.769010 0.000000 
#    z 0.000000 0.000000 1.785250 
# 
# From -- ./inp_files/6080.got.cif
#   From: 2010.03.12/outbox.cif.g09.slc.cpg/sg28_4_cif.got.tgz:6080.got - 2010.04.14 03:39:34.
