data_PCOD8168572
_publ_section_title
;
Structure prediction by ZEFSAII (Michael W. Deem and Ramdas Pophale) SiO2 
 PCOD8168572
Probable space group: P C A 21
;
_chemical_formula_sum "Si O2"
_cell_formula_units_Z 32
_cell_length_a 17.288369
_cell_length_b 8.322073
_cell_length_c 9.818948
_cell_angle_alpha 90.000000
_cell_angle_beta 90.000000
_cell_angle_gamma 90.000000
_cell_volume 1412.701820
_symmetry_space_group_name_H-M "P C A 21"
_symmetry_group_IT_number 29
_symmetry_cell_setting 'orthorhombic'
loop_
_space_group_symop_operation_xyz
x,y,z
-x,-y,1/2+z
1/2-x,y,1/2+z
1/2+x,-y,z
loop_
_atom_site_type_symbol
_atom_site_label
_atom_site_fract_x
_atom_site_fract_y
_atom_site_fract_z
Si Si1 0.569895 0.526890 0.808500
Si Si2 0.352659 0.912237 0.636324
Si Si3 0.801053 0.354347 0.454105
Si Si4 0.722925 0.666901 0.508236
Si Si5 0.069241 0.489582 0.490136
Si Si6 0.634192 0.845082 0.913868
Si Si7 0.358241 0.815697 0.923429
Si Si8 0.185012 0.036304 0.655793
O O1 0.648829 0.423203 0.826804
O O2 0.500676 0.439738 0.890651
O O3 0.550957 0.547583 0.649034
O O4 0.576461 0.700215 0.882964
O O5 0.388981 0.064283 0.554510
O O6 0.263419 0.939869 0.671858
O O7 0.358209 0.750208 0.547537
O O8 0.394015 0.882068 0.781019
O O9 0.770822 0.505482 0.545496
O O10 0.729212 0.249852 0.399143
O O11 0.643038 0.612639 0.435757
O O12 0.776005 0.784746 0.417781
O O13 0.698968 0.770485 0.640649
O O14 0.086065 0.678469 0.479240
O O15 0.634312 0.978836 0.793522
O O16 0.361975 0.963491 0.028834
#
# Coordination Sequence:
#
# PCOD8168572 Si02
#       8
#     4   4   4   4   4   4   4   4
#     4  11  25  46  62  92 127 175 221 270 320 384
#     4  10  20  35  63 101 129 154 207 264 323 395
#     4   9  21  36  67  96 126 165 210 270 325 372
#     4   9  19  37  64  97 124 163 207 267 320 379
#     4  11  25  45  64  88 132 173 221 271 321 383
#     4  10  21  40  67  95 129 164 212 262 329 386
#     4  10  23  38  65 100 128 163 212 264 331 386
#     4  10  18  37  62  97 129 165 202 268 323 381
#
# _framework density 22.651630000000001
#
# number of rings (size 3 to 8) (size 9 to 14) (size 15 to 20)
#    0.000    2.000    1.250    2.250    8.750    1.000 
#    6.750    2.500    0.000    0.000    0.000    0.000 
#    0.000    0.000    0.000    0.000    0.000    0.000 
#
# Total GULP energy -396621.910776 kJ/mol
# GULP energy per Si atom -12394.434712 kJ/mol
# Density = 2.260007 g / cm^3
# Si number density = 22.651630 Si / 1000 Ang^3
#
#
#
# Elastic Constant Matrix: (Units=GPa)
#
#
# Indices 1 2 3 4 5 6 
#
# 1 62.7496 11.0839 17.5106 0.0000 0.0000 0.0000
# 2 11.0839 99.2797 41.8009 0.0000 0.0000 0.0000
# 3 17.5106 41.8009 126.4452 0.0000 0.0000 0.0000
# 4 0.0000 0.0000 0.0000 35.8762 0.0000 0.0000
# 5 0.0000 0.0000 0.0000 0.0000 21.8678 0.0000
# 6 0.0000 0.0000 0.0000 0.0000 0.0000 12.2389
#
#
#
# Elastic Compliance Matrix: (Units=1/GPa)
#
#
# Indices 1 2 3 4 5 6 
#
# 1 0.016668 -0.001033 -0.001967 0.000000 0.000000 0.000000
# 2 -0.001033 0.011765 -0.003746 0.000000 0.000000 0.000000
# 3 -0.001967 -0.003746 0.009419 0.000000 0.000000 0.000000
# 4 0.000000 0.000000 0.000000 0.027874 0.000000 0.000000
# 5 0.000000 0.000000 0.000000 0.000000 0.045729 0.000000
# 6 0.000000 0.000000 0.000000 0.000000 0.000000 0.081707
#
#
# Mechanical properties :
#
#
# Convention : Reuss Voigt Hill
#
# Bulk Modulus (GPa) = 41.05014 47.69618 44.37316
# Shear Modulus (GPa) = 23.28026 28.53517 25.90771
#
# Velocity S-wave (km/s) = 3.20934 3.55313 3.38560
# Velocity P-wave (km/s) = 5.64755 6.15915 5.90889
#
# Compressibility (1/GPa) = 0.02436045
#
# Stress axis : x y z
#
# Youngs Moduli (GPa) = 59.99659 84.99615 106.16348
#
# Poissons Ratio (x) = 0.08778 0.20880
# Poissons Ratio (y) = 0.06196 0.39773
# Poissons Ratio (z) = 0.11800 0.31843
#
# Static dielectric constant tensor:
#      x y z
#    x 3.703150 0.000000 0.000000 
#    y 0.000000 4.200790 0.000000 
#    z 0.000000 0.000000 3.943100 
# 
# 
# High freq. dielectric constant tensor:
#      x y z
#    x 1.852600 0.000000 0.000000 
#    y 0.000000 1.902150 0.000000 
#    z 0.000000 0.000000 1.885580 
# 
# From -- ./inp_files/2274.got.cif
#   From: 2010.03.12/outbox.cif.g09.slc.cpg/sg29_2_cif.got.tgz:2274.got - 2010.04.14 03:43:10.
