data_PCOD8168511
_publ_section_title
;
Structure prediction by ZEFSAII (Michael W. Deem and Ramdas Pophale) SiO2 
 PCOD8168511
Probable space group: P M A 2
;
_chemical_formula_sum "Si O2"
_cell_formula_units_Z 32
_cell_length_a 8.884708
_cell_length_b 14.089147
_cell_length_c 14.219088
_cell_angle_alpha 90.000000
_cell_angle_beta 90.000000
_cell_angle_gamma 90.000000
_cell_volume 1779.916387
_symmetry_space_group_name_H-M "P M A 2"
_symmetry_group_IT_number 28
_symmetry_cell_setting 'orthorhombic'
loop_
_space_group_symop_operation_xyz
x,y,z
-x,-y,z
1/2-x,y,z
1/2+x,-y,z
loop_
_atom_site_type_symbol
_atom_site_label
_atom_site_fract_x
_atom_site_fract_y
_atom_site_fract_z
Si Si1 0.928282 0.399280 0.809000
Si Si2 0.928458 0.259009 0.433650
Si Si3 0.924046 0.399812 0.274284
Si Si4 0.071352 0.776021 0.150480
Si Si5 0.571665 0.268452 0.645015
Si Si6 0.928297 0.231442 0.939126
Si Si7 0.070632 0.102287 0.307607
Si Si8 0.427835 0.899530 0.774480
O O1 0.750000 0.409088 0.810374
O O2 0.983638 0.357205 0.708360
O O3 0.984812 0.329228 0.891821
O O4 0.000000 0.500000 0.827842
O O5 0.750000 0.238101 0.429005
O O6 0.968943 0.353139 0.374237
O O7 0.989284 0.277024 0.539000
O O8 0.015390 0.168988 0.392297
O O9 0.750000 0.421189 0.270515
O O10 0.970919 0.327111 0.191851
O O11 0.000000 0.500000 0.258233
O O12 0.250000 0.794085 0.157986
O O13 0.987102 0.857956 0.207845
O O14 0.008175 0.779964 0.044250
O O15 0.750000 0.268376 0.644548
O O16 0.515518 0.170457 0.691879
O O17 0.750000 0.234791 0.943037
O O18 0.980803 0.142584 0.875265
O O19 0.250000 0.096062 0.307191
O O20 0.000000 0.000000 0.325338
O O21 0.250000 0.910118 0.772289
O O22 0.500000 0.000000 0.755785
#
# Coordination Sequence:
#
# PCOD8168511 Si02
#       8
#     4   4   4   4   4   4   4   4
#     4   9  17  31  50  74 102 135 169 203 244 292
#     4   9  18  35  54  72  96 131 170 207 245 290
#     4   9  18  30  47  69  95 125 159 199 244 288
#     4   9  18  35  54  72  96 131 170 207 245 290
#     4   8  16  32  52  70  96 132 166 197 240 292
#     4   8  16  32  52  70  96 132 166 197 240 292
#     4  11  22  36  53  75 101 129 161 203 250 300
#     4   9  17  31  50  72  96 125 157 195 238 284
#
# _framework density 17.978372
#
# number of rings (size 3 to 8) (size 9 to 14) (size 15 to 20)
#    0.000    3.000    0.000    3.375    0.000    4.000 
#    0.000    7.500    0.000    0.000    0.000    0.000 
#    0.000    0.000    0.000    0.000    0.000    0.000 
#
# Total GULP energy -396672.163775 kJ/mol
# GULP energy per Si atom -12396.005118 kJ/mol
# Density = 1.793745 g / cm^3
# Si number density = 17.978372 Si / 1000 Ang^3
#
#
#
# Elastic Constant Matrix: (Units=GPa)
#
#
# Indices 1 2 3 4 5 6 
#
# 1 39.5031 12.5251 4.7243 0.0000 0.0000 0.0000
# 2 12.5251 54.1106 -23.5161 0.0000 0.0000 0.0000
# 3 4.7243 -23.5161 80.2869 0.0000 0.0000 0.0000
# 4 0.0000 0.0000 0.0000 12.8616 0.0000 0.0000
# 5 0.0000 0.0000 0.0000 0.0000 18.1370 0.0000
# 6 0.0000 0.0000 0.0000 0.0000 0.0000 34.5910
#
#
#
# Elastic Compliance Matrix: (Units=1/GPa)
#
#
# Indices 1 2 3 4 5 6 
#
# 1 0.028467 -0.008385 -0.004131 0.000000 0.000000 0.000000
# 2 -0.008385 0.023646 0.007419 0.000000 0.000000 0.000000
# 3 -0.004131 0.007419 0.014872 0.000000 0.000000 0.000000
# 4 0.000000 0.000000 0.000000 0.077751 0.000000 0.000000
# 5 0.000000 0.000000 0.000000 0.000000 0.055136 0.000000
# 6 0.000000 0.000000 0.000000 0.000000 0.000000 0.028909
#
#
# Mechanical properties :
#
#
# Convention : Reuss Voigt Hill
#
# Bulk Modulus (GPa) = 17.60817 17.92968 17.76893
# Shear Modulus (GPa) = 19.38711 25.12908 22.25810
#
# Velocity S-wave (km/s) = 3.28740 3.74269 3.52241
# Velocity P-wave (km/s) = 4.92186 5.35458 5.14277
#
# Compressibility (1/GPa) = 0.05679181
#
# Stress axis : x y z
#
# Youngs Moduli (GPa) = 35.12839 42.29076 67.24265
#
# Poissons Ratio (x) = 0.35459 0.27777
# Poissons Ratio (y) = 0.29454 -0.49889
# Poissons Ratio (z) = 0.14511 -0.31377
#
# Static dielectric constant tensor:
#      x y z
#    x 2.980280 0.000000 0.000000 
#    y 0.000000 3.446650 0.000000 
#    z 0.000000 0.000000 3.781870 
# 
# 
# High freq. dielectric constant tensor:
#      x y z
#    x 1.664870 0.000000 0.000000 
#    y 0.000000 1.698370 0.000000 
#    z 0.000000 0.000000 1.703690 
# 
# From -- ./inp_files/6345.got.cif
#   From: 2010.03.12/outbox.cif.g09.slc.cpg/sg28_4_cif.got.tgz:6345.got - 2010.04.14 03:39:34.
