data_PCOD8168069
_publ_section_title
;
Structure prediction by ZEFSAII (Michael W. Deem and Ramdas Pophale) SiO2 
 PCOD8168069
Probable space group: P M A 2
;
_chemical_formula_sum "Si O2"
_cell_formula_units_Z 24
_cell_length_a 16.627275
_cell_length_b 9.639293
_cell_length_c 7.584073
_cell_angle_alpha 90.000000
_cell_angle_beta 90.000000
_cell_angle_gamma 90.000000
_cell_volume 1215.538631
_symmetry_space_group_name_H-M "P M A 2"
_symmetry_group_IT_number 28
_symmetry_cell_setting 'orthorhombic'
loop_
_space_group_symop_operation_xyz
x,y,z
-x,-y,z
1/2-x,y,z
1/2+x,-y,z
loop_
_atom_site_type_symbol
_atom_site_label
_atom_site_fract_x
_atom_site_fract_y
_atom_site_fract_z
Si Si1 0.842475 0.833333 0.018250
Si Si2 0.607964 0.794639 0.393073
Si Si3 0.559676 0.610991 0.834574
Si Si4 0.158754 0.998228 0.683906
Si Si5 0.156545 0.494218 0.523764
Si Si6 0.051074 0.750683 0.545212
O O1 0.750000 0.789811 0.990404
O O2 0.859193 0.875189 0.220626
O O3 0.900390 0.702782 0.984993
O O4 0.863159 0.959567 0.885466
O O5 0.647225 0.866056 0.564147
O O6 0.636557 0.634025 0.394206
O O7 0.510464 0.804795 0.394588
O O8 0.500000 0.500000 0.926806
O O9 0.631082 0.537789 0.724718
O O10 0.506287 0.699272 0.700521
O O11 0.250000 0.945485 0.672867
O O12 0.102668 0.876032 0.619360
O O13 0.250000 0.530887 0.515879
O O14 0.106667 0.630177 0.462857
#
# Coordination Sequence:
#
# PCOD8168069 Si02
#       6
#     4   4   4   4   4   4
#     4  11  22  37  62  88 115 157 204 247 297 357
#     4  11  22  38  61  88 117 152 203 245 292 358
#     4   9  19  34  57  85 117 148 193 242 291 350
#     4  11  22  40  61  84 119 156 199 247 294 353
#     4  10  18  35  62  88 117 155 198 243 296 358
#     4  10  21  38  57  89 120 155 194 241 306 352
#
# _framework density 19.744333999999998
#
# number of rings (size 3 to 8) (size 9 to 14) (size 15 to 20)
#    0.000    1.667    3.333    4.500    0.000    1.333 
#    6.000    0.000    0.000    0.000    0.000    0.000 
#    0.000    0.000    0.000    0.000    0.000    0.000 
#
# Total GULP energy -297573.679071 kJ/mol
# GULP energy per Si atom -12398.903295 kJ/mol
# Density = 1.969939 g / cm^3
# Si number density = 19.744334 Si / 1000 Ang^3
#
#
#
# Elastic Constant Matrix: (Units=GPa)
#
#
# Indices 1 2 3 4 5 6 
#
# 1 133.6659 43.2069 30.0540 0.0000 0.0000 0.0000
# 2 43.2069 86.3143 24.4670 0.0000 0.0000 0.0000
# 3 30.0540 24.4670 78.6314 0.0000 0.0000 0.0000
# 4 0.0000 0.0000 0.0000 16.5432 0.0000 0.0000
# 5 0.0000 0.0000 0.0000 0.0000 25.7913 0.0000
# 6 0.0000 0.0000 0.0000 0.0000 0.0000 37.7248
#
#
#
# Elastic Compliance Matrix: (Units=1/GPa)
#
#
# Indices 1 2 3 4 5 6 
#
# 1 0.009292 -0.003997 -0.002308 0.000000 0.000000 0.000000
# 2 -0.003997 0.014426 -0.002961 0.000000 0.000000 0.000000
# 3 -0.002308 -0.002961 0.014521 0.000000 0.000000 0.000000
# 4 0.000000 0.000000 0.000000 0.060448 0.000000 0.000000
# 5 0.000000 0.000000 0.000000 0.000000 0.038773 0.000000
# 6 0.000000 0.000000 0.000000 0.000000 0.000000 0.026508
#
#
# Mechanical properties :
#
#
# Convention : Reuss Voigt Hill
#
# Bulk Modulus (GPa) = 50.74348 54.89638 52.81993
# Shear Modulus (GPa) = 26.44539 29.40409 27.92474
#
# Velocity S-wave (km/s) = 3.66374 3.86326 3.76482
# Velocity P-wave (km/s) = 6.60707 6.91112 6.76081
#
# Compressibility (1/GPa) = 0.01970697
#
# Stress axis : x y z
#
# Youngs Moduli (GPa) = 107.61510 69.31994 68.86585
#
# Poissons Ratio (x) = 0.27710 0.15893
# Poissons Ratio (y) = 0.43018 0.20391
# Poissons Ratio (z) = 0.24836 0.20525
#
# Static dielectric constant tensor:
#      x y z
#    x 3.901650 0.000000 0.000000 
#    y 0.000000 3.519680 0.000000 
#    z 0.000000 0.000000 3.347570 
# 
# 
# High freq. dielectric constant tensor:
#      x y z
#    x 1.790120 0.000000 0.000000 
#    y 0.000000 1.759960 0.000000 
#    z 0.000000 0.000000 1.740090 
# 
# From -- ./inp_files/3793.got.cif
#   From: 2010.03.12/outbox.cif.g09.slc.cpg/sg28_2_cif.got.tgz:3793.got - 2010.04.14 03:39:34.
