data_PCOD8168677
_publ_section_title
;
Structure prediction by ZEFSAII (Michael W. Deem and Ramdas Pophale) SiO2 
 PCOD8168677
Probable space group: P C A 21
;
_chemical_formula_sum "Si O2"
_cell_formula_units_Z 32
_cell_length_a 8.979839
_cell_length_b 20.445572
_cell_length_c 8.355360
_cell_angle_alpha 90.000000
_cell_angle_beta 90.000000
_cell_angle_gamma 90.000000
_cell_volume 1534.026924
_symmetry_space_group_name_H-M "P C A 21"
_symmetry_group_IT_number 29
_symmetry_cell_setting 'orthorhombic'
loop_
_space_group_symop_operation_xyz
x,y,z
-x,-y,1/2+z
1/2-x,y,1/2+z
1/2+x,-y,z
loop_
_atom_site_type_symbol
_atom_site_label
_atom_site_fract_x
_atom_site_fract_y
_atom_site_fract_z
Si Si1 0.450322 0.816125 0.006190
Si Si2 0.874247 0.935700 0.629883
Si Si3 0.947931 0.702007 0.079997
Si Si4 0.949695 0.943122 0.001259
Si Si5 0.135446 0.303033 0.941993
Si Si6 0.846594 0.551085 0.421097
Si Si7 0.869693 0.176489 0.636402
Si Si8 0.458178 0.443775 0.064374
O O1 0.577120 0.866495 0.058091
O O2 0.307838 0.825828 0.118782
O O3 0.519906 0.743967 0.034516
O O4 0.406540 0.827867 0.822775
O O5 0.697479 0.942526 0.609596
O O6 0.907630 0.940521 0.816432
O O7 0.960496 0.990892 0.532033
O O8 0.883032 0.706806 0.255729
O O9 0.019786 0.630424 0.049820
O O10 0.073940 0.756445 0.053673
O O11 0.807417 0.716103 0.967171
O O12 0.055867 0.883096 0.043893
O O13 0.102892 0.378266 0.992294
O O14 0.668681 0.545372 0.431143
O O15 0.891477 0.542356 0.238428
O O16 0.910713 0.494065 0.531814
#
# Coordination Sequence:
#
# PCOD8168677 Si02
#       8
#     4   4   4   4   4   4   4   4
#     4  11  23  40  60  87 119 154 193 238 287 341
#     4  12  25  43  65  91 121 156 194 237 285 339
#     4   9  20  37  58  82 112 148 191 236 287 344
#     4  12  25  43  65  91 121 156 194 237 285 339
#     4   9  20  37  58  82 112 148 191 236 287 344
#     4  10  20  36  56  82 113 150 191 237 288 344
#     4  11  23  40  60  87 119 154 193 238 287 341
#     4  10  20  36  56  82 113 150 191 237 288 344
#
# _framework density 20.860130000000002
#
# number of rings (size 3 to 8) (size 9 to 14) (size 15 to 20)
#    0.000    1.500    0.000    5.250    0.000    6.000 
#    0.000    2.500    0.000    0.000    0.000    0.000 
#    0.000    0.000    0.000    0.000    0.000    0.000 
#
# Total GULP energy -396912.014732 kJ/mol
# GULP energy per Si atom -12403.500460 kJ/mol
# Density = 2.081265 g / cm^3
# Si number density = 20.860130 Si / 1000 Ang^3
#
#
#
# Elastic Constant Matrix: (Units=GPa)
#
#
# Indices 1 2 3 4 5 6 
#
# 1 70.0366 35.5967 -9.2993 0.0000 0.0000 0.0000
# 2 35.5967 114.7843 14.2260 0.0000 0.0000 0.0000
# 3 -9.2993 14.2260 46.5439 0.0000 0.0000 0.0000
# 4 0.0000 0.0000 0.0000 26.8541 0.0000 0.0000
# 5 0.0000 0.0000 0.0000 0.0000 31.9450 0.0000
# 6 0.0000 0.0000 0.0000 0.0000 0.0000 37.7926
#
#
#
# Elastic Compliance Matrix: (Units=1/GPa)
#
#
# Indices 1 2 3 4 5 6 
#
# 1 0.018248 -0.006352 0.005587 0.000000 0.000000 0.000000
# 2 -0.006352 0.011266 -0.004712 0.000000 0.000000 0.000000
# 3 0.005587 -0.004712 0.024042 0.000000 0.000000 0.000000
# 4 0.000000 0.000000 0.000000 0.037238 0.000000 0.000000
# 5 0.000000 0.000000 0.000000 0.000000 0.031304 0.000000
# 6 0.000000 0.000000 0.000000 0.000000 0.000000 0.026460
#
#
# Mechanical properties :
#
#
# Convention : Reuss Voigt Hill
#
# Bulk Modulus (GPa) = 23.47280 34.71241 29.09260
# Shear Modulus (GPa) = 28.78320 32.04109 30.41215
#
# Velocity S-wave (km/s) = 3.71862 3.92343 3.82240
# Velocity P-wave (km/s) = 5.45109 6.09927 5.78427
#
# Compressibility (1/GPa) = 0.04260251
#
# Stress axis : x y z
#
# Youngs Moduli (GPa) = 54.79938 88.76437 41.59432
#
# Poissons Ratio (x) = 0.56380 -0.23240
# Poissons Ratio (y) = 0.34807 0.19601
# Poissons Ratio (z) = -0.30618 0.41829
#
# Static dielectric constant tensor:
#      x y z
#    x 3.831060 0.000000 0.000000 
#    y 0.000000 4.174420 0.000000 
#    z 0.000000 0.000000 3.728240 
# 
# 
# High freq. dielectric constant tensor:
#      x y z
#    x 1.812360 0.000000 0.000000 
#    y 0.000000 1.832730 0.000000 
#    z 0.000000 0.000000 1.822160 
# 
# From -- ./inp_files/1273.got.cif
#   From: 2010.03.12/outbox.cif.g09.slc.cpg/sg29_1_cif.got.tgz:1273.got - 2010.04.14 03:43:10.
