data_PCOD8168850
_publ_section_title
;
Structure prediction by ZEFSAII (Michael W. Deem and Ramdas Pophale) SiO2 
 PCOD8168850
Probable space group: P C A 21
;
_chemical_formula_sum "Si O2"
_cell_formula_units_Z 28
_cell_length_a 5.633884
_cell_length_b 16.668493
_cell_length_c 14.052287
_cell_angle_alpha 90.000000
_cell_angle_beta 90.000000
_cell_angle_gamma 90.000000
_cell_volume 1319.627170
_symmetry_space_group_name_H-M "P C A 21"
_symmetry_group_IT_number 29
_symmetry_cell_setting 'orthorhombic'
loop_
_space_group_symop_operation_xyz
x,y,z
-x,-y,1/2+z
1/2-x,y,1/2+z
1/2+x,-y,z
loop_
_atom_site_type_symbol
_atom_site_label
_atom_site_fract_x
_atom_site_fract_y
_atom_site_fract_z
Si Si1 0.602963 0.047515 0.323780
Si Si2 0.241580 0.273690 0.582940
Si Si3 0.861785 0.175713 0.669255
Si Si4 0.623021 0.181890 0.479608
Si Si5 0.612181 0.338523 0.932430
Si Si6 0.711194 0.453908 0.087436
Si Si7 0.605926 0.328957 0.717677
O O1 0.599080 0.093189 0.223770
O O2 0.583820 0.110958 0.407220
O O3 0.359935 0.996027 0.330522
O O4 0.378054 0.202124 0.530222
O O5 0.393682 0.338997 0.641140
O O6 0.094350 0.230221 0.665814
O O7 0.110627 0.321826 0.499968
O O8 0.804801 0.152486 0.560358
O O9 0.665828 0.233524 0.718158
O O10 0.714622 0.262056 0.427441
O O11 0.537816 0.358316 0.823773
O O12 0.737705 0.414840 0.981639
O O13 0.456768 0.497361 0.100651
O O14 0.692135 0.385124 0.170282
#
# Coordination Sequence:
#
# PCOD8168850 Si02
#       7
#     4   4   4   4   4   4   4
#     4  12  30  46  68 110 150 178 234 312 372 426
#     4  10  21  42  72 105 136 184 260 308 335 436
#     4  10  23  43  72 100 135 192 246 292 357 441
#     4  10  23  43  72 100 135 192 246 292 357 441
#     4  11  23  43  74 104 140 198 254 297 361 444
#     4  12  27  48  68 109 158 180 234 310 369 420
#     4  11  23  43  74 104 140 198 254 297 361 444
#
# _framework density 21.218115999999998
#
# number of rings (size 3 to 8) (size 9 to 14) (size 15 to 20)
#    0.000    1.143    5.714    0.857   10.000    2.286 
#    0.000    0.000    0.000    0.000    0.000    0.000 
#    0.000    0.000    0.000    0.000    0.000    0.000 
#
# Total GULP energy -346948.320712 kJ/mol
# GULP energy per Si atom -12391.011454 kJ/mol
# Density = 2.116982 g / cm^3
# Si number density = 21.218116 Si / 1000 Ang^3
#
#
#
# Elastic Constant Matrix: (Units=GPa)
#
#
# Indices 1 2 3 4 5 6 
#
# 1 115.3027 32.1939 18.0681 0.0000 0.0000 0.0000
# 2 32.1939 79.2911 23.0157 0.0000 0.0000 0.0000
# 3 18.0681 23.0157 89.7114 0.0000 0.0000 0.0000
# 4 0.0000 0.0000 0.0000 43.4469 0.0000 0.0000
# 5 0.0000 0.0000 0.0000 0.0000 15.4941 0.0000
# 6 0.0000 0.0000 0.0000 0.0000 0.0000 24.9986
#
#
#
# Elastic Compliance Matrix: (Units=1/GPa)
#
#
# Indices 1 2 3 4 5 6 
#
# 1 0.009870 -0.003707 -0.001037 0.000000 0.000000 0.000000
# 2 -0.003707 0.015018 -0.003107 0.000000 0.000000 0.000000
# 3 -0.001037 -0.003107 0.012153 0.000000 0.000000 0.000000
# 4 0.000000 0.000000 0.000000 0.023017 0.000000 0.000000
# 5 0.000000 0.000000 0.000000 0.000000 0.064541 0.000000
# 6 0.000000 0.000000 0.000000 0.000000 0.000000 0.040002
#
#
# Mechanical properties :
#
#
# Convention : Reuss Voigt Hill
#
# Bulk Modulus (GPa) = 46.85746 47.87339 47.36543
# Shear Modulus (GPa) = 26.67882 30.85642 28.76762
#
# Velocity S-wave (km/s) = 3.54977 3.81760 3.68612
# Velocity P-wave (km/s) = 6.23962 6.48410 6.36303
#
# Compressibility (1/GPa) = 0.02134132
#
# Stress axis : x y z
#
# Youngs Moduli (GPa) = 101.31482 66.58494 82.28632
#
# Poissons Ratio (x) = 0.24680 0.08533
# Poissons Ratio (y) = 0.37553 0.25562
# Poissons Ratio (z) = 0.10506 0.20685
#
# Static dielectric constant tensor:
#      x y z
#    x 4.019250 0.000000 0.000000 
#    y 0.000000 3.804590 0.000000 
#    z 0.000000 0.000000 3.821420 
# 
# 
# High freq. dielectric constant tensor:
#      x y z
#    x 1.837990 0.000000 0.000000 
#    y 0.000000 1.824900 0.000000 
#    z 0.000000 0.000000 1.836230 
# 
# From -- ./inp_files/4070.got.cif
#   From: 2010.03.12/outbox.cif.g09.slc.cpg/sg29_3_cif.got.tgz:4070.got - 2010.04.14 03:43:10.
