data_PCOD8168355
_publ_section_title
;
Structure prediction by ZEFSAII (Michael W. Deem and Ramdas Pophale) SiO2 
 PCOD8168355
Probable space group: P M A 2
;
_chemical_formula_sum "Si O2"
_cell_formula_units_Z 28
_cell_length_a 8.508608
_cell_length_b 9.846089
_cell_length_c 17.450648
_cell_angle_alpha 90.000000
_cell_angle_beta 90.000000
_cell_angle_gamma 90.000000
_cell_volume 1461.954415
_symmetry_space_group_name_H-M "P M A 2"
_symmetry_group_IT_number 28
_symmetry_cell_setting 'orthorhombic'
loop_
_space_group_symop_operation_xyz
x,y,z
-x,-y,z
1/2-x,y,z
1/2+x,-y,z
loop_
_atom_site_type_symbol
_atom_site_label
_atom_site_fract_x
_atom_site_fract_y
_atom_site_fract_z
Si Si1 0.065242 0.144453 0.747080
Si Si2 0.063878 0.354108 0.452906
Si Si3 0.064298 0.357624 0.626686
Si Si4 0.935297 0.647894 0.204255
Si Si5 0.564426 0.152519 0.329514
Si Si6 0.063935 0.147502 0.920730
Si Si7 0.565422 0.357335 0.038948
O O1 0.250000 0.138977 0.739846
O O2 0.992728 0.248839 0.685814
O O3 0.017481 0.184957 0.833510
O O4 0.000000 0.000000 0.723467
O O5 0.250000 0.355297 0.443897
O O6 0.008210 0.327345 0.540114
O O7 0.000000 0.500000 0.423952
O O8 0.993948 0.230915 0.404652
O O9 0.250000 0.359523 0.630427
O O10 0.000000 0.500000 0.655801
O O11 0.750000 0.646873 0.216048
O O12 0.000000 0.500000 0.228499
O O13 0.008305 0.766641 0.254977
O O14 0.978085 0.683080 0.117089
O O15 0.750000 0.145265 0.330104
O O16 0.500000 0.000000 0.328564
O O17 0.250000 0.155899 0.934959
O O18 0.000000 0.000000 0.941757
O O19 0.970361 0.248926 0.974324
O O20 0.500000 0.500000 0.008331
O O21 0.750000 0.367776 0.055323
#
# Coordination Sequence:
#
# PCOD8168355 Si02
#       7
#     4   4   4   4   4   4   4
#     4   9  19  35  54  78 109 145 185 228 275 329
#     4  10  20  37  59  83 112 148 188 229 276 330
#     4   9  19  35  55  81 111 143 183 229 275 325
#     4  11  22  40  63  87 114 147 185 225 273 328
#     4  12  25  41  59  84 115 147 185 229 277 327
#     4  10  20  36  56  80 111 148 189 231 278 332
#     4  11  22  38  59  85 114 146 185 229 277 327
#
# _framework density 19.152445
#
# number of rings (size 3 to 8) (size 9 to 14) (size 15 to 20)
#    0.000    1.714    0.000    6.000    0.000    3.429 
#    0.000    5.714    0.000    0.000    0.000    0.000 
#    0.000    0.000    0.000    0.000    0.000    0.000 
#
# Total GULP energy -347261.136723 kJ/mol
# GULP energy per Si atom -12402.183454 kJ/mol
# Density = 1.910885 g / cm^3
# Si number density = 19.152445 Si / 1000 Ang^3
#
#
#
# Elastic Constant Matrix: (Units=GPa)
#
#
# Indices 1 2 3 4 5 6 
#
# 1 83.3987 44.4619 24.8538 0.0000 0.0000 0.0000
# 2 44.4619 165.0444 96.5527 0.0000 0.0000 0.0000
# 3 24.8538 96.5527 110.8770 0.0000 0.0000 0.0000
# 4 0.0000 0.0000 0.0000 19.7116 0.0000 0.0000
# 5 0.0000 0.0000 0.0000 0.0000 1.5726 0.0000
# 6 0.0000 0.0000 0.0000 0.0000 0.0000 36.8347
#
#
#
# Elastic Compliance Matrix: (Units=1/GPa)
#
#
# Indices 1 2 3 4 5 6 
#
# 1 0.014006 -0.003947 0.000298 0.000000 0.000000 0.000000
# 2 -0.003947 0.013463 -0.010839 0.000000 0.000000 0.000000
# 3 0.000298 -0.010839 0.018391 0.000000 0.000000 0.000000
# 4 0.000000 0.000000 0.000000 0.050732 0.000000 0.000000
# 5 0.000000 0.000000 0.000000 0.000000 0.635880 0.000000
# 6 0.000000 0.000000 0.000000 0.000000 0.000000 0.027148
#
#
# Mechanical properties :
#
#
# Convention : Reuss Voigt Hill
#
# Bulk Modulus (GPa) = 59.23031 76.78410 68.00720
# Shear Modulus (GPa) = 6.29543 24.52056 15.40800
#
# Velocity S-wave (km/s) = 1.81498 3.58199 2.83943
# Velocity P-wave (km/s) = 5.94853 7.56872 6.80700
#
# Compressibility (1/GPa) = 0.01688325
#
# Stress axis : x y z
#
# Youngs Moduli (GPa) = 71.39635 74.27492 54.37393
#
# Poissons Ratio (x) = 0.29320 -0.01620
# Poissons Ratio (y) = 0.28184 0.58937
# Poissons Ratio (z) = -0.02127 0.80509
#
# Static dielectric constant tensor:
#      x y z
#    x 3.573800 0.000000 0.000000 
#    y 0.000000 3.665900 0.000000 
#    z 0.000000 0.000000 3.735320 
# 
# 
# High freq. dielectric constant tensor:
#      x y z
#    x 1.756490 0.000000 0.000000 
#    y 0.000000 1.747800 0.000000 
#    z 0.000000 0.000000 1.753940 
# 
# From -- ./inp_files/6764.got.cif
#   From: 2010.03.12/outbox.cif.g09.slc.cpg/sg28_4_cif.got.tgz:6764.got - 2010.04.14 03:39:34.
