data_PCOD8168693
_publ_section_title
;
Structure prediction by ZEFSAII (Michael W. Deem and Ramdas Pophale) SiO2 
 PCOD8168693
Probable space group: P C A 21
;
_chemical_formula_sum "Si O2"
_cell_formula_units_Z 32
_cell_length_a 8.928222
_cell_length_b 20.725379
_cell_length_c 8.293942
_cell_angle_alpha 90.000000
_cell_angle_beta 90.000000
_cell_angle_gamma 90.000000
_cell_volume 1534.717536
_symmetry_space_group_name_H-M "P C A 21"
_symmetry_group_IT_number 29
_symmetry_cell_setting 'orthorhombic'
loop_
_space_group_symop_operation_xyz
x,y,z
-x,-y,1/2+z
1/2-x,y,1/2+z
1/2+x,-y,z
loop_
_atom_site_type_symbol
_atom_site_label
_atom_site_fract_x
_atom_site_fract_y
_atom_site_fract_z
Si Si1 0.547720 0.693773 0.970210
Si Si2 0.131010 0.816689 0.521014
Si Si3 0.456376 0.441527 0.369676
Si Si4 0.127841 0.308618 0.343839
Si Si5 0.547216 0.184988 0.891304
Si Si6 0.863256 0.557793 0.000921
Si Si7 0.369827 0.060727 0.849269
Si Si8 0.954054 0.940928 0.477997
O O1 0.432037 0.751651 0.938627
O O2 0.467604 0.627731 0.910069
O O3 0.695856 0.704735 0.863268
O O4 0.594730 0.688804 0.155481
O O5 0.308952 0.821599 0.504414
O O6 0.100002 0.816765 0.708766
O O7 0.049840 0.877218 0.437511
O O8 0.315126 0.447409 0.488810
O O9 0.571287 0.498199 0.402099
O O10 0.405357 0.445232 0.186305
O O11 0.077007 0.375662 0.424591
O O12 0.036530 0.251682 0.431053
O O13 0.433824 0.126432 0.926902
O O14 0.191151 0.058802 0.865022
O O15 0.404838 0.056354 0.662026
O O16 0.442082 0.001722 0.944023
#
# Coordination Sequence:
#
# PCOD8168693 Si02
#       8
#     4   4   4   4   4   4   4   4
#     4  10  20  37  58  83 112 147 189 235 284 341
#     4  10  23  39  58  84 116 150 190 235 285 340
#     4  11  22  38  59  85 115 151 191 236 286 342
#     4  10  20  37  58  83 112 147 189 235 284 341
#     4  10  23  39  58  84 116 150 190 235 285 340
#     4  11  22  38  59  85 115 151 191 236 286 342
#     4  11  23  40  61  88 118 154 194 238 287 341
#     4  11  23  40  61  88 118 154 194 238 287 341
#
# _framework density 20.850743000000001
#
# number of rings (size 3 to 8) (size 9 to 14) (size 15 to 20)
#    0.000    1.500    0.000    6.750    0.000    7.000 
#    0.000    2.500    0.000    0.000    0.000    0.000 
#    0.000    0.000    0.000    0.000    0.000    0.000 
#
# Total GULP energy -396959.302508 kJ/mol
# GULP energy per Si atom -12404.978203 kJ/mol
# Density = 2.080329 g / cm^3
# Si number density = 20.850743 Si / 1000 Ang^3
#
#
#
# Elastic Constant Matrix: (Units=GPa)
#
#
# Indices 1 2 3 4 5 6 
#
# 1 65.0388 47.3253 -8.9433 0.0000 0.0000 0.0000
# 2 47.3253 162.5745 10.2262 0.0000 0.0000 0.0000
# 3 -8.9433 10.2262 41.9592 0.0000 0.0000 0.0000
# 4 0.0000 0.0000 0.0000 32.8056 0.0000 0.0000
# 5 0.0000 0.0000 0.0000 0.0000 30.7329 0.0000
# 6 0.0000 0.0000 0.0000 0.0000 0.0000 40.0169
#
#
#
# Elastic Compliance Matrix: (Units=1/GPa)
#
#
# Indices 1 2 3 4 5 6 
#
# 1 0.020910 -0.006466 0.006033 0.000000 0.000000 0.000000
# 2 -0.006466 0.008247 -0.003388 0.000000 0.000000 0.000000
# 3 0.006033 -0.003388 0.025944 0.000000 0.000000 0.000000
# 4 0.000000 0.000000 0.000000 0.030483 0.000000 0.000000
# 5 0.000000 0.000000 0.000000 0.000000 0.032538 0.000000
# 6 0.000000 0.000000 0.000000 0.000000 0.000000 0.024989
#
#
# Mechanical properties :
#
#
# Convention : Reuss Voigt Hill
#
# Bulk Modulus (GPa) = 21.07138 40.75433 30.91285
# Shear Modulus (GPa) = 30.01666 35.44203 32.72935
#
# Velocity S-wave (km/s) = 3.79832 4.12733 3.96624
# Velocity P-wave (km/s) = 5.41886 6.50395 5.98604
#
# Compressibility (1/GPa) = 0.04745774
#
# Stress axis : x y z
#
# Youngs Moduli (GPa) = 47.82332 121.26331 38.54412
#
# Poissons Ratio (x) = 0.78414 -0.23253
# Poissons Ratio (y) = 0.30925 0.13059
# Poissons Ratio (z) = -0.28851 0.41085
#
# Static dielectric constant tensor:
#      x y z
#    x 3.861230 0.000000 0.000000 
#    y 0.000000 4.266400 0.000000 
#    z 0.000000 0.000000 3.658970 
# 
# 
# High freq. dielectric constant tensor:
#      x y z
#    x 1.808920 0.000000 0.000000 
#    y 0.000000 1.837730 0.000000 
#    z 0.000000 0.000000 1.821000 
# 
# From -- ./inp_files/1254.got.cif
#   From: 2010.03.12/outbox.cif.g09.slc.cpg/sg29_1_cif.got.tgz:1254.got - 2010.04.14 03:43:10.
