data_PCOD8168628
_publ_section_title
;
Structure prediction by ZEFSAII (Michael W. Deem and Ramdas Pophale) SiO2 
 PCOD8168628
Probable space group: P C A 21
;
_chemical_formula_sum "Si O2"
_cell_formula_units_Z 20
_cell_length_a 5.407360
_cell_length_b 8.605010
_cell_length_c 16.041835
_cell_angle_alpha 90.000000
_cell_angle_beta 90.000000
_cell_angle_gamma 90.000000
_cell_volume 746.432789
_symmetry_space_group_name_H-M "P C A 21"
_symmetry_group_IT_number 29
_symmetry_cell_setting 'orthorhombic'
loop_
_space_group_symop_operation_xyz
x,y,z
-x,-y,1/2+z
1/2-x,y,1/2+z
1/2+x,-y,z
loop_
_atom_site_type_symbol
_atom_site_label
_atom_site_fract_x
_atom_site_fract_y
_atom_site_fract_z
Si Si1 0.129298 0.501147 0.417760
Si Si2 0.428063 0.591223 0.604539
Si Si3 0.975521 0.915795 0.017328
Si Si4 0.410828 0.748561 0.778673
Si Si5 0.088147 0.177207 0.334108
O O1 0.379676 0.500239 0.474424
O O2 0.124465 0.657380 0.365443
O O3 0.128637 0.360921 0.352929
O O4 0.645829 0.465324 0.587484
O O5 0.495330 0.739462 0.546679
O O6 0.450988 0.638000 0.700872
O O7 0.215546 0.011589 0.050309
O O8 0.957326 0.922432 0.916956
O O9 0.648537 0.865269 0.788502
O O10 0.150700 0.844026 0.772637
#
# Coordination Sequence:
#
# PCOD8168628 Si02
#       5
#     4   4   4   4   4
#     4   8  14  25  49  84 117 144 188 260 328 373
#     4  12  25  45  74 109 142 187 245 301 361 436
#     4  12  28  50  68  99 152 201 240 294 361 436
#     4  10  19  37  67 103 135 166 224 304 361 410
#     4  10  20  37  64  91 126 178 227 277 345 415
#
# _framework density 26.794104000000001
#
# number of rings (size 3 to 8) (size 9 to 14) (size 15 to 20)
#    0.000    1.600    0.000    7.200    0.000    4.800 
#    0.000    6.000    0.000    0.000    0.000    0.000 
#    0.000    0.000    0.000    0.000    0.000    0.000 
#
# Total GULP energy -247775.948011 kJ/mol
# GULP energy per Si atom -12388.797401 kJ/mol
# Density = 2.673312 g / cm^3
# Si number density = 26.794104 Si / 1000 Ang^3
#
#
#
# Elastic Constant Matrix: (Units=GPa)
#
#
# Indices 1 2 3 4 5 6 
#
# 1 343.4983 32.1269 74.9683 0.0000 0.0000 0.0000
# 2 32.1269 104.5962 12.3511 0.0000 0.0000 0.0000
# 3 74.9683 12.3511 99.3494 0.0000 0.0000 0.0000
# 4 0.0000 0.0000 0.0000 35.7169 0.0000 0.0000
# 5 0.0000 0.0000 0.0000 0.0000 35.7649 0.0000
# 6 0.0000 0.0000 0.0000 0.0000 0.0000 -37.4705
#
#
#
# Elastic Compliance Matrix: (Units=1/GPa)
#
#
# Indices 1 2 3 4 5 6 
#
# 1 0.003548 -0.000785 -0.002579 0.000000 0.000000 0.000000
# 2 -0.000785 0.009877 -0.000635 0.000000 0.000000 0.000000
# 3 -0.002579 -0.000635 0.012091 0.000000 0.000000 0.000000
# 4 0.000000 0.000000 0.000000 0.027998 0.000000 0.000000
# 5 0.000000 0.000000 0.000000 0.000000 0.027960 0.000000
# 6 0.000000 0.000000 0.000000 0.000000 0.000000 -0.026688
#
#
# Mechanical properties :
#
#
# Convention : Reuss Voigt Hill
#
# Bulk Modulus (GPa) = 57.09273 87.37073 72.23173
# Shear Modulus (GPa) = 72.86060 35.33543 54.09802
#
# Velocity S-wave (km/s) = 5.22033 3.63544 4.49823
# Velocity P-wave (km/s) = 7.59539 7.09231 7.34816
#
# Compressibility (1/GPa) = 0.01751536
#
# Stress axis : x y z
#
# Youngs Moduli (GPa) = 281.88078 101.24789 82.70704
#
# Poissons Ratio (x) = 0.07949 0.21333
# Poissons Ratio (y) = 0.22130 0.05256
# Poissons Ratio (z) = 0.72708 0.06434
#
# Static dielectric constant tensor:
#      x y z
#    x 6.821610 0.000000 0.000000 
#    y 0.000000 4.625030 0.000000 
#    z 0.000000 0.000000 4.736760 
# 
# 
# High freq. dielectric constant tensor:
#      x y z
#    x 2.134250 0.000000 0.000000 
#    y 0.000000 2.067960 0.000000 
#    z 0.000000 0.000000 2.062660 
# 
# From -- ./inp_files/4879.got.cif
#   From: 2010.03.12/outbox.cif.g09.slc.cpg/sg29_3_cif.got.tgz:4879.got - 2010.04.14 03:43:10.
