data_PCOD8168661
_publ_section_title
;
Structure prediction by ZEFSAII (Michael W. Deem and Ramdas Pophale) SiO2 
 PCOD8168661
Probable space group: P C A 21
;
_chemical_formula_sum "Si O2"
_cell_formula_units_Z 24
_cell_length_a 9.420589
_cell_length_b 15.655544
_cell_length_c 8.490312
_cell_angle_alpha 90.000000
_cell_angle_beta 90.000000
_cell_angle_gamma 90.000000
_cell_volume 1252.188958
_symmetry_space_group_name_H-M "P C A 21"
_symmetry_group_IT_number 29
_symmetry_cell_setting 'orthorhombic'
loop_
_space_group_symop_operation_xyz
x,y,z
-x,-y,1/2+z
1/2-x,y,1/2+z
1/2+x,-y,z
loop_
_atom_site_type_symbol
_atom_site_label
_atom_site_fract_x
_atom_site_fract_y
_atom_site_fract_z
Si Si1 0.124906 0.922738 0.094700
Si Si2 0.063278 0.930004 0.729338
Si Si3 0.365607 0.754908 0.756795
Si Si4 0.941631 0.430023 0.119126
Si Si5 0.641035 0.433546 0.262821
Si Si6 0.435065 0.758129 0.116521
O O1 0.066512 0.829286 0.149014
O O2 0.038176 0.992099 0.191993
O O3 0.291507 0.934362 0.129321
O O4 0.099285 0.933980 0.911762
O O5 0.979769 0.841349 0.680909
O O6 0.421376 0.659778 0.712583
O O7 0.198063 0.753989 0.733058
O O8 0.390293 0.776731 0.938196
O O9 0.809815 0.439940 0.237643
O O10 0.011171 0.334347 0.129312
O O11 0.064453 0.495828 0.158650
O O12 0.884148 0.449735 0.945958
#
# Coordination Sequence:
#
# PCOD8168661 Si02
#       6
#     4   4   4   4   4   4
#     4  11  21  35  55  79 106 137 172 213 257 306
#     4  11  21  35  55  79 106 137 172 213 257 306
#     4   9  17  31  51  75 101 134 173 211 252 305
#     4  10  20  34  54  78 106 137 173 214 257 305
#     4  10  20  34  54  78 106 137 173 214 257 305
#     4   9  17  31  51  75 101 134 173 211 252 305
#
# _framework density 19.166437999999999
#
# number of rings (size 3 to 8) (size 9 to 14) (size 15 to 20)
#    0.000    2.000    0.000    7.000    0.000    4.000 
#    0.000    1.667    0.000    8.000    0.000    0.000 
#    0.000    0.000    0.000    0.000    0.000    0.000 
#
# Total GULP energy -297427.158339 kJ/mol
# GULP energy per Si atom -12392.798264 kJ/mol
# Density = 1.912281 g / cm^3
# Si number density = 19.166438 Si / 1000 Ang^3
#
#
#
# Elastic Constant Matrix: (Units=GPa)
#
#
# Indices 1 2 3 4 5 6 
#
# 1 33.3201 31.9453 2.2521 0.0000 0.0000 0.0000
# 2 31.9453 150.4529 30.1817 0.0000 0.0000 0.0000
# 3 2.2521 30.1817 60.2827 0.0000 0.0000 0.0000
# 4 0.0000 0.0000 0.0000 37.1549 0.0000 0.0000
# 5 0.0000 0.0000 0.0000 0.0000 35.1280 0.0000
# 6 0.0000 0.0000 0.0000 0.0000 0.0000 25.4575
#
#
#
# Elastic Compliance Matrix: (Units=1/GPa)
#
#
# Indices 1 2 3 4 5 6 
#
# 1 0.038141 -0.008685 0.002923 0.000000 0.000000 0.000000
# 2 -0.008685 0.009366 -0.004365 0.000000 0.000000 0.000000
# 3 0.002923 -0.004365 0.018665 0.000000 0.000000 0.000000
# 4 0.000000 0.000000 0.000000 0.026914 0.000000 0.000000
# 5 0.000000 0.000000 0.000000 0.000000 0.028467 0.000000
# 6 0.000000 0.000000 0.000000 0.000000 0.000000 0.039281
#
#
# Mechanical properties :
#
#
# Convention : Reuss Voigt Hill
#
# Bulk Modulus (GPa) = 21.77753 41.42377 31.60065
# Shear Modulus (GPa) = 25.45907 31.52653 28.49280
#
# Velocity S-wave (km/s) = 3.64856 4.06011 3.85983
# Velocity P-wave (km/s) = 5.39781 6.60598 6.03222
#
# Compressibility (1/GPa) = 0.04591890
#
# Stress axis : x y z
#
# Youngs Moduli (GPa) = 26.21864 106.76637 53.57716
#
# Poissons Ratio (x) = 0.92724 -0.15662
# Poissons Ratio (y) = 0.22770 0.23386
# Poissons Ratio (z) = -0.07664 0.46603
#
# Static dielectric constant tensor:
#      x y z
#    x 3.111670 0.000000 0.000000 
#    y 0.000000 4.326990 0.000000 
#    z 0.000000 0.000000 3.563030 
# 
# 
# High freq. dielectric constant tensor:
#      x y z
#    x 1.683950 0.000000 0.000000 
#    y 0.000000 1.775240 0.000000 
#    z 0.000000 0.000000 1.764780 
# 
# From -- ./inp_files/1160.got.cif
#   From: 2010.03.12/outbox.cif.g09.slc.cpg/sg29_1_cif.got.tgz:1160.got - 2010.04.14 03:43:10.
