data_PCOD8168028
_publ_section_title
;
Structure prediction by ZEFSAII (Michael W. Deem and Ramdas Pophale) SiO2 
 PCOD8168028
Probable space group: P M A 2
;
_chemical_formula_sum "Si O2"
_cell_formula_units_Z 32
_cell_length_a 8.753587
_cell_length_b 14.232762
_cell_length_c 15.472131
_cell_angle_alpha 90.000000
_cell_angle_beta 90.000000
_cell_angle_gamma 90.000000
_cell_volume 1927.637531
_symmetry_space_group_name_H-M "P M A 2"
_symmetry_group_IT_number 28
_symmetry_cell_setting 'orthorhombic'
loop_
_space_group_symop_operation_xyz
x,y,z
-x,-y,z
1/2-x,y,z
1/2+x,-y,z
loop_
_atom_site_type_symbol
_atom_site_label
_atom_site_fract_x
_atom_site_fract_y
_atom_site_fract_z
Si Si1 0.074155 0.209847 0.006350
Si Si2 0.929804 0.102104 0.506881
Si Si3 0.572598 0.206666 0.333505
Si Si4 0.571662 0.899902 0.176900
Si Si5 0.427158 0.406235 0.078846
Si Si6 0.570629 0.404085 0.264219
Si Si7 0.568234 0.896238 0.680111
Si Si8 0.570245 0.102222 0.853435
O O1 0.250000 0.184901 0.984676
O O2 0.024923 0.167465 0.098273
O O3 0.048663 0.321736 0.011476
O O4 0.964166 0.170086 0.933103
O O5 0.750000 0.089716 0.521183
O O6 0.969120 0.172504 0.429267
O O7 0.004890 0.150659 0.592084
O O8 0.000000 0.000000 0.486899
O O9 0.750000 0.192294 0.312957
O O10 0.482124 0.143238 0.266550
O O11 0.526523 0.316329 0.325488
O O12 0.750000 0.913776 0.183094
O O13 0.500000 0.000000 0.158672
O O14 0.500000 0.500000 0.037122
O O15 0.250000 0.422878 0.098455
O O16 0.507021 0.382720 0.169283
O O17 0.500000 0.500000 0.303237
O O18 0.750000 0.417770 0.257707
O O19 0.750000 0.895659 0.680931
O O20 0.503726 0.849174 0.767846
O O21 0.500000 0.000000 0.680013
O O22 0.750000 0.091184 0.840461
O O23 0.500000 0.000000 0.872339
#
# Coordination Sequence:
#
# PCOD8168028 Si02
#       8
#     4   4   4   4   4   4   4   4
#     4  10  21  35  49  70  98 130 166 203 242 288
#     4  10  19  32  48  70  98 128 163 201 241 286
#     4  10  21  34  49  70  97 130 166 203 243 289
#     4  11  22  34  47  65  96 133 169 201 237 282
#     4  10  19  33  51  72  96 125 162 205 249 289
#     4  10  19  32  50  71  95 125 163 205 249 291
#     4  10  18  31  50  71  96 126 160 200 244 287
#     4  11  21  33  51  73  99 131 165 202 244 290
#
# _framework density 16.600632000000001
#
# number of rings (size 3 to 8) (size 9 to 14) (size 15 to 20)
#    0.000    1.750    1.250    6.750    0.000    5.500 
#    0.000    0.000    0.000    0.000    0.000    0.875 
#    0.000    4.000    0.000    0.000    0.000    0.000 
#
# Total GULP energy -396787.943233 kJ/mol
# GULP energy per Si atom -12399.623226 kJ/mol
# Density = 1.656285 g / cm^3
# Si number density = 16.600632 Si / 1000 Ang^3
#
#
#
# Elastic Constant Matrix: (Units=GPa)
#
#
# Indices 1 2 3 4 5 6 
#
# 1 103.5753 37.2598 45.1993 0.0000 0.0000 0.0000
# 2 37.2598 87.0288 33.9809 0.0000 0.0000 0.0000
# 3 45.1993 33.9809 91.9168 0.0000 0.0000 0.0000
# 4 0.0000 0.0000 0.0000 7.3175 0.0000 0.0000
# 5 0.0000 0.0000 0.0000 0.0000 25.4246 0.0000
# 6 0.0000 0.0000 0.0000 0.0000 0.0000 21.5531
#
#
#
# Elastic Compliance Matrix: (Units=1/GPa)
#
#
# Indices 1 2 3 4 5 6 
#
# 1 0.013214 -0.003647 -0.005150 0.000000 0.000000 0.000000
# 2 -0.003647 0.014435 -0.003543 0.000000 0.000000 0.000000
# 3 -0.005150 -0.003543 0.014722 0.000000 0.000000 0.000000
# 4 0.000000 0.000000 0.000000 0.136659 0.000000 0.000000
# 5 0.000000 0.000000 0.000000 0.000000 0.039332 0.000000
# 6 0.000000 0.000000 0.000000 0.000000 0.000000 0.046397
#
#
# Mechanical properties :
#
#
# Convention : Reuss Voigt Hill
#
# Bulk Modulus (GPa) = 56.52456 57.26678 56.89567
# Shear Modulus (GPa) = 16.92992 21.93110 19.43051
#
# Velocity S-wave (km/s) = 3.19695 3.63864 3.42492
# Velocity P-wave (km/s) = 6.91020 7.22666 7.07020
#
# Compressibility (1/GPa) = 0.01769143
#
# Stress axis : x y z
#
# Youngs Moduli (GPa) = 75.67782 69.27509 67.92691
#
# Poissons Ratio (x) = 0.25262 0.34980
# Poissons Ratio (y) = 0.27596 0.24069
# Poissons Ratio (z) = 0.38972 0.24547
#
# Static dielectric constant tensor:
#      x y z
#    x 3.243150 0.000000 0.000000 
#    y 0.000000 3.087540 0.000000 
#    z 0.000000 0.000000 3.425680 
# 
# 
# High freq. dielectric constant tensor:
#      x y z
#    x 1.657360 0.000000 0.000000 
#    y 0.000000 1.618170 0.000000 
#    z 0.000000 0.000000 1.630170 
# 
# From -- ./inp_files/6442.got.cif
#   From: 2010.03.12/outbox.cif.g09.slc.cpg/sg28_4_cif.got.tgz:6442.got - 2010.04.14 03:39:34.
