data_PCOD8168880
_publ_section_title
;
Structure prediction by ZEFSAII (Michael W. Deem and Ramdas Pophale) SiO2 
 PCOD8168880
Probable space group: P C A 21
;
_chemical_formula_sum "Si O2"
_cell_formula_units_Z 28
_cell_length_a 8.583458
_cell_length_b 15.228158
_cell_length_c 8.827891
_cell_angle_alpha 90.000000
_cell_angle_beta 90.000000
_cell_angle_gamma 90.000000
_cell_volume 1153.895880
_symmetry_space_group_name_H-M "P C A 21"
_symmetry_group_IT_number 29
_symmetry_cell_setting 'orthorhombic'
loop_
_space_group_symop_operation_xyz
x,y,z
-x,-y,1/2+z
1/2-x,y,1/2+z
1/2+x,-y,z
loop_
_atom_site_type_symbol
_atom_site_label
_atom_site_fract_x
_atom_site_fract_y
_atom_site_fract_z
Si Si1 0.538540 0.651527 0.473450
Si Si2 0.207776 0.999822 0.109407
Si Si3 0.814656 0.293146 0.954076
Si Si4 0.049148 0.071899 0.407282
Si Si5 0.734467 0.618852 0.214758
Si Si6 0.460532 0.452844 0.448574
Si Si7 0.161316 0.818925 0.729081
O O1 0.365267 0.685797 0.490216
O O2 0.630136 0.683293 0.321461
O O3 0.644609 0.678523 0.617595
O O4 0.543646 0.545812 0.456574
O O5 0.296920 0.909710 0.146944
O O6 0.094295 0.986292 0.966909
O O7 0.119398 0.028170 0.258502
O O8 0.326906 0.074912 0.045855
O O9 0.895701 0.248507 0.099872
O O10 0.810600 0.223764 0.814638
O O11 0.908307 0.379649 0.911619
O O12 0.977878 0.165987 0.354211
O O13 0.834096 0.550143 0.314970
O O14 0.620059 0.562806 0.109736
#
# Coordination Sequence:
#
# PCOD8168880 Si02
#       7
#     4   4   4   4   4   4   4
#     4  11  23  42  68  98 131 186 242 288 356 429
#     4  12  23  45  79 105 147 186 243 282 347 440
#     4  12  25  44  70 101 142 192 232 306 366 422
#     4  12  23  45  75 110 142 194 238 289 343 443
#     4  10  22  39  62  89 129 163 229 301 331 409
#     4  11  23  42  68  96 131 183 241 289 357 431
#     4  12  25  43  70 107 146 176 235 291 360 418
#
# _framework density 24.265622
#
# number of rings (size 3 to 8) (size 9 to 14) (size 15 to 20)
#    0.000    0.571    4.286    4.286    0.000    2.286 
#    0.000    5.714    0.000    0.000    0.000    0.000 
#    0.000    0.000    0.000    0.000    0.000    0.000 
#
# Total GULP energy -347059.153499 kJ/mol
# GULP energy per Si atom -12394.969768 kJ/mol
# Density = 2.421039 g / cm^3
# Si number density = 24.265622 Si / 1000 Ang^3
#
#
#
# Elastic Constant Matrix: (Units=GPa)
#
#
# Indices 1 2 3 4 5 6 
#
# 1 110.4464 28.3737 36.5437 0.0000 0.0000 0.0000
# 2 28.3737 75.4417 24.9285 0.0000 0.0000 0.0000
# 3 36.5437 24.9285 129.4553 0.0000 0.0000 0.0000
# 4 0.0000 0.0000 0.0000 23.7035 0.0000 0.0000
# 5 0.0000 0.0000 0.0000 0.0000 50.4058 0.0000
# 6 0.0000 0.0000 0.0000 0.0000 0.0000 34.1046
#
#
#
# Elastic Compliance Matrix: (Units=1/GPa)
#
#
# Indices 1 2 3 4 5 6 
#
# 1 0.010674 -0.003224 -0.002392 0.000000 0.000000 0.000000
# 2 -0.003224 0.015130 -0.002003 0.000000 0.000000 0.000000
# 3 -0.002392 -0.002003 0.008786 0.000000 0.000000 0.000000
# 4 0.000000 0.000000 0.000000 0.042188 0.000000 0.000000
# 5 0.000000 0.000000 0.000000 0.000000 0.019839 0.000000
# 6 0.000000 0.000000 0.000000 0.000000 0.000000 0.029322
#
#
# Mechanical properties :
#
#
# Convention : Reuss Voigt Hill
#
# Bulk Modulus (GPa) = 51.67907 55.00393 53.34150
# Shear Modulus (GPa) = 33.86906 36.67594 35.27250
#
# Velocity S-wave (km/s) = 3.74004 3.89194 3.81675
# Velocity P-wave (km/s) = 6.32408 6.55079 6.43844
#
# Compressibility (1/GPa) = 0.01935019
#
# Stress axis : x y z
#
# Youngs Moduli (GPa) = 93.68602 66.09475 113.82037
#
# Poissons Ratio (x) = 0.21309 0.27229
# Poissons Ratio (y) = 0.30204 0.22802
# Poissons Ratio (z) = 0.22413 0.13241
#
# Static dielectric constant tensor:
#      x y z
#    x 4.620380 0.000000 0.000000 
#    y 0.000000 4.131480 0.000000 
#    z 0.000000 0.000000 4.825100 
# 
# 
# High freq. dielectric constant tensor:
#      x y z
#    x 1.974630 0.000000 0.000000 
#    y 0.000000 1.929130 0.000000 
#    z 0.000000 0.000000 1.990050 
# 
# From -- ./inp_files/1237.got.cif
#   From: 2010.03.12/outbox.cif.g09.slc.cpg/sg29_1_cif.got.tgz:1237.got - 2010.04.14 03:43:10.
