data_PCOD8168432
_publ_section_title
;
Structure prediction by ZEFSAII (Michael W. Deem and Ramdas Pophale) SiO2 
 PCOD8168432
Probable space group: P M A 2
;
_chemical_formula_sum "Si O2"
_cell_formula_units_Z 32
_cell_length_a 8.732366
_cell_length_b 14.853404
_cell_length_c 12.267192
_cell_angle_alpha 90.000000
_cell_angle_beta 90.000000
_cell_angle_gamma 90.000000
_cell_volume 1591.120555
_symmetry_space_group_name_H-M "P M A 2"
_symmetry_group_IT_number 28
_symmetry_cell_setting 'orthorhombic'
loop_
_space_group_symop_operation_xyz
x,y,z
-x,-y,z
1/2-x,y,z
1/2+x,-y,z
loop_
_atom_site_type_symbol
_atom_site_label
_atom_site_fract_x
_atom_site_fract_y
_atom_site_fract_z
Si Si1 0.571056 0.758696 0.469920
Si Si2 0.431209 0.754837 0.233912
Si Si3 0.927472 0.902903 0.841655
Si Si4 0.429926 0.596904 0.077713
Si Si5 0.069528 0.900664 0.626483
Si Si6 0.070544 0.098680 0.082051
Si Si7 0.069795 0.598037 0.838143
Si Si8 0.428788 0.402342 0.624266
O O1 0.750000 0.780004 0.478224
O O2 0.520444 0.752556 0.346024
O O3 0.480867 0.840073 0.525574
O O4 0.530372 0.663273 0.524669
O O5 0.250000 0.754644 0.253351
O O6 0.487429 0.667556 0.166860
O O7 0.477765 0.843127 0.168152
O O8 0.750000 0.910774 0.811974
O O9 0.011754 0.853841 0.740228
O O10 0.951976 0.857578 0.960570
O O11 0.000000 0.000000 0.851125
O O12 0.500000 0.500000 0.103017
O O13 0.250000 0.583896 0.082498
O O14 0.476007 0.635959 0.957525
O O15 0.250000 0.908418 0.628218
O O16 0.000000 0.000000 0.612871
O O17 0.250000 0.094936 0.111790
O O18 0.000000 0.000000 0.087627
O O19 0.250000 0.596141 0.821667
O O20 0.000000 0.500000 0.830061
O O21 0.994384 0.647476 0.733932
O O22 0.500000 0.500000 0.599298
O O23 0.250000 0.415570 0.639497
#
# Coordination Sequence:
#
# PCOD8168432 Si02
#       8
#     4   4   4   4   4   4   4   4
#     4  11  25  43  59  81 113 150 197 243 284 337
#     4  11  24  41  59  83 114 149 195 243 286 337
#     4   9  17  32  56  87 120 151 186 228 278 339
#     4   9  20  37  58  85 116 149 185 230 282 336
#     4  11  22  38  62  89 118 152 188 233 287 340
#     4  10  21  38  61  88 118 153 190 232 284 338
#     4   9  16  30  54  84 116 147 182 225 277 338
#     4  10  21  37  59  85 115 149 185 232 284 337
#
# _framework density 20.111612000000001
#
# number of rings (size 3 to 8) (size 9 to 14) (size 15 to 20)
#    0.000    2.000    0.000    4.875    0.000    7.000 
#    0.000    7.500    0.000    0.000    0.000    0.000 
#    0.000    0.000    0.000    0.000    0.000    0.000 
#
# Total GULP energy -396638.842104 kJ/mol
# GULP energy per Si atom -12394.963816 kJ/mol
# Density = 2.006584 g / cm^3
# Si number density = 20.111612 Si / 1000 Ang^3
#
#
#
# Elastic Constant Matrix: (Units=GPa)
#
#
# Indices 1 2 3 4 5 6 
#
# 1 102.6573 38.7838 45.0070 0.0000 0.0000 0.0000
# 2 38.7838 87.0025 56.7217 0.0000 0.0000 0.0000
# 3 45.0070 56.7217 152.6840 0.0000 0.0000 0.0000
# 4 0.0000 0.0000 0.0000 29.2866 0.0000 0.0000
# 5 0.0000 0.0000 0.0000 0.0000 71.7825 0.0000
# 6 0.0000 0.0000 0.0000 0.0000 0.0000 19.9231
#
#
#
# Elastic Compliance Matrix: (Units=1/GPa)
#
#
# Indices 1 2 3 4 5 6 
#
# 1 0.012194 -0.004081 -0.002078 0.000000 0.000000 0.000000
# 2 -0.004081 0.016533 -0.004939 0.000000 0.000000 0.000000
# 3 -0.002078 -0.004939 0.008997 0.000000 0.000000 0.000000
# 4 0.000000 0.000000 0.000000 0.034145 0.000000 0.000000
# 5 0.000000 0.000000 0.000000 0.000000 0.013931 0.000000
# 6 0.000000 0.000000 0.000000 0.000000 0.000000 0.050193
#
#
# Mechanical properties :
#
#
# Convention : Reuss Voigt Hill
#
# Bulk Modulus (GPa) = 64.40190 69.26321 66.83255
# Shear Modulus (GPa) = 30.60608 37.65385 34.12997
#
# Velocity S-wave (km/s) = 3.90527 4.33164 4.12397
# Velocity P-wave (km/s) = 7.24062 7.71567 7.48192
#
# Compressibility (1/GPa) = 0.01552749
#
# Stress axis : x y z
#
# Youngs Moduli (GPa) = 82.00671 60.48455 111.14792
#
# Poissons Ratio (x) = 0.24683 0.23102
# Poissons Ratio (y) = 0.33465 0.54897
# Poissons Ratio (z) = 0.17045 0.29874
#
# Static dielectric constant tensor:
#      x y z
#    x 3.971120 0.000000 0.000000 
#    y 0.000000 3.487790 0.000000 
#    z 0.000000 0.000000 4.329350 
# 
# 
# High freq. dielectric constant tensor:
#      x y z
#    x 1.797570 0.000000 0.000000 
#    y 0.000000 1.768560 0.000000 
#    z 0.000000 0.000000 1.797710 
# 
# From -- ./inp_files/5017.got.cif
#   From: 2010.03.12/outbox.cif.g09.slc.cpg/sg28_3_cif.got.tgz:5017.got - 2010.04.14 03:39:34.
