data_PCOD8168969
_publ_section_title
;
Structure prediction by ZEFSAII (Michael W. Deem and Ramdas Pophale) SiO2 
 PCOD8168969
Probable space group: P C A 21
;
_chemical_formula_sum "Si O2"
_cell_formula_units_Z 28
_cell_length_a 24.845149
_cell_length_b 5.131864
_cell_length_c 8.616305
_cell_angle_alpha 90.000000
_cell_angle_beta 90.000000
_cell_angle_gamma 90.000000
_cell_volume 1098.595480
_symmetry_space_group_name_H-M "P C A 21"
_symmetry_group_IT_number 29
_symmetry_cell_setting 'orthorhombic'
loop_
_space_group_symop_operation_xyz
x,y,z
-x,-y,1/2+z
1/2-x,y,1/2+z
1/2+x,-y,z
loop_
_atom_site_type_symbol
_atom_site_label
_atom_site_fract_x
_atom_site_fract_y
_atom_site_fract_z
Si Si1 0.773096 0.439228 0.034830
Si Si2 0.968831 0.505807 0.933957
Si Si3 0.431570 0.813144 0.428847
Si Si4 0.671984 0.465257 0.857776
Si Si5 0.331327 0.050897 0.939219
Si Si6 0.071416 0.997729 0.265740
Si Si7 0.589707 0.807854 0.690604
O O1 0.786821 0.410022 0.216020
O O2 0.710495 0.514706 0.006966
O O3 0.783971 0.158146 0.957256
O O4 0.809668 0.655596 0.950861
O O5 0.954126 0.216217 0.882907
O O6 0.946692 0.713549 0.810696
O O7 0.033916 0.544298 0.930784
O O8 0.943361 0.576179 0.104131
O O9 0.367977 0.769239 0.402899
O O10 0.444933 0.953771 0.589552
O O11 0.450819 0.004826 0.288046
O O12 0.633810 0.704152 0.813514
O O13 0.362984 0.996196 0.778521
O O14 0.378121 0.012765 0.068405
#
# Coordination Sequence:
#
# PCOD8168969 Si02
#       7
#     4   4   4   4   4   4   4
#     4  11  25  45  71 101 137 195 234 310 358 435
#     4  11  27  47  75 105 156 196 238 297 387 435
#     4  12  27  43  76 109 150 188 254 305 359 450
#     4  11  27  45  72 105 146 188 253 298 373 430
#     4  10  22  46  71  97 144 185 242 290 379 417
#     4  11  26  46  72 112 142 195 247 308 358 455
#     4  10  24  48  71 105 145 195 238 306 362 452
#
# _framework density 25.487086999999999
#
# number of rings (size 3 to 8) (size 9 to 14) (size 15 to 20)
#    0.000    1.143    1.429    3.429   12.000    1.143 
#    0.000    0.000    0.000    0.000    0.000    0.000 
#    0.000    0.000    0.000    0.000    0.000    0.000 
#
# Total GULP energy -347112.377246 kJ/mol
# GULP energy per Si atom -12396.870616 kJ/mol
# Density = 2.542908 g / cm^3
# Si number density = 25.487087 Si / 1000 Ang^3
#
#
#
# Elastic Constant Matrix: (Units=GPa)
#
#
# Indices 1 2 3 4 5 6 
#
# 1 120.5911 6.1049 36.3762 0.0000 0.0000 0.0000
# 2 6.1049 67.2581 7.4653 0.0000 0.0000 0.0000
# 3 36.3762 7.4653 76.4009 0.0000 0.0000 0.0000
# 4 0.0000 0.0000 0.0000 24.5354 0.0000 0.0000
# 5 0.0000 0.0000 0.0000 0.0000 40.8934 0.0000
# 6 0.0000 0.0000 0.0000 0.0000 0.0000 39.6072
#
#
#
# Elastic Compliance Matrix: (Units=1/GPa)
#
#
# Indices 1 2 3 4 5 6 
#
# 1 0.009692 -0.000372 -0.004578 0.000000 0.000000 0.000000
# 2 -0.000372 0.015045 -0.001293 0.000000 0.000000 0.000000
# 3 -0.004578 -0.001293 0.015395 0.000000 0.000000 0.000000
# 4 0.000000 0.000000 0.000000 0.040757 0.000000 0.000000
# 5 0.000000 0.000000 0.000000 0.000000 0.024454 0.000000
# 6 0.000000 0.000000 0.000000 0.000000 0.000000 0.025248
#
#
# Mechanical properties :
#
#
# Convention : Reuss Voigt Hill
#
# Bulk Modulus (GPa) = 36.17105 40.46031 38.31568
# Shear Modulus (GPa) = 32.83122 35.29411 34.06267
#
# Velocity S-wave (km/s) = 3.59298 3.72531 3.65974
# Velocity P-wave (km/s) = 5.60672 5.86627 5.73797
#
# Compressibility (1/GPa) = 0.02764642
#
# Stress axis : x y z
#
# Youngs Moduli (GPa) = 103.17376 66.46562 64.95560
#
# Poissons Ratio (x) = 0.02470 0.29740
# Poissons Ratio (y) = 0.03834 0.08400
# Poissons Ratio (z) = 0.47238 0.08595
#
# Static dielectric constant tensor:
#      x y z
#    x 4.709330 0.000000 0.000000 
#    y 0.000000 4.230870 0.000000 
#    z 0.000000 0.000000 4.636200 
# 
# 
# High freq. dielectric constant tensor:
#      x y z
#    x 2.024370 0.000000 0.000000 
#    y 0.000000 2.012960 0.000000 
#    z 0.000000 0.000000 2.011690 
# 
# From -- ./inp_files/2531.got.cif
#   From: 2010.03.12/outbox.cif.g09.slc.cpg/sg29_2_cif.got.tgz:2531.got - 2010.04.14 03:43:10.
