data_PCOD8168775
_publ_section_title
;
Structure prediction by ZEFSAII (Michael W. Deem and Ramdas Pophale) SiO2 
 PCOD8168775
Probable space group: P C A 21
;
_chemical_formula_sum "Si O2"
_cell_formula_units_Z 32
_cell_length_a 9.037411
_cell_length_b 19.950095
_cell_length_c 8.693204
_cell_angle_alpha 90.000000
_cell_angle_beta 90.000000
_cell_angle_gamma 90.000000
_cell_volume 1567.360410
_symmetry_space_group_name_H-M "P C A 21"
_symmetry_group_IT_number 29
_symmetry_cell_setting 'orthorhombic'
loop_
_space_group_symop_operation_xyz
x,y,z
-x,-y,1/2+z
1/2-x,y,1/2+z
1/2+x,-y,z
loop_
_atom_site_type_symbol
_atom_site_label
_atom_site_fract_x
_atom_site_fract_y
_atom_site_fract_z
Si Si1 0.374232 0.300350 0.080790
Si Si2 0.376323 0.062418 0.908115
Si Si3 0.349682 0.452787 0.105823
Si Si4 0.870616 0.184210 0.075041
Si Si5 0.063859 0.294454 0.928227
Si Si6 0.438652 0.053874 0.554545
Si Si7 0.937252 0.192158 0.426877
Si Si8 0.054316 0.447101 0.946146
O O1 0.408900 0.379063 0.060987
O O2 0.390795 0.275921 0.255207
O O3 0.206646 0.283121 0.034534
O O4 0.492223 0.262848 0.974311
O O5 0.390520 0.044464 0.729827
O O6 0.437153 0.136059 0.944861
O O7 0.204019 0.060112 0.947358
O O8 0.467091 0.010476 0.009805
O O9 0.380224 0.470342 0.282572
O O10 0.174405 0.455910 0.080793
O O11 0.417578 0.506712 0.989917
O O12 0.879395 0.198935 0.254697
O O13 0.961858 0.118940 0.027568
O O14 0.699470 0.172714 0.035522
O O15 0.931215 0.247409 0.981207
O O16 0.002815 0.370105 0.937990
#
# Coordination Sequence:
#
# PCOD8168775 Si02
#       8
#     4   4   4   4   4   4   4   4
#     4  10  21  38  60  85 114 150 192 237 287 343
#     4  11  24  41  63  90 120 155 194 237 286 340
#     4  10  21  37  58  84 114 150 191 236 287 343
#     4  11  24  40  60  87 118 153 193 238 287 340
#     4  10  21  38  60  85 114 150 192 237 287 343
#     4  11  24  41  63  90 120 155 194 237 286 340
#     4  11  24  40  60  87 118 153 193 238 287 340
#     4  10  21  37  58  84 114 150 191 236 287 343
#
# _framework density 20.41649
#
# number of rings (size 3 to 8) (size 9 to 14) (size 15 to 20)
#    0.000    1.500    0.000    4.500    0.000   12.000 
#    0.000    0.000    0.000    0.000    0.000    0.000 
#    0.000    0.000    0.000    0.000    0.000    0.000 
#
# Total GULP energy -397022.182115 kJ/mol
# GULP energy per Si atom -12406.943191 kJ/mol
# Density = 2.037002 g / cm^3
# Si number density = 20.416490 Si / 1000 Ang^3
#
#
#
# Elastic Constant Matrix: (Units=GPa)
#
#
# Indices 1 2 3 4 5 6 
#
# 1 66.7489 23.6467 0.1564 0.0000 0.0000 0.0000
# 2 23.6467 77.8256 35.6439 0.0000 0.0000 0.0000
# 3 0.1564 35.6439 57.3099 0.0000 0.0000 0.0000
# 4 0.0000 0.0000 0.0000 33.2485 0.0000 0.0000
# 5 0.0000 0.0000 0.0000 0.0000 39.5468 0.0000
# 6 0.0000 0.0000 0.0000 0.0000 0.0000 19.1402
#
#
#
# Elastic Compliance Matrix: (Units=1/GPa)
#
#
# Indices 1 2 3 4 5 6 
#
# 1 0.017611 -0.007451 0.004586 0.000000 0.000000 0.000000
# 2 -0.007451 0.021120 -0.013115 0.000000 0.000000 0.000000
# 3 0.004586 -0.013115 0.025593 0.000000 0.000000 0.000000
# 4 0.000000 0.000000 0.000000 0.030077 0.000000 0.000000
# 5 0.000000 0.000000 0.000000 0.000000 0.025286 0.000000
# 6 0.000000 0.000000 0.000000 0.000000 0.000000 0.052246
#
#
# Mechanical properties :
#
#
# Convention : Reuss Voigt Hill
#
# Bulk Modulus (GPa) = 30.89908 35.64206 33.27057
# Shear Modulus (GPa) = 23.29031 27.88293 25.58662
#
# Velocity S-wave (km/s) = 3.38118 3.69956 3.54394
# Velocity P-wave (km/s) = 5.51456 5.97866 5.75129
#
# Compressibility (1/GPa) = 0.03236343
#
# Stress axis : x y z
#
# Youngs Moduli (GPa) = 56.78429 47.34844 39.07242
#
# Poissons Ratio (x) = 0.35281 -0.17920
# Poissons Ratio (y) = 0.42312 0.51245
# Poissons Ratio (z) = -0.26043 0.62099
#
# Static dielectric constant tensor:
#      x y z
#    x 3.631570 0.000000 0.000000 
#    y 0.000000 3.765660 0.000000 
#    z 0.000000 0.000000 3.791600 
# 
# 
# High freq. dielectric constant tensor:
#      x y z
#    x 1.797390 0.000000 0.000000 
#    y 0.000000 1.805700 0.000000 
#    z 0.000000 0.000000 1.813320 
# 
# From -- ./inp_files/1250.got.cif
#   From: 2010.03.12/outbox.cif.g09.slc.cpg/sg29_1_cif.got.tgz:1250.got - 2010.04.14 03:43:10.
