data_PCOD8168445
_publ_section_title
;
Structure prediction by ZEFSAII (Michael W. Deem and Ramdas Pophale) SiO2 
 PCOD8168445
Probable space group: P M A 2
;
_chemical_formula_sum "Si O2"
_cell_formula_units_Z 24
_cell_length_a 8.625893
_cell_length_b 9.526905
_cell_length_c 14.934761
_cell_angle_alpha 90.000000
_cell_angle_beta 90.000000
_cell_angle_gamma 90.000000
_cell_volume 1227.309733
_symmetry_space_group_name_H-M "P M A 2"
_symmetry_group_IT_number 28
_symmetry_cell_setting 'orthorhombic'
loop_
_space_group_symop_operation_xyz
x,y,z
-x,-y,z
1/2-x,y,z
1/2+x,-y,z
loop_
_atom_site_type_symbol
_atom_site_label
_atom_site_fract_x
_atom_site_fract_y
_atom_site_fract_z
Si Si1 0.568007 0.847012 0.246820
Si Si2 0.066482 0.154839 0.741135
Si Si3 0.430173 0.647211 0.388942
Si Si4 0.433837 0.651817 0.894000
Si Si5 0.566671 0.649353 0.084551
Si Si6 0.931653 0.351651 0.596990
O O1 0.750000 0.857154 0.255874
O O2 0.504611 0.775513 0.336233
O O3 0.517692 0.760120 0.159637
O O4 0.500000 0.000000 0.236356
O O5 0.250000 0.151407 0.750805
O O6 0.993179 0.234490 0.824635
O O7 0.018884 0.228843 0.648865
O O8 0.000000 0.000000 0.739493
O O9 0.500000 0.500000 0.355661
O O10 0.250000 0.642229 0.368487
O O11 0.466621 0.672595 0.492848
O O12 0.500000 0.500000 0.867708
O O13 0.250000 0.644432 0.891963
O O14 0.490849 0.698911 0.991810
O O15 0.500000 0.500000 0.115091
O O16 0.750000 0.637368 0.071818
O O17 0.750000 0.348343 0.619130
O O18 0.000000 0.500000 0.629305
#
# Coordination Sequence:
#
# PCOD8168445 Si02
#       6
#     4   4   4   4   4   4
#     4  11  24  39  58  84 118 156 195 238 289 345
#     4  12  25  41  60  85 118 155 193 237 288 346
#     4  10  21  38  62  88 117 151 193 240 287 340
#     4  11  22  39  63  89 117 152 193 239 286 339
#     4  10  21  38  60  87 115 149 193 241 289 341
#     4  10  21  39  62  89 117 151 193 239 287 339
#
# _framework density 19.554966
#
# number of rings (size 3 to 8) (size 9 to 14) (size 15 to 20)
#    0.000    1.333    0.000    7.000    0.000    7.333 
#    0.000    1.667    0.000    0.000    0.000    0.000 
#    0.000    0.000    0.000    0.000    0.000    0.000 
#
# Total GULP energy -297750.937802 kJ/mol
# GULP energy per Si atom -12406.289075 kJ/mol
# Density = 1.951046 g / cm^3
# Si number density = 19.554966 Si / 1000 Ang^3
#
#
#
# Elastic Constant Matrix: (Units=GPa)
#
#
# Indices 1 2 3 4 5 6 
#
# 1 119.4261 58.7269 60.1953 0.0000 0.0000 0.0000
# 2 58.7269 157.8881 86.0189 0.0000 0.0000 0.0000
# 3 60.1953 86.0189 110.0667 0.0000 0.0000 0.0000
# 4 0.0000 0.0000 0.0000 30.4866 0.0000 0.0000
# 5 0.0000 0.0000 0.0000 0.0000 44.5835 0.0000
# 6 0.0000 0.0000 0.0000 0.0000 0.0000 39.7008
#
#
#
# Elastic Compliance Matrix: (Units=1/GPa)
#
#
# Indices 1 2 3 4 5 6 
#
# 1 0.011765 -0.001516 -0.005249 0.000000 0.000000 0.000000
# 2 -0.001516 0.011225 -0.007944 0.000000 0.000000 0.000000
# 3 -0.005249 -0.007944 0.018164 0.000000 0.000000 0.000000
# 4 0.000000 0.000000 0.000000 0.032801 0.000000 0.000000
# 5 0.000000 0.000000 0.000000 0.000000 0.022430 0.000000
# 6 0.000000 0.000000 0.000000 0.000000 0.000000 0.025188
#
#
# Mechanical properties :
#
#
# Convention : Reuss Voigt Hill
#
# Bulk Modulus (GPa) = 85.20515 88.58481 86.89498
# Shear Modulus (GPa) = 32.27810 35.11682 33.69746
#
# Velocity S-wave (km/s) = 4.06721 4.24229 4.15567
# Velocity P-wave (km/s) = 8.10697 8.33035 8.21942
#
# Compressibility (1/GPa) = 0.01173638
#
# Stress axis : x y z
#
# Youngs Moduli (GPa) = 84.99984 89.08491 55.05314
#
# Poissons Ratio (x) = 0.13506 0.28899
# Poissons Ratio (y) = 0.12886 0.43732
# Poissons Ratio (z) = 0.44619 0.70765
#
# Static dielectric constant tensor:
#      x y z
#    x 3.771180 0.000000 0.000000 
#    y 0.000000 3.190990 0.000000 
#    z 0.000000 0.000000 3.700770 
# 
# 
# High freq. dielectric constant tensor:
#      x y z
#    x 1.783620 0.000000 0.000000 
#    y 0.000000 1.762460 0.000000 
#    z 0.000000 0.000000 1.775470 
# 
# From -- ./inp_files/6012.got.cif
#   From: 2010.03.12/outbox.cif.g09.slc.cpg/sg28_4_cif.got.tgz:6012.got - 2010.04.14 03:39:34.
