data_PCOD8168852
_publ_section_title
;
Structure prediction by ZEFSAII (Michael W. Deem and Ramdas Pophale) SiO2 
 PCOD8168852
Probable space group: P C A 21
;
_chemical_formula_sum "Si O2"
_cell_formula_units_Z 32
_cell_length_a 11.679524
_cell_length_b 8.753832
_cell_length_c 14.057098
_cell_angle_alpha 90.000000
_cell_angle_beta 90.000000
_cell_angle_gamma 90.000000
_cell_volume 1437.206006
_symmetry_space_group_name_H-M "P C A 21"
_symmetry_group_IT_number 29
_symmetry_cell_setting 'orthorhombic'
loop_
_space_group_symop_operation_xyz
x,y,z
-x,-y,1/2+z
1/2-x,y,1/2+z
1/2+x,-y,z
loop_
_atom_site_type_symbol
_atom_site_label
_atom_site_fract_x
_atom_site_fract_y
_atom_site_fract_z
Si Si1 0.159544 0.644010 0.150750
Si Si2 0.804619 0.257681 0.857799
Si Si3 0.587125 0.164830 0.784765
Si Si4 0.378171 0.607747 0.038331
Si Si5 0.074314 0.268051 0.581071
Si Si6 0.082208 0.302521 0.143930
Si Si7 0.774613 0.882474 0.222809
Si Si8 0.125575 0.075191 0.396054
O O1 0.142578 0.719448 0.253735
O O2 0.281653 0.688293 0.104632
O O3 0.148278 0.460722 0.161044
O O4 0.062881 0.720122 0.083888
O O5 0.666486 0.268125 0.852607
O O6 0.839735 0.099521 0.908422
O O7 0.846821 0.389683 0.927478
O O8 0.517140 0.283473 0.721926
O O9 0.499276 0.067893 0.847738
O O10 0.678032 0.056207 0.726233
O O11 0.373212 0.431893 0.064149
O O12 0.504571 0.685762 0.048567
O O13 0.118383 0.216378 0.685895
O O14 0.118794 0.154501 0.498734
O O15 0.170265 0.157605 0.146975
O O16 0.720125 0.840820 0.326728
#
# Coordination Sequence:
#
# PCOD8168852 Si02
#       8
#     4   4   4   4   4   4   4   4
#     4  11  23  45  68  99 139 185 231 290 358 413
#     4  11  24  42  67 101 135 180 232 284 350 417
#     4  10  21  43  68  94 134 182 225 291 339 403
#     4  11  24  42  65 103 136 180 234 282 356 426
#     4  11  24  43  68  99 139 182 232 290 348 418
#     4  10  22  43  66  95 138 179 231 287 346 414
#     4  10  22  43  68  96 135 183 229 282 354 413
#     4  10  24  43  66 101 136 181 236 280 347 414
#
# _framework density 22.265421
#
# number of rings (size 3 to 8) (size 9 to 14) (size 15 to 20)
#    0.000    1.500    2.500    1.500    5.250    0.000 
#    6.750    0.000    0.000    0.000    0.000    0.000 
#    0.000    0.000    0.000    0.000    0.000    0.000 
#
# Total GULP energy -396437.477957 kJ/mol
# GULP energy per Si atom -12388.671186 kJ/mol
# Density = 2.221474 g / cm^3
# Si number density = 22.265421 Si / 1000 Ang^3
#
#
#
# Elastic Constant Matrix: (Units=GPa)
#
#
# Indices 1 2 3 4 5 6 
#
# 1 106.2618 24.7435 19.1013 0.0000 0.0000 0.0000
# 2 24.7435 30.7086 25.5389 0.0000 0.0000 0.0000
# 3 19.1013 25.5389 88.6944 0.0000 0.0000 0.0000
# 4 0.0000 0.0000 0.0000 36.2313 0.0000 0.0000
# 5 0.0000 0.0000 0.0000 0.0000 26.1764 0.0000
# 6 0.0000 0.0000 0.0000 0.0000 0.0000 35.3582
#
#
#
# Elastic Compliance Matrix: (Units=1/GPa)
#
#
# Indices 1 2 3 4 5 6 
#
# 1 0.011589 -0.009549 0.000254 0.000000 0.000000 0.000000
# 2 -0.009549 0.050685 -0.012538 0.000000 0.000000 0.000000
# 3 0.000254 -0.012538 0.014830 0.000000 0.000000 0.000000
# 4 0.000000 0.000000 0.000000 0.027600 0.000000 0.000000
# 5 0.000000 0.000000 0.000000 0.000000 0.038202 0.000000
# 6 0.000000 0.000000 0.000000 0.000000 0.000000 0.028282
#
#
# Mechanical properties :
#
#
# Convention : Reuss Voigt Hill
#
# Bulk Modulus (GPa) = 29.90578 40.49248 35.19913
# Shear Modulus (GPa) = 22.12381 29.97192 26.04787
#
# Velocity S-wave (km/s) = 3.15563 3.67293 3.42406
# Velocity P-wave (km/s) = 5.17087 6.01772 5.61030
#
# Compressibility (1/GPa) = 0.03343835
#
# Stress axis : x y z
#
# Youngs Moduli (GPa) = 86.29227 19.72956 67.42958
#
# Poissons Ratio (x) = 0.18839 -0.01711
# Poissons Ratio (y) = 0.82396 0.84544
# Poissons Ratio (z) = -0.02189 0.24737
#
# Static dielectric constant tensor:
#      x y z
#    x 4.436430 0.000000 0.000000 
#    y 0.000000 3.853130 0.000000 
#    z 0.000000 0.000000 3.878750 
# 
# 
# High freq. dielectric constant tensor:
#      x y z
#    x 1.898730 0.000000 0.000000 
#    y 0.000000 1.862930 0.000000 
#    z 0.000000 0.000000 1.860210 
# 
# From -- ./inp_files/4532.got.cif
#   From: 2010.03.12/outbox.cif.g09.slc.cpg/sg29_3_cif.got.tgz:4532.got - 2010.04.14 03:43:10.
