data_PCOD8168524
_publ_section_title
;
Structure prediction by ZEFSAII (Michael W. Deem and Ramdas Pophale) SiO2 
 PCOD8168524
Probable space group: P C A 21
;
_chemical_formula_sum "Si O2"
_cell_formula_units_Z 28
_cell_length_a 14.262734
_cell_length_b 16.371303
_cell_length_c 5.295155
_cell_angle_alpha 90.000000
_cell_angle_beta 90.000000
_cell_angle_gamma 90.000000
_cell_volume 1236.416256
_symmetry_space_group_name_H-M "P C A 21"
_symmetry_group_IT_number 29
_symmetry_cell_setting 'orthorhombic'
loop_
_space_group_symop_operation_xyz
x,y,z
-x,-y,1/2+z
1/2-x,y,1/2+z
1/2+x,-y,z
loop_
_atom_site_type_symbol
_atom_site_label
_atom_site_fract_x
_atom_site_fract_y
_atom_site_fract_z
Si Si1 0.643736 0.162224 0.304520
Si Si2 0.558208 0.992977 0.251403
Si Si3 0.308069 0.337073 0.751775
Si Si4 0.847273 0.422524 0.293896
Si Si5 0.649406 0.231118 0.804779
Si Si6 0.137237 0.509694 0.294035
Si Si7 0.689494 0.842979 0.305339
O O1 0.633569 0.065002 0.287965
O O2 0.593797 0.197801 0.558813
O O3 0.752672 0.183351 0.326229
O O4 0.595051 0.207055 0.062910
O O5 0.479939 0.001765 0.466693
O O6 0.605665 0.905889 0.284359
O O7 0.271618 0.345325 0.465560
O O8 0.380463 0.411906 0.791842
O O9 0.355650 0.248211 0.787558
O O10 0.829708 0.326472 0.285242
O O11 0.906370 0.448416 0.542930
O O12 0.748489 0.469661 0.294396
O O13 0.906865 0.451057 0.048081
O O14 0.737869 0.855938 0.576680
#
# Coordination Sequence:
#
# PCOD8168524 Si02
#       7
#     4   4   4   4   4   4   4
#     4  10  20  33  54  73 109 143 185 230 288 334
#     4  12  26  43  61  86 118 153 199 246 300 360
#     4  10  16  29  44  75 107 147 182 222 275 339
#     4  10  16  23  41  68 114 144 172 212 284 342
#     4  10  19  32  50  83 110 144 188 234 279 349
#     4  10  14  22  38  64 106 153 160 206 275 338
#     4  10  23  38  64  87 116 152 196 248 293 348
#
# _framework density 22.646097000000001
#
# number of rings (size 3 to 8) (size 9 to 14) (size 15 to 20)
#    0.000    1.714    2.857    6.000    4.000    0.000 
#    0.000    0.000    0.000    0.000    0.000    0.000 
#    0.000   38.857    0.000    0.000    0.000    0.000 
#
# Total GULP energy -346992.843292 kJ/mol
# GULP energy per Si atom -12392.601546 kJ/mol
# Density = 2.259455 g / cm^3
# Si number density = 22.646097 Si / 1000 Ang^3
#
#
#
# Elastic Constant Matrix: (Units=GPa)
#
#
# Indices 1 2 3 4 5 6 
#
# 1 12.0115 24.6646 -3.1895 0.0000 0.0000 0.0000
# 2 24.6646 179.7387 33.3488 0.0000 0.0000 0.0000
# 3 -3.1895 33.3488 195.3390 0.0000 0.0000 0.0000
# 4 0.0000 0.0000 0.0000 -28.9735 0.0000 0.0000
# 5 0.0000 0.0000 0.0000 0.0000 13.3573 0.0000
# 6 0.0000 0.0000 0.0000 0.0000 0.0000 1.4775
#
#
#
# Elastic Compliance Matrix: (Units=1/GPa)
#
#
# Indices 1 2 3 4 5 6 
#
# 1 0.120365 -0.017434 0.004942 0.000000 0.000000 0.000000
# 2 -0.017434 0.008271 -0.001697 0.000000 0.000000 0.000000
# 3 0.004942 -0.001697 0.005490 0.000000 0.000000 0.000000
# 4 0.000000 0.000000 0.000000 -0.034514 0.000000 0.000000
# 5 0.000000 0.000000 0.000000 0.000000 0.074865 0.000000
# 6 0.000000 0.000000 0.000000 0.000000 0.000000 0.676825
#
#
# Mechanical properties :
#
#
# Convention : Reuss Voigt Hill
#
# Bulk Modulus (GPa) = 9.45646 55.19297 32.32471
# Shear Modulus (GPa) = 5.46491 19.32329 12.39410
#
# Velocity S-wave (km/s) = 1.55513 2.92425 2.34197
# Velocity P-wave (km/s) = 2.72202 5.98553 4.64951
#
# Compressibility (1/GPa) = 0.10574787
#
# Stress axis : x y z
#
# Youngs Moduli (GPa) = 8.30805 120.90732 182.16079
#
# Poissons Ratio (x) = 2.10789 -0.90019
# Poissons Ratio (y) = 0.14484 0.30907
# Poissons Ratio (z) = -0.04106 0.20514
#
# Static dielectric constant tensor:
#      x y z
#    x 3.128890 0.000000 0.000000 
#    y 0.000000 4.388420 0.000000 
#    z 0.000000 0.000000 7.127740 
# 
# 
# High freq. dielectric constant tensor:
#      x y z
#    x 1.803690 0.000000 0.000000 
#    y 0.000000 1.913420 0.000000 
#    z 0.000000 0.000000 1.940480 
# 
# From -- ./inp_files/227.got.cif
#   From: 2010.03.12/outbox.cif.g09.slc.cpg/sg29_1_cif.got.tgz:227.got - 2010.04.14 03:43:10.
