data_PCOD8168756
_publ_section_title
;
Structure prediction by ZEFSAII (Michael W. Deem and Ramdas Pophale) SiO2 
 PCOD8168756
Probable space group: P C A 21
;
_chemical_formula_sum "Si O2"
_cell_formula_units_Z 20
_cell_length_a 8.847879
_cell_length_b 5.043648
_cell_length_c 15.892042
_cell_angle_alpha 90.000000
_cell_angle_beta 90.000000
_cell_angle_gamma 90.000000
_cell_volume 709.191706
_symmetry_space_group_name_H-M "P C A 21"
_symmetry_group_IT_number 29
_symmetry_cell_setting 'orthorhombic'
loop_
_space_group_symop_operation_xyz
x,y,z
-x,-y,1/2+z
1/2-x,y,1/2+z
1/2+x,-y,z
loop_
_atom_site_type_symbol
_atom_site_label
_atom_site_fract_x
_atom_site_fract_y
_atom_site_fract_z
Si Si1 0.485411 0.218331 0.649630
Si Si2 0.353665 0.531103 0.507968
Si Si3 0.155059 0.034953 0.507969
Si Si4 0.250000 0.919620 0.257969
Si Si5 0.014589 0.218334 0.866307
O O1 0.450857 0.479612 0.593499
O O2 0.548679 0.990001 0.588813
O O3 0.620374 0.271742 0.717455
O O4 0.331106 0.110606 0.690431
O O5 0.293986 0.829200 0.507969
O O6 0.450856 0.479618 0.422436
O O7 0.213279 0.332622 0.507967
O O8 0.048677 0.009992 0.427125
O O9 0.120374 0.728258 0.298482
O O10 0.331107 0.110606 0.325506
#
# Coordination Sequence:
#
# PCOD8168756 Si02
#       5
#     4   4   4   4   4
#     4  10  22  42  75 103 150 185 251 287 375 421
#     4  11  24  46  73 103 140 190 244 297 349 430
#     4  11  24  46  73 103 140 190 244 297 349 430
#     4  10  20  44  74 110 150 196 230 314 362 444
#     4  10  22  42  75 103 150 185 251 287 375 421
#
# _framework density 28.201121000000001
#
# number of rings (size 3 to 8) (size 9 to 14) (size 15 to 20)
#    0.000    1.600    4.000    0.000    0.000    6.400 
#    0.000    6.000    0.000    0.000    0.000    0.000 
#    0.000    0.000    0.000    0.000    0.000    0.000 
#
# Total GULP energy -247899.561333 kJ/mol
# GULP energy per Si atom -12394.978067 kJ/mol
# Density = 2.813693 g / cm^3
# Si number density = 28.201121 Si / 1000 Ang^3
#
#
#
# Elastic Constant Matrix: (Units=GPa)
#
#
# Indices 1 2 3 4 5 6 
#
# 1 188.8379 54.7909 70.7894 0.0000 0.0000 0.0000
# 2 54.7909 59.6915 9.7776 0.0000 0.0000 0.0000
# 3 70.7894 9.7776 144.5948 0.0000 0.0000 0.0000
# 4 0.0000 0.0000 0.0000 -23.3289 0.0000 0.0000
# 5 0.0000 0.0000 0.0000 0.0000 95.9126 0.0000
# 6 0.0000 0.0000 0.0000 0.0000 0.0000 59.5716
#
#
#
# Elastic Compliance Matrix: (Units=1/GPa)
#
#
# Indices 1 2 3 4 5 6 
#
# 1 0.008943 -0.007575 -0.003866 0.000000 0.000000 0.000000
# 2 -0.007575 0.023357 0.002129 0.000000 0.000000 0.000000
# 3 -0.003866 0.002129 0.008664 0.000000 0.000000 0.000000
# 4 0.000000 0.000000 0.000000 -0.042865 0.000000 0.000000
# 5 0.000000 0.000000 0.000000 0.000000 0.010426 0.000000
# 6 0.000000 0.000000 0.000000 0.000000 0.000000 0.016787
#
#
# Mechanical properties :
#
#
# Convention : Reuss Voigt Hill
#
# Bulk Modulus (GPa) = 44.76130 73.76003 59.26066
# Shear Modulus (GPa) = 97.30926 43.61548 70.46237
#
# Velocity S-wave (km/s) = 5.88051 3.93693 5.00399
# Velocity P-wave (km/s) = 7.87488 6.84673 7.37874
#
# Compressibility (1/GPa) = 0.02234073
#
# Stress axis : x y z
#
# Youngs Moduli (GPa) = 111.82349 42.81304 115.41354
#
# Poissons Ratio (x) = 0.32432 0.44617
# Poissons Ratio (y) = 0.84709 -0.24574
# Poissons Ratio (z) = 0.43229 -0.09116
#
# Static dielectric constant tensor:
#      x y z
#    x 5.700930 0.000000 0.000000 
#    y 0.000000 4.276770 0.000000 
#    z 0.000000 0.000000 5.834080 
# 
# 
# High freq. dielectric constant tensor:
#      x y z
#    x 2.181630 0.000000 0.000000 
#    y 0.000000 2.096690 0.000000 
#    z 0.000000 0.000000 2.159580 
# 
# From -- ./inp_files/4927.got.cif
#   From: 2010.03.12/outbox.cif.g09.slc.cpg/sg29_3_cif.got.tgz:4927.got - 2010.04.14 03:43:10.
