data_PCOD8168853
_publ_section_title
;
Structure prediction by ZEFSAII (Michael W. Deem and Ramdas Pophale) SiO2 
 PCOD8168853
Probable space group: P C A 21
;
_chemical_formula_sum "Si O2"
_cell_formula_units_Z 24
_cell_length_a 8.102943
_cell_length_b 11.108385
_cell_length_c 12.052791
_cell_angle_alpha 90.000000
_cell_angle_beta 90.000000
_cell_angle_gamma 90.000000
_cell_volume 1084.879076
_symmetry_space_group_name_H-M "P C A 21"
_symmetry_group_IT_number 29
_symmetry_cell_setting 'orthorhombic'
loop_
_space_group_symop_operation_xyz
x,y,z
-x,-y,1/2+z
1/2-x,y,1/2+z
1/2+x,-y,z
loop_
_atom_site_type_symbol
_atom_site_label
_atom_site_fract_x
_atom_site_fract_y
_atom_site_fract_z
Si Si1 0.529768 0.717680 0.649950
Si Si2 0.924377 0.375259 0.415192
Si Si3 0.282653 0.827730 0.800403
Si Si4 0.968680 0.011085 0.388398
Si Si5 0.217448 0.374445 0.857406
Si Si6 0.741048 0.848129 0.498694
O O1 0.493940 0.642321 0.539511
O O2 0.351096 0.772266 0.685814
O O3 0.610944 0.635849 0.744917
O O4 0.671055 0.818670 0.621383
O O5 0.790173 0.275635 0.379639
O O6 0.831856 0.501655 0.415413
O O7 0.084743 0.375424 0.333868
O O8 0.444650 0.889181 0.851677
O O9 0.146776 0.934697 0.789113
O O10 0.857106 0.966470 0.494367
O O11 0.079637 0.122352 0.424584
O O12 0.170760 0.266322 0.941467
#
# Coordination Sequence:
#
# PCOD8168853 Si02
#       6
#     4   4   4   4   4   4
#     4  11  24  45  72 105 129 191 232 270 374 408
#     4  11  26  47  69 103 142 173 238 297 342 415
#     4  11  22  43  68 102 141 182 228 287 340 407
#     4  10  21  43  68  95 151 177 221 297 329 398
#     4  11  23  45  69  99 140 176 230 295 338 415
#     4  10  22  43  64 102 139 177 229 286 333 413
#
# _framework density 22.122281999999998
#
# number of rings (size 3 to 8) (size 9 to 14) (size 15 to 20)
#    0.000    1.333    5.000    1.000    0.000    6.667 
#    3.000    0.000    0.000    0.000    0.000    0.000 
#    0.000    0.000    0.000    0.000    0.000    0.000 
#
# Total GULP energy -297355.271944 kJ/mol
# GULP energy per Si atom -12389.802998 kJ/mol
# Density = 2.207193 g / cm^3
# Si number density = 22.122282 Si / 1000 Ang^3
#
#
#
# Elastic Constant Matrix: (Units=GPa)
#
#
# Indices 1 2 3 4 5 6 
#
# 1 113.2924 60.7126 42.6657 0.0000 0.0000 0.0000
# 2 60.7126 131.2962 38.8561 0.0000 0.0000 0.0000
# 3 42.6657 38.8561 89.7369 0.0000 0.0000 0.0000
# 4 0.0000 0.0000 0.0000 26.7332 0.0000 0.0000
# 5 0.0000 0.0000 0.0000 0.0000 25.1285 0.0000
# 6 0.0000 0.0000 0.0000 0.0000 0.0000 43.4046
#
#
#
# Elastic Compliance Matrix: (Units=1/GPa)
#
#
# Indices 1 2 3 4 5 6 
#
# 1 0.012916 -0.004766 -0.004077 0.000000 0.000000 0.000000
# 2 -0.004766 0.010494 -0.002278 0.000000 0.000000 0.000000
# 3 -0.004077 -0.002278 0.014069 0.000000 0.000000 0.000000
# 4 0.000000 0.000000 0.000000 0.037407 0.000000 0.000000
# 5 0.000000 0.000000 0.000000 0.000000 0.039795 0.000000
# 6 0.000000 0.000000 0.000000 0.000000 0.000000 0.023039
#
#
# Mechanical properties :
#
#
# Convention : Reuss Voigt Hill
#
# Bulk Modulus (GPa) = 65.63201 68.75494 67.19347
# Shear Modulus (GPa) = 30.29524 31.85931 31.07727
#
# Velocity S-wave (km/s) = 3.70462 3.79904 3.75213
# Velocity P-wave (km/s) = 6.93045 7.09863 7.01505
#
# Compressibility (1/GPa) = 0.01523647
#
# Stress axis : x y z
#
# Youngs Moduli (GPa) = 77.42152 95.28925 71.07956
#
# Poissons Ratio (x) = 0.45414 0.28982
# Poissons Ratio (y) = 0.36899 0.16193
# Poissons Ratio (z) = 0.31568 0.21708
#
# Static dielectric constant tensor:
#      x y z
#    x 4.304120 0.000000 0.000000 
#    y 0.000000 4.069460 0.000000 
#    z 0.000000 0.000000 3.631550 
# 
# 
# High freq. dielectric constant tensor:
#      x y z
#    x 1.889910 0.000000 0.000000 
#    y 0.000000 1.887330 0.000000 
#    z 0.000000 0.000000 1.826060 
# 
# From -- ./inp_files/2820.got.cif
#   From: 2010.03.12/outbox.cif.g09.slc.cpg/sg29_2_cif.got.tgz:2820.got - 2010.04.14 03:43:10.
