data_PCOD8168710
_publ_section_title
;
Structure prediction by ZEFSAII (Michael W. Deem and Ramdas Pophale) SiO2 
 PCOD8168710
Probable space group: P C A 21
;
_chemical_formula_sum "Si O2"
_cell_formula_units_Z 32
_cell_length_a 8.837263
_cell_length_b 9.730533
_cell_length_c 17.641793
_cell_angle_alpha 90.000000
_cell_angle_beta 90.000000
_cell_angle_gamma 90.000000
_cell_volume 1517.040348
_symmetry_space_group_name_H-M "P C A 21"
_symmetry_group_IT_number 29
_symmetry_cell_setting 'orthorhombic'
loop_
_space_group_symop_operation_xyz
x,y,z
-x,-y,1/2+z
1/2-x,y,1/2+z
1/2+x,-y,z
loop_
_atom_site_type_symbol
_atom_site_label
_atom_site_fract_x
_atom_site_fract_y
_atom_site_fract_z
Si Si1 0.953936 0.857971 0.145320
Si Si2 0.343957 0.330994 0.911984
Si Si3 0.446591 0.653321 0.056234
Si Si4 0.291624 0.384224 0.083324
Si Si5 0.739290 0.075953 0.564360
Si Si6 0.244203 0.039162 0.895499
Si Si7 0.543910 0.146990 0.314725
Si Si8 0.514594 0.584333 0.886095
O O1 0.884508 0.704497 0.144594
O O2 0.097755 0.870449 0.090469
O O3 0.000084 0.894702 0.230377
O O4 0.818162 0.956359 0.119157
O O5 0.355111 0.172143 0.887173
O O6 0.475370 0.423134 0.873145
O O7 0.193484 0.405138 0.882655
O O8 0.351877 0.331971 0.002483
O O9 0.332888 0.544121 0.095176
O O10 0.612513 0.637885 0.092720
O O11 0.384688 0.804592 0.071014
O O12 0.448329 0.629157 0.966882
O O13 0.757406 0.020016 0.479734
O O14 0.076073 0.089029 0.875825
O O15 0.297251 0.924164 0.835839
O O16 0.557928 0.312347 0.323886
#
# Coordination Sequence:
#
# PCOD8168710 Si02
#       8
#     4   4   4   4   4   4   4   4
#     4  12  25  40  62  92 136 170 210 266 333 379
#     4   9  19  35  61  89 115 155 206 260 301 358
#     4  10  20  38  66  95 122 162 217 266 309 374
#     4  10  20  38  61  95 128 159 208 267 319 380
#     4  12  23  40  65  94 121 174 222 268 309 387
#     4  11  22  40  64  90 122 165 222 259 313 376
#     4  11  24  42  59  93 132 168 203 266 325 383
#     4   9  19  37  60  88 120 153 202 256 307 369
#
# _framework density 21.093703999999999
#
# number of rings (size 3 to 8) (size 9 to 14) (size 15 to 20)
#    0.000    1.500    2.500    3.000    1.750    2.000 
#    0.000    6.250    0.000    0.000    0.000    0.000 
#    0.000    0.000    0.000    0.000    0.000    0.000 
#
# Total GULP energy -396854.856318 kJ/mol
# GULP energy per Si atom -12401.714260 kJ/mol
# Density = 2.104569 g / cm^3
# Si number density = 21.093704 Si / 1000 Ang^3
#
#
#
# Elastic Constant Matrix: (Units=GPa)
#
#
# Indices 1 2 3 4 5 6 
#
# 1 83.6586 34.3894 21.7970 0.0000 0.0000 0.0000
# 2 34.3894 94.4469 37.9372 0.0000 0.0000 0.0000
# 3 21.7970 37.9372 63.2970 0.0000 0.0000 0.0000
# 4 0.0000 0.0000 0.0000 21.0655 0.0000 0.0000
# 5 0.0000 0.0000 0.0000 0.0000 17.5821 0.0000
# 6 0.0000 0.0000 0.0000 0.0000 0.0000 41.9348
#
#
#
# Elastic Compliance Matrix: (Units=1/GPa)
#
#
# Indices 1 2 3 4 5 6 
#
# 1 0.014324 -0.004260 -0.002380 0.000000 0.000000 0.000000
# 2 -0.004260 0.015212 -0.007650 0.000000 0.000000 0.000000
# 3 -0.002380 -0.007650 0.021203 0.000000 0.000000 0.000000
# 4 0.000000 0.000000 0.000000 0.047471 0.000000 0.000000
# 5 0.000000 0.000000 0.000000 0.000000 0.056876 0.000000
# 6 0.000000 0.000000 0.000000 0.000000 0.000000 0.023847
#
#
# Mechanical properties :
#
#
# Convention : Reuss Voigt Hill
#
# Bulk Modulus (GPa) = 45.12651 47.73885 46.43268
# Shear Modulus (GPa) = 23.26665 25.93507 24.60086
#
# Velocity S-wave (km/s) = 3.32477 3.51025 3.41877
# Velocity P-wave (km/s) = 6.01486 6.25381 6.13550
#
# Compressibility (1/GPa) = 0.02215993
#
# Stress axis : x y z
#
# Youngs Moduli (GPa) = 69.81076 65.73735 47.16250
#
# Poissons Ratio (x) = 0.28003 0.11223
# Poissons Ratio (y) = 0.29739 0.36081
# Poissons Ratio (z) = 0.16612 0.50292
#
# Static dielectric constant tensor:
#      x y z
#    x 3.778590 0.000000 0.000000 
#    y 0.000000 4.106610 0.000000 
#    z 0.000000 0.000000 3.455250 
# 
# 
# High freq. dielectric constant tensor:
#      x y z
#    x 1.826960 0.000000 0.000000 
#    y 0.000000 1.842180 0.000000 
#    z 0.000000 0.000000 1.791950 
# 
# From -- ./inp_files/5415.got.cif
#   From: 2010.03.12/outbox.cif.g09.slc.cpg/sg29_3_cif.got.tgz:5415.got - 2010.04.14 03:43:10.
