data_PCOD8168061
_publ_section_title
;
Structure prediction by ZEFSAII (Michael W. Deem and Ramdas Pophale) SiO2 
 PCOD8168061
Probable space group: P M A 2
;
_chemical_formula_sum "Si O2"
_cell_formula_units_Z 32
_cell_length_a 8.653306
_cell_length_b 14.542351
_cell_length_c 12.532721
_cell_angle_alpha 90.000000
_cell_angle_beta 90.000000
_cell_angle_gamma 90.000000
_cell_volume 1577.110256
_symmetry_space_group_name_H-M "P M A 2"
_symmetry_group_IT_number 28
_symmetry_cell_setting 'orthorhombic'
loop_
_space_group_symop_operation_xyz
x,y,z
-x,-y,z
1/2-x,y,z
1/2+x,-y,z
loop_
_atom_site_type_symbol
_atom_site_label
_atom_site_fract_x
_atom_site_fract_y
_atom_site_fract_z
Si Si1 0.568268 0.601985 0.424170
Si Si2 0.564971 0.717067 0.626978
Si Si3 0.422714 0.133780 0.913096
Si Si4 0.065067 0.406926 0.062739
Si Si5 0.431740 0.905601 0.690397
Si Si6 0.570181 0.283496 0.233971
Si Si7 0.931137 0.092657 0.140512
Si Si8 0.079516 0.339392 0.848898
O O1 0.500000 0.500000 0.414775
O O2 0.750000 0.590214 0.428830
O O3 0.506635 0.654921 0.529162
O O4 0.526540 0.666836 0.325630
O O5 0.750000 0.724427 0.632893
O O6 0.500839 0.820652 0.622021
O O7 0.494187 0.668553 0.734516
O O8 0.250000 0.092024 0.901954
O O9 0.525789 0.098061 0.815334
O O10 0.413644 0.242835 0.909438
O O11 0.493274 0.103944 0.024856
O O12 0.250000 0.399651 0.073773
O O13 0.000000 0.500000 0.115434
O O14 0.981674 0.323730 0.121164
O O15 0.006561 0.406062 0.938527
O O16 0.250000 0.904226 0.675846
O O17 0.500000 0.000000 0.641444
O O18 0.750000 0.301452 0.255519
O O19 0.531830 0.175088 0.223770
O O20 0.750000 0.084516 0.122804
O O21 0.000000 0.000000 0.193228
O O22 0.250000 0.376116 0.822900
#
# Coordination Sequence:
#
# PCOD8168061 Si02
#       8
#     4   4   4   4   4   4   4   4
#     4  11  24  43  69  93 118 153 200 252 304 362
#     4   9  20  40  62  88 119 155 200 249 302 356
#     4  10  18  33  55  81 118 162 204 245 289 349
#     4  11  21  35  56  85 118 156 195 237 298 361
#     4  11  21  34  55  86 123 164 206 248 294 351
#     4  11  24  42  62  86 119 154 200 254 298 354
#     4  11  23  37  57  86 119 156 199 246 297 358
#     4   8  16  32  55  81 115 155 191 234 290 349
#
# _framework density 20.290275000000001
#
# number of rings (size 3 to 8) (size 9 to 14) (size 15 to 20)
#    0.000    1.750    1.250    4.500    0.000    3.000 
#    0.000    1.250    0.000    1.500    0.000    0.000 
#    0.000    0.000    0.000    0.000    0.000    0.000 
#
# Total GULP energy -396613.216910 kJ/mol
# GULP energy per Si atom -12394.163028 kJ/mol
# Density = 2.024409 g / cm^3
# Si number density = 20.290275 Si / 1000 Ang^3
#
#
#
# Elastic Constant Matrix: (Units=GPa)
#
#
# Indices 1 2 3 4 5 6 
#
# 1 64.2396 37.6906 19.2907 0.0000 0.0000 0.0000
# 2 37.6906 125.2339 56.3645 0.0000 0.0000 0.0000
# 3 19.2907 56.3645 100.5269 0.0000 0.0000 0.0000
# 4 0.0000 0.0000 0.0000 30.0418 0.0000 0.0000
# 5 0.0000 0.0000 0.0000 0.0000 19.6430 0.0000
# 6 0.0000 0.0000 0.0000 0.0000 0.0000 29.1912
#
#
#
# Elastic Compliance Matrix: (Units=1/GPa)
#
#
# Indices 1 2 3 4 5 6 
#
# 1 0.018931 -0.005434 -0.000586 0.000000 0.000000 0.000000
# 2 -0.005434 0.012240 -0.005820 0.000000 0.000000 0.000000
# 3 -0.000586 -0.005820 0.013323 0.000000 0.000000 0.000000
# 4 0.000000 0.000000 0.000000 0.033287 0.000000 0.000000
# 5 0.000000 0.000000 0.000000 0.000000 0.050909 0.000000
# 6 0.000000 0.000000 0.000000 0.000000 0.000000 0.034257
#
#
# Mechanical properties :
#
#
# Convention : Reuss Voigt Hill
#
# Bulk Modulus (GPa) = 48.04409 57.41024 52.72716
# Shear Modulus (GPa) = 25.83122 27.55217 26.69170
#
# Velocity S-wave (km/s) = 3.57190 3.68897 3.63091
# Velocity P-wave (km/s) = 6.38287 6.81913 6.60461
#
# Compressibility (1/GPa) = 0.02081421
#
# Stress axis : x y z
#
# Youngs Moduli (GPa) = 52.82415 81.70044 75.05633
#
# Poissons Ratio (x) = 0.44393 0.04399
# Poissons Ratio (y) = 0.28703 0.43683
# Poissons Ratio (z) = 0.03096 0.47550
#
# Static dielectric constant tensor:
#      x y z
#    x 3.600770 0.000000 0.000000 
#    y 0.000000 3.899830 0.000000 
#    z 0.000000 0.000000 3.631490 
# 
# 
# High freq. dielectric constant tensor:
#      x y z
#    x 1.786640 0.000000 0.000000 
#    y 0.000000 1.804440 0.000000 
#    z 0.000000 0.000000 1.775900 
# 
# From -- ./inp_files/5077.got.cif
#   From: 2010.03.12/outbox.cif.g09.slc.cpg/sg28_3_cif.got.tgz:5077.got - 2010.04.14 03:39:34.
