data_PCOD8168297
_publ_section_title
;
Structure prediction by ZEFSAII (Michael W. Deem and Ramdas Pophale) SiO2 
 PCOD8168297
Probable space group: P M A 2
;
_chemical_formula_sum "Si O2"
_cell_formula_units_Z 32
_cell_length_a 11.073392
_cell_length_b 28.877500
_cell_length_c 5.049970
_cell_angle_alpha 90.000000
_cell_angle_beta 90.000000
_cell_angle_gamma 90.000000
_cell_volume 1614.838388
_symmetry_space_group_name_H-M "P M A 2"
_symmetry_group_IT_number 28
_symmetry_cell_setting 'orthorhombic'
loop_
_space_group_symop_operation_xyz
x,y,z
-x,-y,z
1/2-x,y,z
1/2+x,-y,z
loop_
_atom_site_type_symbol
_atom_site_label
_atom_site_fract_x
_atom_site_fract_y
_atom_site_fract_z
Si Si1 0.114331 0.724357 0.122390
Si Si2 0.121341 0.910184 0.032120
Si Si3 0.881484 0.857289 0.613627
Si Si4 0.113610 0.405069 0.621574
Si Si5 0.485794 0.945940 0.541209
Si Si6 0.610417 0.336523 0.624375
Si Si7 0.004579 0.179269 0.102829
Si Si8 0.113810 0.466524 0.121578
O O1 0.250000 0.742669 0.083932
O O2 0.095685 0.704711 0.415424
O O3 0.026143 0.767078 0.073992
O O4 0.086546 0.683616 0.915238
O O5 0.250000 0.919709 0.161290
O O6 0.028882 0.935238 0.230555
O O7 0.102545 0.854901 0.009782
O O8 0.122199 0.931412 0.737117
O O9 0.750000 0.850151 0.495912
O O10 0.970317 0.832118 0.408883
O O11 0.904867 0.912765 0.641788
O O12 0.887055 0.832653 0.900754
O O13 0.250000 0.382267 0.588827
O O14 0.102078 0.447386 0.417818
O O15 0.998193 0.372289 0.567247
O O16 0.101951 0.424228 0.917817
O O17 0.500000 0.000000 0.582815
O O18 0.750000 0.356957 0.605044
O O19 0.250000 0.489360 0.088674
O O20 0.000000 0.500000 0.067656
#
# Coordination Sequence:
#
# PCOD8168297 Si02
#       8
#     4   4   4   4   4   4   4   4
#     4  10  20  36  57  81 108 136 176 228 275 318
#     4  10  20  34  54  78 101 127 163 208 258 308
#     4  10  21  36  53  74 104 139 171 208 257 312
#     4  10  21  38  56  79 117 154 185 229 283 332
#     4  10  21  36  52  75 102 131 169 206 248 309
#     4  10  21  36  57  84 111 146 189 229 276 333
#     4  10  20  36  56  77 104 134 170 214 263 316
#     4  10  21  36  57  84 113 149 192 236 280 328
#
# _framework density 19.816223999999998
#
# number of rings (size 3 to 8) (size 9 to 14) (size 15 to 20)
#    0.000    2.000    0.000    3.375    0.000    2.000 
#    0.000    7.500    0.000    0.000    0.000    0.000 
#    0.000    0.000    0.000    0.000    0.000    0.000 
#
# Total GULP energy -396443.167880 kJ/mol
# GULP energy per Si atom -12388.848996 kJ/mol
# Density = 1.977112 g / cm^3
# Si number density = 19.816224 Si / 1000 Ang^3
#
#
#
# Elastic Constant Matrix: (Units=GPa)
#
#
# Indices 1 2 3 4 5 6 
#
# 1 127.9843 58.2062 12.9523 0.0000 0.0000 0.0000
# 2 58.2062 80.5598 10.1657 0.0000 0.0000 0.0000
# 3 12.9523 10.1657 85.5916 0.0000 0.0000 0.0000
# 4 0.0000 0.0000 0.0000 24.0034 0.0000 0.0000
# 5 0.0000 0.0000 0.0000 0.0000 -4.9414 0.0000
# 6 0.0000 0.0000 0.0000 0.0000 0.0000 3.1476
#
#
#
# Elastic Compliance Matrix: (Units=1/GPa)
#
#
# Indices 1 2 3 4 5 6 
#
# 1 0.011688 -0.008347 -0.000777 0.000000 0.000000 0.000000
# 2 -0.008347 0.018563 -0.000942 0.000000 0.000000 0.000000
# 3 -0.000777 -0.000942 0.011913 0.000000 0.000000 0.000000
# 4 0.000000 0.000000 0.000000 0.041661 0.000000 0.000000
# 5 0.000000 0.000000 0.000000 0.000000 -0.202374 0.000000
# 6 0.000000 0.000000 0.000000 0.000000 0.000000 0.317702
#
#
# Mechanical properties :
#
#
# Convention : Reuss Voigt Hill
#
# Bulk Modulus (GPa) = 45.38829 50.75381 48.07105
# Shear Modulus (GPa) = 22.06247 18.62935 20.34591
#
# Velocity S-wave (km/s) = 3.34032 3.06944 3.20774
# Velocity P-wave (km/s) = 6.15071 6.18303 6.16689
#
# Compressibility (1/GPa) = 0.02203211
#
# Stress axis : x y z
#
# Youngs Moduli (GPa) = 85.55607 53.87120 83.94285
#
# Poissons Ratio (x) = 0.44966 0.06526
# Poissons Ratio (y) = 0.71413 0.07904
# Poissons Ratio (z) = 0.06651 0.05072
#
# Static dielectric constant tensor:
#      x y z
#    x 3.665580 0.000000 0.000000 
#    y 0.000000 3.249380 0.000000 
#    z 0.000000 0.000000 3.692520 
# 
# 
# High freq. dielectric constant tensor:
#      x y z
#    x 1.767480 0.000000 0.000000 
#    y 0.000000 1.745290 0.000000 
#    z 0.000000 0.000000 1.796220 
# 
# From -- ./inp_files/583.got.cif
#   From: 2010.03.12/outbox.cif.g09.slc.cpg/sg28_1_cif.got.tgz:583.got - 2010.04.14 03:39:34.
