data_PCOD8168965
_publ_section_title
;
Structure prediction by ZEFSAII (Michael W. Deem and Ramdas Pophale) SiO2 
 PCOD8168965
Probable space group: P C A 21
;
_chemical_formula_sum "Si O2"
_cell_formula_units_Z 32
_cell_length_a 10.649515
_cell_length_b 11.284981
_cell_length_c 12.688865
_cell_angle_alpha 90.000000
_cell_angle_beta 90.000000
_cell_angle_gamma 90.000000
_cell_volume 1524.942396
_symmetry_space_group_name_H-M "P C A 21"
_symmetry_group_IT_number 29
_symmetry_cell_setting 'orthorhombic'
loop_
_space_group_symop_operation_xyz
x,y,z
-x,-y,1/2+z
1/2-x,y,1/2+z
1/2+x,-y,z
loop_
_atom_site_type_symbol
_atom_site_label
_atom_site_fract_x
_atom_site_fract_y
_atom_site_fract_z
Si Si1 0.202282 0.776783 0.219570
Si Si2 0.047813 0.145626 0.803642
Si Si3 0.411149 0.334746 0.656543
Si Si4 0.937058 0.408802 0.574574
Si Si5 0.576621 0.907273 0.039664
Si Si6 0.116417 0.621292 0.832874
Si Si7 0.669343 0.004970 0.633469
Si Si8 0.351536 0.375808 0.233669
O O1 0.158601 0.676645 0.136594
O O2 0.267701 0.712236 0.319510
O O3 0.304495 0.859327 0.163755
O O4 0.094105 0.866160 0.259845
O O5 0.070546 0.286599 0.807116
O O6 0.151385 0.080134 0.733023
O O7 0.061444 0.088231 0.915835
O O8 0.398300 0.454408 0.587795
O O9 0.445784 0.224935 0.582660
O O10 0.508221 0.344669 0.751674
O O11 0.278052 0.311642 0.709583
O O12 0.935924 0.374184 0.451608
O O13 0.076508 0.395467 0.622461
O O14 0.466508 0.995870 0.076923
O O15 0.715688 0.955146 0.064672
O O16 0.168647 0.492516 0.802665
#
# Coordination Sequence:
#
# PCOD8168965 Si02
#       8
#     4   4   4   4   4   4   4   4
#     4  11  24  45  66 102 142 169 231 284 331 419
#     4  11  26  46  72  97 137 184 224 288 341 396
#     4  11  22  45  66 100 136 173 229 277 333 419
#     4  10  24  41  68 101 137 180 215 277 350 407
#     4  12  27  45  75  97 137 184 228 287 345 399
#     4  11  23  40  71 100 137 182 217 277 353 410
#     4  12  26  48  65 103 139 175 240 282 330 412
#     4  10  22  46  63 100 139 167 232 282 329 418
#
# _framework density 20.984400999999998
#
# number of rings (size 3 to 8) (size 9 to 14) (size 15 to 20)
#    0.000    1.000    5.000    0.750    3.500    2.000 
#    0.000    0.000    0.000    0.000    0.000    0.000 
#    0.000    0.000    0.000    0.000    0.000    0.000 
#
# Total GULP energy -396808.000089 kJ/mol
# GULP energy per Si atom -12400.250003 kJ/mol
# Density = 2.093664 g / cm^3
# Si number density = 20.984401 Si / 1000 Ang^3
#
#
#
# Elastic Constant Matrix: (Units=GPa)
#
#
# Indices 1 2 3 4 5 6 
#
# 1 108.8532 27.0863 35.0430 0.0000 0.0000 0.0000
# 2 27.0863 96.2018 36.9565 0.0000 0.0000 0.0000
# 3 35.0430 36.9565 122.1501 0.0000 0.0000 0.0000
# 4 0.0000 0.0000 0.0000 23.3089 0.0000 0.0000
# 5 0.0000 0.0000 0.0000 0.0000 20.8061 0.0000
# 6 0.0000 0.0000 0.0000 0.0000 0.0000 37.7618
#
#
#
# Elastic Compliance Matrix: (Units=1/GPa)
#
#
# Indices 1 2 3 4 5 6 
#
# 1 0.010460 -0.002028 -0.002387 0.000000 0.000000 0.000000
# 2 -0.002028 0.012155 -0.003096 0.000000 0.000000 0.000000
# 3 -0.002387 -0.003096 0.009808 0.000000 0.000000 0.000000
# 4 0.000000 0.000000 0.000000 0.042902 0.000000 0.000000
# 5 0.000000 0.000000 0.000000 0.000000 0.048063 0.000000
# 6 0.000000 0.000000 0.000000 0.000000 0.000000 0.026482
#
#
# Mechanical properties :
#
#
# Convention : Reuss Voigt Hill
#
# Bulk Modulus (GPa) = 57.46732 58.37519 57.92125
# Shear Modulus (GPa) = 29.29257 31.58333 30.43795
#
# Velocity S-wave (km/s) = 3.74026 3.88375 3.81268
# Velocity P-wave (km/s) = 6.78954 6.92749 6.85886
#
# Compressibility (1/GPa) = 0.01740119
#
# Stress axis : x y z
#
# Youngs Moduli (GPa) = 95.60394 82.27038 101.95653
#
# Poissons Ratio (x) = 0.16684 0.24339
# Poissons Ratio (y) = 0.19388 0.31563
# Poissons Ratio (z) = 0.22823 0.25469
#
# Static dielectric constant tensor:
#      x y z
#    x 3.912410 0.000000 0.000000 
#    y 0.000000 3.868330 0.000000 
#    z 0.000000 0.000000 3.553860 
# 
# 
# High freq. dielectric constant tensor:
#      x y z
#    x 1.835600 0.000000 0.000000 
#    y 0.000000 1.833650 0.000000 
#    z 0.000000 0.000000 1.807230 
# 
# From -- ./inp_files/3219.got.cif
#   From: 2010.03.12/outbox.cif.g09.slc.cpg/sg29_2_cif.got.tgz:3219.got - 2010.04.14 03:43:10.
