data_PCOD8168636
_publ_section_title
;
Structure prediction by ZEFSAII (Michael W. Deem and Ramdas Pophale) SiO2 
 PCOD8168636
Probable space group: P C A 21
;
_chemical_formula_sum "Si O2"
_cell_formula_units_Z 32
_cell_length_a 13.579927
_cell_length_b 8.594884
_cell_length_c 13.509636
_cell_angle_alpha 90.000000
_cell_angle_beta 90.000000
_cell_angle_gamma 90.000000
_cell_volume 1576.816307
_symmetry_space_group_name_H-M "P C A 21"
_symmetry_group_IT_number 29
_symmetry_cell_setting 'orthorhombic'
loop_
_space_group_symop_operation_xyz
x,y,z
-x,-y,1/2+z
1/2-x,y,1/2+z
1/2+x,-y,z
loop_
_atom_site_type_symbol
_atom_site_label
_atom_site_fract_x
_atom_site_fract_y
_atom_site_fract_z
Si Si1 0.398072 0.220729 0.687690
Si Si2 0.768945 0.249031 0.361021
Si Si3 0.464755 0.372930 0.333827
Si Si4 0.395893 0.872134 0.744441
Si Si5 0.846352 0.562290 0.864331
Si Si6 0.601520 0.361995 0.705149
Si Si7 0.792209 0.318415 0.578114
Si Si8 0.686968 0.646773 0.005053
O O1 0.346006 0.309908 0.778009
O O2 0.500274 0.302185 0.657977
O O3 0.326549 0.224282 0.591114
O O4 0.424162 0.045089 0.715200
O O5 0.695149 0.116998 0.321370
O O6 0.723266 0.418699 0.333336
O O7 0.870943 0.250438 0.299463
O O8 0.783670 0.220273 0.476735
O O9 0.511844 0.213431 0.294217
O O10 0.544698 0.492272 0.382445
O O11 0.411118 0.460513 0.242874
O O12 0.386231 0.319623 0.414743
O O13 0.363752 0.774692 0.648961
O O14 0.799745 0.640939 0.963519
O O15 0.683707 0.348825 0.620860
O O16 0.842743 0.482720 0.554688
#
# Coordination Sequence:
#
# PCOD8168636 Si02
#       8
#     4   4   4   4   4   4   4   4
#     4  11  24  39  57  92 131 165 195 249 312 384
#     4   9  18  39  66  86 114 157 209 254 302 350
#     4  10  20  40  64  90 119 161 204 265 307 352
#     4  10  23  41  55  88 135 159 196 243 314 382
#     4   9  20  40  63  92 117 151 208 261 302 345
#     4  10  19  38  63  91 118 155 206 261 302 352
#     4  10  20  39  68  91 112 161 211 260 304 361
#     4  11  22  38  68  92 116 157 215 259 301 364
#
# _framework density 20.294056999999999
#
# number of rings (size 3 to 8) (size 9 to 14) (size 15 to 20)
#    0.000    2.000    2.500    3.000    5.250    1.000 
#    6.750    0.000    0.000    0.000    0.000    0.000 
#    0.000    0.000    0.000    0.000    0.000    0.000 
#
# Total GULP energy -396735.074453 kJ/mol
# GULP energy per Si atom -12397.971077 kJ/mol
# Density = 2.024787 g / cm^3
# Si number density = 20.294057 Si / 1000 Ang^3
#
#
#
# Elastic Constant Matrix: (Units=GPa)
#
#
# Indices 1 2 3 4 5 6 
#
# 1 48.6303 5.8042 17.5601 0.0000 0.0000 0.0000
# 2 5.8042 72.8997 25.1057 0.0000 0.0000 0.0000
# 3 17.5601 25.1057 100.2589 0.0000 0.0000 0.0000
# 4 0.0000 0.0000 0.0000 23.1116 0.0000 0.0000
# 5 0.0000 0.0000 0.0000 0.0000 35.3143 0.0000
# 6 0.0000 0.0000 0.0000 0.0000 0.0000 13.5265
#
#
#
# Elastic Compliance Matrix: (Units=1/GPa)
#
#
# Indices 1 2 3 4 5 6 
#
# 1 0.021966 -0.000464 -0.003731 0.000000 0.000000 0.000000
# 2 -0.000464 0.015022 -0.003680 0.000000 0.000000 0.000000
# 3 -0.003731 -0.003680 0.011549 0.000000 0.000000 0.000000
# 4 0.000000 0.000000 0.000000 0.043268 0.000000 0.000000
# 5 0.000000 0.000000 0.000000 0.000000 0.028317 0.000000
# 6 0.000000 0.000000 0.000000 0.000000 0.000000 0.073929
#
#
# Mechanical properties :
#
#
# Convention : Reuss Voigt Hill
#
# Bulk Modulus (GPa) = 30.50058 35.41433 32.95745
# Shear Modulus (GPa) = 22.65199 25.94507 24.29853
#
# Velocity S-wave (km/s) = 3.34457 3.57943 3.46399
# Velocity P-wave (km/s) = 5.47510 5.87976 5.68104
#
# Compressibility (1/GPa) = 0.03278626
#
# Stress axis : x y z
#
# Youngs Moduli (GPa) = 45.52498 66.56955 86.58566
#
# Poissons Ratio (x) = 0.03089 0.32306
# Poissons Ratio (y) = 0.02112 0.31867
# Poissons Ratio (z) = 0.16986 0.24500
#
# Static dielectric constant tensor:
#      x y z
#    x 3.754240 0.000000 0.000000 
#    y 0.000000 3.384750 0.000000 
#    z 0.000000 0.000000 3.800690 
# 
# 
# High freq. dielectric constant tensor:
#      x y z
#    x 1.793820 0.000000 0.000000 
#    y 0.000000 1.757630 0.000000 
#    z 0.000000 0.000000 1.800050 
# 
# From -- ./inp_files/4746.got.cif
#   From: 2010.03.12/outbox.cif.g09.slc.cpg/sg29_3_cif.got.tgz:4746.got - 2010.04.14 03:43:10.
