data_PCOD8168416
_publ_section_title
;
Structure prediction by ZEFSAII (Michael W. Deem and Ramdas Pophale) SiO2 
 PCOD8168416
Probable space group: P M A 2
;
_chemical_formula_sum "Si O2"
_cell_formula_units_Z 32
_cell_length_a 18.916198
_cell_length_b 5.161033
_cell_length_c 15.530239
_cell_angle_alpha 90.000000
_cell_angle_beta 90.000000
_cell_angle_gamma 90.000000
_cell_volume 1516.172539
_symmetry_space_group_name_H-M "P M A 2"
_symmetry_group_IT_number 28
_symmetry_cell_setting 'orthorhombic'
loop_
_space_group_symop_operation_xyz
x,y,z
-x,-y,z
1/2-x,y,z
1/2+x,-y,z
loop_
_atom_site_type_symbol
_atom_site_label
_atom_site_fract_x
_atom_site_fract_y
_atom_site_fract_z
Si Si1 0.531081 0.252979 0.345650
Si Si2 0.670687 0.871542 0.158895
Si Si3 0.416788 0.519490 0.891709
Si Si4 0.916790 0.980514 0.992413
Si Si5 0.328821 0.123722 0.613834
Si Si6 0.170669 0.628756 0.725202
Si Si7 0.531315 0.752976 0.537464
Si Si8 0.171193 0.623517 0.270278
O O1 0.500000 0.500000 0.294894
O O2 0.499450 0.249973 0.441360
O O3 0.616144 0.286510 0.344992
O O4 0.500000 0.000000 0.297078
O O5 0.750000 0.807687 0.126219
O O6 0.648302 0.649321 0.227381
O O7 0.668898 0.155040 0.199323
O O8 0.617513 0.881385 0.080059
O O9 0.500000 0.500000 0.877002
O O10 0.392820 0.233261 0.921380
O O11 0.382461 0.618633 0.804081
O O12 0.392823 0.733254 0.962747
O O13 0.000000 0.000000 0.007092
O O14 0.250000 0.101143 0.573085
O O15 0.331130 0.345387 0.684702
O O16 0.383648 0.213600 0.538908
O O17 0.351823 0.851111 0.656816
O O18 0.250000 0.692676 0.757808
O O19 0.500000 0.500000 0.585805
O O20 0.500000 0.000000 0.587965
O O21 0.250000 0.601450 0.311147
#
# Coordination Sequence:
#
# PCOD8168416 Si02
#       8
#     4   4   4   4   4   4   4   4
#     4  10  21  38  58  85 115 145 186 233 282 345
#     4  10  21  36  57  84 111 148 195 238 287 343
#     4  10  21  36  53  78 113 150 190 235 286 341
#     4  10  21  36  53  78 113 150 190 235 286 341
#     4  10  21  38  58  83 116 150 190 240 291 343
#     4  10  21  36  57  84 111 148 195 238 287 343
#     4  10  21  38  58  85 115 145 186 233 282 345
#     4  10  21  38  58  83 116 150 190 240 291 343
#
# _framework density 21.105775999999999
#
# number of rings (size 3 to 8) (size 9 to 14) (size 15 to 20)
#    0.000    2.000    0.000    3.000    0.000    4.000 
#    0.000    5.000    0.000    0.000    0.000    0.000 
#    0.000    0.000    0.000    0.000    0.000    0.000 
#
# Total GULP energy -396473.133789 kJ/mol
# GULP energy per Si atom -12389.785431 kJ/mol
# Density = 2.105774 g / cm^3
# Si number density = 21.105776 Si / 1000 Ang^3
#
#
#
# Elastic Constant Matrix: (Units=GPa)
#
#
# Indices 1 2 3 4 5 6 
#
# 1 130.8573 40.2897 53.7143 0.0000 0.0000 0.0000
# 2 40.2897 151.0977 13.0220 0.0000 0.0000 0.0000
# 3 53.7143 13.0220 62.8130 0.0000 0.0000 0.0000
# 4 0.0000 0.0000 0.0000 16.4332 0.0000 0.0000
# 5 0.0000 0.0000 0.0000 0.0000 41.4497 0.0000
# 6 0.0000 0.0000 0.0000 0.0000 0.0000 32.5013
#
#
#
# Elastic Compliance Matrix: (Units=1/GPa)
#
#
# Indices 1 2 3 4 5 6 
#
# 1 0.012627 -0.002481 -0.010284 0.000000 0.000000 0.000000
# 2 -0.002481 0.007226 0.000623 0.000000 0.000000 0.000000
# 3 -0.010284 0.000623 0.024585 0.000000 0.000000 0.000000
# 4 0.000000 0.000000 0.000000 0.060852 0.000000 0.000000
# 5 0.000000 0.000000 0.000000 0.000000 0.024126 0.000000
# 6 0.000000 0.000000 0.000000 0.000000 0.000000 0.030768
#
#
# Mechanical properties :
#
#
# Convention : Reuss Voigt Hill
#
# Bulk Modulus (GPa) = 49.61304 62.09111 55.85208
# Shear Modulus (GPa) = 26.15279 33.92631 30.03955
#
# Velocity S-wave (km/s) = 3.52395 4.01364 3.77674
# Velocity P-wave (km/s) = 6.33368 7.13877 6.74824
#
# Compressibility (1/GPa) = 0.02015599
#
# Stress axis : x y z
#
# Youngs Moduli (GPa) = 79.19627 138.38957 40.67527
#
# Poissons Ratio (x) = 0.34330 0.41829
# Poissons Ratio (y) = 0.19646 -0.02535
# Poissons Ratio (z) = 0.81442 -0.08625
#
# Static dielectric constant tensor:
#      x y z
#    x 4.301740 0.000000 0.000000 
#    y 0.000000 17.378730 0.000000 
#    z 0.000000 0.000000 3.324830 
# 
# 
# High freq. dielectric constant tensor:
#      x y z
#    x 1.833470 0.000000 0.000000 
#    y 0.000000 1.864940 0.000000 
#    z 0.000000 0.000000 1.780390 
# 
# From -- ./inp_files/6985.got.cif
#   From: 2010.03.12/outbox.cif.g09.slc.cpg/sg28_4_cif.got.tgz:6985.got - 2010.04.14 03:39:34.
