data_PCOD8168521
_publ_section_title
;
Structure prediction by ZEFSAII (Michael W. Deem and Ramdas Pophale) SiO2 
 PCOD8168521
Probable space group: P M A 2
;
_chemical_formula_sum "Si O2"
_cell_formula_units_Z 32
_cell_length_a 9.172439
_cell_length_b 20.969236
_cell_length_c 9.696722
_cell_angle_alpha 90.000000
_cell_angle_beta 90.000000
_cell_angle_gamma 90.000000
_cell_volume 1865.058182
_symmetry_space_group_name_H-M "P M A 2"
_symmetry_group_IT_number 28
_symmetry_cell_setting 'orthorhombic'
loop_
_space_group_symop_operation_xyz
x,y,z
-x,-y,z
1/2-x,y,z
1/2+x,-y,z
loop_
_atom_site_type_symbol
_atom_site_label
_atom_site_fract_x
_atom_site_fract_y
_atom_site_fract_z
Si Si1 0.921032 0.683758 0.264490
Si Si2 0.422914 0.182235 0.571640
Si Si3 0.576976 0.304043 0.553637
Si Si4 0.922216 0.935958 0.070420
Si Si5 0.583419 0.438185 0.245514
Si Si6 0.419942 0.063068 0.754578
Si Si7 0.088860 0.558573 0.574811
Si Si8 0.919940 0.823483 0.258920
O O1 0.750000 0.666876 0.271117
O O2 0.948810 0.752919 0.193197
O O3 0.982807 0.692346 0.416214
O O4 0.005478 0.626089 0.187590
O O5 0.250000 0.195584 0.579415
O O6 0.511246 0.243213 0.634874
O O7 0.470556 0.122169 0.662151
O O8 0.479299 0.170182 0.415323
O O9 0.750000 0.296980 0.522854
O O10 0.547644 0.371152 0.634581
O O11 0.750000 0.944269 0.089403
O O12 0.988066 0.877415 0.159922
O O13 0.963012 0.921872 0.912030
O O14 0.000000 0.000000 0.122884
O O15 0.500000 0.500000 0.185768
O O16 0.750000 0.439366 0.194475
O O17 0.572475 0.437847 0.410192
O O18 0.250000 0.050372 0.738139
O O19 0.500000 0.000000 0.700256
O O20 0.250000 0.540924 0.618857
O O21 0.000000 0.500000 0.639493
O O22 0.750000 0.836475 0.266712
#
# Coordination Sequence:
#
# PCOD8168521 Si02
#       8
#     4   4   4   4   4   4   4   4
#     4   9  15  24  37  53  76 108 140 173 212 253
#     4   9  17  29  43  61  83 110 140 171 206 249
#     4   9  16  25  36  54  79 107 138 173 209 248
#     4   9  17  31  47  63  83 109 137 169 206 248
#     4   9  15  22  32  49  74 106 142 177 210 251
#     4   9  18  31  47  64  84 108 137 170 207 248
#     4   8  14  21  30  46  70 100 134 165 196 234
#     4   8  15  27  43  60  82 110 139 168 205 249
#
# _framework density 17.157641999999999
#
# number of rings (size 3 to 8) (size 9 to 14) (size 15 to 20)
#    0.000    3.250    0.000    2.625    0.000    4.500 
#    0.000    3.125    0.000    0.000    0.000    0.000 
#    0.000    1.000    0.000    4.250    0.000    3.500 
#
# Total GULP energy -396451.399551 kJ/mol
# GULP energy per Si atom -12389.106236 kJ/mol
# Density = 1.711859 g / cm^3
# Si number density = 17.157642 Si / 1000 Ang^3
#
#
#
# Elastic Constant Matrix: (Units=GPa)
#
#
# Indices 1 2 3 4 5 6 
#
# 1 78.1296 73.5387 17.7357 0.0000 0.0000 0.0000
# 2 73.5387 200.2725 47.4905 0.0000 0.0000 0.0000
# 3 17.7357 47.4905 31.6354 0.0000 0.0000 0.0000
# 4 0.0000 0.0000 0.0000 2.3917 0.0000 0.0000
# 5 0.0000 0.0000 0.0000 0.0000 7.3646 0.0000
# 6 0.0000 0.0000 0.0000 0.0000 0.0000 36.7813
#
#
#
# Elastic Compliance Matrix: (Units=1/GPa)
#
#
# Indices 1 2 3 4 5 6 
#
# 1 0.019561 -0.007115 -0.000286 0.000000 0.000000 0.000000
# 2 -0.007115 0.010341 -0.011535 0.000000 0.000000 0.000000
# 3 -0.000286 -0.011535 0.049086 0.000000 0.000000 0.000000
# 4 0.000000 0.000000 0.000000 0.418121 0.000000 0.000000
# 5 0.000000 0.000000 0.000000 0.000000 0.135785 0.000000
# 6 0.000000 0.000000 0.000000 0.000000 0.000000 0.027188
#
#
# Mechanical properties :
#
#
# Convention : Reuss Voigt Hill
#
# Bulk Modulus (GPa) = 24.32066 65.28527 44.80296
# Shear Modulus (GPa) = 7.02583 20.72567 13.87575
#
# Velocity S-wave (km/s) = 2.02577 3.47934 2.84689
# Velocity P-wave (km/s) = 4.43591 7.36708 6.08076
#
# Compressibility (1/GPa) = 0.04111731
#
# Stress axis : x y z
#
# Youngs Moduli (GPa) = 51.12236 96.70230 20.37224
#
# Poissons Ratio (x) = 0.68803 0.00582
# Poissons Ratio (y) = 0.36373 0.23499
# Poissons Ratio (z) = 0.01460 1.11546
#
# Static dielectric constant tensor:
#      x y z
#    x 3.172560 0.000000 0.000000 
#    y 0.000000 3.872640 0.000000 
#    z 0.000000 0.000000 2.715380 
# 
# 
# High freq. dielectric constant tensor:
#      x y z
#    x 1.656290 0.000000 0.000000 
#    y 0.000000 1.688760 0.000000 
#    z 0.000000 0.000000 1.587240 
# 
# From -- ./inp_files/5227.got.cif
#   From: 2010.03.12/outbox.cif.g09.slc.cpg/sg28_3_cif.got.tgz:5227.got - 2010.04.14 03:39:34.
