data_PCOD8168424
_publ_section_title
;
Structure prediction by ZEFSAII (Michael W. Deem and Ramdas Pophale) SiO2 
 PCOD8168424
Probable space group: P M A 2
;
_chemical_formula_sum "Si O2"
_cell_formula_units_Z 32
_cell_length_a 14.423728
_cell_length_b 9.837953
_cell_length_c 9.388695
_cell_angle_alpha 90.000000
_cell_angle_beta 90.000000
_cell_angle_gamma 90.000000
_cell_volume 1332.255428
_symmetry_space_group_name_H-M "P M A 2"
_symmetry_group_IT_number 28
_symmetry_cell_setting 'orthorhombic'
loop_
_space_group_symop_operation_xyz
x,y,z
-x,-y,z
1/2-x,y,z
1/2+x,-y,z
loop_
_atom_site_type_symbol
_atom_site_label
_atom_site_fract_x
_atom_site_fract_y
_atom_site_fract_z
Si Si1 0.140462 0.054908 0.568030
Si Si2 0.896210 0.545290 0.793344
Si Si3 0.144562 0.145255 0.878273
Si Si4 0.645372 0.448434 0.486541
Si Si5 0.852698 0.573428 0.204989
Si Si6 0.847794 0.332454 0.013244
Si Si7 0.472630 0.814128 0.432512
Si Si8 0.983909 0.802755 0.109889
O O1 0.250000 0.077069 0.529573
O O2 0.126965 0.051948 0.739321
O O3 0.074918 0.173666 0.503143
O O4 0.102396 0.914670 0.503375
O O5 0.878992 0.699311 0.839080
O O6 0.864432 0.526285 0.633167
O O7 0.837611 0.441039 0.887294
O O8 0.000000 0.500000 0.818728
O O9 0.250000 0.132222 0.927749
O O10 0.081686 0.096954 0.015164
O O11 0.750000 0.387797 0.470461
O O12 0.628954 0.569723 0.373470
O O13 0.566717 0.334789 0.463617
O O14 0.750000 0.630713 0.169321
O O15 0.928205 0.662394 0.125811
O O16 0.862819 0.416308 0.159051
O O17 0.750000 0.251962 0.017655
O O18 0.928808 0.222289 0.005415
O O19 0.484448 0.855335 0.264986
#
# Coordination Sequence:
#
# PCOD8168424 Si02
#       8
#     4   4   4   4   4   4   4   4
#     4  10  25  50  72  96 129 173 235 298 346 398
#     4  12  22  36  60  95 143 185 225 276 333 409
#     4  11  23  42  68 100 138 181 226 280 345 410
#     4  11  24  38  61 101 144 183 225 273 335 412
#     4  10  21  36  57  95 145 183 214 260 334 413
#     4  11  21  36  56  89 140 187 219 262 332 410
#     4  11  25  44  73  98 131 180 229 285 350 400
#     4  12  23  39  66 101 139 180 224 278 337 417
#
# _framework density 24.019418999999999
#
# number of rings (size 3 to 8) (size 9 to 14) (size 15 to 20)
#    0.000    1.000    3.750    3.000    3.500    1.500 
#    0.000    2.500    0.000    0.000    0.000    0.000 
#    0.000    0.000    0.000    0.000    0.000    0.000 
#
# Total GULP energy -396630.703191 kJ/mol
# GULP energy per Si atom -12394.709475 kJ/mol
# Density = 2.396475 g / cm^3
# Si number density = 24.019419 Si / 1000 Ang^3
#
#
#
# Elastic Constant Matrix: (Units=GPa)
#
#
# Indices 1 2 3 4 5 6 
#
# 1 171.7293 20.0624 37.2213 0.0000 0.0000 0.0000
# 2 20.0624 32.2690 6.3926 0.0000 0.0000 0.0000
# 3 37.2213 6.3926 153.2741 0.0000 0.0000 0.0000
# 4 0.0000 0.0000 0.0000 21.8188 0.0000 0.0000
# 5 0.0000 0.0000 0.0000 0.0000 50.1333 0.0000
# 6 0.0000 0.0000 0.0000 0.0000 0.0000 132.4683
#
#
#
# Elastic Compliance Matrix: (Units=1/GPa)
#
#
# Indices 1 2 3 4 5 6 
#
# 1 0.006580 -0.003806 -0.001439 0.000000 0.000000 0.000000
# 2 -0.003806 0.033449 -0.000471 0.000000 0.000000 0.000000
# 3 -0.001439 -0.000471 0.006893 0.000000 0.000000 0.000000
# 4 0.000000 0.000000 0.000000 0.045832 0.000000 0.000000
# 5 0.000000 0.000000 0.000000 0.000000 0.019947 0.000000
# 6 0.000000 0.000000 0.000000 0.000000 0.000000 0.007549
#
#
# Mechanical properties :
#
#
# Convention : Reuss Voigt Hill
#
# Bulk Modulus (GPa) = 28.17649 53.84724 41.01187
# Shear Modulus (GPa) = 34.84051 60.45714 47.64883
#
# Velocity S-wave (km/s) = 3.81269 5.02242 4.45878
# Velocity P-wave (km/s) = 5.58018 7.48999 6.60448
#
# Compressibility (1/GPa) = 0.03549059
#
# Stress axis : x y z
#
# Youngs Moduli (GPa) = 151.98429 29.89645 145.06697
#
# Poissons Ratio (x) = 0.11377 0.20876
# Poissons Ratio (y) = 0.57839 0.06831
# Poissons Ratio (z) = 0.21872 0.01408
#
# Static dielectric constant tensor:
#      x y z
#    x 4.716980 0.000000 0.000000 
#    y 0.000000 3.957550 0.000000 
#    z 0.000000 0.000000 4.684820 
# 
# 
# High freq. dielectric constant tensor:
#      x y z
#    x 1.978710 0.000000 0.000000 
#    y 0.000000 1.913280 0.000000 
#    z 0.000000 0.000000 1.969370 
# 
# From -- ./inp_files/3522.got.cif
#   From: 2010.03.12/outbox.cif.g09.slc.cpg/sg28_2_cif.got.tgz:3522.got - 2010.04.14 03:39:34.
