data_PCOD8168888
_publ_section_title
;
Structure prediction by ZEFSAII (Michael W. Deem and Ramdas Pophale) SiO2 
 PCOD8168888
Probable space group: P C A 21
;
_chemical_formula_sum "Si O2"
_cell_formula_units_Z 28
_cell_length_a 13.131708
_cell_length_b 5.248854
_cell_length_c 19.158686
_cell_angle_alpha 90.000000
_cell_angle_beta 90.000000
_cell_angle_gamma 90.000000
_cell_volume 1320.539601
_symmetry_space_group_name_H-M "P C A 21"
_symmetry_group_IT_number 29
_symmetry_cell_setting 'orthorhombic'
loop_
_space_group_symop_operation_xyz
x,y,z
-x,-y,1/2+z
1/2-x,y,1/2+z
1/2+x,-y,z
loop_
_atom_site_type_symbol
_atom_site_label
_atom_site_fract_x
_atom_site_fract_y
_atom_site_fract_z
Si Si1 0.000776 0.840695 0.238080
Si Si2 0.202085 0.265735 0.046076
Si Si3 0.016874 0.865912 0.511797
Si Si4 0.922603 0.649205 0.794430
Si Si5 0.350500 0.937016 0.138337
Si Si6 0.884360 0.627663 0.951745
Si Si7 0.318943 0.595661 0.674250
O O1 0.997996 0.589126 0.287184
O O2 0.096645 0.817597 0.184732
O O3 0.014483 0.092122 0.284643
O O4 0.897013 0.863122 0.193587
O O5 0.162376 0.486160 0.097135
O O6 0.105419 0.130407 0.011082
O O7 0.266306 0.063992 0.089888
O O8 0.272521 0.385938 0.985757
O O9 0.058951 0.824164 0.590572
O O10 0.056419 0.634090 0.464950
O O11 0.052040 0.135593 0.481348
O O12 0.868790 0.654889 0.869115
O O13 0.834571 0.617688 0.735050
O O14 0.295503 0.707381 0.179768
#
# Coordination Sequence:
#
# PCOD8168888 Si02
#       7
#     4   4   4   4   4   4   4
#     4  10  24  41  69  95 140 173 230 277 349 397
#     4  11  25  42  70 106 133 179 232 287 341 408
#     4  11  25  41  70  99 137 176 230 285 343 411
#     4  10  23  46  66  96 141 184 226 288 332 422
#     4  11  22  40  67 105 131 178 221 294 342 401
#     4  11  25  47  69  96 143 187 227 282 348 410
#     4  10  22  39  71  97 139 169 234 283 343 395
#
# _framework density 21.203454000000001
#
# number of rings (size 3 to 8) (size 9 to 14) (size 15 to 20)
#    0.857    0.571    1.429    3.429    8.000    0.000 
#    2.571    2.857    0.000    0.000    0.000    0.000 
#    0.000    0.000    0.000    0.000    0.000    0.000 
#
# Total GULP energy -347161.081589 kJ/mol
# GULP energy per Si atom -12398.610057 kJ/mol
# Density = 2.115519 g / cm^3
# Si number density = 21.203454 Si / 1000 Ang^3
#
#
#
# Elastic Constant Matrix: (Units=GPa)
#
#
# Indices 1 2 3 4 5 6 
#
# 1 89.4430 7.9006 23.4350 0.0000 0.0000 0.0000
# 2 7.9006 98.2048 7.4112 0.0000 0.0000 0.0000
# 3 23.4350 7.4112 73.0129 0.0000 0.0000 0.0000
# 4 0.0000 0.0000 0.0000 28.9903 0.0000 0.0000
# 5 0.0000 0.0000 0.0000 0.0000 21.1194 0.0000
# 6 0.0000 0.0000 0.0000 0.0000 0.0000 27.5729
#
#
#
# Elastic Compliance Matrix: (Units=1/GPa)
#
#
# Indices 1 2 3 4 5 6 
#
# 1 0.012254 -0.000694 -0.003863 0.000000 0.000000 0.000000
# 2 -0.000694 0.010301 -0.000823 0.000000 0.000000 0.000000
# 3 -0.003863 -0.000823 0.015020 0.000000 0.000000 0.000000
# 4 0.000000 0.000000 0.000000 0.034494 0.000000 0.000000
# 5 0.000000 0.000000 0.000000 0.000000 0.047350 0.000000
# 6 0.000000 0.000000 0.000000 0.000000 0.000000 0.036267
#
#
# Mechanical properties :
#
#
# Convention : Reuss Voigt Hill
#
# Bulk Modulus (GPa) = 37.29304 37.57270 37.43287
# Shear Modulus (GPa) = 28.50903 30.33078 29.41991
#
# Velocity S-wave (km/s) = 3.67078 3.78625 3.72896
# Velocity P-wave (km/s) = 5.96595 6.07230 6.01936
#
# Compressibility (1/GPa) = 0.02681465
#
# Stress axis : x y z
#
# Youngs Moduli (GPa) = 81.60815 97.08037 66.58011
#
# Poissons Ratio (x) = 0.06740 0.25717
# Poissons Ratio (y) = 0.05666 0.05478
# Poissons Ratio (z) = 0.31522 0.07987
#
# Static dielectric constant tensor:
#      x y z
#    x 3.697370 0.000000 0.000000 
#    y 0.000000 3.833560 0.000000 
#    z 0.000000 0.000000 3.725070 
# 
# 
# High freq. dielectric constant tensor:
#      x y z
#    x 1.822150 0.000000 0.000000 
#    y 0.000000 1.840300 0.000000 
#    z 0.000000 0.000000 1.817450 
# 
# From -- ./inp_files/5460.got.cif
#   From: 2010.03.12/outbox.cif.g09.slc.cpg/sg29_3_cif.got.tgz:5460.got - 2010.04.14 03:43:10.
