data_PCOD8168934
_publ_section_title
;
Structure prediction by ZEFSAII (Michael W. Deem and Ramdas Pophale) SiO2 
 PCOD8168934
Probable space group: P C A 21
;
_chemical_formula_sum "Si O2"
_cell_formula_units_Z 32
_cell_length_a 14.446698
_cell_length_b 11.408525
_cell_length_c 9.279125
_cell_angle_alpha 90.000000
_cell_angle_beta 90.000000
_cell_angle_gamma 90.000000
_cell_volume 1529.343768
_symmetry_space_group_name_H-M "P C A 21"
_symmetry_group_IT_number 29
_symmetry_cell_setting 'orthorhombic'
loop_
_space_group_symop_operation_xyz
x,y,z
-x,-y,1/2+z
1/2-x,y,1/2+z
1/2+x,-y,z
loop_
_atom_site_type_symbol
_atom_site_label
_atom_site_fract_x
_atom_site_fract_y
_atom_site_fract_z
Si Si1 0.814506 0.788591 0.503240
Si Si2 0.047690 0.381778 0.586651
Si Si3 0.647508 0.077339 0.573635
Si Si4 0.187314 0.958275 0.896855
Si Si5 0.991498 0.768799 0.655144
Si Si6 0.015694 0.127234 0.457189
Si Si7 0.235613 0.356893 0.739050
Si Si8 0.570749 0.533501 0.274282
O O1 0.924937 0.792340 0.519863
O O2 0.785492 0.681791 0.400935
O O3 0.767880 0.760353 0.656298
O O4 0.781701 0.913190 0.448946
O O5 0.035113 0.244230 0.550522
O O6 0.144439 0.409452 0.665950
O O7 0.047109 0.462925 0.443943
O O8 0.964361 0.415150 0.696407
O O9 0.727261 0.116153 0.461589
O O10 0.690626 0.037735 0.725376
O O11 0.593106 0.197874 0.601741
O O12 0.578733 0.976703 0.516705
O O13 0.091918 0.911196 0.965326
O O14 0.990722 0.634255 0.700018
O O15 0.959157 0.848820 0.790864
O O16 0.319590 0.450765 0.743699
#
# Coordination Sequence:
#
# PCOD8168934 Si02
#       8
#     4   4   4   4   4   4   4   4
#     4  11  20  38  63  95 125 165 209 268 315 376
#     4  11  23  44  66  92 131 170 211 273 324 374
#     4  11  23  40  61  94 129 171 213 266 327 396
#     4  11  23  36  63  93 130 173 208 262 329 392
#     4   9  22  41  61  89 129 164 217 272 312 381
#     4  10  22  43  62  96 133 171 217 266 327 390
#     4  11  23  40  67  97 125 162 222 267 317 382
#     4  10  24  42  67  94 126 168 221 272 319 379
#
# _framework density 20.924007
#
# number of rings (size 3 to 8) (size 9 to 14) (size 15 to 20)
#    0.000    1.500    2.500    2.250    8.750    0.000 
#    4.500    0.000    0.000    0.000    0.000    0.000 
#    0.000    0.000    0.000    0.000    0.000    0.000 
#
# Total GULP energy -396752.857326 kJ/mol
# GULP energy per Si atom -12398.526791 kJ/mol
# Density = 2.087638 g / cm^3
# Si number density = 20.924007 Si / 1000 Ang^3
#
#
#
# Elastic Constant Matrix: (Units=GPa)
#
#
# Indices 1 2 3 4 5 6 
#
# 1 140.2524 35.1906 52.8056 0.0000 0.0000 0.0000
# 2 35.1906 39.0646 13.0404 0.0000 0.0000 0.0000
# 3 52.8056 13.0404 79.6090 0.0000 0.0000 0.0000
# 4 0.0000 0.0000 0.0000 26.3955 0.0000 0.0000
# 5 0.0000 0.0000 0.0000 0.0000 40.7453 0.0000
# 6 0.0000 0.0000 0.0000 0.0000 0.0000 29.3890
#
#
#
# Elastic Compliance Matrix: (Units=1/GPa)
#
#
# Indices 1 2 3 4 5 6 
#
# 1 0.011608 -0.008342 -0.006333 0.000000 0.000000 0.000000
# 2 -0.008342 0.033075 0.000116 0.000000 0.000000 0.000000
# 3 -0.006333 0.000116 0.016743 0.000000 0.000000 0.000000
# 4 0.000000 0.000000 0.000000 0.037885 0.000000 0.000000
# 5 0.000000 0.000000 0.000000 0.000000 0.024543 0.000000
# 6 0.000000 0.000000 0.000000 0.000000 0.000000 0.034026
#
#
# Mechanical properties :
#
#
# Convention : Reuss Voigt Hill
#
# Bulk Modulus (GPa) = 30.95335 51.22213 41.08774
# Shear Modulus (GPa) = 25.28212 29.83191 27.55702
#
# Velocity S-wave (km/s) = 3.47981 3.77998 3.63299
# Velocity P-wave (km/s) = 5.56514 6.60183 6.10553
#
# Compressibility (1/GPa) = 0.03230668
#
# Stress axis : x y z
#
# Youngs Moduli (GPa) = 86.15066 30.23418 59.72596
#
# Poissons Ratio (x) = 0.25223 0.37824
# Poissons Ratio (y) = 0.71871 -0.00691
# Poissons Ratio (z) = 0.54558 -0.00350
#
# Static dielectric constant tensor:
#      x y z
#    x 3.933920 0.000000 0.000000 
#    y 0.000000 3.474780 0.000000 
#    z 0.000000 0.000000 3.986570 
# 
# 
# High freq. dielectric constant tensor:
#      x y z
#    x 1.828010 0.000000 0.000000 
#    y 0.000000 1.789420 0.000000 
#    z 0.000000 0.000000 1.833040 
# 
# From -- ./inp_files/1861.got.cif
#   From: 2010.03.12/outbox.cif.g09.slc.cpg/sg29_1_cif.got.tgz:1861.got - 2010.04.14 03:43:10.
