data_PCOD8168609
_publ_section_title
;
Structure prediction by ZEFSAII (Michael W. Deem and Ramdas Pophale) SiO2 
 PCOD8168609
Probable space group: P C A 21
;
_chemical_formula_sum "Si O2"
_cell_formula_units_Z 32
_cell_length_a 13.887041
_cell_length_b 9.137888
_cell_length_c 14.132869
_cell_angle_alpha 90.000000
_cell_angle_beta 90.000000
_cell_angle_gamma 90.000000
_cell_volume 1793.435995
_symmetry_space_group_name_H-M "P C A 21"
_symmetry_group_IT_number 29
_symmetry_cell_setting 'orthorhombic'
loop_
_space_group_symop_operation_xyz
x,y,z
-x,-y,1/2+z
1/2-x,y,1/2+z
1/2+x,-y,z
loop_
_atom_site_type_symbol
_atom_site_label
_atom_site_fract_x
_atom_site_fract_y
_atom_site_fract_z
Si Si1 0.542396 0.630662 0.509370
Si Si2 0.652897 0.751166 0.129708
Si Si3 0.659422 0.382716 0.597799
Si Si4 0.663174 0.483922 0.990826
Si Si5 0.546252 0.650880 0.299195
Si Si6 0.042094 0.868410 0.672201
Si Si7 0.364809 0.177534 0.165501
Si Si8 0.872445 0.545983 0.281330
O O1 0.575599 0.474176 0.547324
O O2 0.427845 0.621012 0.504629
O O3 0.585654 0.664957 0.405499
O O4 0.577306 0.760096 0.576247
O O5 0.635945 0.654213 0.225827
O O6 0.562427 0.864169 0.117948
O O7 0.752232 0.841661 0.138031
O O8 0.658076 0.640353 0.042197
O O9 0.751554 0.384000 0.530799
O O10 0.621114 0.218251 0.609696
O O11 0.683962 0.458703 0.698512
O O12 0.680899 0.517520 0.880337
O O13 0.473481 0.785771 0.272917
O O14 0.484701 0.502268 0.286679
O O15 0.083981 0.027027 0.692775
O O16 0.373393 0.282137 0.256551
#
# Coordination Sequence:
#
# PCOD8168609 Si02
#       8
#     4   4   4   4   4   4   4   4
#     4  10  19  35  60  86 107 150 194 235 280 338
#     4  10  19  35  59  82 107 156 179 234 287 332
#     4  10  19  35  59  81 115 147 183 242 277 331
#     4  11  19  33  61  87 108 146 202 236 283 326
#     4   8  19  38  58  79 116 144 184 246 285 317
#     4   9  21  39  53  81 125 147 178 236 289 339
#     4  11  21  36  58  82 117 153 189 227 289 352
#     4   9  19  35  58  88 107 145 197 236 274 333
#
# _framework density 17.842843999999999
#
# number of rings (size 3 to 8) (size 9 to 14) (size 15 to 20)
#    0.750    1.500    3.750    0.750    1.750    1.000 
#    2.250    0.000   11.000    0.000    0.000    0.000 
#    0.000    0.000    0.000    0.000    0.000    0.000 
#
# Total GULP energy -396583.192112 kJ/mol
# GULP energy per Si atom -12393.224754 kJ/mol
# Density = 1.780223 g / cm^3
# Si number density = 17.842844 Si / 1000 Ang^3
#
#
#
# Elastic Constant Matrix: (Units=GPa)
#
#
# Indices 1 2 3 4 5 6 
#
# 1 88.7296 44.0490 36.9137 0.0000 0.0000 0.0000
# 2 44.0490 90.9075 26.8171 0.0000 0.0000 0.0000
# 3 36.9137 26.8171 126.3198 0.0000 0.0000 0.0000
# 4 0.0000 0.0000 0.0000 11.9832 0.0000 0.0000
# 5 0.0000 0.0000 0.0000 0.0000 23.9922 0.0000
# 6 0.0000 0.0000 0.0000 0.0000 0.0000 26.3301
#
#
#
# Elastic Compliance Matrix: (Units=1/GPa)
#
#
# Indices 1 2 3 4 5 6 
#
# 1 0.015986 -0.006793 -0.003229 0.000000 0.000000 0.000000
# 2 -0.006793 0.014622 -0.001119 0.000000 0.000000 0.000000
# 3 -0.003229 -0.001119 0.009098 0.000000 0.000000 0.000000
# 4 0.000000 0.000000 0.000000 0.083450 0.000000 0.000000
# 5 0.000000 0.000000 0.000000 0.000000 0.041680 0.000000
# 6 0.000000 0.000000 0.000000 0.000000 0.000000 0.037979
#
#
# Mechanical properties :
#
#
# Convention : Reuss Voigt Hill
#
# Bulk Modulus (GPa) = 57.39743 57.94626 57.67184
# Shear Modulus (GPa) = 21.65381 25.67293 23.66337
#
# Velocity S-wave (km/s) = 3.48743 3.79731 3.64567
# Velocity P-wave (km/s) = 6.96092 7.19531 7.07909
#
# Compressibility (1/GPa) = 0.01742238
#
# Stress axis : x y z
#
# Youngs Moduli (GPa) = 62.55380 68.38994 109.91834
#
# Poissons Ratio (x) = 0.46460 0.35496
# Poissons Ratio (y) = 0.42496 0.12300
# Poissons Ratio (z) = 0.20201 0.07653
#
# Static dielectric constant tensor:
#      x y z
#    x 3.315580 0.000000 0.000000 
#    y 0.000000 2.923760 0.000000 
#    z 0.000000 0.000000 3.375790 
# 
# 
# High freq. dielectric constant tensor:
#      x y z
#    x 1.696330 0.000000 0.000000 
#    y 0.000000 1.654830 0.000000 
#    z 0.000000 0.000000 1.690930 
# 
# From -- ./inp_files/3522.got.cif
#   From: 2010.03.12/outbox.cif.g09.slc.cpg/sg29_2_cif.got.tgz:3522.got - 2010.04.14 03:43:10.
