data_PCOD8168846
_publ_section_title
;
Structure prediction by ZEFSAII (Michael W. Deem and Ramdas Pophale) SiO2 
 PCOD8168846
Probable space group: P C A 21
;
_chemical_formula_sum "Si O2"
_cell_formula_units_Z 32
_cell_length_a 18.411701
_cell_length_b 6.588017
_cell_length_c 13.067853
_cell_angle_alpha 90.000000
_cell_angle_beta 90.000000
_cell_angle_gamma 90.000000
_cell_volume 1585.086128
_symmetry_space_group_name_H-M "P C A 21"
_symmetry_group_IT_number 29
_symmetry_cell_setting 'orthorhombic'
loop_
_space_group_symop_operation_xyz
x,y,z
-x,-y,1/2+z
1/2-x,y,1/2+z
1/2+x,-y,z
loop_
_atom_site_type_symbol
_atom_site_label
_atom_site_fract_x
_atom_site_fract_y
_atom_site_fract_z
Si Si1 0.820125 0.005207 0.082270
Si Si2 0.441842 0.978521 0.240722
Si Si3 0.122519 0.348103 0.460637
Si Si4 0.239859 0.611973 0.000180
Si Si5 0.006706 0.686413 0.107422
Si Si6 0.119267 0.901592 0.956902
Si Si7 0.313547 0.228695 0.603530
Si Si8 0.434625 0.335785 0.739535
O O1 0.879367 0.072846 0.161889
O O2 0.778131 0.209987 0.061019
O O3 0.765886 0.847230 0.137686
O O4 0.854142 0.887785 0.982421
O O5 0.412660 0.002279 0.355198
O O6 0.491947 0.784929 0.235904
O O7 0.482890 0.180249 0.205012
O O8 0.195161 0.485034 0.447907
O O9 0.065335 0.406391 0.551275
O O10 0.080057 0.390942 0.356467
O O11 0.193430 0.464167 0.072516
O O12 0.178738 0.724455 0.929310
O O13 0.057034 0.518294 0.159209
O O14 0.053761 0.815347 0.026366
O O15 0.158375 0.090554 0.010715
O O16 0.366448 0.204495 0.700097
#
# Coordination Sequence:
#
# PCOD8168846 Si02
#       8
#     4   4   4   4   4   4   4   4
#     4   9  22  42  63  89 128 166 208 266 319 380
#     4  11  24  41  65  95 126 171 212 262 323 385
#     4  10  23  41  62  95 128 165 216 265 317 383
#     4  10  21  42  64  91 131 166 206 270 319 380
#     4  11  23  42  62  95 132 166 216 266 316 385
#     4  11  22  41  64  91 129 168 212 261 326 379
#     4  10  22  39  65  92 129 164 212 265 314 387
#     4  12  23  38  67  94 125 170 214 259 324 381
#
# _framework density 20.188179000000002
#
# number of rings (size 3 to 8) (size 9 to 14) (size 15 to 20)
#    0.000    1.500    3.750    0.750    0.000    7.000 
#    0.000    0.000    0.000    0.000    0.000    0.000 
#    0.000    0.000    0.000    0.000    0.000    0.000 
#
# Total GULP energy -396549.270961 kJ/mol
# GULP energy per Si atom -12392.164718 kJ/mol
# Density = 2.014223 g / cm^3
# Si number density = 20.188179 Si / 1000 Ang^3
#
#
#
# Elastic Constant Matrix: (Units=GPa)
#
#
# Indices 1 2 3 4 5 6 
#
# 1 116.7209 30.6579 42.4626 0.0000 0.0000 0.0000
# 2 30.6579 73.4588 30.0360 0.0000 0.0000 0.0000
# 3 42.4626 30.0360 93.2633 0.0000 0.0000 0.0000
# 4 0.0000 0.0000 0.0000 24.8060 0.0000 0.0000
# 5 0.0000 0.0000 0.0000 0.0000 2.5089 0.0000
# 6 0.0000 0.0000 0.0000 0.0000 0.0000 40.6890
#
#
#
# Elastic Compliance Matrix: (Units=1/GPa)
#
#
# Indices 1 2 3 4 5 6 
#
# 1 0.010768 -0.002867 -0.003979 0.000000 0.000000 0.000000
# 2 -0.002867 0.016441 -0.003990 0.000000 0.000000 0.000000
# 3 -0.003979 -0.003990 0.013819 0.000000 0.000000 0.000000
# 4 0.000000 0.000000 0.000000 0.040313 0.000000 0.000000
# 5 0.000000 0.000000 0.000000 0.000000 0.398582 0.000000
# 6 0.000000 0.000000 0.000000 0.000000 0.000000 0.024577
#
#
# Mechanical properties :
#
#
# Convention : Reuss Voigt Hill
#
# Bulk Modulus (GPa) = 51.66307 54.41732 53.04019
# Shear Modulus (GPa) = 9.38749 25.61988 17.50368
#
# Velocity S-wave (km/s) = 2.15872 3.56624 2.94773
# Velocity P-wave (km/s) = 5.64444 6.63106 6.15755
#
# Compressibility (1/GPa) = 0.01935619
#
# Stress axis : x y z
#
# Youngs Moduli (GPa) = 92.86628 60.82415 72.36409
#
# Poissons Ratio (x) = 0.17438 0.28797
# Poissons Ratio (y) = 0.26624 0.28870
# Poissons Ratio (z) = 0.36955 0.24266
#
# Static dielectric constant tensor:
#      x y z
#    x 4.258250 0.000000 0.000000 
#    y 0.000000 3.756470 0.000000 
#    z 0.000000 0.000000 3.421500 
# 
# 
# High freq. dielectric constant tensor:
#      x y z
#    x 1.821740 0.000000 0.000000 
#    y 0.000000 1.788150 0.000000 
#    z 0.000000 0.000000 1.762960 
# 
# From -- ./inp_files/3805.got.cif
#   From: 2010.03.12/outbox.cif.g09.slc.cpg/sg29_2_cif.got.tgz:3805.got - 2010.04.14 03:43:10.
