data_PCOD8168464
_publ_section_title
;
Structure prediction by ZEFSAII (Michael W. Deem and Ramdas Pophale) SiO2 
 PCOD8168464
Probable space group: P M A 2
;
_chemical_formula_sum "Si O2"
_cell_formula_units_Z 32
_cell_length_a 17.802932
_cell_length_b 7.417596
_cell_length_c 12.261555
_cell_angle_alpha 90.000000
_cell_angle_beta 90.000000
_cell_angle_gamma 90.000000
_cell_volume 1619.199121
_symmetry_space_group_name_H-M "P M A 2"
_symmetry_group_IT_number 28
_symmetry_cell_setting 'orthorhombic'
loop_
_space_group_symop_operation_xyz
x,y,z
-x,-y,z
1/2-x,y,z
1/2+x,-y,z
loop_
_atom_site_type_symbol
_atom_site_label
_atom_site_fract_x
_atom_site_fract_y
_atom_site_fract_z
Si Si1 0.163125 0.395456 0.939890
Si Si2 0.163290 0.386599 0.700486
Si Si3 0.839025 0.013414 0.724327
Si Si4 0.160529 0.698342 0.553982
Si Si5 0.085938 0.016553 0.936681
Si Si6 0.586964 0.540945 0.149101
Si Si7 0.084799 0.036722 0.178840
Si Si8 0.338615 0.738319 0.307078
O O1 0.250000 0.344499 0.962062
O O2 0.154515 0.483742 0.819532
O O3 0.110941 0.221960 0.940689
O O4 0.131172 0.517968 0.038244
O O5 0.250000 0.360917 0.672273
O O6 0.127373 0.513506 0.606948
O O7 0.127224 0.186799 0.701594
O O8 0.750000 0.011261 0.729965
O O9 0.869957 0.137859 0.627670
O O10 0.866644 0.085796 0.843009
O O11 0.250000 0.695766 0.559646
O O12 0.132584 0.724634 0.431380
O O13 0.097550 0.942682 0.059929
O O14 0.000000 0.000000 0.902146
O O15 0.500000 0.500000 0.130852
O O16 0.602040 0.750114 0.179173
O O17 0.618485 0.420490 0.245911
O O18 0.140645 0.936214 0.261909
O O19 0.000000 0.000000 0.217527
O O20 0.250000 0.708650 0.297773
#
# Coordination Sequence:
#
# PCOD8168464 Si02
#       8
#     4   4   4   4   4   4   4   4
#     4   9  18  34  58  88 117 151 197 240 291 363
#     4   8  15  31  54  80 113 146 181 232 290 342
#     4   9  17  32  56  80 110 152 189 233 294 348
#     4   9  19  35  54  82 114 147 195 247 285 333
#     4   9  18  32  56  84 120 150 189 236 296 358
#     4  11  22  39  64  86 122 162 194 242 311 359
#     4  10  21  40  60  84 119 165 192 236 307 362
#     4  11  24  39  61  92 118 152 214 258 281 346
#
# _framework density 19.762858000000001
#
# number of rings (size 3 to 8) (size 9 to 14) (size 15 to 20)
#    0.000    2.500    1.250    1.500    0.000    5.000 
#    0.000    4.375    5.500    0.000    0.000    0.000 
#    0.000    0.000    0.000    0.000    0.000    0.000 
#
# Total GULP energy -396567.525562 kJ/mol
# GULP energy per Si atom -12392.735174 kJ/mol
# Density = 1.971788 g / cm^3
# Si number density = 19.762858 Si / 1000 Ang^3
#
#
#
# Elastic Constant Matrix: (Units=GPa)
#
#
# Indices 1 2 3 4 5 6 
#
# 1 57.5006 39.0513 51.8850 0.0000 0.0000 0.0000
# 2 39.0513 66.7469 32.4756 0.0000 0.0000 0.0000
# 3 51.8850 32.4756 127.9667 0.0000 0.0000 0.0000
# 4 0.0000 0.0000 0.0000 33.8266 0.0000 0.0000
# 5 0.0000 0.0000 0.0000 0.0000 3.6775 0.0000
# 6 0.0000 0.0000 0.0000 0.0000 0.0000 16.7394
#
#
#
# Elastic Compliance Matrix: (Units=1/GPa)
#
#
# Indices 1 2 3 4 5 6 
#
# 1 0.039981 -0.017688 -0.011722 0.000000 0.000000 0.000000
# 2 -0.017688 0.024918 0.000848 0.000000 0.000000 0.000000
# 3 -0.011722 0.000848 0.012352 0.000000 0.000000 0.000000
# 4 0.000000 0.000000 0.000000 0.029562 0.000000 0.000000
# 5 0.000000 0.000000 0.000000 0.000000 0.271924 0.000000
# 6 0.000000 0.000000 0.000000 0.000000 0.000000 0.059739
#
#
# Mechanical properties :
#
#
# Convention : Reuss Voigt Hill
#
# Bulk Modulus (GPa) = 49.68366 55.44867 52.56617
# Shear Modulus (GPa) = 9.95401 19.43551 14.69476
#
# Velocity S-wave (km/s) = 2.24670 3.13938 2.72978
# Velocity P-wave (km/s) = 5.65020 6.42331 6.04911
#
# Compressibility (1/GPa) = 0.02012734
#
# Stress axis : x y z
#
# Youngs Moduli (GPa) = 25.01192 40.13130 80.95925
#
# Poissons Ratio (x) = 0.70986 0.94897
# Poissons Ratio (y) = 0.44242 -0.06866
# Poissons Ratio (z) = 0.29318 -0.03403
#
# Static dielectric constant tensor:
#      x y z
#    x 3.420820 0.000000 0.000000 
#    y 0.000000 3.664060 0.000000 
#    z 0.000000 0.000000 4.003100 
# 
# 
# High freq. dielectric constant tensor:
#      x y z
#    x 1.743780 0.000000 0.000000 
#    y 0.000000 1.763470 0.000000 
#    z 0.000000 0.000000 1.776690 
# 
# From -- ./inp_files/5717.got.cif
#   From: 2010.03.12/outbox.cif.g09.slc.cpg/sg28_3_cif.got.tgz:5717.got - 2010.04.14 03:39:34.
