data_PCOD8168730
_publ_section_title
;
Structure prediction by ZEFSAII (Michael W. Deem and Ramdas Pophale) SiO2 
 PCOD8168730
Probable space group: P C A 21
;
_chemical_formula_sum "Si O2"
_cell_formula_units_Z 28
_cell_length_a 17.062649
_cell_length_b 8.049683
_cell_length_c 9.801640
_cell_angle_alpha 90.000000
_cell_angle_beta 90.000000
_cell_angle_gamma 90.000000
_cell_volume 1346.244625
_symmetry_space_group_name_H-M "P C A 21"
_symmetry_group_IT_number 29
_symmetry_cell_setting 'orthorhombic'
loop_
_space_group_symop_operation_xyz
x,y,z
-x,-y,1/2+z
1/2-x,y,1/2+z
1/2+x,-y,z
loop_
_atom_site_type_symbol
_atom_site_label
_atom_site_fract_x
_atom_site_fract_y
_atom_site_fract_z
Si Si1 0.220829 0.998701 0.261000
Si Si2 0.102177 0.769900 0.391583
Si Si3 0.229347 0.543975 0.506785
Si Si4 0.571373 0.739954 0.813984
Si Si5 0.654346 0.401791 0.778189
Si Si6 0.793291 0.807438 0.504185
Si Si7 0.114177 0.921624 0.670962
O O1 0.149881 0.869832 0.276227
O O2 0.291497 0.917801 0.176239
O O3 0.193554 0.147868 0.162636
O O4 0.252392 0.053812 0.409334
O O5 0.149466 0.606563 0.436262
O O6 0.086042 0.896058 0.516606
O O7 0.019757 0.706936 0.335474
O O8 0.305747 0.617447 0.427624
O O9 0.224957 0.598358 0.665327
O O10 0.234073 0.346217 0.494228
O O11 0.607047 0.572432 0.749217
O O12 0.579354 0.903942 0.720327
O O13 0.618836 0.770134 0.953303
O O14 0.594091 0.245327 0.759931
#
# Coordination Sequence:
#
# PCOD8168730 Si02
#       7
#     4   4   4   4   4   4   4
#     4  11  20  38  66  92 116 161 220 255 309 378
#     4  11  23  39  65  91 130 165 213 260 327 376
#     4  10  20  40  63  90 120 164 211 263 303 380
#     4  10  24  41  59  92 133 163 205 266 322 380
#     4  10  21  40  64  90 126 163 213 259 314 375
#     4  10  21  38  63  91 122 163 212 260 310 378
#     4  10  21  42  64  90 125 169 206 267 307 387
#
# _framework density 20.798596
#
# number of rings (size 3 to 8) (size 9 to 14) (size 15 to 20)
#    0.000    1.714    2.857    2.571    2.000    0.000 
#    2.571    5.714    0.000    0.000    0.000    0.000 
#    0.000    0.000    0.000    0.000    0.000    0.000 
#
# Total GULP energy -346953.397151 kJ/mol
# GULP energy per Si atom -12391.192755 kJ/mol
# Density = 2.075126 g / cm^3
# Si number density = 20.798596 Si / 1000 Ang^3
#
#
#
# Elastic Constant Matrix: (Units=GPa)
#
#
# Indices 1 2 3 4 5 6 
#
# 1 92.6115 24.1218 12.6761 0.0000 0.0000 0.0000
# 2 24.1218 109.9377 19.2157 0.0000 0.0000 0.0000
# 3 12.6761 19.2157 73.8484 0.0000 0.0000 0.0000
# 4 0.0000 0.0000 0.0000 32.0810 0.0000 0.0000
# 5 0.0000 0.0000 0.0000 0.0000 19.2486 0.0000
# 6 0.0000 0.0000 0.0000 0.0000 0.0000 26.7764
#
#
#
# Elastic Compliance Matrix: (Units=1/GPa)
#
#
# Indices 1 2 3 4 5 6 
#
# 1 0.011587 -0.002299 -0.001391 0.000000 0.000000 0.000000
# 2 -0.002299 0.009986 -0.002204 0.000000 0.000000 0.000000
# 3 -0.001391 -0.002204 0.014353 0.000000 0.000000 0.000000
# 4 0.000000 0.000000 0.000000 0.031171 0.000000 0.000000
# 5 0.000000 0.000000 0.000000 0.000000 0.051952 0.000000
# 6 0.000000 0.000000 0.000000 0.000000 0.000000 0.037346
#
#
# Mechanical properties :
#
#
# Convention : Reuss Voigt Hill
#
# Bulk Modulus (GPa) = 41.42682 43.15831 42.29256
# Shear Modulus (GPa) = 28.37220 30.31346 29.34283
#
# Velocity S-wave (km/s) = 3.69743 3.82183 3.76015
# Velocity P-wave (km/s) = 6.17975 6.34593 6.26339
#
# Compressibility (1/GPa) = 0.02413895
#
# Stress axis : x y z
#
# Youngs Moduli (GPa) = 86.30359 100.14298 69.67009
#
# Poissons Ratio (x) = 0.23026 0.09689
# Poissons Ratio (y) = 0.19844 0.15353
# Poissons Ratio (z) = 0.12002 0.22068
#
# Static dielectric constant tensor:
#      x y z
#    x 3.444200 0.000000 0.000000 
#    y 0.000000 4.040190 0.000000 
#    z 0.000000 0.000000 3.822500 
# 
# 
# High freq. dielectric constant tensor:
#      x y z
#    x 1.779520 0.000000 0.000000 
#    y 0.000000 1.831360 0.000000 
#    z 0.000000 0.000000 1.810850 
# 
# From -- ./inp_files/2081.got.cif
#   From: 2010.03.12/outbox.cif.g09.slc.cpg/sg29_2_cif.got.tgz:2081.got - 2010.04.14 03:43:10.
