data_PCOD8168264
_publ_section_title
;
Structure prediction by ZEFSAII (Michael W. Deem and Ramdas Pophale) SiO2 
 PCOD8168264
Probable space group: P M A 2
;
_chemical_formula_sum "Si O2"
_cell_formula_units_Z 32
_cell_length_a 13.874246
_cell_length_b 11.754774
_cell_length_c 9.518390
_cell_angle_alpha 90.000000
_cell_angle_beta 90.000000
_cell_angle_gamma 90.000000
_cell_volume 1552.341148
_symmetry_space_group_name_H-M "P M A 2"
_symmetry_group_IT_number 28
_symmetry_cell_setting 'orthorhombic'
loop_
_space_group_symop_operation_xyz
x,y,z
-x,-y,z
1/2-x,y,z
1/2+x,-y,z
loop_
_atom_site_type_symbol
_atom_site_label
_atom_site_fract_x
_atom_site_fract_y
_atom_site_fract_z
Si Si1 0.858561 0.768116 0.727600
Si Si2 0.396481 0.050046 0.503877
Si Si3 0.136237 0.558780 0.935018
Si Si4 0.954647 0.767922 0.288395
Si Si5 0.637686 0.600464 0.479971
Si Si6 0.645775 0.189356 0.429258
Si Si7 0.637467 0.381004 0.627365
Si Si8 0.952850 0.681850 0.991771
O O1 0.750000 0.749330 0.784576
O O2 0.861471 0.887842 0.644989
O O3 0.887940 0.667697 0.622201
O O4 0.933562 0.762920 0.857125
O O5 0.393528 0.135248 0.369979
O O6 0.500000 0.000000 0.535069
O O7 0.331817 0.941310 0.468174
O O8 0.250000 0.586802 0.959571
O O9 0.095369 0.584888 0.778177
O O10 0.116652 0.428273 0.977084
O O11 0.064384 0.643318 0.019352
O O12 0.927556 0.645569 0.353288
O O13 0.068297 0.796245 0.305578
O O14 0.926279 0.760893 0.125223
O O15 0.750000 0.614628 0.440961
O O16 0.606715 0.470617 0.507031
O O17 0.750000 0.241219 0.382810
O O18 0.606660 0.256817 0.568605
O O19 0.750000 0.389369 0.652607
#
# Coordination Sequence:
#
# PCOD8168264 Si02
#       8
#     4   4   4   4   4   4   4   4
#     4  10  19  36  62  89 117 152 204 258 303 355
#     4   9  20  39  63  87 116 155 204 261 307 355
#     4  10  22  38  56  86 131 165 195 240 303 373
#     4  10  23  38  56  89 122 155 202 246 299 358
#     4   9  18  34  58  88 118 151 194 247 298 348
#     4  10  21  38  63  87 118 157 201 252 307 361
#     4   9  18  33  58  90 116 149 194 244 297 355
#     4  11  23  36  60  89 122 169 200 242 301 364
#
# _framework density 20.614027
#
# number of rings (size 3 to 8) (size 9 to 14) (size 15 to 20)
#    0.000    2.250    1.250    0.750    5.250    4.500 
#    0.000    3.125    0.000    0.000    0.000    0.000 
#    0.000    0.000    0.000    0.000    0.000    0.000 
#
# Total GULP energy -396552.421708 kJ/mol
# GULP energy per Si atom -12392.263178 kJ/mol
# Density = 2.056711 g / cm^3
# Si number density = 20.614027 Si / 1000 Ang^3
#
#
#
# Elastic Constant Matrix: (Units=GPa)
#
#
# Indices 1 2 3 4 5 6 
#
# 1 71.7248 8.5366 29.9701 0.0000 0.0000 0.0000
# 2 8.5366 107.0005 52.9354 0.0000 0.0000 0.0000
# 3 29.9701 52.9354 114.0556 0.0000 0.0000 0.0000
# 4 0.0000 0.0000 0.0000 20.6167 0.0000 0.0000
# 5 0.0000 0.0000 0.0000 0.0000 18.1485 0.0000
# 6 0.0000 0.0000 0.0000 0.0000 0.0000 21.7992
#
#
#
# Elastic Compliance Matrix: (Units=1/GPa)
#
#
# Indices 1 2 3 4 5 6 
#
# 1 0.015748 0.001027 -0.004615 0.000000 0.000000 0.000000
# 2 0.001027 0.012198 -0.005931 0.000000 0.000000 0.000000
# 3 -0.004615 -0.005931 0.012733 0.000000 0.000000 0.000000
# 4 0.000000 0.000000 0.000000 0.048504 0.000000 0.000000
# 5 0.000000 0.000000 0.000000 0.000000 0.055101 0.000000
# 6 0.000000 0.000000 0.000000 0.000000 0.000000 0.045873
#
#
# Mechanical properties :
#
#
# Convention : Reuss Voigt Hill
#
# Bulk Modulus (GPa) = 46.20865 52.85166 49.53015
# Shear Modulus (GPa) = 23.10432 25.53547 24.31990
#
# Velocity S-wave (km/s) = 3.35148 3.52340 3.43851
# Velocity P-wave (km/s) = 6.11893 6.49975 6.31221
#
# Compressibility (1/GPa) = 0.02164097
#
# Stress axis : x y z
#
# Youngs Moduli (GPa) = 63.49938 81.98003 78.53652
#
# Poissons Ratio (x) = -0.08415 0.36241
# Poissons Ratio (y) = -0.06518 0.46581
# Poissons Ratio (z) = 0.29302 0.48623
#
# Static dielectric constant tensor:
#      x y z
#    x 3.874440 0.000000 0.000000 
#    y 0.000000 4.010920 0.000000 
#    z 0.000000 0.000000 3.486200 
# 
# 
# High freq. dielectric constant tensor:
#      x y z
#    x 1.820660 0.000000 0.000000 
#    y 0.000000 1.796350 0.000000 
#    z 0.000000 0.000000 1.773530 
# 
# From -- ./inp_files/3551.got.cif
#   From: 2010.03.12/outbox.cif.g09.slc.cpg/sg28_2_cif.got.tgz:3551.got - 2010.04.14 03:39:34.
