data_PCOD8168902
_publ_section_title
;
Structure prediction by ZEFSAII (Michael W. Deem and Ramdas Pophale) SiO2 
 PCOD8168902
Probable space group: P C A 21
;
_chemical_formula_sum "Si O2"
_cell_formula_units_Z 32
_cell_length_a 10.403805
_cell_length_b 15.584715
_cell_length_c 8.860230
_cell_angle_alpha 90.000000
_cell_angle_beta 90.000000
_cell_angle_gamma 90.000000
_cell_volume 1436.600668
_symmetry_space_group_name_H-M "P C A 21"
_symmetry_group_IT_number 29
_symmetry_cell_setting 'orthorhombic'
loop_
_space_group_symop_operation_xyz
x,y,z
-x,-y,1/2+z
1/2-x,y,1/2+z
1/2+x,-y,z
loop_
_atom_site_type_symbol
_atom_site_label
_atom_site_fract_x
_atom_site_fract_y
_atom_site_fract_z
Si Si1 0.302116 0.351226 0.964430
Si Si2 0.075387 0.356969 0.771715
Si Si3 0.875711 0.240208 0.651827
Si Si4 0.645624 0.466800 0.356794
Si Si5 0.011404 0.752251 0.835147
Si Si6 0.151931 0.954221 0.135732
Si Si7 0.839550 0.374667 0.169696
Si Si8 0.420018 0.944526 0.283737
O O1 0.150159 0.352787 0.930485
O O2 0.372117 0.434410 0.893960
O O3 0.366317 0.263237 0.899539
O O4 0.315382 0.360665 0.143441
O O5 0.996441 0.269719 0.751841
O O6 0.978495 0.438494 0.757562
O O7 0.893272 0.257267 0.475474
O O8 0.857652 0.142307 0.693109
O O9 0.753047 0.293859 0.697692
O O10 0.780437 0.453546 0.267399
O O11 0.643560 0.404375 0.500216
O O12 0.029419 0.669156 0.726854
O O13 0.036948 0.844980 0.759927
O O14 0.301329 0.976684 0.176997
O O15 0.120378 0.964216 0.957624
O O16 0.048782 0.005497 0.235754
#
# Coordination Sequence:
#
# PCOD8168902 Si02
#       8
#     4   4   4   4   4   4   4   4
#     4  11  25  42  60  89 135 169 223 272 333 395
#     4  10  25  42  59  91 123 174 214 270 331 395
#     4   9  20  42  66  93 128 163 223 271 327 395
#     4  11  25  37  66  91 129 167 222 274 330 387
#     4  10  22  40  66  92 129 174 215 272 326 399
#     4  11  23  43  70 104 138 177 226 287 338 419
#     4  11  20  40  64  97 120 167 221 268 323 388
#     4  11  24  44  71 103 140 177 228 278 350 408
#
# _framework density 22.274805000000001
#
# number of rings (size 3 to 8) (size 9 to 14) (size 15 to 20)
#    0.000    1.500    2.500    1.500    5.250    1.000 
#    4.500    2.500    0.000    0.000    0.000    0.000 
#    0.000    0.000    0.000    0.000    0.000    0.000 
#
# Total GULP energy -396596.906039 kJ/mol
# GULP energy per Si atom -12393.653314 kJ/mol
# Density = 2.222411 g / cm^3
# Si number density = 22.274805 Si / 1000 Ang^3
#
#
#
# Elastic Constant Matrix: (Units=GPa)
#
#
# Indices 1 2 3 4 5 6 
#
# 1 79.3380 26.0375 18.8839 0.0000 0.0000 0.0000
# 2 26.0375 68.8344 16.8539 0.0000 0.0000 0.0000
# 3 18.8839 16.8539 70.6597 0.0000 0.0000 0.0000
# 4 0.0000 0.0000 0.0000 27.9727 0.0000 0.0000
# 5 0.0000 0.0000 0.0000 0.0000 37.1930 0.0000
# 6 0.0000 0.0000 0.0000 0.0000 0.0000 28.6153
#
#
#
# Elastic Compliance Matrix: (Units=1/GPa)
#
#
# Indices 1 2 3 4 5 6 
#
# 1 0.014895 -0.004949 -0.002800 0.000000 0.000000 0.000000
# 2 -0.004949 0.017073 -0.002750 0.000000 0.000000 0.000000
# 3 -0.002800 -0.002750 0.015557 0.000000 0.000000 0.000000
# 4 0.000000 0.000000 0.000000 0.035749 0.000000 0.000000
# 5 0.000000 0.000000 0.000000 0.000000 0.026887 0.000000
# 6 0.000000 0.000000 0.000000 0.000000 0.000000 0.034946
#
#
# Mechanical properties :
#
#
# Convention : Reuss Voigt Hill
#
# Bulk Modulus (GPa) = 37.69742 38.04253 37.86998
# Shear Modulus (GPa) = 28.58025 29.22665 28.90345
#
# Velocity S-wave (km/s) = 3.58589 3.62621 3.60611
# Velocity P-wave (km/s) = 5.83998 5.88629 5.86318
#
# Compressibility (1/GPa) = 0.02652701
#
# Stress axis : x y z
#
# Youngs Moduli (GPa) = 67.13720 58.57299 64.28140
#
# Poissons Ratio (x) = 0.28985 0.18001
# Poissons Ratio (y) = 0.33223 0.17676
# Poissons Ratio (z) = 0.18801 0.16106
#
# Static dielectric constant tensor:
#      x y z
#    x 4.078140 0.000000 0.000000 
#    y 0.000000 3.965990 0.000000 
#    z 0.000000 0.000000 3.967670 
# 
# 
# High freq. dielectric constant tensor:
#      x y z
#    x 1.882090 0.000000 0.000000 
#    y 0.000000 1.867130 0.000000 
#    z 0.000000 0.000000 1.877210 
# 
# From -- ./inp_files/1558.got.cif
#   From: 2010.03.12/outbox.cif.g09.slc.cpg/sg29_1_cif.got.tgz:1558.got - 2010.04.14 03:43:10.
