data_PCOD8168542
_publ_section_title
;
Structure prediction by ZEFSAII (Michael W. Deem and Ramdas Pophale) SiO2 
 PCOD8168542
Probable space group: P C A 21
;
_chemical_formula_sum "Si O2"
_cell_formula_units_Z 20
_cell_length_a 16.948188
_cell_length_b 12.691155
_cell_length_c 4.967163
_cell_angle_alpha 90.000000
_cell_angle_beta 90.000000
_cell_angle_gamma 90.000000
_cell_volume 1068.397426
_symmetry_space_group_name_H-M "P C A 21"
_symmetry_group_IT_number 29
_symmetry_cell_setting 'orthorhombic'
loop_
_space_group_symop_operation_xyz
x,y,z
-x,-y,1/2+z
1/2-x,y,1/2+z
1/2+x,-y,z
loop_
_atom_site_type_symbol
_atom_site_label
_atom_site_fract_x
_atom_site_fract_y
_atom_site_fract_z
Si Si1 0.548417 0.967372 0.195660
Si Si2 0.016344 0.265678 0.215071
Si Si3 0.801948 0.108310 0.695048
Si Si4 0.949833 0.515087 0.601257
Si Si5 0.589582 0.297706 0.214907
O O1 0.563744 0.842296 0.171141
O O2 0.520186 0.997300 0.493224
O O3 0.629617 0.025361 0.129439
O O4 0.981710 0.267183 0.515236
O O5 0.076917 0.364524 0.166966
O O6 0.941725 0.275259 0.014475
O O7 0.729421 0.090106 0.494838
O O8 0.833801 0.227349 0.659894
O O9 0.887308 0.422093 0.673995
O O10 0.972794 0.506898 0.287844
#
# Coordination Sequence:
#
# PCOD8168542 Si02
#       5
#     4   4   4   4   4
#     4  12  21  36  57  79 107 145 188 227 267 324
#     4  10  17  32  54  80 101 133 175 231 262 304
#     4  12  24  36  52  78 114 147 180 223 282 332
#     4   8  16  27  49  77 101 124 162 215 266 305
#     4  10  18  33  52  76 107 133 173 220 273 317
#
# _framework density 18.719624
#
# number of rings (size 3 to 8) (size 9 to 14) (size 15 to 20)
#    0.000    1.600    4.000    2.400    0.000    0.000 
#    0.000    0.000    0.000    2.400    0.000    0.000 
#    0.000    0.000    0.000    0.000    0.000    0.000 
#
# Total GULP energy -247909.161956 kJ/mol
# GULP energy per Si atom -12395.458098 kJ/mol
# Density = 1.867702 g / cm^3
# Si number density = 18.719624 Si / 1000 Ang^3
#
#
#
# Elastic Constant Matrix: (Units=GPa)
#
#
# Indices 1 2 3 4 5 6 
#
# 1 52.0629 41.1958 5.9421 0.0000 0.0000 0.0000
# 2 41.1958 188.7782 13.3240 0.0000 0.0000 0.0000
# 3 5.9421 13.3240 71.7585 0.0000 0.0000 0.0000
# 4 0.0000 0.0000 0.0000 24.7134 0.0000 0.0000
# 5 0.0000 0.0000 0.0000 0.0000 25.6806 0.0000
# 6 0.0000 0.0000 0.0000 0.0000 0.0000 15.9830
#
#
#
# Elastic Compliance Matrix: (Units=1/GPa)
#
#
# Indices 1 2 3 4 5 6 
#
# 1 0.023287 -0.005011 -0.000998 0.000000 0.000000 0.000000
# 2 -0.005011 0.006446 -0.000782 0.000000 0.000000 0.000000
# 3 -0.000998 -0.000782 0.014163 0.000000 0.000000 0.000000
# 4 0.000000 0.000000 0.000000 0.040464 0.000000 0.000000
# 5 0.000000 0.000000 0.000000 0.000000 0.038940 0.000000
# 6 0.000000 0.000000 0.000000 0.000000 0.000000 0.062566
#
#
# Mechanical properties :
#
#
# Convention : Reuss Voigt Hill
#
# Bulk Modulus (GPa) = 32.98794 48.16928 40.57861
# Shear Modulus (GPa) = 23.86032 30.08459 26.97246
#
# Velocity S-wave (km/s) = 3.57405 4.01323 3.79999
# Velocity P-wave (km/s) = 5.89000 6.87478 6.40136
#
# Compressibility (1/GPa) = 0.03031411
#
# Stress axis : x y z
#
# Youngs Moduli (GPa) = 42.94296 155.13525 70.60432
#
# Poissons Ratio (x) = 0.77743 0.07045
# Poissons Ratio (y) = 0.21520 0.05521
# Poissons Ratio (z) = 0.04285 0.12130
#
# Static dielectric constant tensor:
#      x y z
#    x 2.784850 0.000000 0.000000 
#    y 0.000000 4.072620 0.000000 
#    z 0.000000 0.000000 3.571120 
# 
# 
# High freq. dielectric constant tensor:
#      x y z
#    x 1.644370 0.000000 0.000000 
#    y 0.000000 1.753890 0.000000 
#    z 0.000000 0.000000 1.753140 
# 
# From -- ./inp_files/149.got.cif
#   From: 2010.03.12/outbox.cif.g09.slc.cpg/sg29_1_cif.got.tgz:149.got - 2010.04.14 03:43:10.
