data_PCOD8168229
_publ_section_title
;
Structure prediction by ZEFSAII (Michael W. Deem and Ramdas Pophale) SiO2 
 PCOD8168229
Probable space group: P M A 2
;
_chemical_formula_sum "Si O2"
_cell_formula_units_Z 32
_cell_length_a 9.331139
_cell_length_b 19.039811
_cell_length_c 10.126182
_cell_angle_alpha 90.000000
_cell_angle_beta 90.000000
_cell_angle_gamma 90.000000
_cell_volume 1799.049118
_symmetry_space_group_name_H-M "P M A 2"
_symmetry_group_IT_number 28
_symmetry_cell_setting 'orthorhombic'
loop_
_space_group_symop_operation_xyz
x,y,z
-x,-y,z
1/2-x,y,z
1/2+x,-y,z
loop_
_atom_site_type_symbol
_atom_site_label
_atom_site_fract_x
_atom_site_fract_y
_atom_site_fract_z
Si Si1 0.581824 0.713249 0.078540
Si Si2 0.084299 0.703535 0.581422
Si Si3 0.419739 0.429545 0.653597
Si Si4 0.083107 0.932263 0.222437
Si Si5 0.583955 0.219357 0.311743
Si Si6 0.587473 0.064524 0.920012
Si Si7 0.585633 0.566610 0.957494
Si Si8 0.085343 0.783457 0.845958
O O1 0.750000 0.728416 0.085428
O O2 0.509741 0.732429 0.216184
O O3 0.549159 0.631661 0.051126
O O4 0.517768 0.758586 0.961005
O O5 0.250000 0.679690 0.587035
O O6 0.054692 0.754383 0.458946
O O7 0.040412 0.747507 0.710030
O O8 0.984345 0.634994 0.570219
O O9 0.500000 0.500000 0.605975
O O10 0.250000 0.436028 0.627557
O O11 0.456904 0.415070 0.806924
O O12 0.250000 0.947842 0.239053
O O13 0.037787 0.862315 0.302419
O O14 0.039235 0.918939 0.070207
O O15 0.000000 0.000000 0.279826
O O16 0.750000 0.227178 0.270338
O O17 0.750000 0.039692 0.919125
O O18 0.563647 0.133001 0.830099
O O19 0.500000 0.000000 0.858255
O O20 0.500000 0.500000 0.011979
O O21 0.750000 0.545223 0.963695
O O22 0.250000 0.766573 0.884494
#
# Coordination Sequence:
#
# PCOD8168229 Si02
#       8
#     4   4   4   4   4   4   4   4
#     4  11  21  34  54  82 109 137 177 223 270 316
#     4  10  21  36  57  81 108 145 185 222 269 322
#     4  10  19  34  55  80 111 141 178 224 267 319
#     4   9  17  31  51  74 103 137 176 220 265 317
#     4  10  21  38  55  78 110 145 183 222 266 322
#     4   9  17  30  49  75 105 137 175 219 270 318
#     4   9  19  33  51  79 109 137 172 218 267 315
#     4  10  19  34  55  79 106 139 178 220 268 323
#
# _framework density 17.787175999999999
#
# number of rings (size 3 to 8) (size 9 to 14) (size 15 to 20)
#    0.000    2.250    2.500    0.750    0.000    3.000 
#    0.000    1.250    0.000    1.500    0.000    0.000 
#    0.000    0.000    0.000    0.000    0.000    0.000 
#
# Total GULP energy -396851.342714 kJ/mol
# GULP energy per Si atom -12401.604460 kJ/mol
# Density = 1.774669 g / cm^3
# Si number density = 17.787176 Si / 1000 Ang^3
#
#
#
# Elastic Constant Matrix: (Units=GPa)
#
#
# Indices 1 2 3 4 5 6 
#
# 1 66.8009 57.9345 22.7087 0.0000 0.0000 0.0000
# 2 57.9345 133.6974 34.2405 0.0000 0.0000 0.0000
# 3 22.7087 34.2405 49.3874 0.0000 0.0000 0.0000
# 4 0.0000 0.0000 0.0000 23.8561 0.0000 0.0000
# 5 0.0000 0.0000 0.0000 0.0000 13.5638 0.0000
# 6 0.0000 0.0000 0.0000 0.0000 0.0000 37.0191
#
#
#
# Elastic Compliance Matrix: (Units=1/GPa)
#
#
# Indices 1 2 3 4 5 6 
#
# 1 0.024894 -0.009552 -0.004824 0.000000 0.000000 0.000000
# 2 -0.009552 0.012759 -0.004454 0.000000 0.000000 0.000000
# 3 -0.004824 -0.004454 0.025554 0.000000 0.000000 0.000000
# 4 0.000000 0.000000 0.000000 0.041918 0.000000 0.000000
# 5 0.000000 0.000000 0.000000 0.000000 0.073726 0.000000
# 6 0.000000 0.000000 0.000000 0.000000 0.000000 0.027013
#
#
# Mechanical properties :
#
#
# Convention : Reuss Voigt Hill
#
# Bulk Modulus (GPa) = 39.14279 53.29479 46.21879
# Shear Modulus (GPa) = 19.83817 23.88794 21.86305
#
# Velocity S-wave (km/s) = 3.34324 3.66865 3.50972
# Velocity P-wave (km/s) = 6.07923 6.92625 6.51651
#
# Compressibility (1/GPa) = 0.02554749
#
# Stress axis : x y z
#
# Youngs Moduli (GPa) = 40.17101 78.37454 39.13233
#
# Poissons Ratio (x) = 0.74860 0.18878
# Poissons Ratio (y) = 0.38370 0.17430
# Poissons Ratio (z) = 0.19379 0.34909
#
# Static dielectric constant tensor:
#      x y z
#    x 3.333890 0.000000 0.000000 
#    y 0.000000 3.423830 0.000000 
#    z 0.000000 0.000000 3.067170 
# 
# 
# High freq. dielectric constant tensor:
#      x y z
#    x 1.689190 0.000000 0.000000 
#    y 0.000000 1.700030 0.000000 
#    z 0.000000 0.000000 1.656040 
# 
# From -- ./inp_files/5200.got.cif
#   From: 2010.03.12/outbox.cif.g09.slc.cpg/sg28_3_cif.got.tgz:5200.got - 2010.04.14 03:39:34.
