data_PCOD8168393
_publ_section_title
;
Structure prediction by ZEFSAII (Michael W. Deem and Ramdas Pophale) SiO2 
 PCOD8168393
Probable space group: P M A 2
;
_chemical_formula_sum "Si O2"
_cell_formula_units_Z 32
_cell_length_a 13.942359
_cell_length_b 9.414389
_cell_length_c 11.647469
_cell_angle_alpha 90.000000
_cell_angle_beta 90.000000
_cell_angle_gamma 90.000000
_cell_volume 1528.832702
_symmetry_space_group_name_H-M "P M A 2"
_symmetry_group_IT_number 28
_symmetry_cell_setting 'orthorhombic'
loop_
_space_group_symop_operation_xyz
x,y,z
-x,-y,z
1/2-x,y,z
1/2+x,-y,z
loop_
_atom_site_type_symbol
_atom_site_label
_atom_site_fract_x
_atom_site_fract_y
_atom_site_fract_z
Si Si1 0.525296 0.350405 0.273980
Si Si2 0.360169 0.138799 0.739752
Si Si3 0.972673 0.350052 0.738883
Si Si4 0.133715 0.660982 0.505046
Si Si5 0.144539 0.149058 0.306028
Si Si6 0.596428 0.085870 0.137425
Si Si7 0.642317 0.119635 0.881309
Si Si8 0.640557 0.021757 0.509714
O O1 0.500000 0.500000 0.210382
O O2 0.581127 0.399219 0.391263
O O3 0.420268 0.282588 0.279925
O O4 0.588754 0.236893 0.203635
O O5 0.250000 0.191713 0.750833
O O6 0.425734 0.274034 0.716058
O O7 0.375499 0.031121 0.636331
O O8 0.393729 0.039882 0.846888
O O9 0.912644 0.394710 0.624265
O O10 0.915325 0.250197 0.826558
O O11 0.000000 0.500000 0.798916
O O12 0.250000 0.636699 0.503439
O O13 0.098877 0.822601 0.503969
O O14 0.250000 0.211086 0.332889
O O15 0.090697 0.079032 0.416156
O O16 0.158247 0.026555 0.209743
O O17 0.500000 0.000000 0.112690
O O18 0.644413 0.128217 0.018052
O O19 0.750000 0.135280 0.832601
O O20 0.750000 0.025823 0.470960
#
# Coordination Sequence:
#
# PCOD8168393 Si02
#       8
#     4   4   4   4   4   4   4   4
#     4  11  24  39  59  91 126 164 197 241 299 365
#     4  10  21  38  62  90 119 155 202 253 300 351
#     4  12  25  39  60  90 126 164 196 241 299 367
#     4  11  22  38  61  90 124 161 202 245 295 355
#     4  10  20  37  61  90 120 156 202 253 300 350
#     4  10  21  38  63  89 118 156 202 253 298 351
#     4  11  23  41  65  90 116 153 204 256 302 351
#     4   9  17  32  59  88 112 145 197 247 290 341
#
# _framework density 20.931001999999999
#
# number of rings (size 3 to 8) (size 9 to 14) (size 15 to 20)
#    0.000    1.500    2.500    3.000    0.000    3.500 
#    0.000    1.250    0.000    0.000    0.000    0.000 
#    0.000    0.000    0.000    0.000    0.000    0.000 
#
# Total GULP energy -396452.986934 kJ/mol
# GULP energy per Si atom -12389.155842 kJ/mol
# Density = 2.088336 g / cm^3
# Si number density = 20.931002 Si / 1000 Ang^3
#
#
#
# Elastic Constant Matrix: (Units=GPa)
#
#
# Indices 1 2 3 4 5 6 
#
# 1 99.1509 36.9512 18.9294 0.0000 0.0000 0.0000
# 2 36.9512 116.2055 13.4162 0.0000 0.0000 0.0000
# 3 18.9294 13.4162 93.4795 0.0000 0.0000 0.0000
# 4 0.0000 0.0000 0.0000 25.9788 0.0000 0.0000
# 5 0.0000 0.0000 0.0000 0.0000 36.8646 0.0000
# 6 0.0000 0.0000 0.0000 0.0000 0.0000 18.8201
#
#
#
# Elastic Compliance Matrix: (Units=1/GPa)
#
#
# Indices 1 2 3 4 5 6 
#
# 1 0.011756 -0.003522 -0.001875 0.000000 0.000000 0.000000
# 2 -0.003522 0.009805 -0.000694 0.000000 0.000000 0.000000
# 3 -0.001875 -0.000694 0.011177 0.000000 0.000000 0.000000
# 4 0.000000 0.000000 0.000000 0.038493 0.000000 0.000000
# 5 0.000000 0.000000 0.000000 0.000000 0.027126 0.000000
# 6 0.000000 0.000000 0.000000 0.000000 0.000000 0.053135
#
#
# Mechanical properties :
#
#
# Convention : Reuss Voigt Hill
#
# Bulk Modulus (GPa) = 48.64673 49.71440 49.18057
# Shear Modulus (GPa) = 29.32096 32.30197 30.81146
#
# Velocity S-wave (km/s) = 3.74684 3.93270 3.84089
# Velocity P-wave (km/s) = 6.48154 6.66518 6.57400
#
# Compressibility (1/GPa) = 0.02055636
#
# Stress axis : x y z
#
# Youngs Moduli (GPa) = 85.06223 101.98433 89.47054
#
# Poissons Ratio (x) = 0.35916 0.16777
# Poissons Ratio (y) = 0.29957 0.06210
# Poissons Ratio (z) = 0.15950 0.07079
#
# Static dielectric constant tensor:
#      x y z
#    x 3.016210 0.000000 0.000000 
#    y 0.000000 3.590130 0.000000 
#    z 0.000000 0.000000 3.830740 
# 
# 
# High freq. dielectric constant tensor:
#      x y z
#    x 1.833480 0.000000 0.000000 
#    y 0.000000 1.809770 0.000000 
#    z 0.000000 0.000000 1.806590 
# 
# From -- ./inp_files/5557.got.cif
#   From: 2010.03.12/outbox.cif.g09.slc.cpg/sg28_3_cif.got.tgz:5557.got - 2010.04.14 03:39:34.
