data_PCOD8168437
_publ_section_title
;
Structure prediction by ZEFSAII (Michael W. Deem and Ramdas Pophale) SiO2 
 PCOD8168437
Probable space group: P M A 2
;
_chemical_formula_sum "Si O2"
_cell_formula_units_Z 32
_cell_length_a 8.812035
_cell_length_b 15.388384
_cell_length_c 11.810050
_cell_angle_alpha 90.000000
_cell_angle_beta 90.000000
_cell_angle_gamma 90.000000
_cell_volume 1601.477955
_symmetry_space_group_name_H-M "P M A 2"
_symmetry_group_IT_number 28
_symmetry_cell_setting 'orthorhombic'
loop_
_space_group_symop_operation_xyz
x,y,z
-x,-y,z
1/2-x,y,z
1/2+x,-y,z
loop_
_atom_site_type_symbol
_atom_site_label
_atom_site_fract_x
_atom_site_fract_y
_atom_site_fract_z
Si Si1 0.074269 0.409229 0.790000
Si Si2 0.071005 0.087870 0.786794
Si Si3 0.574004 0.255942 0.177133
Si Si4 0.572005 0.147738 0.562393
Si Si5 0.928466 0.089748 0.314386
Si Si6 0.928116 0.591539 0.312352
Si Si7 0.575501 0.669322 0.550353
Si Si8 0.573866 0.248353 0.911901
O O1 0.250000 0.408888 0.825084
O O2 0.054387 0.394442 0.656155
O O3 0.000000 0.500000 0.823732
O O4 0.987708 0.336985 0.860964
O O5 0.250000 0.082103 0.792990
O O6 0.020211 0.096081 0.656850
O O7 0.016692 0.168840 0.859371
O O8 0.000000 0.000000 0.838650
O O9 0.750000 0.270078 0.207184
O O10 0.512002 0.168247 0.236042
O O11 0.481635 0.337603 0.222469
O O12 0.545286 0.247775 0.044834
O O13 0.750000 0.136156 0.584356
O O14 0.520477 0.108762 0.442565
O O15 0.533032 0.249069 0.568056
O O16 0.750000 0.081073 0.303613
O O17 0.000000 0.000000 0.271129
O O18 0.750000 0.581536 0.303625
O O19 0.978528 0.618648 0.438689
O O20 0.000000 0.500000 0.279491
O O21 0.750000 0.701030 0.539926
O O22 0.750000 0.238268 0.880961
#
# Coordination Sequence:
#
# PCOD8168437 Si02
#       8
#     4   4   4   4   4   4   4   4
#     4  11  23  40  63  92 126 162 203 251 307 368
#     4  12  25  42  64  92 128 163 205 253 305 368
#     4  10  23  44  64  87 121 160 207 259 307 361
#     4  11  21  36  63  93 125 163 201 245 307 368
#     4  10  22  39  61  91 123 159 197 245 301 359
#     4  11  23  39  63  93 125 163 205 250 306 366
#     4  10  21  37  60  92 126 161 199 249 307 367
#     4  11  24  43  66  90 120 161 210 260 312 365
#
# _framework density 19.981544
#
# number of rings (size 3 to 8) (size 9 to 14) (size 15 to 20)
#    0.000    1.250    2.500    3.375    0.000    5.500 
#    0.000    1.250    0.000    0.000    0.000    0.000 
#    0.000    0.000    0.000    0.000    0.000    0.000 
#
# Total GULP energy -397010.337298 kJ/mol
# GULP energy per Si atom -12406.573041 kJ/mol
# Density = 1.993607 g / cm^3
# Si number density = 19.981544 Si / 1000 Ang^3
#
#
#
# Elastic Constant Matrix: (Units=GPa)
#
#
# Indices 1 2 3 4 5 6 
#
# 1 103.4453 52.9257 47.7010 0.0000 0.0000 0.0000
# 2 52.9257 158.9523 45.8148 0.0000 0.0000 0.0000
# 3 47.7010 45.8148 93.4567 0.0000 0.0000 0.0000
# 4 0.0000 0.0000 0.0000 -10.5659 0.0000 0.0000
# 5 0.0000 0.0000 0.0000 0.0000 16.2508 0.0000
# 6 0.0000 0.0000 0.0000 0.0000 0.0000 40.3877
#
#
#
# Elastic Compliance Matrix: (Units=1/GPa)
#
#
# Indices 1 2 3 4 5 6 
#
# 1 0.013754 -0.002977 -0.005561 0.000000 0.000000 0.000000
# 2 -0.002977 0.007971 -0.002388 0.000000 0.000000 0.000000
# 3 -0.005561 -0.002388 0.014709 0.000000 0.000000 0.000000
# 4 0.000000 0.000000 0.000000 -0.094644 0.000000 0.000000
# 5 0.000000 0.000000 0.000000 0.000000 0.061536 0.000000
# 6 0.000000 0.000000 0.000000 0.000000 0.000000 0.024760
#
#
# Mechanical properties :
#
#
# Convention : Reuss Voigt Hill
#
# Bulk Modulus (GPa) = 68.57558 72.08194 70.32876
# Shear Modulus (GPa) = 91.24427 23.17536 57.20982
#
# Velocity S-wave (km/s) = 6.76487 3.40933 5.35663
# Velocity P-wave (km/s) = 9.76790 7.18684 8.57504
#
# Compressibility (1/GPa) = 0.01458245
#
# Stress axis : x y z
#
# Youngs Moduli (GPa) = 72.70459 125.45966 67.98489
#
# Poissons Ratio (x) = 0.37348 0.37806
# Poissons Ratio (y) = 0.21643 0.16235
# Poissons Ratio (z) = 0.40431 0.29960
#
# Static dielectric constant tensor:
#      x y z
#    x 3.652970 0.000000 0.000000 
#    y 0.000000 3.934920 0.000000 
#    z 0.000000 0.000000 3.715180 
# 
# 
# High freq. dielectric constant tensor:
#      x y z
#    x 1.784890 0.000000 0.000000 
#    y 0.000000 1.793590 0.000000 
#    z 0.000000 0.000000 1.779360 
# 
# From -- ./inp_files/5075.got.cif
#   From: 2010.03.12/outbox.cif.g09.slc.cpg/sg28_3_cif.got.tgz:5075.got - 2010.04.14 03:39:34.
