data_PCOD8168348
_publ_section_title
;
Structure prediction by ZEFSAII (Michael W. Deem and Ramdas Pophale) SiO2 
 PCOD8168348
Probable space group: P M A 2
;
_chemical_formula_sum "Si O2"
_cell_formula_units_Z 20
_cell_length_a 8.748647
_cell_length_b 9.993237
_cell_length_c 12.682640
_cell_angle_alpha 90.000000
_cell_angle_beta 90.000000
_cell_angle_gamma 90.000000
_cell_volume 1108.809009
_symmetry_space_group_name_H-M "P M A 2"
_symmetry_group_IT_number 28
_symmetry_cell_setting 'orthorhombic'
loop_
_space_group_symop_operation_xyz
x,y,z
-x,-y,z
1/2-x,y,z
1/2+x,-y,z
loop_
_atom_site_type_symbol
_atom_site_label
_atom_site_fract_x
_atom_site_fract_y
_atom_site_fract_z
Si Si1 0.571656 0.644577 0.655350
Si Si2 0.431218 0.648388 0.095953
Si Si3 0.430430 0.141144 0.252133
Si Si4 0.929297 0.861709 0.494483
Si Si5 0.071329 0.355070 0.887051
O O1 0.500000 0.500000 0.640260
O O2 0.750000 0.624387 0.637734
O O3 0.502409 0.744146 0.567786
O O4 0.541261 0.709856 0.771833
O O5 0.500000 0.500000 0.107596
O O6 0.250000 0.640593 0.100180
O O7 0.492072 0.738469 0.190239
O O8 0.486077 0.717000 0.985079
O O9 0.250000 0.139401 0.232211
O O10 0.472884 0.167594 0.373770
O O11 0.500000 0.000000 0.214222
O O12 0.750000 0.872890 0.510080
O O13 0.000000 0.000000 0.533809
O O14 0.250000 0.363168 0.913803
O O15 0.000000 0.500000 0.878986
#
# Coordination Sequence:
#
# PCOD8168348 Si02
#       5
#     4   4   4   4   4
#     4   9  18  32  51  76 103 131 165 206 249 295
#     4  11  21  34  53  77 104 134 171 212 255 301
#     4  10  20  36  55  75 102 135 171 210 255 305
#     4   9  19  35  53  74 101 133 167 204 248 298
#     4   9  16  29  49  72 101 133 165 204 251 299
#
# _framework density 18.037371
#
# number of rings (size 3 to 8) (size 9 to 14) (size 15 to 20)
#    0.000    2.400    0.000    4.200    0.000    3.200 
#    0.000    3.000    0.000    2.400    0.000    0.000 
#    0.000    0.000    0.000    0.000    0.000    0.000 
#
# Total GULP energy -247894.115558 kJ/mol
# GULP energy per Si atom -12394.705778 kJ/mol
# Density = 1.799632 g / cm^3
# Si number density = 18.037371 Si / 1000 Ang^3
#
#
#
# Elastic Constant Matrix: (Units=GPa)
#
#
# Indices 1 2 3 4 5 6 
#
# 1 93.9921 45.8016 53.0530 0.0000 0.0000 0.0000
# 2 45.8016 105.9030 80.1542 0.0000 0.0000 0.0000
# 3 53.0530 80.1542 125.3482 0.0000 0.0000 0.0000
# 4 0.0000 0.0000 0.0000 16.4604 0.0000 0.0000
# 5 0.0000 0.0000 0.0000 0.0000 23.9715 0.0000
# 6 0.0000 0.0000 0.0000 0.0000 0.0000 28.3347
#
#
#
# Elastic Compliance Matrix: (Units=1/GPa)
#
#
# Indices 1 2 3 4 5 6 
#
# 1 0.014502 -0.003152 -0.004122 0.000000 0.000000 0.000000
# 2 -0.003152 0.018984 -0.010805 0.000000 0.000000 0.000000
# 3 -0.004122 -0.010805 0.016632 0.000000 0.000000 0.000000
# 4 0.000000 0.000000 0.000000 0.060752 0.000000 0.000000
# 5 0.000000 0.000000 0.000000 0.000000 0.041716 0.000000
# 6 0.000000 0.000000 0.000000 0.000000 0.000000 0.035292
#
#
# Mechanical properties :
#
#
# Convention : Reuss Voigt Hill
#
# Bulk Modulus (GPa) = 71.63944 75.91789 73.77866
# Shear Modulus (GPa) = 21.86366 23.50231 22.68298
#
# Velocity S-wave (km/s) = 3.48534 3.61360 3.55005
# Velocity P-wave (km/s) = 7.48333 7.71954 7.60236
#
# Compressibility (1/GPa) = 0.01395879
#
# Stress axis : x y z
#
# Youngs Moduli (GPa) = 68.95650 52.67643 60.12478
#
# Poissons Ratio (x) = 0.16602 0.24786
# Poissons Ratio (y) = 0.21733 0.64967
# Poissons Ratio (z) = 0.28427 0.56918
#
# Static dielectric constant tensor:
#      x y z
#    x 3.325610 0.000000 0.000000 
#    y 0.000000 2.986630 0.000000 
#    z 0.000000 0.000000 4.085280 
# 
# 
# High freq. dielectric constant tensor:
#      x y z
#    x 1.707190 0.000000 0.000000 
#    y 0.000000 1.670570 0.000000 
#    z 0.000000 0.000000 1.714250 
# 
# From -- ./inp_files/4555.got.cif
#   From: 2010.03.12/outbox.cif.g09.slc.cpg/sg28_3_cif.got.tgz:4555.got - 2010.04.14 03:39:34.
