data_PCOD8168430
_publ_section_title
;
Structure prediction by ZEFSAII (Michael W. Deem and Ramdas Pophale) SiO2 
 PCOD8168430
Probable space group: P M A 2
;
_chemical_formula_sum "Si O2"
_cell_formula_units_Z 32
_cell_length_a 16.914217
_cell_length_b 14.160744
_cell_length_c 6.829208
_cell_angle_alpha 90.000000
_cell_angle_beta 90.000000
_cell_angle_gamma 90.000000
_cell_volume 1635.717538
_symmetry_space_group_name_H-M "P M A 2"
_symmetry_group_IT_number 28
_symmetry_cell_setting 'orthorhombic'
loop_
_space_group_symop_operation_xyz
x,y,z
-x,-y,z
1/2-x,y,z
1/2+x,-y,z
loop_
_atom_site_type_symbol
_atom_site_label
_atom_site_fract_x
_atom_site_fract_y
_atom_site_fract_z
Si Si1 0.658929 0.472030 0.863620
Si Si2 0.537532 0.401126 0.551777
Si Si3 0.839262 0.014892 0.682058
Si Si4 0.425113 0.658351 0.134284
Si Si5 0.091249 0.009107 0.272761
Si Si6 0.158745 0.847154 0.016896
Si Si7 0.427793 0.338656 0.876769
Si Si8 0.840483 0.849710 0.992533
O O1 0.750000 0.458434 0.815627
O O2 0.611273 0.420197 0.692360
O O3 0.640070 0.582504 0.878053
O O4 0.637037 0.421827 0.068771
O O5 0.500000 0.500000 0.480767
O O6 0.568547 0.340981 0.368598
O O7 0.472267 0.339142 0.667153
O O8 0.750000 0.019342 0.599810
O O9 0.899812 0.999023 0.505933
O O10 0.848589 0.928599 0.828852
O O11 0.859440 0.111078 0.800402
O O12 0.398012 0.759535 0.054454
O O13 0.510899 0.634511 0.047234
O O14 0.122821 0.110317 0.195037
O O15 0.142919 0.926340 0.178671
O O16 0.000000 0.000000 0.213811
O O17 0.250000 0.815823 0.033305
O O18 0.389007 0.238796 0.916239
O O19 0.750000 0.820582 0.030875
#
# Coordination Sequence:
#
# PCOD8168430 Si02
#       8
#     4   4   4   4   4   4   4   4
#     4  10  21  37  58  84 113 149 191 235 286 340
#     4   9  20  38  57  80 115 153 189 234 287 343
#     4   9  20  39  58  77 108 147 185 229 278 331
#     4  11  21  37  59  84 114 149 190 236 285 340
#     4  11  22  36  57  83 112 146 185 230 280 334
#     4  10  22  38  56  81 112 146 186 231 279 333
#     4  10  21  37  58  84 115 148 187 234 285 341
#     4  10  21  38  59  83 112 146 186 231 278 332
#
# _framework density 19.563281
#
# number of rings (size 3 to 8) (size 9 to 14) (size 15 to 20)
#    0.000    2.000    0.000    5.250    0.000    8.000 
#    0.000    0.000    0.000    4.500    0.000    0.000 
#    0.000    0.000    0.000    0.000    0.000    0.000 
#
# Total GULP energy -396895.036583 kJ/mol
# GULP energy per Si atom -12402.969893 kJ/mol
# Density = 1.951875 g / cm^3
# Si number density = 19.563281 Si / 1000 Ang^3
#
#
#
# Elastic Constant Matrix: (Units=GPa)
#
#
# Indices 1 2 3 4 5 6 
#
# 1 112.9424 44.0897 38.0462 0.0000 0.0000 0.0000
# 2 44.0897 101.4998 43.7390 0.0000 0.0000 0.0000
# 3 38.0462 43.7390 115.2085 0.0000 0.0000 0.0000
# 4 0.0000 0.0000 0.0000 24.2281 0.0000 0.0000
# 5 0.0000 0.0000 0.0000 0.0000 22.3984 0.0000
# 6 0.0000 0.0000 0.0000 0.0000 0.0000 35.1242
#
#
#
# Elastic Compliance Matrix: (Units=1/GPa)
#
#
# Indices 1 2 3 4 5 6 
#
# 1 0.011108 -0.003879 -0.002196 0.000000 0.000000 0.000000
# 2 -0.003879 0.013134 -0.003705 0.000000 0.000000 0.000000
# 3 -0.002196 -0.003705 0.010812 0.000000 0.000000 0.000000
# 4 0.000000 0.000000 0.000000 0.041274 0.000000 0.000000
# 5 0.000000 0.000000 0.000000 0.000000 0.044646 0.000000
# 6 0.000000 0.000000 0.000000 0.000000 0.000000 0.028470
#
#
# Mechanical properties :
#
#
# Convention : Reuss Voigt Hill
#
# Bulk Modulus (GPa) = 64.54198 64.60007 64.57102
# Shear Modulus (GPa) = 28.70778 29.93518 29.32148
#
# Velocity S-wave (km/s) = 3.83486 3.91598 3.87564
# Velocity P-wave (km/s) = 7.25750 7.31706 7.28734
#
# Compressibility (1/GPa) = 0.01549379
#
# Stress axis : x y z
#
# Youngs Moduli (GPa) = 90.02577 76.13878 92.49225
#
# Poissons Ratio (x) = 0.29534 0.20308
# Poissons Ratio (y) = 0.34920 0.34271
# Poissons Ratio (z) = 0.19766 0.28212
#
# Static dielectric constant tensor:
#      x y z
#    x 3.608550 0.000000 0.000000 
#    y 0.000000 3.549410 0.000000 
#    z 0.000000 0.000000 3.481660 
# 
# 
# High freq. dielectric constant tensor:
#      x y z
#    x 1.767710 0.000000 0.000000 
#    y 0.000000 1.762100 0.000000 
#    z 0.000000 0.000000 1.757620 
# 
# From -- ./inp_files/1221.got.cif
#   From: 2010.03.12/outbox.cif.g09.slc.cpg/sg28_1_cif.got.tgz:1221.got - 2010.04.14 03:39:34.
