data_PCOD8168372
_publ_section_title
;
Structure prediction by ZEFSAII (Michael W. Deem and Ramdas Pophale) SiO2 
 PCOD8168372
Probable space group: P M A 2
;
_chemical_formula_sum "Si O2"
_cell_formula_units_Z 18
_cell_length_a 22.345202
_cell_length_b 5.128537
_cell_length_c 8.806513
_cell_angle_alpha 90.000000
_cell_angle_beta 90.000000
_cell_angle_gamma 90.000000
_cell_volume 1009.210496
_symmetry_space_group_name_H-M "P M A 2"
_symmetry_group_IT_number 28
_symmetry_cell_setting 'orthorhombic'
loop_
_space_group_symop_operation_xyz
x,y,z
-x,-y,z
1/2-x,y,z
1/2+x,-y,z
loop_
_atom_site_type_symbol
_atom_site_label
_atom_site_fract_x
_atom_site_fract_y
_atom_site_fract_z
Si Si1 0.181132 0.721606 0.711440
Si Si2 0.681192 0.780580 0.517792
Si Si3 0.500000 0.000000 0.116801
Si Si4 0.614581 0.761285 0.207635
Si Si5 0.114583 0.759158 0.024038
O O1 0.250000 0.751085 0.761745
O O2 0.168038 0.439401 0.642199
O O3 0.164432 0.940421 0.588000
O O4 0.139703 0.756037 0.856054
O O5 0.750000 0.771361 0.464901
O O6 0.640000 0.724049 0.374328
O O7 0.542804 0.815597 0.220500
O O8 0.457094 0.816312 0.013156
O O9 0.628710 0.508634 0.108297
O O10 0.645452 0.007580 0.121783
#
# Coordination Sequence:
#
# PCOD8168372 Si02
#       5
#     4   4   2   4   4
#     4  10  21  37  57  84 116 142 175 227 281 330
#     4  10  21  37  57  84 116 142 175 227 281 330
#     4   8  22  36  58  76 110 144 188 238 254 320
#     4  10  20  36  60  78 111 144 186 225 271 318
#     4  10  20  36  60  78 111 144 186 225 271 318
#
# _framework density 17.835725
#
# number of rings (size 3 to 8) (size 9 to 14) (size 15 to 20)
#    1.333    0.889    0.000    3.333    0.000    1.778 
#    0.000    1.111    0.000    0.000    0.000    0.000 
#    0.000    0.000    0.000    0.000    0.000    0.000 
#
# Total GULP energy -223100.912298 kJ/mol
# GULP energy per Si atom -12394.495128 kJ/mol
# Density = 1.779513 g / cm^3
# Si number density = 17.835725 Si / 1000 Ang^3
#
#
#
# Elastic Constant Matrix: (Units=GPa)
#
#
# Indices 1 2 3 4 5 6 
#
# 1 84.3431 20.1818 62.6632 0.0000 0.0000 0.0000
# 2 20.1818 104.4448 18.8184 0.0000 0.0000 0.0000
# 3 62.6632 18.8184 99.1270 0.0000 0.0000 0.0000
# 4 0.0000 0.0000 0.0000 23.0448 0.0000 0.0000
# 5 0.0000 0.0000 0.0000 0.0000 91.0577 0.0000
# 6 0.0000 0.0000 0.0000 0.0000 0.0000 9.0428
#
#
#
# Elastic Compliance Matrix: (Units=1/GPa)
#
#
# Indices 1 2 3 4 5 6 
#
# 1 0.022702 -0.001865 -0.013997 0.000000 0.000000 0.000000
# 2 -0.001865 0.010067 -0.000732 0.000000 0.000000 0.000000
# 3 -0.013997 -0.000732 0.019075 0.000000 0.000000 0.000000
# 4 0.000000 0.000000 0.000000 0.043394 0.000000 0.000000
# 5 0.000000 0.000000 0.000000 0.000000 0.010982 0.000000
# 6 0.000000 0.000000 0.000000 0.000000 0.000000 0.110585
#
#
# Mechanical properties :
#
#
# Convention : Reuss Voigt Hill
#
# Bulk Modulus (GPa) = 53.60266 54.58242 54.09254
# Shear Modulus (GPa) = 19.51521 37.04583 28.28052
#
# Velocity S-wave (km/s) = 3.31140 4.56242 3.98629
# Velocity P-wave (km/s) = 6.68874 7.64353 7.18202
#
# Compressibility (1/GPa) = 0.01865579
#
# Stress axis : x y z
#
# Youngs Moduli (GPa) = 44.04990 99.33746 52.42412
#
# Poissons Ratio (x) = 0.18524 0.73377
# Poissons Ratio (y) = 0.08214 0.03839
# Poissons Ratio (z) = 0.61656 0.07274
#
# Static dielectric constant tensor:
#      x y z
#    x 3.163260 0.000000 0.000000 
#    y 0.000000 3.564760 0.000000 
#    z 0.000000 0.000000 3.054280 
# 
# 
# High freq. dielectric constant tensor:
#      x y z
#    x 1.674380 0.000000 0.000000 
#    y 0.000000 1.713130 0.000000 
#    z 0.000000 0.000000 1.675410 
# 
# From -- ./inp_files/1495.got.cif
#   From: 2010.03.12/outbox.cif.g09.slc.cpg/sg28_1_cif.got.tgz:1495.got - 2010.04.14 03:39:34.
