data_PCOD8168858
_publ_section_title
;
Structure prediction by ZEFSAII (Michael W. Deem and Ramdas Pophale) SiO2 
 PCOD8168858
Probable space group: P C A 21
;
_chemical_formula_sum "Si O2"
_cell_formula_units_Z 32
_cell_length_a 11.030545
_cell_length_b 10.809835
_cell_length_c 12.025807
_cell_angle_alpha 90.000000
_cell_angle_beta 90.000000
_cell_angle_gamma 90.000000
_cell_volume 1433.937642
_symmetry_space_group_name_H-M "P C A 21"
_symmetry_group_IT_number 29
_symmetry_cell_setting 'orthorhombic'
loop_
_space_group_symop_operation_xyz
x,y,z
-x,-y,1/2+z
1/2-x,y,1/2+z
1/2+x,-y,z
loop_
_atom_site_type_symbol
_atom_site_label
_atom_site_fract_x
_atom_site_fract_y
_atom_site_fract_z
Si Si1 0.006520 0.431657 0.796850
Si Si2 0.395512 0.678982 0.309652
Si Si3 0.045813 0.792859 0.179134
Si Si4 0.195081 0.287430 0.925777
Si Si5 0.520546 0.118040 0.428383
Si Si6 0.061085 0.163208 0.459775
Si Si7 0.795409 0.453920 0.959094
Si Si8 0.797160 0.227471 0.097555
O O1 0.938328 0.354622 0.701323
O O2 0.933363 0.448262 0.913196
O O3 0.027248 0.569329 0.751431
O O4 0.130699 0.351124 0.818835
O O5 0.464745 0.741863 0.410593
O O6 0.279202 0.612060 0.360920
O O7 0.367237 0.780798 0.215419
O O8 0.030512 0.859235 0.296971
O O9 0.167442 0.837583 0.116244
O O10 0.934556 0.819726 0.094415
O O11 0.308146 0.194129 0.904102
O O12 0.249074 0.407268 0.992113
O O13 0.092095 0.197517 0.980808
O O14 0.640094 0.156380 0.496044
O O15 0.509049 0.972121 0.436715
O O16 0.785821 0.373378 0.070404
#
# Coordination Sequence:
#
# PCOD8168858 Si02
#       8
#     4   4   4   4   4   4   4   4
#     4  10  21  45  67 104 148 177 229 310 364 427
#     4  11  24  39  71 105 136 188 238 289 366 431
#     4  11  25  47  73  99 141 192 232 304 361 415
#     4  10  24  45  69 100 143 185 235 304 358 427
#     4  11  28  51  67 103 149 188 249 298 351 432
#     4  12  27  46  72 103 141 193 249 284 361 439
#     4  11  20  43  68 101 145 177 235 298 368 428
#     4  12  23  42  75 101 137 192 231 303 365 421
#
# _framework density 22.316174
#
# number of rings (size 3 to 8) (size 9 to 14) (size 15 to 20)
#    0.000    1.000    6.250    0.000    5.250    1.000 
#    6.750    0.000    0.000    0.000    0.000    0.000 
#    0.000    0.000    0.000    0.000    0.000    0.000 
#
# Total GULP energy -396421.653924 kJ/mol
# GULP energy per Si atom -12388.176685 kJ/mol
# Density = 2.226538 g / cm^3
# Si number density = 22.316174 Si / 1000 Ang^3
#
#
#
# Elastic Constant Matrix: (Units=GPa)
#
#
# Indices 1 2 3 4 5 6 
#
# 1 95.5288 36.9716 32.7953 0.0000 0.0000 0.0000
# 2 36.9716 126.6521 30.1171 0.0000 0.0000 0.0000
# 3 32.7953 30.1171 97.2017 0.0000 0.0000 0.0000
# 4 0.0000 0.0000 0.0000 19.3118 0.0000 0.0000
# 5 0.0000 0.0000 0.0000 0.0000 28.4216 0.0000
# 6 0.0000 0.0000 0.0000 0.0000 0.0000 32.8776
#
#
#
# Elastic Compliance Matrix: (Units=1/GPa)
#
#
# Indices 1 2 3 4 5 6 
#
# 1 0.012765 -0.002917 -0.003403 0.000000 0.000000 0.000000
# 2 -0.002917 0.009190 -0.001863 0.000000 0.000000 0.000000
# 3 -0.003403 -0.001863 0.012013 0.000000 0.000000 0.000000
# 4 0.000000 0.000000 0.000000 0.051782 0.000000 0.000000
# 5 0.000000 0.000000 0.000000 0.000000 0.035185 0.000000
# 6 0.000000 0.000000 0.000000 0.000000 0.000000 0.030416
#
#
# Mechanical properties :
#
#
# Convention : Reuss Voigt Hill
#
# Bulk Modulus (GPa) = 56.81197 57.68339 57.24768
# Shear Modulus (GPa) = 28.80422 30.75543 29.77983
#
# Velocity S-wave (km/s) = 3.59657 3.71640 3.65698
# Velocity P-wave (km/s) = 6.53912 6.65731 6.59848
#
# Compressibility (1/GPa) = 0.01760193
#
# Stress axis : x y z
#
# Youngs Moduli (GPa) = 78.33720 108.81051 83.24038
#
# Poissons Ratio (x) = 0.31742 0.28327
# Poissons Ratio (y) = 0.22852 0.15510
# Poissons Ratio (z) = 0.26659 0.20275
#
# Static dielectric constant tensor:
#      x y z
#    x 4.208540 0.000000 0.000000 
#    y 0.000000 4.149660 0.000000 
#    z 0.000000 0.000000 3.667400 
# 
# 
# High freq. dielectric constant tensor:
#      x y z
#    x 1.883590 0.000000 0.000000 
#    y 0.000000 1.878650 0.000000 
#    z 0.000000 0.000000 1.855380 
# 
# From -- ./inp_files/3218.got.cif
#   From: 2010.03.12/outbox.cif.g09.slc.cpg/sg29_2_cif.got.tgz:3218.got - 2010.04.14 03:43:10.
