data_PCOD8168629
_publ_section_title
;
Structure prediction by ZEFSAII (Michael W. Deem and Ramdas Pophale) SiO2 
 PCOD8168629
Probable space group: P C A 21
;
_chemical_formula_sum "Si O2"
_cell_formula_units_Z 32
_cell_length_a 5.570717
_cell_length_b 17.222722
_cell_length_c 13.076764
_cell_angle_alpha 90.000000
_cell_angle_beta 90.000000
_cell_angle_gamma 90.000000
_cell_volume 1254.622795
_symmetry_space_group_name_H-M "P C A 21"
_symmetry_group_IT_number 29
_symmetry_cell_setting 'orthorhombic'
loop_
_space_group_symop_operation_xyz
x,y,z
-x,-y,1/2+z
1/2-x,y,1/2+z
1/2+x,-y,z
loop_
_atom_site_type_symbol
_atom_site_label
_atom_site_fract_x
_atom_site_fract_y
_atom_site_fract_z
Si Si1 0.269170 0.796123 0.797960
Si Si2 0.667789 0.528339 0.682342
Si Si3 0.770803 0.303439 0.984799
Si Si4 0.561354 0.695282 0.656279
Si Si5 0.382127 0.530172 0.949556
Si Si6 0.442860 0.192037 0.620230
Si Si7 0.927260 0.029414 0.046630
Si Si8 0.097722 0.966573 0.312337
O O1 0.187320 0.764289 0.907748
O O2 0.385255 0.719766 0.747174
O O3 0.432239 0.873299 0.808190
O O4 0.038422 0.823175 0.734339
O O5 0.403810 0.511393 0.735591
O O6 0.720480 0.621324 0.690048
O O7 0.628341 0.494256 0.568646
O O8 0.899261 0.377047 0.934227
O O9 0.546223 0.335251 0.049186
O O10 0.940207 0.266857 0.069634
O O11 0.671804 0.780477 0.632470
O O12 0.632039 0.499882 0.897332
O O13 0.484041 0.117731 0.550243
O O14 0.655951 0.018638 0.097051
O O15 0.892515 0.003433 0.929485
O O16 0.354933 0.995803 0.261153
#
# Coordination Sequence:
#
# PCOD8168629 Si02
#       8
#     4   4   4   4   4   4   4   4
#     4  11  27  44  65 110 142 185 236 297 363 428
#     4  10  19  38  69  96 132 182 238 284 349 418
#     4  11  23  44  70  96 142 186 232 294 349 429
#     4  11  25  42  70 104 139 190 237 295 363 425
#     4  10  19  37  67  98 126 181 239 276 344 414
#     4  11  25  43  69 100 141 182 234 291 364 421
#     4  10  23  43  72 102 132 181 240 285 349 434
#     4  10  23  45  72  98 138 189 236 290 355 427
#
# _framework density 25.505672000000001
#
# number of rings (size 3 to 8) (size 9 to 14) (size 15 to 20)
#    0.000    1.500    3.750    1.500    7.000    3.000 
#    0.000    1.250    0.000    0.000    0.000    0.000 
#    0.000    0.000    0.000    0.000    0.000    0.000 
#
# Total GULP energy -396472.338562 kJ/mol
# GULP energy per Si atom -12389.760580 kJ/mol
# Density = 2.544762 g / cm^3
# Si number density = 25.505672 Si / 1000 Ang^3
#
#
#
# Elastic Constant Matrix: (Units=GPa)
#
#
# Indices 1 2 3 4 5 6 
#
# 1 172.0517 45.2010 28.3372 0.0000 0.0000 0.0000
# 2 45.2010 158.4085 8.3312 0.0000 0.0000 0.0000
# 3 28.3372 8.3312 24.0167 0.0000 0.0000 0.0000
# 4 0.0000 0.0000 0.0000 29.1006 0.0000 0.0000
# 5 0.0000 0.0000 0.0000 0.0000 46.6730 0.0000
# 6 0.0000 0.0000 0.0000 0.0000 0.0000 42.8741
#
#
#
# Elastic Compliance Matrix: (Units=1/GPa)
#
#
# Indices 1 2 3 4 5 6 
#
# 1 0.007659 -0.001742 -0.008432 0.000000 0.000000 0.000000
# 2 -0.001742 0.006826 -0.000313 0.000000 0.000000 0.000000
# 3 -0.008432 -0.000313 0.051695 0.000000 0.000000 0.000000
# 4 0.000000 0.000000 0.000000 0.034364 0.000000 0.000000
# 5 0.000000 0.000000 0.000000 0.000000 0.021426 0.000000
# 6 0.000000 0.000000 0.000000 0.000000 0.000000 0.023324
#
#
# Mechanical properties :
#
#
# Convention : Reuss Voigt Hill
#
# Bulk Modulus (GPa) = 22.12064 57.57950 39.85007
# Shear Modulus (GPa) = 27.57316 41.90338 34.73827
#
# Velocity S-wave (km/s) = 3.29151 4.05767 3.69451
# Velocity P-wave (km/s) = 4.81010 6.67661 5.81869
#
# Compressibility (1/GPa) = 0.04520664
#
# Stress axis : x y z
#
# Youngs Moduli (GPa) = 130.57207 146.49276 19.34414
#
# Poissons Ratio (x) = 0.25517 0.16311
# Poissons Ratio (y) = 0.22744 0.00605
# Poissons Ratio (z) = 1.10100 0.04582
#
# Static dielectric constant tensor:
#      x y z
#    x 5.223450 0.000000 0.000000 
#    y 0.000000 4.419840 0.000000 
#    z 0.000000 0.000000 4.327320 
# 
# 
# High freq. dielectric constant tensor:
#      x y z
#    x 2.016370 0.000000 0.000000 
#    y 0.000000 2.020160 0.000000 
#    z 0.000000 0.000000 2.020470 
# 
# From -- ./inp_files/4130.got.cif
#   From: 2010.03.12/outbox.cif.g09.slc.cpg/sg29_3_cif.got.tgz:4130.got - 2010.04.14 03:43:10.
