data_PCOD8168107
_publ_section_title
;
Structure prediction by ZEFSAII (Michael W. Deem and Ramdas Pophale) SiO2 
 PCOD8168107
Probable space group: P M A 2
;
_chemical_formula_sum "Si O2"
_cell_formula_units_Z 32
_cell_length_a 9.155328
_cell_length_b 13.743537
_cell_length_c 14.207579
_cell_angle_alpha 90.000000
_cell_angle_beta 90.000000
_cell_angle_gamma 90.000000
_cell_volume 1787.691205
_symmetry_space_group_name_H-M "P M A 2"
_symmetry_group_IT_number 28
_symmetry_cell_setting 'orthorhombic'
loop_
_space_group_symop_operation_xyz
x,y,z
-x,-y,z
1/2-x,y,z
1/2+x,-y,z
loop_
_atom_site_type_symbol
_atom_site_label
_atom_site_fract_x
_atom_site_fract_y
_atom_site_fract_z
Si Si1 0.081823 0.707099 0.740890
Si Si2 0.082393 0.596659 0.923443
Si Si3 0.585398 0.903362 0.096250
Si Si4 0.918843 0.596457 0.584468
Si Si5 0.913968 0.778994 0.264593
Si Si6 0.419591 0.209631 0.475439
Si Si7 0.422052 0.719231 0.096545
Si Si8 0.422060 0.900293 0.636771
O O1 0.250000 0.688031 0.713557
O O2 0.051017 0.684923 0.850535
O O3 0.041526 0.819013 0.716248
O O4 0.983858 0.631814 0.683160
O O5 0.250000 0.568019 0.920771
O O6 0.037694 0.629473 0.028756
O O7 0.000000 0.500000 0.893115
O O8 0.750000 0.909886 0.056158
O O9 0.587987 0.882668 0.209336
O O10 0.500000 0.000000 0.071377
O O11 0.498064 0.813837 0.048638
O O12 0.750000 0.572102 0.599861
O O13 0.943100 0.679522 0.506922
O O14 0.000000 0.500000 0.548328
O O15 0.750000 0.735541 0.272060
O O16 0.977987 0.796344 0.368347
O O17 0.012313 0.703408 0.202282
O O18 0.250000 0.178610 0.483916
O O19 0.515350 0.135530 0.536651
O O20 0.250000 0.736818 0.102966
O O21 0.250000 0.918550 0.626607
O O22 0.500000 0.000000 0.667926
#
# Coordination Sequence:
#
# PCOD8168107 Si02
#       8
#     4   4   4   4   4   4   4   4
#     4   9  19  36  55  76 104 135 171 214 258 304
#     4  10  21  36  56  80 104 134 172 216 263 311
#     4   9  17  30  50  73  98 130 165 202 248 296
#     4  10  19  31  50  74 102 134 169 210 257 306
#     4   8  17  32  50  71 100 135 171 211 255 298
#     4   9  18  34  52  73 102 136 174 215 254 300
#     4   9  18  33  51  73 103 133 166 211 258 304
#     4  10  20  34  53  77 107 140 173 211 256 309
#
# _framework density 17.900182999999998
#
# number of rings (size 3 to 8) (size 9 to 14) (size 15 to 20)
#    0.750    2.000    0.000    1.500    0.000    4.500 
#    0.000    2.500    0.000    4.500    0.000    0.000 
#    0.000    0.000    0.000    0.000    0.000    0.000 
#
# Total GULP energy -396574.177744 kJ/mol
# GULP energy per Si atom -12392.943054 kJ/mol
# Density = 1.785944 g / cm^3
# Si number density = 17.900183 Si / 1000 Ang^3
#
#
#
# Elastic Constant Matrix: (Units=GPa)
#
#
# Indices 1 2 3 4 5 6 
#
# 1 93.1206 47.3287 34.6577 0.0000 0.0000 0.0000
# 2 47.3287 99.5880 33.0921 0.0000 0.0000 0.0000
# 3 34.6577 33.0921 75.9070 0.0000 0.0000 0.0000
# 4 0.0000 0.0000 0.0000 17.5963 0.0000 0.0000
# 5 0.0000 0.0000 0.0000 0.0000 23.8295 0.0000
# 6 0.0000 0.0000 0.0000 0.0000 0.0000 31.6450
#
#
#
# Elastic Compliance Matrix: (Units=1/GPa)
#
#
# Indices 1 2 3 4 5 6 
#
# 1 0.015359 -0.005811 -0.004479 0.000000 0.000000 0.000000
# 2 -0.005811 0.013941 -0.003424 0.000000 0.000000 0.000000
# 3 -0.004479 -0.003424 0.016712 0.000000 0.000000 0.000000
# 4 0.000000 0.000000 0.000000 0.056830 0.000000 0.000000
# 5 0.000000 0.000000 0.000000 0.000000 0.041965 0.000000
# 6 0.000000 0.000000 0.000000 0.000000 0.000000 0.031601
#
#
# Mechanical properties :
#
#
# Convention : Reuss Voigt Hill
#
# Bulk Modulus (GPa) = 53.81358 55.41918 54.61638
# Shear Modulus (GPa) = 23.80589 24.84996 24.32793
#
# Velocity S-wave (km/s) = 3.65077 3.72997 3.69058
# Velocity P-wave (km/s) = 6.92093 7.04113 6.98129
#
# Compressibility (1/GPa) = 0.01858267
#
# Stress axis : x y z
#
# Youngs Moduli (GPa) = 65.10680 71.73124 59.83665
#
# Poissons Ratio (x) = 0.41683 0.26804
# Poissons Ratio (y) = 0.37833 0.20491
# Poissons Ratio (z) = 0.29164 0.24564
#
# Static dielectric constant tensor:
#      x y z
#    x 3.364430 0.000000 0.000000 
#    y 0.000000 3.147370 0.000000 
#    z 0.000000 0.000000 3.185100 
# 
# 
# High freq. dielectric constant tensor:
#      x y z
#    x 1.700910 0.000000 0.000000 
#    y 0.000000 1.678050 0.000000 
#    z 0.000000 0.000000 1.675270 
# 
# From -- ./inp_files/6451.got.cif
#   From: 2010.03.12/outbox.cif.g09.slc.cpg/sg28_4_cif.got.tgz:6451.got - 2010.04.14 03:39:34.
