data_PCOD8168326
_publ_section_title
;
Structure prediction by ZEFSAII (Michael W. Deem and Ramdas Pophale) SiO2 
 PCOD8168326
Probable space group: P M A 2
;
_chemical_formula_sum "Si O2"
_cell_formula_units_Z 32
_cell_length_a 8.703528
_cell_length_b 9.259624
_cell_length_c 20.591888
_cell_angle_alpha 90.000000
_cell_angle_beta 90.000000
_cell_angle_gamma 90.000000
_cell_volume 1659.529016
_symmetry_space_group_name_H-M "P M A 2"
_symmetry_group_IT_number 28
_symmetry_cell_setting 'orthorhombic'
loop_
_space_group_symop_operation_xyz
x,y,z
-x,-y,z
1/2-x,y,z
1/2+x,-y,z
loop_
_atom_site_type_symbol
_atom_site_label
_atom_site_fract_x
_atom_site_fract_y
_atom_site_fract_z
Si Si1 0.431955 0.341214 0.784740
Si Si2 0.930662 0.841597 0.662602
Si Si3 0.431556 0.156996 0.907310
Si Si4 0.931566 0.653806 0.025365
Si Si5 0.432811 0.155521 0.288122
Si Si6 0.567183 0.158893 0.422507
Si Si7 0.069086 0.348423 0.170053
Si Si8 0.067723 0.342129 0.537401
O O1 0.500000 0.500000 0.782015
O O2 0.250000 0.355038 0.782594
O O3 0.493985 0.248355 0.723949
O O4 0.488824 0.260968 0.849702
O O5 0.750000 0.859094 0.667642
O O6 0.979333 0.756496 0.598157
O O7 0.000000 0.000000 0.661421
O O8 0.250000 0.142406 0.906251
O O9 0.500000 0.000000 0.897487
O O10 0.490505 0.224846 0.975272
O O11 0.750000 0.638264 0.021364
O O12 0.986148 0.699570 0.097902
O O13 0.000000 0.500000 0.005173
O O14 0.250000 0.153000 0.295800
O O15 0.507223 0.220224 0.353536
O O16 0.489978 0.240117 0.224775
O O17 0.500000 0.000000 0.276546
O O18 0.750000 0.148457 0.422735
O O19 0.510164 0.272981 0.474756
O O20 0.500000 0.000000 0.437006
O O21 0.250000 0.361463 0.171262
O O22 0.000000 0.500000 0.189538
O O23 0.250000 0.350942 0.527930
O O24 0.000000 0.500000 0.549347
#
# Coordination Sequence:
#
# PCOD8168326 Si02
#       8
#     4   4   4   4   4   4   4   4
#     4  10  21  37  56  82 111 143 181 223 267 316
#     4  10  22  38  58  83 112 144 182 223 267 318
#     4  10  21  35  53  78 110 142 179 222 266 316
#     4   9  18  34  53  76 104 138 178 221 266 317
#     4  10  20  35  54  78 107 140 178 222 268 321
#     4  11  22  38  59  82 109 143 181 224 271 325
#     4   9  19  34  53  76 105 138 176 220 267 318
#     4  11  23  39  58  83 112 144 182 225 271 323
#
# _framework density 19.282578000000001
#
# number of rings (size 3 to 8) (size 9 to 14) (size 15 to 20)
#    0.000    2.000    0.000    4.125    0.000    5.500 
#    0.000    1.250    0.000    0.000    0.000    0.000 
#    0.000    0.000    0.000    0.000    0.000    0.000 
#
# Total GULP energy -396822.418443 kJ/mol
# GULP energy per Si atom -12400.700576 kJ/mol
# Density = 1.923869 g / cm^3
# Si number density = 19.282578 Si / 1000 Ang^3
#
#
#
# Elastic Constant Matrix: (Units=GPa)
#
#
# Indices 1 2 3 4 5 6 
#
# 1 57.2683 43.5725 47.8770 0.0000 0.0000 0.0000
# 2 43.5725 154.6539 104.3358 0.0000 0.0000 0.0000
# 3 47.8770 104.3358 173.1258 0.0000 0.0000 0.0000
# 4 0.0000 0.0000 0.0000 48.6281 0.0000 0.0000
# 5 0.0000 0.0000 0.0000 0.0000 7.3531 0.0000
# 6 0.0000 0.0000 0.0000 0.0000 0.0000 37.3977
#
#
#
# Elastic Compliance Matrix: (Units=1/GPa)
#
#
# Indices 1 2 3 4 5 6 
#
# 1 0.023999 -0.003849 -0.004317 0.000000 0.000000 0.000000
# 2 -0.003849 0.011514 -0.005874 0.000000 0.000000 0.000000
# 3 -0.004317 -0.005874 0.010510 0.000000 0.000000 0.000000
# 4 0.000000 0.000000 0.000000 0.020564 0.000000 0.000000
# 5 0.000000 0.000000 0.000000 0.000000 0.135998 0.000000
# 6 0.000000 0.000000 0.000000 0.000000 0.000000 0.026740
#
#
# Mechanical properties :
#
#
# Convention : Reuss Voigt Hill
#
# Bulk Modulus (GPa) = 55.73501 86.29097 71.01299
# Shear Modulus (GPa) = 18.98349 31.29328 25.13839
#
# Velocity S-wave (km/s) = 3.14106 4.03287 3.61457
# Velocity P-wave (km/s) = 6.49015 8.15679 7.37073
#
# Compressibility (1/GPa) = 0.01794205
#
# Stress axis : x y z
#
# Youngs Moduli (GPa) = 41.66755 86.85427 95.14510
#
# Poissons Ratio (x) = 0.33431 0.41077
# Poissons Ratio (y) = 0.16038 0.55891
# Poissons Ratio (z) = 0.17989 0.51021
#
# Static dielectric constant tensor:
#      x y z
#    x 3.460130 0.000000 0.000000 
#    y 0.000000 3.433680 0.000000 
#    z 0.000000 0.000000 4.054040 
# 
# 
# High freq. dielectric constant tensor:
#      x y z
#    x 1.746450 0.000000 0.000000 
#    y 0.000000 1.751810 0.000000 
#    z 0.000000 0.000000 1.771410 
# 
# From -- ./inp_files/7160.got.cif
#   From: 2010.03.12/outbox.cif.g09.slc.cpg/sg28_4_cif.got.tgz:7160.got - 2010.04.14 03:39:34.
