data_PCOD8168192
_publ_section_title
;
Structure prediction by ZEFSAII (Michael W. Deem and Ramdas Pophale) SiO2 
 PCOD8168192
Probable space group: P M A 2
;
_chemical_formula_sum "Si O2"
_cell_formula_units_Z 20
_cell_length_a 8.614141
_cell_length_b 9.884181
_cell_length_c 12.981977
_cell_angle_alpha 90.000000
_cell_angle_beta 90.000000
_cell_angle_gamma 90.000000
_cell_volume 1105.333929
_symmetry_space_group_name_H-M "P M A 2"
_symmetry_group_IT_number 28
_symmetry_cell_setting 'orthorhombic'
loop_
_space_group_symop_operation_xyz
x,y,z
-x,-y,z
1/2-x,y,z
1/2+x,-y,z
loop_
_atom_site_type_symbol
_atom_site_label
_atom_site_fract_x
_atom_site_fract_y
_atom_site_fract_z
Si Si1 0.565411 0.354698 0.954110
Si Si2 0.069510 0.854554 0.347747
Si Si3 0.566199 0.149007 0.125362
Si Si4 0.566211 0.151001 0.571089
Si Si5 0.066698 0.355131 0.734233
O O1 0.500000 0.500000 0.985754
O O2 0.750000 0.360921 0.950994
O O3 0.503105 0.308745 0.843235
O O4 0.501194 0.248712 0.038107
O O5 0.250000 0.875201 0.339377
O O6 0.013759 0.789856 0.238461
O O7 0.029552 0.782785 0.457047
O O8 0.000000 0.000000 0.356812
O O9 0.750000 0.139978 0.116505
O O10 0.500000 0.000000 0.107146
O O11 0.750000 0.149125 0.593067
O O12 0.478196 0.243863 0.651411
O O13 0.500000 0.000000 0.581099
O O14 0.250000 0.367309 0.744282
O O15 0.000000 0.500000 0.699955
#
# Coordination Sequence:
#
# PCOD8168192 Si02
#       5
#     4   4   4   4   4
#     4  10  20  35  53  73 100 133 169 207 251 302
#     4   8  15  29  49  73 102 133 163 200 246 294
#     4   9  18  32  52  77 103 131 165 205 247 294
#     4  10  19  33  54  79 106 135 170 210 252 299
#     4  11  22  37  55  74 100 134 172 212 258 307
#
# _framework density 18.094080000000002
#
# number of rings (size 3 to 8) (size 9 to 14) (size 15 to 20)
#    0.000    2.400    0.000    4.200    0.000    3.200 
#    0.000    3.000    0.000    2.400    0.000    0.000 
#    0.000    0.000    0.000    0.000    0.000    0.000 
#
# Total GULP energy -247765.624517 kJ/mol
# GULP energy per Si atom -12388.281226 kJ/mol
# Density = 1.805290 g / cm^3
# Si number density = 18.094080 Si / 1000 Ang^3
#
#
#
# Elastic Constant Matrix: (Units=GPa)
#
#
# Indices 1 2 3 4 5 6 
#
# 1 67.5753 27.6917 40.8056 0.0000 0.0000 0.0000
# 2 27.6917 84.0134 85.3170 0.0000 0.0000 0.0000
# 3 40.8056 85.3170 160.2278 0.0000 0.0000 0.0000
# 4 0.0000 0.0000 0.0000 0.6152 0.0000 0.0000
# 5 0.0000 0.0000 0.0000 0.0000 9.0658 0.0000
# 6 0.0000 0.0000 0.0000 0.0000 0.0000 27.8116
#
#
#
# Elastic Compliance Matrix: (Units=1/GPa)
#
#
# Indices 1 2 3 4 5 6 
#
# 1 0.017774 -0.002747 -0.003064 0.000000 0.000000 0.000000
# 2 -0.002747 0.026342 -0.013327 0.000000 0.000000 0.000000
# 3 -0.003064 -0.013327 0.014117 0.000000 0.000000 0.000000
# 4 0.000000 0.000000 0.000000 1.625490 0.000000 0.000000
# 5 0.000000 0.000000 0.000000 0.000000 0.110305 0.000000
# 6 0.000000 0.000000 0.000000 0.000000 0.000000 0.035956
#
#
# Mechanical properties :
#
#
# Convention : Reuss Voigt Hill
#
# Bulk Modulus (GPa) = 50.10499 68.82723 59.46611
# Shear Modulus (GPa) = 2.66679 18.03200 10.34939
#
# Velocity S-wave (km/s) = 1.21534 3.16027 2.39420
# Velocity P-wave (km/s) = 5.45169 7.17200 6.37018
#
# Compressibility (1/GPa) = 0.01995809
#
# Stress axis : x y z
#
# Youngs Moduli (GPa) = 56.26146 37.96240 70.83429
#
# Poissons Ratio (x) = 0.10429 0.21702
# Poissons Ratio (y) = 0.15457 0.94399
# Poissons Ratio (z) = 0.17237 0.50591
#
# Static dielectric constant tensor:
#      x y z
#    x 3.407610 0.000000 0.000000 
#    y 0.000000 3.178570 0.000000 
#    z 0.000000 0.000000 4.104570 
# 
# 
# High freq. dielectric constant tensor:
#      x y z
#    x 1.709730 0.000000 0.000000 
#    y 0.000000 1.668840 0.000000 
#    z 0.000000 0.000000 1.726170 
# 
# From -- ./inp_files/5964.got.cif
#   From: 2010.03.12/outbox.cif.g09.slc.cpg/sg28_3_cif.got.tgz:5964.got - 2010.04.14 03:39:34.
