data_PCOD8168680
_publ_section_title
;
Structure prediction by ZEFSAII (Michael W. Deem and Ramdas Pophale) SiO2 
 PCOD8168680
Probable space group: P C A 21
;
_chemical_formula_sum "Si O2"
_cell_formula_units_Z 32
_cell_length_a 5.133272
_cell_length_b 18.150293
_cell_length_c 15.496587
_cell_angle_alpha 90.000000
_cell_angle_beta 90.000000
_cell_angle_gamma 90.000000
_cell_volume 1443.823068
_symmetry_space_group_name_H-M "P C A 21"
_symmetry_group_IT_number 29
_symmetry_cell_setting 'orthorhombic'
loop_
_space_group_symop_operation_xyz
x,y,z
-x,-y,1/2+z
1/2-x,y,1/2+z
1/2+x,-y,z
loop_
_atom_site_type_symbol
_atom_site_label
_atom_site_fract_x
_atom_site_fract_y
_atom_site_fract_z
Si Si1 0.845695 0.698985 0.294200
Si Si2 0.626684 0.160147 0.655090
Si Si3 0.214340 0.292551 0.104051
Si Si4 0.980805 0.829735 0.007485
Si Si5 0.321988 0.460143 0.801305
Si Si6 0.150761 0.049478 0.058390
Si Si7 0.649526 0.542081 0.096214
Si Si8 0.664958 0.214647 0.833373
O O1 0.887860 0.696201 0.190561
O O2 0.757175 0.620873 0.332492
O O3 0.628096 0.757520 0.320074
O O4 0.121170 0.720639 0.336708
O O5 0.533857 0.242778 0.629994
O O6 0.858738 0.138414 0.589495
O O7 0.392729 0.099162 0.645998
O O8 0.730817 0.159695 0.753573
O O9 0.378491 0.252448 0.028935
O O10 0.127502 0.372197 0.067843
O O11 0.737604 0.886184 0.990428
O O12 0.167587 0.828369 0.924087
O O13 0.603623 0.483506 0.837709
O O14 0.341835 0.463003 0.698729
O O15 0.370789 0.988036 0.048835
O O16 0.405978 0.496944 0.057646
#
# Coordination Sequence:
#
# PCOD8168680 Si02
#       8
#     4   4   4   4   4   4   4   4
#     4  10  20  36  56  88 122 159 210 273 319 378
#     4  10  22  42  67  97 126 170 212 261 319 377
#     4   9  20  35  61  88 123 165 214 264 322 379
#     4  11  23  41  68  96 129 172 211 264 316 373
#     4   9  16  28  50  77 111 154 205 257 323 387
#     4  11  23  43  71  95 128 165 202 247 310 377
#     4   9  18  29  49  83 116 154 206 263 317 378
#     4  11  24  38  62  94 129 159 216 265 310 375
#
# _framework density 22.163378999999999
#
# number of rings (size 3 to 8) (size 9 to 14) (size 15 to 20)
#    0.000    2.000    2.500    0.750    5.250    3.000 
#    0.000    1.250    0.000    4.500    0.000    0.000 
#    0.000    0.000    0.000    0.000    0.000    0.000 
#
# Total GULP energy -396478.193808 kJ/mol
# GULP energy per Si atom -12389.943557 kJ/mol
# Density = 2.211293 g / cm^3
# Si number density = 22.163379 Si / 1000 Ang^3
#
#
#
# Elastic Constant Matrix: (Units=GPa)
#
#
# Indices 1 2 3 4 5 6 
#
# 1 93.0353 12.9511 -0.2868 0.0000 0.0000 0.0000
# 2 12.9511 86.8684 -8.7177 0.0000 0.0000 0.0000
# 3 -0.2868 -8.7177 55.2155 0.0000 0.0000 0.0000
# 4 0.0000 0.0000 0.0000 12.5554 0.0000 0.0000
# 5 0.0000 0.0000 0.0000 0.0000 15.0073 0.0000
# 6 0.0000 0.0000 0.0000 0.0000 0.0000 42.7613
#
#
#
# Elastic Compliance Matrix: (Units=1/GPa)
#
#
# Indices 1 2 3 4 5 6 
#
# 1 0.010979 -0.001657 -0.000205 0.000000 0.000000 0.000000
# 2 -0.001657 0.011947 0.001878 0.000000 0.000000 0.000000
# 3 -0.000205 0.001878 0.018406 0.000000 0.000000 0.000000
# 4 0.000000 0.000000 0.000000 0.079647 0.000000 0.000000
# 5 0.000000 0.000000 0.000000 0.000000 0.066634 0.000000
# 6 0.000000 0.000000 0.000000 0.000000 0.000000 0.023386
#
#
# Mechanical properties :
#
#
# Convention : Reuss Voigt Hill
#
# Bulk Modulus (GPa) = 24.17590 27.00138 25.58864
# Shear Modulus (GPa) = 22.24636 29.47630 25.86133
#
# Velocity S-wave (km/s) = 3.17163 3.65081 3.41962
# Velocity P-wave (km/s) = 4.93397 5.47545 5.21175
#
# Compressibility (1/GPa) = 0.04136351
#
# Stress axis : x y z
#
# Youngs Moduli (GPa) = 91.08552 83.70172 54.32939
#
# Poissons Ratio (x) = 0.13872 0.01112
# Poissons Ratio (y) = 0.15096 -0.10201
# Poissons Ratio (z) = 0.01864 -0.15716
#
# Static dielectric constant tensor:
#      x y z
#    x 4.114130 0.000000 0.000000 
#    y 0.000000 4.173640 0.000000 
#    z 0.000000 0.000000 3.669000 
# 
# 
# High freq. dielectric constant tensor:
#      x y z
#    x 1.881570 0.000000 0.000000 
#    y 0.000000 1.873030 0.000000 
#    z 0.000000 0.000000 1.823340 
# 
# From -- ./inp_files/4128.got.cif
#   From: 2010.03.12/outbox.cif.g09.slc.cpg/sg29_3_cif.got.tgz:4128.got - 2010.04.14 03:43:10.
