data_PCOD8168843
_publ_section_title
;
Structure prediction by ZEFSAII (Michael W. Deem and Ramdas Pophale) SiO2 
 PCOD8168843
Probable space group: P C A 21
;
_chemical_formula_sum "Si O2"
_cell_formula_units_Z 32
_cell_length_a 17.289134
_cell_length_b 6.616952
_cell_length_c 13.200749
_cell_angle_alpha 90.000000
_cell_angle_beta 90.000000
_cell_angle_gamma 90.000000
_cell_volume 1510.183768
_symmetry_space_group_name_H-M "P C A 21"
_symmetry_group_IT_number 29
_symmetry_cell_setting 'orthorhombic'
loop_
_space_group_symop_operation_xyz
x,y,z
-x,-y,1/2+z
1/2-x,y,1/2+z
1/2+x,-y,z
loop_
_atom_site_type_symbol
_atom_site_label
_atom_site_fract_x
_atom_site_fract_y
_atom_site_fract_z
Si Si1 0.168716 0.039374 0.524740
Si Si2 0.830725 0.635828 0.859855
Si Si3 0.583886 0.747392 0.801586
Si Si4 0.737043 0.909025 0.726011
Si Si5 0.739581 0.236905 0.887008
Si Si6 0.083452 0.921556 0.959263
Si Si7 0.487665 0.980950 0.145278
Si Si8 0.497855 0.345376 0.808295
O O1 0.163628 0.253796 0.468091
O O2 0.239712 0.054246 0.605548
O O3 0.189069 0.865000 0.445320
O O4 0.089493 0.973007 0.577701
O O5 0.811590 0.796447 0.770649
O O6 0.764036 0.467040 0.866519
O O7 0.914720 0.550482 0.829057
O O8 0.664470 0.760998 0.743242
O O9 0.594837 0.856960 0.909868
O O10 0.563898 0.513989 0.815086
O O11 0.517653 0.851865 0.733264
O O12 0.724185 0.125253 0.780268
O O13 0.661026 0.214947 0.952827
O O14 0.014252 0.812639 0.898406
O O15 0.060527 0.957083 0.075981
O O16 0.499528 0.763003 0.198457
#
# Coordination Sequence:
#
# PCOD8168843 Si02
#       8
#     4   4   4   4   4   4   4   4
#     4  10  22  42  65  90 126 171 209 265 323 387
#     4  11  23  39  62  98 126 161 214 271 318 386
#     4   9  21  39  61  87 121 168 210 261 317 381
#     4   9  21  42  61  83 127 166 208 259 323 382
#     4  10  23  39  65  92 124 169 216 261 323 381
#     4  10  21  42  63  88 127 171 210 264 321 392
#     4  10  22  39  62  91 129 168 212 260 331 382
#     4  11  23  38  65  95 128 166 213 269 322 385
#
# _framework density 21.189475999999999
#
# number of rings (size 3 to 8) (size 9 to 14) (size 15 to 20)
#    0.000    2.000    1.250    1.500    3.500    5.000 
#    2.250    0.000    0.000    0.000    0.000    0.000 
#    0.000    0.000    0.000    0.000    0.000    0.000 
#
# Total GULP energy -396791.500006 kJ/mol
# GULP energy per Si atom -12399.734375 kJ/mol
# Density = 2.114125 g / cm^3
# Si number density = 21.189476 Si / 1000 Ang^3
#
#
#
# Elastic Constant Matrix: (Units=GPa)
#
#
# Indices 1 2 3 4 5 6 
#
# 1 76.6970 24.9369 14.7403 0.0000 0.0000 0.0000
# 2 24.9369 86.8394 30.5713 0.0000 0.0000 0.0000
# 3 14.7403 30.5713 88.6508 0.0000 0.0000 0.0000
# 4 0.0000 0.0000 0.0000 18.1181 0.0000 0.0000
# 5 0.0000 0.0000 0.0000 0.0000 33.6719 0.0000
# 6 0.0000 0.0000 0.0000 0.0000 0.0000 33.8793
#
#
#
# Elastic Compliance Matrix: (Units=1/GPa)
#
#
# Indices 1 2 3 4 5 6 
#
# 1 0.014476 -0.003767 -0.001108 0.000000 0.000000 0.000000
# 2 -0.003767 0.014087 -0.004232 0.000000 0.000000 0.000000
# 3 -0.001108 -0.004232 0.012924 0.000000 0.000000 0.000000
# 4 0.000000 0.000000 0.000000 0.055193 0.000000 0.000000
# 5 0.000000 0.000000 0.000000 0.000000 0.029698 0.000000
# 6 0.000000 0.000000 0.000000 0.000000 0.000000 0.029517
#
#
# Mechanical properties :
#
#
# Convention : Reuss Voigt Hill
#
# Bulk Modulus (GPa) = 42.96678 43.63158 43.29918
# Shear Modulus (GPa) = 27.49280 29.26308 28.37794
#
# Velocity S-wave (km/s) = 3.60595 3.72024 3.66354
# Velocity P-wave (km/s) = 6.13666 6.25215 6.19468
#
# Compressibility (1/GPa) = 0.02327379
#
# Stress axis : x y z
#
# Youngs Moduli (GPa) = 69.07978 70.98793 77.37726
#
# Poissons Ratio (x) = 0.26740 0.08573
# Poissons Ratio (y) = 0.26022 0.32742
# Poissons Ratio (z) = 0.07654 0.30039
#
# Static dielectric constant tensor:
#      x y z
#    x 3.719170 0.000000 0.000000 
#    y 0.000000 3.557890 0.000000 
#    z 0.000000 0.000000 3.908690 
# 
# 
# High freq. dielectric constant tensor:
#      x y z
#    x 1.834530 0.000000 0.000000 
#    y 0.000000 1.814460 0.000000 
#    z 0.000000 0.000000 1.828970 
# 
# From -- ./inp_files/4786.got.cif
#   From: 2010.03.12/outbox.cif.g09.slc.cpg/sg29_3_cif.got.tgz:4786.got - 2010.04.14 03:43:10.
