data_PCOD8168688
_publ_section_title
;
Structure prediction by ZEFSAII (Michael W. Deem and Ramdas Pophale) SiO2 
 PCOD8168688
Probable space group: P C A 21
;
_chemical_formula_sum "Si O2"
_cell_formula_units_Z 32
_cell_length_a 15.244598
_cell_length_b 11.890293
_cell_length_c 8.686912
_cell_angle_alpha 90.000000
_cell_angle_beta 90.000000
_cell_angle_gamma 90.000000
_cell_volume 1574.613444
_symmetry_space_group_name_H-M "P C A 21"
_symmetry_group_IT_number 29
_symmetry_cell_setting 'orthorhombic'
loop_
_space_group_symop_operation_xyz
x,y,z
-x,-y,1/2+z
1/2-x,y,1/2+z
1/2+x,-y,z
loop_
_atom_site_type_symbol
_atom_site_label
_atom_site_fract_x
_atom_site_fract_y
_atom_site_fract_z
Si Si1 0.145010 0.772783 0.412210
Si Si2 0.572038 0.995197 0.454829
Si Si3 0.860109 0.751610 0.943592
Si Si4 0.823008 0.238914 0.269600
Si Si5 0.521658 0.630804 0.941748
Si Si6 0.178243 0.237180 0.801047
Si Si7 0.111701 0.997471 0.808742
Si Si8 0.486563 0.612010 0.301656
O O1 0.124237 0.903148 0.371816
O O2 0.171409 0.762176 0.588096
O O3 0.224961 0.722793 0.312826
O O4 0.060477 0.698402 0.372170
O O5 0.469681 0.005546 0.422315
O O6 0.610738 0.877290 0.397086
O O7 0.576060 0.007406 0.636780
O O8 0.774633 0.719595 0.844976
O O9 0.936442 0.665236 0.902803
O O10 0.840567 0.737452 0.123486
O O11 0.896403 0.322240 0.336900
O O12 0.835174 0.115838 0.345547
O O13 0.609219 0.700654 0.909885
O O14 0.528440 0.514316 0.853473
O O15 0.512406 0.615289 0.123540
O O16 0.174583 0.103870 0.835994
#
# Coordination Sequence:
#
# PCOD8168688 Si02
#       8
#     4   4   4   4   4   4   4   4
#     4  10  22  39  61  90 122 157 196 244 300 359
#     4  10  20  36  60  91 124 158 196 242 302 364
#     4  11  23  39  63  93 124 161 202 248 304 365
#     4  10  22  39  61  90 122 157 196 244 300 359
#     4  11  24  43  64  87 121 160 207 258 305 360
#     4  11  23  39  63  93 124 161 202 248 304 365
#     4  10  20  36  60  91 124 158 196 242 302 364
#     4  11  24  43  64  87 121 160 207 258 305 360
#
# _framework density 20.322447
#
# number of rings (size 3 to 8) (size 9 to 14) (size 15 to 20)
#    0.000    1.500    2.500    2.250    0.000    5.000 
#    0.000    2.500    0.000    0.000    0.000    0.000 
#    0.000    0.000    0.000    0.000    0.000    0.000 
#
# Total GULP energy -396946.943995 kJ/mol
# GULP energy per Si atom -12404.592000 kJ/mol
# Density = 2.027619 g / cm^3
# Si number density = 20.322447 Si / 1000 Ang^3
#
#
#
# Elastic Constant Matrix: (Units=GPa)
#
#
# Indices 1 2 3 4 5 6 
#
# 1 83.7937 16.1724 1.4495 0.0000 0.0000 0.0000
# 2 16.1724 107.9298 17.2280 0.0000 0.0000 0.0000
# 3 1.4495 17.2280 29.3348 0.0000 0.0000 0.0000
# 4 0.0000 0.0000 0.0000 30.5942 0.0000 0.0000
# 5 0.0000 0.0000 0.0000 0.0000 36.5734 0.0000
# 6 0.0000 0.0000 0.0000 0.0000 0.0000 7.3913
#
#
#
# Elastic Compliance Matrix: (Units=1/GPa)
#
#
# Indices 1 2 3 4 5 6 
#
# 1 0.012297 -0.001926 0.000524 0.000000 0.000000 0.000000
# 2 -0.001926 0.010525 -0.006086 0.000000 0.000000 0.000000
# 3 0.000524 -0.006086 0.037638 0.000000 0.000000 0.000000
# 4 0.000000 0.000000 0.000000 0.032686 0.000000 0.000000
# 5 0.000000 0.000000 0.000000 0.000000 0.027342 0.000000
# 6 0.000000 0.000000 0.000000 0.000000 0.000000 0.135294
#
#
# Mechanical properties :
#
#
# Convention : Reuss Voigt Hill
#
# Bulk Modulus (GPa) = 21.98661 32.30644 27.14652
# Shear Modulus (GPa) = 17.48737 27.32567 22.40652
#
# Velocity S-wave (km/s) = 2.93660 3.67086 3.32407
# Velocity P-wave (km/s) = 4.72658 5.82224 5.30278
#
# Compressibility (1/GPa) = 0.04548224
#
# Stress axis : x y z
#
# Youngs Moduli (GPa) = 81.32215 95.00816 26.56911
#
# Poissons Ratio (x) = 0.18300 -0.01391
# Poissons Ratio (y) = 0.15664 0.16171
# Poissons Ratio (z) = -0.04258 0.57825
#
# Static dielectric constant tensor:
#      x y z
#    x 3.767500 0.000000 0.000000 
#    y 0.000000 3.846650 0.000000 
#    z 0.000000 0.000000 3.538380 
# 
# 
# High freq. dielectric constant tensor:
#      x y z
#    x 1.804700 0.000000 0.000000 
#    y 0.000000 1.795650 0.000000 
#    z 0.000000 0.000000 1.791010 
# 
# From -- ./inp_files/1842.got.cif
#   From: 2010.03.12/outbox.cif.g09.slc.cpg/sg29_1_cif.got.tgz:1842.got - 2010.04.14 03:43:10.
