data_PCOD8168818
_publ_section_title
;
Structure prediction by ZEFSAII (Michael W. Deem and Ramdas Pophale) SiO2 
 PCOD8168818
Probable space group: P C A 21
;
_chemical_formula_sum "Si O2"
_cell_formula_units_Z 28
_cell_length_a 9.979982
_cell_length_b 9.150328
_cell_length_c 14.476987
_cell_angle_alpha 90.000000
_cell_angle_beta 90.000000
_cell_angle_gamma 90.000000
_cell_volume 1322.040027
_symmetry_space_group_name_H-M "P C A 21"
_symmetry_group_IT_number 29
_symmetry_cell_setting 'orthorhombic'
loop_
_space_group_symop_operation_xyz
x,y,z
-x,-y,1/2+z
1/2-x,y,1/2+z
1/2+x,-y,z
loop_
_atom_site_type_symbol
_atom_site_label
_atom_site_fract_x
_atom_site_fract_y
_atom_site_fract_z
Si Si1 0.580464 0.105827 0.393540
Si Si2 0.044247 0.204796 0.327458
Si Si3 0.180269 0.485849 0.395244
Si Si4 0.437681 0.351711 0.471781
Si Si5 0.748650 0.271880 0.760681
Si Si6 0.694614 0.104919 0.586862
Si Si7 0.402474 0.139130 0.630393
O O1 0.447704 0.207699 0.404941
O O2 0.659792 0.141173 0.300129
O O3 0.679283 0.146999 0.479443
O O4 0.533982 0.938229 0.392270
O O5 0.122788 0.325341 0.383835
O O6 0.131114 0.173004 0.236131
O O7 0.899182 0.262757 0.301264
O O8 0.326452 0.467501 0.440204
O O9 0.191279 0.572933 0.296566
O O10 0.083091 0.570167 0.466216
O O11 0.407728 0.293318 0.574845
O O12 0.748295 0.242844 0.649604
O O13 0.547264 0.059123 0.624204
O O14 0.789141 0.965119 0.590376
#
# Coordination Sequence:
#
# PCOD8168818 Si02
#       7
#     4   4   4   4   4   4   4
#     4  10  22  38  70  94 127 167 218 279 325 392
#     4  11  22  39  66  95 128 169 217 274 330 389
#     4  11  22  44  64  90 131 178 221 259 340 402
#     4  10  23  43  64  93 129 175 222 266 327 405
#     4  10  22  41  61  93 129 170 211 274 325 389
#     4  10  21  40  64  93 132 159 216 274 326 383
#     4  10  22  41  61  96 130 162 219 274 323 392
#
# _framework density 21.179390000000001
#
# number of rings (size 3 to 8) (size 9 to 14) (size 15 to 20)
#    0.000    1.714    2.857    0.857    6.000    0.000 
#   10.286    0.000    0.000    0.000    0.000    0.000 
#    0.000    0.000    0.000    0.000    0.000    0.000 
#
# Total GULP energy -347037.507402 kJ/mol
# GULP energy per Si atom -12394.196693 kJ/mol
# Density = 2.113118 g / cm^3
# Si number density = 21.179390 Si / 1000 Ang^3
#
#
#
# Elastic Constant Matrix: (Units=GPa)
#
#
# Indices 1 2 3 4 5 6 
#
# 1 69.7312 40.9637 11.8905 0.0000 0.0000 0.0000
# 2 40.9637 123.3958 28.6407 0.0000 0.0000 0.0000
# 3 11.8905 28.6407 84.4733 0.0000 0.0000 0.0000
# 4 0.0000 0.0000 0.0000 34.4436 0.0000 0.0000
# 5 0.0000 0.0000 0.0000 0.0000 23.1505 0.0000
# 6 0.0000 0.0000 0.0000 0.0000 0.0000 33.6728
#
#
#
# Elastic Compliance Matrix: (Units=1/GPa)
#
#
# Indices 1 2 3 4 5 6 
#
# 1 0.017838 -0.005795 -0.000546 0.000000 0.000000 0.000000
# 2 -0.005795 0.010679 -0.002805 0.000000 0.000000 0.000000
# 3 -0.000546 -0.002805 0.012866 0.000000 0.000000 0.000000
# 4 0.000000 0.000000 0.000000 0.029033 0.000000 0.000000
# 5 0.000000 0.000000 0.000000 0.000000 0.043196 0.000000
# 6 0.000000 0.000000 0.000000 0.000000 0.000000 0.029698
#
#
# Mechanical properties :
#
#
# Convention : Reuss Voigt Hill
#
# Bulk Modulus (GPa) = 43.30725 48.95446 46.13085
# Shear Modulus (GPa) = 29.53372 31.32709 30.43040
#
# Velocity S-wave (km/s) = 3.73829 3.85012 3.79462
# Velocity P-wave (km/s) = 6.25502 6.55202 6.40524
#
# Compressibility (1/GPa) = 0.02309082
#
# Stress axis : x y z
#
# Youngs Moduli (GPa) = 56.05959 93.64352 77.72455
#
# Poissons Ratio (x) = 0.54266 0.04245
# Poissons Ratio (y) = 0.32486 0.21801
# Poissons Ratio (z) = 0.03062 0.26266
#
# Static dielectric constant tensor:
#      x y z
#    x 3.827410 0.000000 0.000000 
#    y 0.000000 3.860090 0.000000 
#    z 0.000000 0.000000 3.842840 
# 
# 
# High freq. dielectric constant tensor:
#      x y z
#    x 1.830060 0.000000 0.000000 
#    y 0.000000 1.826250 0.000000 
#    z 0.000000 0.000000 1.819860 
# 
# From -- ./inp_files/4489.got.cif
#   From: 2010.03.12/outbox.cif.g09.slc.cpg/sg29_3_cif.got.tgz:4489.got - 2010.04.14 03:43:10.
