data_PCOD8168831
_publ_section_title
;
Structure prediction by ZEFSAII (Michael W. Deem and Ramdas Pophale) SiO2 
 PCOD8168831
Probable space group: P C A 21
;
_chemical_formula_sum "Si O2"
_cell_formula_units_Z 24
_cell_length_a 15.648418
_cell_length_b 12.709516
_cell_length_c 5.257536
_cell_angle_alpha 90.000000
_cell_angle_beta 90.000000
_cell_angle_gamma 90.000000
_cell_volume 1045.638838
_symmetry_space_group_name_H-M "P C A 21"
_symmetry_group_IT_number 29
_symmetry_cell_setting 'orthorhombic'
loop_
_space_group_symop_operation_xyz
x,y,z
-x,-y,1/2+z
1/2-x,y,1/2+z
1/2+x,-y,z
loop_
_atom_site_type_symbol
_atom_site_label
_atom_site_fract_x
_atom_site_fract_y
_atom_site_fract_z
Si Si1 0.551986 0.489931 0.945310
Si Si2 0.202703 0.374013 0.112055
Si Si3 0.712581 0.368547 0.871430
Si Si4 0.202703 0.125989 0.117445
Si Si5 0.787419 0.131451 0.858070
Si Si6 0.448014 0.989931 0.784184
O O1 0.514862 0.530681 0.674445
O O2 0.609758 0.383806 0.892256
O O3 0.608503 0.583442 0.057900
O O4 0.237127 0.414559 0.382609
O O5 0.195263 0.250001 0.114751
O O6 0.746810 0.426149 0.617757
O O7 0.750001 0.250000 0.864753
O O8 0.262872 0.085443 0.346892
O O9 0.108503 0.083444 0.171595
O O10 0.746808 0.073850 0.611746
O O11 0.890242 0.116193 0.837240
O O12 0.514861 0.969318 0.555048
#
# Coordination Sequence:
#
# PCOD8168831 Si02
#       6
#     4   4   4   4   4   4
#     4  12  24  40  62  99 136 166 210 284 334 374
#     4  10  21  41  67  87 119 172 221 255 314 402
#     4  10  21  41  65  90 124 180 224 256 319 411
#     4  10  21  41  67  87 119 172 221 255 314 402
#     4  10  21  41  65  90 124 180 224 256 319 411
#     4  12  24  40  62  99 136 166 210 284 334 374
#
# _framework density 22.952473000000001
#
# number of rings (size 3 to 8) (size 9 to 14) (size 15 to 20)
#    0.000    1.333    0.000    6.000    0.000    0.000 
#   18.000    0.000    0.000    0.000    0.000    0.000 
#    0.000    0.000    0.000    0.000    0.000    0.000 
#
# Total GULP energy -297377.517815 kJ/mol
# GULP energy per Si atom -12390.729909 kJ/mol
# Density = 2.290023 g / cm^3
# Si number density = 22.952473 Si / 1000 Ang^3
#
#
#
# Elastic Constant Matrix: (Units=GPa)
#
#
# Indices 1 2 3 4 5 6 
#
# 1 137.4289 37.9412 61.8991 0.0000 0.0000 0.0000
# 2 37.9412 72.0977 59.1015 0.0000 0.0000 0.0000
# 3 61.8991 59.1015 183.9871 0.0000 0.0000 0.0000
# 4 0.0000 0.0000 0.0000 35.9853 0.0000 0.0000
# 5 0.0000 0.0000 0.0000 0.0000 50.6204 0.0000
# 6 0.0000 0.0000 0.0000 0.0000 0.0000 34.9745
#
#
#
# Elastic Compliance Matrix: (Units=1/GPa)
#
#
# Indices 1 2 3 4 5 6 
#
# 1 0.009053 -0.003078 -0.002057 0.000000 0.000000 0.000000
# 2 -0.003078 0.019874 -0.005349 0.000000 0.000000 0.000000
# 3 -0.002057 -0.005349 0.007845 0.000000 0.000000 0.000000
# 4 0.000000 0.000000 0.000000 0.027789 0.000000 0.000000
# 5 0.000000 0.000000 0.000000 0.000000 0.019755 0.000000
# 6 0.000000 0.000000 0.000000 0.000000 0.000000 0.028592
#
#
# Mechanical properties :
#
#
# Convention : Reuss Voigt Hill
#
# Bulk Modulus (GPa) = 63.26925 79.04415 71.15670
# Shear Modulus (GPa) = 35.93403 39.95415 37.94409
#
# Velocity S-wave (km/s) = 3.96104 4.17674 4.07032
# Velocity P-wave (km/s) = 6.96742 7.60086 7.29102
#
# Compressibility (1/GPa) = 0.01580547
#
# Stress axis : x y z
#
# Youngs Moduli (GPa) = 110.46475 50.31627 127.46460
#
# Poissons Ratio (x) = 0.15486 0.26219
# Poissons Ratio (y) = 0.33999 0.68177
# Poissons Ratio (z) = 0.22722 0.26913
#
# Static dielectric constant tensor:
#      x y z
#    x 4.048200 0.000000 0.000000 
#    y 0.000000 4.398660 0.000000 
#    z 0.000000 0.000000 6.095610 
# 
# 
# High freq. dielectric constant tensor:
#      x y z
#    x 1.888050 0.000000 0.000000 
#    y 0.000000 1.921300 0.000000 
#    z 0.000000 0.000000 1.953570 
# 
# From -- ./inp_files/80.got.cif
#   From: 2010.03.12/outbox.cif.g09.slc.cpg/sg29_1_cif.got.tgz:80.got - 2010.04.14 03:43:10.
