data_PCOD8168959
_publ_section_title
;
Structure prediction by ZEFSAII (Michael W. Deem and Ramdas Pophale) SiO2 
 PCOD8168959
Probable space group: P C A 21
;
_chemical_formula_sum "Si O2"
_cell_formula_units_Z 32
_cell_length_a 13.697760
_cell_length_b 5.258436
_cell_length_c 19.042280
_cell_angle_alpha 90.000000
_cell_angle_beta 90.000000
_cell_angle_gamma 90.000000
_cell_volume 1371.592469
_symmetry_space_group_name_H-M "P C A 21"
_symmetry_group_IT_number 29
_symmetry_cell_setting 'orthorhombic'
loop_
_space_group_symop_operation_xyz
x,y,z
-x,-y,1/2+z
1/2-x,y,1/2+z
1/2+x,-y,z
loop_
_atom_site_type_symbol
_atom_site_label
_atom_site_fract_x
_atom_site_fract_y
_atom_site_fract_z
Si Si1 0.715471 0.775272 0.616480
Si Si2 0.861121 0.069312 0.992970
Si Si3 0.221307 0.858453 0.217125
Si Si4 0.102007 0.516959 0.116581
Si Si5 0.920705 0.442072 0.195832
Si Si6 0.398206 0.458533 0.351000
Si Si7 0.481107 0.435126 0.983613
Si Si8 0.275291 0.950264 0.363837
O O1 0.693500 0.007771 0.565335
O O2 0.800274 0.603484 0.583141
O O3 0.613109 0.650808 0.638182
O O4 0.770919 0.858150 0.687621
O O5 0.928181 0.832331 0.968490
O O6 0.910526 0.339137 0.009972
O O7 0.780356 0.104392 0.934602
O O8 0.134633 0.719390 0.175975
O O9 0.331110 0.750891 0.203937
O O10 0.200313 0.888592 0.299727
O O11 0.021576 0.341408 0.159153
O O12 0.057643 0.631953 0.045002
O O13 0.943976 0.564414 0.272610
O O14 0.478028 0.438229 0.412174
O O15 0.360302 0.744634 0.360317
O O16 0.317362 0.237052 0.360296
#
# Coordination Sequence:
#
# PCOD8168959 Si02
#       8
#     4   4   4   4   4   4   4   4
#     4  11  23  43  70  97 137 191 231 292 355 418
#     4  12  27  44  73  99 148 185 237 302 353 428
#     4  10  24  41  71  99 138 184 237 283 360 420
#     4  11  25  41  71 103 137 185 239 288 350 429
#     4  10  22  45  66  99 141 178 231 296 347 420
#     4  11  24  45  71  99 141 186 232 294 356 425
#     4  12  27  45  68 108 142 186 240 294 361 416
#     4  11  24  46  70 100 140 187 235 289 358 428
#
# _framework density 23.330545000000001
#
# number of rings (size 3 to 8) (size 9 to 14) (size 15 to 20)
#    0.000    1.000    2.500    3.000    7.000    2.000 
#    0.000    0.000    0.000    0.000    0.000    0.000 
#    0.000    0.000    0.000    0.000    0.000    0.000 
#
# Total GULP energy -396434.124958 kJ/mol
# GULP energy per Si atom -12388.566405 kJ/mol
# Density = 2.327744 g / cm^3
# Si number density = 23.330545 Si / 1000 Ang^3
#
#
#
# Elastic Constant Matrix: (Units=GPa)
#
#
# Indices 1 2 3 4 5 6 
#
# 1 72.4923 -5.1070 35.8966 0.0000 0.0000 0.0000
# 2 -5.1070 56.6971 -5.1589 0.0000 0.0000 0.0000
# 3 35.8966 -5.1589 112.2841 0.0000 0.0000 0.0000
# 4 0.0000 0.0000 0.0000 36.9368 0.0000 0.0000
# 5 0.0000 0.0000 0.0000 0.0000 39.7375 0.0000
# 6 0.0000 0.0000 0.0000 0.0000 0.0000 24.7496
#
#
#
# Elastic Compliance Matrix: (Units=1/GPa)
#
#
# Indices 1 2 3 4 5 6 
#
# 1 0.016446 0.001007 -0.005211 0.000000 0.000000 0.000000
# 2 0.001007 0.017773 0.000495 0.000000 0.000000 0.000000
# 3 -0.005211 0.000495 0.010595 0.000000 0.000000 0.000000
# 4 0.000000 0.000000 0.000000 0.027073 0.000000 0.000000
# 5 0.000000 0.000000 0.000000 0.000000 0.025165 0.000000
# 6 0.000000 0.000000 0.000000 0.000000 0.000000 0.040405
#
#
# Mechanical properties :
#
#
# Convention : Reuss Voigt Hill
#
# Bulk Modulus (GPa) = 26.74160 32.52608 29.63384
# Shear Modulus (GPa) = 31.77798 34.67430 33.22614
#
# Velocity S-wave (km/s) = 3.69464 3.85933 3.77788
# Velocity P-wave (km/s) = 5.44861 5.81644 5.63553
#
# Compressibility (1/GPa) = 0.03739492
#
# Stress axis : x y z
#
# Youngs Moduli (GPa) = 60.80458 56.26411 94.38612
#
# Poissons Ratio (x) = -0.05667 0.49189
# Poissons Ratio (y) = -0.06124 -0.04668
# Poissons Ratio (z) = 0.31688 -0.02783
#
# Static dielectric constant tensor:
#      x y z
#    x 4.110860 0.000000 0.000000 
#    y 0.000000 4.027640 0.000000 
#    z 0.000000 0.000000 4.565650 
# 
# 
# High freq. dielectric constant tensor:
#      x y z
#    x 1.916780 0.000000 0.000000 
#    y 0.000000 1.912850 0.000000 
#    z 0.000000 0.000000 1.949730 
# 
# From -- ./inp_files/5232.got.cif
#   From: 2010.03.12/outbox.cif.g09.slc.cpg/sg29_3_cif.got.tgz:5232.got - 2010.04.14 03:43:10.
