data_PCOD8168342
_publ_section_title
;
Structure prediction by ZEFSAII (Michael W. Deem and Ramdas Pophale) SiO2 
 PCOD8168342
Probable space group: P M A 2
;
_chemical_formula_sum "Si O2"
_cell_formula_units_Z 18
_cell_length_a 20.793893
_cell_length_b 7.020651
_cell_length_c 7.036281
_cell_angle_alpha 90.000000
_cell_angle_beta 90.000000
_cell_angle_gamma 90.000000
_cell_volume 1027.203202
_symmetry_space_group_name_H-M "P M A 2"
_symmetry_group_IT_number 28
_symmetry_cell_setting 'orthorhombic'
loop_
_space_group_symop_operation_xyz
x,y,z
-x,-y,z
1/2-x,y,z
1/2+x,-y,z
loop_
_atom_site_type_symbol
_atom_site_label
_atom_site_fract_x
_atom_site_fract_y
_atom_site_fract_z
Si Si1 0.377017 0.379866 0.741990
Si Si2 0.324485 0.088510 0.464977
Si Si3 0.378122 0.677511 0.445208
Si Si4 0.175330 0.401395 0.154213
Si Si5 0.000000 0.500000 0.568565
O O1 0.349634 0.569309 0.633194
O O2 0.453917 0.368100 0.700991
O O3 0.341011 0.194495 0.661035
O O4 0.366209 0.389071 0.964865
O O5 0.250000 0.031454 0.462953
O O6 0.367374 0.901041 0.454385
O O7 0.342693 0.223272 0.287947
O O8 0.342932 0.597155 0.258692
O O9 0.455145 0.635141 0.435992
O O10 0.250000 0.403145 0.100837
#
# Coordination Sequence:
#
# PCOD8168342 Si02
#       5
#     4   4   4   4   2
#     4   9  20  38  56  81 115 149 185 230 274 333
#     4  10  20  35  58  86 112 143 185 234 287 327
#     4   9  20  38  58  81 113 151 187 228 274 335
#     4  10  20  35  57  86 115 144 184 235 287 326
#     4   8  20  40  58  76 112 156 196 210 280 340
#
# _framework density 17.523309000000001
#
# number of rings (size 3 to 8) (size 9 to 14) (size 15 to 20)
#    1.333    1.333    0.000    1.333    0.000    6.222 
#    0.000    0.000    4.889    0.000    0.000    0.000 
#    0.000    0.000    0.000    0.000    0.000    0.000 
#
# Total GULP energy -223089.010241 kJ/mol
# GULP energy per Si atom -12393.833902 kJ/mol
# Density = 1.748343 g / cm^3
# Si number density = 17.523309 Si / 1000 Ang^3
#
#
#
# Elastic Constant Matrix: (Units=GPa)
#
#
# Indices 1 2 3 4 5 6 
#
# 1 69.3817 13.8398 16.1994 0.0000 0.0000 0.0000
# 2 13.8398 86.1043 29.0011 0.0000 0.0000 0.0000
# 3 16.1994 29.0011 92.0414 0.0000 0.0000 0.0000
# 4 0.0000 0.0000 0.0000 9.6522 0.0000 0.0000
# 5 0.0000 0.0000 0.0000 0.0000 27.5909 0.0000
# 6 0.0000 0.0000 0.0000 0.0000 0.0000 32.8792
#
#
#
# Elastic Compliance Matrix: (Units=1/GPa)
#
#
# Indices 1 2 3 4 5 6 
#
# 1 0.015258 -0.001732 -0.002140 0.000000 0.000000 0.000000
# 2 -0.001732 0.013189 -0.003851 0.000000 0.000000 0.000000
# 3 -0.002140 -0.003851 0.012455 0.000000 0.000000 0.000000
# 4 0.000000 0.000000 0.000000 0.103604 0.000000 0.000000
# 5 0.000000 0.000000 0.000000 0.000000 0.036244 0.000000
# 6 0.000000 0.000000 0.000000 0.000000 0.000000 0.030414
#
#
# Mechanical properties :
#
#
# Convention : Reuss Voigt Hill
#
# Bulk Modulus (GPa) = 39.28204 40.62312 39.95258
# Shear Modulus (GPa) = 21.26803 26.59025 23.92914
#
# Velocity S-wave (km/s) = 3.48760 3.89964 3.69936
# Velocity P-wave (km/s) = 6.21960 6.59613 6.41063
#
# Compressibility (1/GPa) = 0.02545693
#
# Stress axis : x y z
#
# Youngs Moduli (GPa) = 65.53914 75.81939 80.29114
#
# Poissons Ratio (x) = 0.13130 0.17181
# Poissons Ratio (y) = 0.11350 0.30920
# Poissons Ratio (z) = 0.14024 0.29198
#
# Static dielectric constant tensor:
#      x y z
#    x 3.199940 0.000000 0.000000 
#    y 0.000000 3.061010 0.000000 
#    z 0.000000 0.000000 3.060250 
# 
# 
# High freq. dielectric constant tensor:
#      x y z
#    x 1.678180 0.000000 0.000000 
#    y 0.000000 1.665710 0.000000 
#    z 0.000000 0.000000 1.666120 
# 
# From -- ./inp_files/1489.got.cif
#   From: 2010.03.12/outbox.cif.g09.slc.cpg/sg28_1_cif.got.tgz:1489.got - 2010.04.14 03:39:34.
