data_PCOD8168002
_publ_section_title
;
Structure prediction by ZEFSAII (Michael W. Deem and Ramdas Pophale) SiO2 
 PCOD8168002
Probable space group: P M A 2
;
_chemical_formula_sum "Si O2"
_cell_formula_units_Z 24
_cell_length_a 9.096309
_cell_length_b 12.901073
_cell_length_c 11.700366
_cell_angle_alpha 90.000000
_cell_angle_beta 90.000000
_cell_angle_gamma 90.000000
_cell_volume 1373.063064
_symmetry_space_group_name_H-M "P M A 2"
_symmetry_group_IT_number 28
_symmetry_cell_setting 'orthorhombic'
loop_
_space_group_symop_operation_xyz
x,y,z
-x,-y,z
1/2-x,y,z
1/2+x,-y,z
loop_
_atom_site_type_symbol
_atom_site_label
_atom_site_fract_x
_atom_site_fract_y
_atom_site_fract_z
Si Si1 0.082500 0.789781 0.728930
Si Si2 0.927107 0.890454 0.265262
Si Si3 0.588897 0.733674 0.072385
Si Si4 0.422997 0.607301 0.894940
Si Si5 0.592734 0.912466 0.895282
Si Si6 0.577061 0.106038 0.500660
O O1 0.250000 0.809195 0.763098
O O2 0.034306 0.680877 0.786811
O O3 0.059572 0.799627 0.592129
O O4 0.989722 0.883945 0.779203
O O5 0.750000 0.902656 0.266978
O O6 0.974461 0.795931 0.181568
O O7 0.992327 0.856985 0.387286
O O8 0.000000 0.000000 0.227134
O O9 0.750000 0.683973 0.100523
O O10 0.478342 0.648616 0.019507
O O11 0.613243 0.815123 0.973569
O O12 0.500000 0.500000 0.865974
O O13 0.250000 0.590762 0.905197
O O14 0.750000 0.959250 0.861431
O O15 0.500000 0.000000 0.961741
O O16 0.750000 0.084921 0.475614
O O17 0.500000 0.000000 0.544108
#
# Coordination Sequence:
#
# PCOD8168002 Si02
#       6
#     4   4   4   4   4   4
#     4   9  19  33  48  68  94 125 160 198 239 286
#     4  10  19  31  48  71 101 135 169 201 235 278
#     4   9  19  33  48  69  96 126 161 199 238 285
#     4  10  20  35  55  76  97 122 155 199 251 300
#     4  10  18  27  42  65  94 125 155 191 235 284
#     4  10  19  31  47  69  99 133 168 200 234 279
#
# _framework density 17.479168999999999
#
# number of rings (size 3 to 8) (size 9 to 14) (size 15 to 20)
#    0.000    2.333    0.000    4.000    0.000    5.333 
#    0.000    0.000    0.000    1.000    0.000    4.667 
#    0.000    0.000    0.000    0.000    0.000    0.000 
#
# Total GULP energy -297318.599848 kJ/mol
# GULP energy per Si atom -12388.274994 kJ/mol
# Density = 1.743939 g / cm^3
# Si number density = 17.479169 Si / 1000 Ang^3
#
#
#
# Elastic Constant Matrix: (Units=GPa)
#
#
# Indices 1 2 3 4 5 6 
#
# 1 108.8094 48.0131 37.9876 0.0000 0.0000 0.0000
# 2 48.0131 80.8321 44.8439 0.0000 0.0000 0.0000
# 3 37.9876 44.8439 101.8147 0.0000 0.0000 0.0000
# 4 0.0000 0.0000 0.0000 24.3943 0.0000 0.0000
# 5 0.0000 0.0000 0.0000 0.0000 24.2297 0.0000
# 6 0.0000 0.0000 0.0000 0.0000 0.0000 26.4897
#
#
#
# Elastic Compliance Matrix: (Units=1/GPa)
#
#
# Indices 1 2 3 4 5 6 
#
# 1 0.012720 -0.006514 -0.001877 0.000000 0.000000 0.000000
# 2 -0.006514 0.019708 -0.006250 0.000000 0.000000 0.000000
# 3 -0.001877 -0.006250 0.013275 0.000000 0.000000 0.000000
# 4 0.000000 0.000000 0.000000 0.040993 0.000000 0.000000
# 5 0.000000 0.000000 0.000000 0.000000 0.041272 0.000000
# 6 0.000000 0.000000 0.000000 0.000000 0.000000 0.037751
#
#
# Mechanical properties :
#
#
# Convention : Reuss Voigt Hill
#
# Bulk Modulus (GPa) = 60.89744 61.46059 61.17901
# Shear Modulus (GPa) = 24.94093 25.73017 25.33555
#
# Velocity S-wave (km/s) = 3.78152 3.84089 3.81132
# Velocity P-wave (km/s) = 7.34726 7.41002 7.37871
#
# Compressibility (1/GPa) = 0.01642105
#
# Stress axis : x y z
#
# Youngs Moduli (GPa) = 78.61558 50.74078 75.33160
#
# Poissons Ratio (x) = 0.33055 0.14137
# Poissons Ratio (y) = 0.51214 0.47080
# Poissons Ratio (z) = 0.14754 0.31712
#
# Static dielectric constant tensor:
#      x y z
#    x 3.654200 0.000000 0.000000 
#    y 0.000000 3.164600 0.000000 
#    z 0.000000 0.000000 3.289290 
# 
# 
# High freq. dielectric constant tensor:
#      x y z
#    x 1.693090 0.000000 0.000000 
#    y 0.000000 1.644690 0.000000 
#    z 0.000000 0.000000 1.666440 
# 
# From -- ./inp_files/4680.got.cif
#   From: 2010.03.12/outbox.cif.g09.slc.cpg/sg28_3_cif.got.tgz:4680.got - 2010.04.14 03:39:34.
