data_PCOD8168776
_publ_section_title
;
Structure prediction by ZEFSAII (Michael W. Deem and Ramdas Pophale) SiO2 
 PCOD8168776
Probable space group: P C A 21
;
_chemical_formula_sum "Si O2"
_cell_formula_units_Z 32
_cell_length_a 9.003277
_cell_length_b 20.094414
_cell_length_c 8.379911
_cell_angle_alpha 90.000000
_cell_angle_beta 90.000000
_cell_angle_gamma 90.000000
_cell_volume 1516.056420
_symmetry_space_group_name_H-M "P C A 21"
_symmetry_group_IT_number 29
_symmetry_cell_setting 'orthorhombic'
loop_
_space_group_symop_operation_xyz
x,y,z
-x,-y,1/2+z
1/2-x,y,1/2+z
1/2+x,-y,z
loop_
_atom_site_type_symbol
_atom_site_label
_atom_site_fract_x
_atom_site_fract_y
_atom_site_fract_z
Si Si1 0.374600 0.823390 0.258330
Si Si2 0.945144 0.944544 0.621153
Si Si3 0.880018 0.699201 0.257642
Si Si4 0.877849 0.933429 0.250560
Si Si5 0.059126 0.293455 0.120716
Si Si6 0.953960 0.556368 0.642918
Si Si7 0.945021 0.186431 0.626043
Si Si8 0.347277 0.450894 0.292638
O O1 0.447735 0.884468 0.166887
O O2 0.433907 0.754825 0.186644
O O3 0.198207 0.825413 0.235859
O O4 0.406921 0.829072 0.444555
O O5 0.906653 0.940813 0.436576
O O6 0.797039 0.942489 0.726160
O O7 0.029259 0.013205 0.650973
O O8 0.907995 0.722995 0.437321
O O9 0.710028 0.716398 0.218873
O O10 0.909783 0.620574 0.233703
O O11 0.993640 0.738222 0.142382
O O12 0.923913 0.861003 0.188068
O O13 0.992189 0.367432 0.139038
O O14 0.830274 0.547466 0.779572
O O15 0.883948 0.535317 0.475114
O O16 0.090577 0.508880 0.680760
#
# Coordination Sequence:
#
# PCOD8168776 Si02
#       8
#     4   4   4   4   4   4   4   4
#     4  12  25  42  63  90 122 159 200 247 298 353
#     4  12  25  44  67  94 126 162 202 246 295 351
#     4  10  21  39  61  87 117 155 198 245 297 355
#     4  12  25  44  67  94 126 162 202 246 295 351
#     4  10  21  39  61  87 117 155 198 245 297 355
#     4  10  21  37  59  85 117 154 197 244 297 355
#     4  12  25  42  63  90 122 159 200 247 298 353
#     4  10  21  37  59  85 117 154 197 244 297 355
#
# _framework density 21.107393999999999
#
# number of rings (size 3 to 8) (size 9 to 14) (size 15 to 20)
#    0.000    1.000    0.000    7.500    0.000    4.000 
#    0.000    0.000    0.000    0.000    0.000    0.000 
#    0.000    0.000    0.000    0.000    0.000    0.000 
#
# Total GULP energy -397038.257781 kJ/mol
# GULP energy per Si atom -12407.445556 kJ/mol
# Density = 2.105935 g / cm^3
# Si number density = 21.107394 Si / 1000 Ang^3
#
#
#
# Elastic Constant Matrix: (Units=GPa)
#
#
# Indices 1 2 3 4 5 6 
#
# 1 76.3263 32.8234 -11.2650 0.0000 0.0000 0.0000
# 2 32.8234 96.0553 23.0851 0.0000 0.0000 0.0000
# 3 -11.2650 23.0851 73.6800 0.0000 0.0000 0.0000
# 4 0.0000 0.0000 0.0000 34.5536 0.0000 0.0000
# 5 0.0000 0.0000 0.0000 0.0000 32.1368 0.0000
# 6 0.0000 0.0000 0.0000 0.0000 0.0000 27.1466
#
#
#
# Elastic Compliance Matrix: (Units=1/GPa)
#
#
# Indices 1 2 3 4 5 6 
#
# 1 0.016743 -0.006853 0.004707 0.000000 0.000000 0.000000
# 2 -0.006853 0.014063 -0.005454 0.000000 0.000000 0.000000
# 3 0.004707 -0.005454 0.016001 0.000000 0.000000 0.000000
# 4 0.000000 0.000000 0.000000 0.028941 0.000000 0.000000
# 5 0.000000 0.000000 0.000000 0.000000 0.031117 0.000000
# 6 0.000000 0.000000 0.000000 0.000000 0.000000 0.036837
#
#
# Mechanical properties :
#
#
# Convention : Reuss Voigt Hill
#
# Bulk Modulus (GPa) = 31.63778 37.26095 34.44936
# Shear Modulus (GPa) = 29.50956 32.19526 30.85241
#
# Velocity S-wave (km/s) = 3.74313 3.90976 3.82735
# Velocity P-wave (km/s) = 5.80542 6.17033 5.99065
#
# Compressibility (1/GPa) = 0.03160778
#
# Stress axis : x y z
#
# Youngs Moduli (GPa) = 59.72560 71.10835 62.49752
#
# Poissons Ratio (x) = 0.48728 -0.29417
# Poissons Ratio (y) = 0.40928 0.34085
# Poissons Ratio (z) = -0.28112 0.38782
#
# Static dielectric constant tensor:
#      x y z
#    x 3.846210 0.000000 0.000000 
#    y 0.000000 3.960890 0.000000 
#    z 0.000000 0.000000 3.916370 
# 
# 
# High freq. dielectric constant tensor:
#      x y z
#    x 1.825170 0.000000 0.000000 
#    y 0.000000 1.839480 0.000000 
#    z 0.000000 0.000000 1.843450 
# 
# From -- ./inp_files/1263.got.cif
#   From: 2010.03.12/outbox.cif.g09.slc.cpg/sg29_1_cif.got.tgz:1263.got - 2010.04.14 03:43:10.
