data_PCOD8168211
_publ_section_title
;
Structure prediction by ZEFSAII (Michael W. Deem and Ramdas Pophale) SiO2 
 PCOD8168211
Probable space group: P M A 2
;
_chemical_formula_sum "Si O2"
_cell_formula_units_Z 32
_cell_length_a 15.609837
_cell_length_b 8.741731
_cell_length_c 11.859666
_cell_angle_alpha 90.000000
_cell_angle_beta 90.000000
_cell_angle_gamma 90.000000
_cell_volume 1618.334396
_symmetry_space_group_name_H-M "P M A 2"
_symmetry_group_IT_number 28
_symmetry_cell_setting 'orthorhombic'
loop_
_space_group_symop_operation_xyz
x,y,z
-x,-y,z
1/2-x,y,z
1/2+x,-y,z
loop_
_atom_site_type_symbol
_atom_site_label
_atom_site_fract_x
_atom_site_fract_y
_atom_site_fract_z
Si Si1 0.154353 0.669185 0.995480
Si Si2 0.506840 0.820630 0.395265
Si Si3 0.848375 0.186556 0.757285
Si Si4 0.154449 0.310401 0.533268
Si Si5 0.851668 0.843027 0.759463
Si Si6 0.080048 0.611536 0.566075
Si Si7 0.498783 0.321846 0.156136
Si Si8 0.348908 0.316347 0.986108
O O1 0.250000 0.695214 0.046370
O O2 0.140872 0.773603 0.887291
O O3 0.083353 0.718169 0.085119
O O4 0.143693 0.494604 0.956628
O O5 0.599784 0.760131 0.432131
O O6 0.433445 0.734493 0.466810
O O7 0.495316 0.784227 0.264624
O O8 0.500000 0.000000 0.416916
O O9 0.750000 0.197212 0.717973
O O10 0.903148 0.301375 0.682118
O O11 0.884804 0.015541 0.743000
O O12 0.250000 0.247864 0.516581
O O13 0.114757 0.254692 0.653123
O O14 0.156552 0.496012 0.531494
O O15 0.750000 0.836131 0.764564
O O16 0.885253 0.772981 0.877016
O O17 0.000000 0.500000 0.582313
O O18 0.500000 0.500000 0.191011
O O19 0.411495 0.278114 0.090226
O O20 0.250000 0.271796 0.016139
#
# Coordination Sequence:
#
# PCOD8168211 Si02
#       8
#     4   4   4   4   4   4   4   4
#     4   9  19  35  55  80 111 147 187 230 274 327
#     4  11  24  41  57  80 115 148 186 237 288 339
#     4  10  19  33  55  84 116 144 178 227 281 335
#     4  10  20  37  61  84 111 149 191 231 276 335
#     4   9  18  32  53  84 118 147 177 222 280 337
#     4  10  21  36  56  81 109 146 187 229 277 332
#     4  10  21  38  57  78 107 146 193 237 276 326
#     4   9  18  34  57  83 111 145 184 227 277 333
#
# _framework density 19.773416999999998
#
# number of rings (size 3 to 8) (size 9 to 14) (size 15 to 20)
#    0.000    2.250    0.000    3.000    0.000    7.000 
#    0.000    7.500    0.000    0.000    0.000    0.000 
#    0.000    0.000    0.000    0.000    0.000    0.000 
#
# Total GULP energy -396805.456430 kJ/mol
# GULP energy per Si atom -12400.170513 kJ/mol
# Density = 1.972841 g / cm^3
# Si number density = 19.773417 Si / 1000 Ang^3
#
#
#
# Elastic Constant Matrix: (Units=GPa)
#
#
# Indices 1 2 3 4 5 6 
#
# 1 81.0543 31.6335 47.6757 0.0000 0.0000 0.0000
# 2 31.6335 128.4521 59.0298 0.0000 0.0000 0.0000
# 3 47.6757 59.0298 108.9963 0.0000 0.0000 0.0000
# 4 0.0000 0.0000 0.0000 31.3540 0.0000 0.0000
# 5 0.0000 0.0000 0.0000 0.0000 27.2188 0.0000
# 6 0.0000 0.0000 0.0000 0.0000 0.0000 19.0075
#
#
#
# Elastic Compliance Matrix: (Units=1/GPa)
#
#
# Indices 1 2 3 4 5 6 
#
# 1 0.016708 -0.001007 -0.006763 0.000000 0.000000 0.000000
# 2 -0.001007 0.010425 -0.005206 0.000000 0.000000 0.000000
# 3 -0.006763 -0.005206 0.014952 0.000000 0.000000 0.000000
# 4 0.000000 0.000000 0.000000 0.031894 0.000000 0.000000
# 5 0.000000 0.000000 0.000000 0.000000 0.036739 0.000000
# 6 0.000000 0.000000 0.000000 0.000000 0.000000 0.052611
#
#
# Mechanical properties :
#
#
# Convention : Reuss Voigt Hill
#
# Bulk Modulus (GPa) = 61.97865 66.13120 64.05493
# Shear Modulus (GPa) = 25.68596 27.52698 26.60647
#
# Velocity S-wave (km/s) = 3.60810 3.73516 3.67218
# Velocity P-wave (km/s) = 6.98357 7.21935 7.10244
#
# Compressibility (1/GPa) = 0.01613459
#
# Stress axis : x y z
#
# Youngs Moduli (GPa) = 59.85041 95.92155 66.88018
#
# Poissons Ratio (x) = 0.09657 0.45232
# Poissons Ratio (y) = 0.06025 0.34816
# Poissons Ratio (z) = 0.40477 0.49934
#
# Static dielectric constant tensor:
#      x y z
#    x 3.739870 0.000000 0.000000 
#    y 0.000000 3.755400 0.000000 
#    z 0.000000 0.000000 3.430700 
# 
# 
# High freq. dielectric constant tensor:
#      x y z
#    x 1.769000 0.000000 0.000000 
#    y 0.000000 1.774760 0.000000 
#    z 0.000000 0.000000 1.760270 
# 
# From -- ./inp_files/5566.got.cif
#   From: 2010.03.12/outbox.cif.g09.slc.cpg/sg28_3_cif.got.tgz:5566.got - 2010.04.14 03:39:34.
