data_PCOD8168612
_publ_section_title
;
Structure prediction by ZEFSAII (Michael W. Deem and Ramdas Pophale) SiO2 
 PCOD8168612
Probable space group: P C A 21
;
_chemical_formula_sum "Si O2"
_cell_formula_units_Z 28
_cell_length_a 15.662393
_cell_length_b 15.779522
_cell_length_c 5.115096
_cell_angle_alpha 90.000000
_cell_angle_beta 90.000000
_cell_angle_gamma 90.000000
_cell_volume 1264.170784
_symmetry_space_group_name_H-M "P C A 21"
_symmetry_group_IT_number 29
_symmetry_cell_setting 'orthorhombic'
loop_
_space_group_symop_operation_xyz
x,y,z
-x,-y,1/2+z
1/2-x,y,1/2+z
1/2+x,-y,z
loop_
_atom_site_type_symbol
_atom_site_label
_atom_site_fract_x
_atom_site_fract_y
_atom_site_fract_z
Si Si1 0.289511 0.432043 0.203230
Si Si2 0.552438 0.998633 0.806075
Si Si3 0.076433 0.819436 0.901987
Si Si4 0.447485 0.513096 0.369983
Si Si5 0.962405 0.817099 0.403082
Si Si6 0.710881 0.758649 0.761366
Si Si7 0.191460 0.660281 0.902186
O O1 0.240625 0.480179 0.440978
O O2 0.390302 0.437959 0.247558
O O3 0.256091 0.336124 0.196900
O O4 0.609712 0.082943 0.857998
O O5 0.530051 0.993417 0.498717
O O6 0.590151 0.907129 0.888034
O O7 0.155859 0.756324 0.879321
O O8 0.002997 0.800040 0.686499
O O9 0.037129 0.810169 0.190317
O O10 0.476306 0.480992 0.657243
O O11 0.391386 0.598870 0.384784
O O12 0.888231 0.750383 0.340686
O O13 0.731858 0.804722 0.485885
O O14 0.258015 0.645549 0.669697
#
# Coordination Sequence:
#
# PCOD8168612 Si02
#       7
#     4   4   4   4   4   4   4
#     4  10  21  39  58  78 115 154 182 227 294 351
#     4   8  16  32  53  84 114 155 197 245 292 341
#     4  10  21  36  62  87 114 158 207 241 292 357
#     4  12  26  41  65  92 116 150 209 249 292 357
#     4  10  19  35  60  84 123 155 203 252 288 342
#     4  10  21  34  53  82 114 148 184 230 294 344
#     4  12  26  45  65  91 130 164 196 254 320 368
#
# _framework density 22.148904000000002
#
# number of rings (size 3 to 8) (size 9 to 14) (size 15 to 20)
#    0.000    1.714    0.000    4.286    4.000    0.000 
#    0.000    1.429    0.000    0.000    0.000    0.000 
#    0.000    0.000    0.000    0.000    0.000    0.000 
#
# Total GULP energy -346877.969566 kJ/mol
# GULP energy per Si atom -12388.498913 kJ/mol
# Density = 2.209849 g / cm^3
# Si number density = 22.148904 Si / 1000 Ang^3
#
#
#
# Elastic Constant Matrix: (Units=GPa)
#
#
# Indices 1 2 3 4 5 6 
#
# 1 64.1925 24.2655 16.9191 0.0000 0.0000 0.0000
# 2 24.2655 75.1228 24.4962 0.0000 0.0000 0.0000
# 3 16.9191 24.4962 125.8056 0.0000 0.0000 0.0000
# 4 0.0000 0.0000 0.0000 21.8031 0.0000 0.0000
# 5 0.0000 0.0000 0.0000 0.0000 37.9770 0.0000
# 6 0.0000 0.0000 0.0000 0.0000 0.0000 28.2908
#
#
#
# Elastic Compliance Matrix: (Units=1/GPa)
#
#
# Indices 1 2 3 4 5 6 
#
# 1 0.017964 -0.005355 -0.001373 0.000000 0.000000 0.000000
# 2 -0.005355 0.015810 -0.002358 0.000000 0.000000 0.000000
# 3 -0.001373 -0.002358 0.008593 0.000000 0.000000 0.000000
# 4 0.000000 0.000000 0.000000 0.045865 0.000000 0.000000
# 5 0.000000 0.000000 0.000000 0.000000 0.026332 0.000000
# 6 0.000000 0.000000 0.000000 0.000000 0.000000 0.035347
#
#
# Mechanical properties :
#
#
# Convention : Reuss Voigt Hill
#
# Bulk Modulus (GPa) = 41.33212 44.05358 42.69285
# Shear Modulus (GPa) = 28.38510 30.91021 29.64765
#
# Velocity S-wave (km/s) = 3.58377 3.73978 3.66260
# Velocity P-wave (km/s) = 5.98549 6.21135 6.09946
#
# Compressibility (1/GPa) = 0.02419426
#
# Stress axis : x y z
#
# Youngs Moduli (GPa) = 55.66602 63.25020 116.37847
#
# Poissons Ratio (x) = 0.33870 0.15982
# Poissons Ratio (y) = 0.29808 0.27446
# Poissons Ratio (z) = 0.07644 0.14916
#
# Static dielectric constant tensor:
#      x y z
#    x 3.533880 0.000000 0.000000 
#    y 0.000000 4.242060 0.000000 
#    z 0.000000 0.000000 4.430720 
# 
# 
# High freq. dielectric constant tensor:
#      x y z
#    x 1.829730 0.000000 0.000000 
#    y 0.000000 1.871240 0.000000 
#    z 0.000000 0.000000 1.904460 
# 
# From -- ./inp_files/242.got.cif
#   From: 2010.03.12/outbox.cif.g09.slc.cpg/sg29_1_cif.got.tgz:242.got - 2010.04.14 03:43:10.
