data_PCOD8168113
_publ_section_title
;
Structure prediction by ZEFSAII (Michael W. Deem and Ramdas Pophale) SiO2 
 PCOD8168113
Probable space group: P M A 2
;
_chemical_formula_sum "Si O2"
_cell_formula_units_Z 32
_cell_length_a 8.873008
_cell_length_b 14.611642
_cell_length_c 12.375392
_cell_angle_alpha 90.000000
_cell_angle_beta 90.000000
_cell_angle_gamma 90.000000
_cell_volume 1604.459875
_symmetry_space_group_name_H-M "P M A 2"
_symmetry_group_IT_number 28
_symmetry_cell_setting 'orthorhombic'
loop_
_space_group_symop_operation_xyz
x,y,z
-x,-y,z
1/2-x,y,z
1/2+x,-y,z
loop_
_atom_site_type_symbol
_atom_site_label
_atom_site_fract_x
_atom_site_fract_y
_atom_site_fract_z
Si Si1 0.574847 0.278841 0.252380
Si Si2 0.578315 0.408739 0.808220
Si Si3 0.927385 0.713699 0.644894
Si Si4 0.418657 0.685415 0.015590
Si Si5 0.926098 0.860581 0.955953
Si Si6 0.570812 0.908027 0.191496
Si Si7 0.928871 0.399458 0.452864
Si Si8 0.927099 0.909738 0.722788
O O1 0.750000 0.256138 0.268648
O O2 0.543091 0.334207 0.140765
O O3 0.487220 0.182112 0.254141
O O4 0.516037 0.346389 0.345502
O O5 0.500000 0.500000 0.765928
O O6 0.750000 0.407302 0.766232
O O7 0.485618 0.324600 0.758890
O O8 0.571802 0.404287 0.939546
O O9 0.750000 0.696064 0.631590
O O10 0.964954 0.822133 0.647756
O O11 0.017524 0.662945 0.551320
O O12 0.250000 0.727883 0.008547
O O13 0.536989 0.754211 0.963920
O O14 0.750000 0.872535 0.948689
O O15 0.996601 0.900082 0.844829
O O16 0.986597 0.907118 0.066357
O O17 0.750000 0.910366 0.201301
O O18 0.500000 0.000000 0.244158
O O19 0.750000 0.410475 0.456526
O O20 0.000000 0.500000 0.457258
O O21 0.750000 0.922982 0.729205
O O22 0.000000 0.000000 0.669009
#
# Coordination Sequence:
#
# PCOD8168113 Si02
#       8
#     4   4   4   4   4   4   4   4
#     4   9  20  39  60  84 116 151 192 241 292 344
#     4  11  22  35  55  84 116 152 190 232 288 351
#     4  11  23  41  62  84 116 152 193 244 289 341
#     4   9  18  33  54  81 114 152 189 230 283 341
#     4   9  17  31  50  78 115 155 195 232 279 333
#     4  10  19  31  53  84 120 159 198 239 283 340
#     4  11  24  43  67  90 113 146 192 245 297 351
#     4  10  21  35  55  83 116 153 191 233 283 339
#
# _framework density 19.944407999999999
#
# number of rings (size 3 to 8) (size 9 to 14) (size 15 to 20)
#    0.000    2.000    1.250    2.250    0.000    4.000 
#    0.000    0.625    0.000    1.500    0.000    0.000 
#    0.000    0.000    0.000    0.000    0.000    0.000 
#
# Total GULP energy -396621.242149 kJ/mol
# GULP energy per Si atom -12394.413817 kJ/mol
# Density = 1.989901 g / cm^3
# Si number density = 19.944408 Si / 1000 Ang^3
#
#
#
# Elastic Constant Matrix: (Units=GPa)
#
#
# Indices 1 2 3 4 5 6 
#
# 1 50.8198 51.5507 30.6138 0.0000 0.0000 0.0000
# 2 51.5507 142.9422 59.7172 0.0000 0.0000 0.0000
# 3 30.6138 59.7172 102.5572 0.0000 0.0000 0.0000
# 4 0.0000 0.0000 0.0000 22.4122 0.0000 0.0000
# 5 0.0000 0.0000 0.0000 0.0000 17.2385 0.0000
# 6 0.0000 0.0000 0.0000 0.0000 0.0000 33.8255
#
#
#
# Elastic Compliance Matrix: (Units=1/GPa)
#
#
# Indices 1 2 3 4 5 6 
#
# 1 0.032085 -0.010003 -0.003753 0.000000 0.000000 0.000000
# 2 -0.010003 0.012364 -0.004213 0.000000 0.000000 0.000000
# 3 -0.003753 -0.004213 0.013324 0.000000 0.000000 0.000000
# 4 0.000000 0.000000 0.000000 0.044618 0.000000 0.000000
# 5 0.000000 0.000000 0.000000 0.000000 0.058010 0.000000
# 6 0.000000 0.000000 0.000000 0.000000 0.000000 0.029564
#
#
# Mechanical properties :
#
#
# Convention : Reuss Voigt Hill
#
# Bulk Modulus (GPa) = 45.79918 64.45363 55.12640
# Shear Modulus (GPa) = 21.44254 24.99108 23.21681
#
# Velocity S-wave (km/s) = 3.28245 3.54367 3.41556
# Velocity P-wave (km/s) = 6.11386 7.00930 6.57683
#
# Compressibility (1/GPa) = 0.02183445
#
# Stress axis : x y z
#
# Youngs Moduli (GPa) = 31.16688 80.88292 75.05238
#
# Poissons Ratio (x) = 0.80911 0.28166
# Poissons Ratio (y) = 0.31178 0.31620
# Poissons Ratio (z) = 0.11696 0.34076
#
# Static dielectric constant tensor:
#      x y z
#    x 3.553690 0.000000 0.000000 
#    y 0.000000 3.666160 0.000000 
#    z 0.000000 0.000000 3.682500 
# 
# 
# High freq. dielectric constant tensor:
#      x y z
#    x 1.777080 0.000000 0.000000 
#    y 0.000000 1.775170 0.000000 
#    z 0.000000 0.000000 1.765270 
# 
# From -- ./inp_files/5057.got.cif
#   From: 2010.03.12/outbox.cif.g09.slc.cpg/sg28_3_cif.got.tgz:5057.got - 2010.04.14 03:39:34.
