data_PCOD8168162
_publ_section_title
;
Structure prediction by ZEFSAII (Michael W. Deem and Ramdas Pophale) SiO2 
 PCOD8168162
Probable space group: P M A 2
;
_chemical_formula_sum "Si O2"
_cell_formula_units_Z 32
_cell_length_a 8.787902
_cell_length_b 14.217269
_cell_length_c 15.504728
_cell_angle_alpha 90.000000
_cell_angle_beta 90.000000
_cell_angle_gamma 90.000000
_cell_volume 1937.160200
_symmetry_space_group_name_H-M "P M A 2"
_symmetry_group_IT_number 28
_symmetry_cell_setting 'orthorhombic'
loop_
_space_group_symop_operation_xyz
x,y,z
-x,-y,z
1/2-x,y,z
1/2+x,-y,z
loop_
_atom_site_type_symbol
_atom_site_label
_atom_site_fract_x
_atom_site_fract_y
_atom_site_fract_z
Si Si1 0.425905 0.707310 0.693760
Si Si2 0.570130 0.602270 0.535181
Si Si3 0.429745 0.396593 0.851177
Si Si4 0.072287 0.601612 0.020715
Si Si5 0.573436 0.398452 0.210867
Si Si6 0.572760 0.710397 0.362257
Si Si7 0.074543 0.907000 0.627033
Si Si8 0.570201 0.904045 0.442516
O O1 0.250000 0.677405 0.702942
O O2 0.492108 0.667381 0.605616
O O3 0.521599 0.669761 0.773492
O O4 0.444236 0.820163 0.692341
O O5 0.500000 0.500000 0.542704
O O6 0.750000 0.599252 0.551687
O O7 0.529351 0.643732 0.441991
O O8 0.500000 0.500000 0.838208
O O9 0.250000 0.405786 0.853370
O O10 0.489604 0.347120 0.940138
O O11 0.250000 0.595443 0.999871
O O12 0.041337 0.645725 0.115316
O O13 0.000000 0.500000 0.024488
O O14 0.500000 0.500000 0.225754
O O15 0.750000 0.415421 0.224919
O O16 0.515624 0.322075 0.277981
O O17 0.750000 0.703786 0.342364
O O18 0.522746 0.817318 0.381687
O O19 0.250000 0.927140 0.606236
O O20 0.991515 0.883892 0.537676
O O21 0.000000 0.000000 0.669964
O O22 0.750000 0.913299 0.448245
O O23 0.500000 0.000000 0.403639
#
# Coordination Sequence:
#
# PCOD8168162 Si02
#       8
#     4   4   4   4   4   4   4   4
#     4  11  22  35  50  71  97 130 166 201 242 290
#     4  11  22  35  47  65  96 133 169 203 237 282
#     4  11  21  33  51  73  99 132 165 203 244 289
#     4   9  17  31  49  71  97 126 161 203 245 288
#     4  10  20  32  50  73 100 132 166 203 244 289
#     4  10  21  34  49  70  98 131 166 203 243 288
#     4  10  20  33  52  73  95 125 161 203 248 290
#     4  10  19  33  51  72  96 125 162 205 249 290
#
# _framework density 16.519024999999999
#
# number of rings (size 3 to 8) (size 9 to 14) (size 15 to 20)
#    0.000    1.750    1.250    5.625    0.000    6.000 
#    0.000    0.000    0.000    0.000    0.000    0.875 
#    0.000    6.000    0.000    0.000    0.000    0.000 
#
# Total GULP energy -396732.690570 kJ/mol
# GULP energy per Si atom -12397.896580 kJ/mol
# Density = 1.648143 g / cm^3
# Si number density = 16.519025 Si / 1000 Ang^3
#
#
#
# Elastic Constant Matrix: (Units=GPa)
#
#
# Indices 1 2 3 4 5 6 
#
# 1 103.2449 38.3158 42.4535 0.0000 0.0000 0.0000
# 2 38.3158 86.0940 34.3523 0.0000 0.0000 0.0000
# 3 42.4535 34.3523 89.7908 0.0000 0.0000 0.0000
# 4 0.0000 0.0000 0.0000 6.4885 0.0000 0.0000
# 5 0.0000 0.0000 0.0000 0.0000 26.1543 0.0000
# 6 0.0000 0.0000 0.0000 0.0000 0.0000 25.7053
#
#
#
# Elastic Compliance Matrix: (Units=1/GPa)
#
#
# Indices 1 2 3 4 5 6 
#
# 1 0.013073 -0.003956 -0.004668 0.000000 0.000000 0.000000
# 2 -0.003956 0.014905 -0.003832 0.000000 0.000000 0.000000
# 3 -0.004668 -0.003832 0.014810 0.000000 0.000000 0.000000
# 4 0.000000 0.000000 0.000000 0.154119 0.000000 0.000000
# 5 0.000000 0.000000 0.000000 0.000000 0.038235 0.000000
# 6 0.000000 0.000000 0.000000 0.000000 0.000000 0.038903
#
#
# Mechanical properties :
#
#
# Convention : Reuss Voigt Hill
#
# Bulk Modulus (GPa) = 55.93767 56.59700 56.26734
# Shear Modulus (GPa) = 16.39810 22.60349 19.50080
#
# Velocity S-wave (km/s) = 3.15410 3.70311 3.43958
# Velocity P-wave (km/s) = 6.87027 7.25397 7.06472
#
# Compressibility (1/GPa) = 0.01787704
#
# Stress axis : x y z
#
# Youngs Moduli (GPa) = 76.49353 67.09306 67.52232
#
# Poissons Ratio (x) = 0.26540 0.31517
# Poissons Ratio (y) = 0.30258 0.25875
# Poissons Ratio (z) = 0.35704 0.25710
#
# Static dielectric constant tensor:
#      x y z
#    x 3.307070 0.000000 0.000000 
#    y 0.000000 3.037780 0.000000 
#    z 0.000000 0.000000 3.549990 
# 
# 
# High freq. dielectric constant tensor:
#      x y z
#    x 1.657420 0.000000 0.000000 
#    y 0.000000 1.615680 0.000000 
#    z 0.000000 0.000000 1.627630 
# 
# From -- ./inp_files/6455.got.cif
#   From: 2010.03.12/outbox.cif.g09.slc.cpg/sg28_4_cif.got.tgz:6455.got - 2010.04.14 03:39:34.
