data_PCOD8168129
_publ_section_title
;
Structure prediction by ZEFSAII (Michael W. Deem and Ramdas Pophale) SiO2 
 PCOD8168129
Probable space group: P M A 2
;
_chemical_formula_sum "Si O2"
_cell_formula_units_Z 32
_cell_length_a 14.826274
_cell_length_b 8.686568
_cell_length_c 12.325442
_cell_angle_alpha 90.000000
_cell_angle_beta 90.000000
_cell_angle_gamma 90.000000
_cell_volume 1587.386740
_symmetry_space_group_name_H-M "P M A 2"
_symmetry_group_IT_number 28
_symmetry_cell_setting 'orthorhombic'
loop_
_space_group_symop_operation_xyz
x,y,z
-x,-y,z
1/2-x,y,z
1/2+x,-y,z
loop_
_atom_site_type_symbol
_atom_site_label
_atom_site_fract_x
_atom_site_fract_y
_atom_site_fract_z
Si Si1 0.000560 0.317406 0.119380
Si Si2 0.409761 0.107224 0.498890
Si Si3 0.146666 0.656574 0.713796
Si Si4 0.499440 0.317406 0.878399
Si Si5 0.854439 0.706171 0.289803
Si Si6 0.853334 0.343426 0.283983
Si Si7 0.145561 0.293829 0.707976
Si Si8 0.652103 0.205429 0.498890
O O1 0.908983 0.275349 0.182986
O O2 0.000000 0.500000 0.110384
O O3 0.088431 0.251053 0.182107
O O4 0.999506 0.243810 0.998890
O O5 0.399542 0.213024 0.393266
O O6 0.399542 0.213024 0.604514
O O7 0.500000 0.000000 0.498889
O O8 0.332367 0.978265 0.498890
O O9 0.250000 0.705759 0.733727
O O10 0.136982 0.475996 0.693144
O O11 0.102390 0.737264 0.607661
O O12 0.091017 0.724651 0.814794
O O13 0.500000 0.500000 0.887395
O O14 0.411569 0.251053 0.815672
O O15 0.750000 0.756002 0.274885
O O16 0.863018 0.524004 0.304636
O O17 0.750000 0.294241 0.264052
O O18 0.897610 0.262736 0.390118
O O19 0.250000 0.243998 0.722895
O O20 0.750000 0.287000 0.498890
#
# Coordination Sequence:
#
# PCOD8168129 Si02
#       8
#     4   4   4   4   4   4   4   4
#     4   9  18  32  51  78 108 137 177 226 268 311
#     4  12  23  34  52  78 107 140 177 224 277 326
#     4   9  18  33  55  81 110 145 180 220 272 328
#     4   9  18  32  51  78 108 137 177 226 268 311
#     4  10  20  35  55  79 109 144 181 221 270 330
#     4   9  18  33  55  81 110 145 180 220 272 328
#     4  10  20  35  55  79 109 144 181 221 270 330
#     4  10  19  32  51  76 105 134 170 216 267 322
#
# _framework density 20.158916999999999
#
# number of rings (size 3 to 8) (size 9 to 14) (size 15 to 20)
#    0.000    2.250    0.000    3.375    0.000    3.000 
#    0.000   10.000    0.000    6.750    0.000    7.000 
#    0.000    0.000    0.000    0.000    0.000    0.000 
#
# Total GULP energy -396514.205583 kJ/mol
# GULP energy per Si atom -12391.068924 kJ/mol
# Density = 2.011303 g / cm^3
# Si number density = 20.158917 Si / 1000 Ang^3
#
#
#
# Elastic Constant Matrix: (Units=GPa)
#
#
# Indices 1 2 3 4 5 6 
#
# 1 143.0695 25.0769 86.5965 0.0000 0.0000 0.0000
# 2 25.0769 40.0741 40.5436 0.0000 0.0000 0.0000
# 3 86.5965 40.5436 217.7057 0.0000 0.0000 0.0000
# 4 0.0000 0.0000 0.0000 3.8148 0.0000 0.0000
# 5 0.0000 0.0000 0.0000 0.0000 26.2878 0.0000
# 6 0.0000 0.0000 0.0000 0.0000 0.0000 22.2566
#
#
#
# Elastic Compliance Matrix: (Units=1/GPa)
#
#
# Indices 1 2 3 4 5 6 
#
# 1 0.009420 -0.002592 -0.003264 0.000000 0.000000 0.000000
# 2 -0.002592 0.031460 -0.004828 0.000000 0.000000 0.000000
# 3 -0.003264 -0.004828 0.006791 0.000000 0.000000 0.000000
# 4 0.000000 0.000000 0.000000 0.262137 0.000000 0.000000
# 5 0.000000 0.000000 0.000000 0.000000 0.038041 0.000000
# 6 0.000000 0.000000 0.000000 0.000000 0.000000 0.044930
#
#
# Mechanical properties :
#
#
# Convention : Reuss Voigt Hill
#
# Bulk Modulus (GPa) = 38.01907 78.36482 58.19194
# Shear Modulus (GPa) = 11.82274 27.04733 19.43504
#
# Velocity S-wave (km/s) = 2.42436 3.66690 3.10835
# Velocity P-wave (km/s) = 5.17081 7.54229 6.46620
#
# Compressibility (1/GPa) = 0.02630259
#
# Stress axis : x y z
#
# Youngs Moduli (GPa) = 106.16128 31.78616 147.25802
#
# Poissons Ratio (x) = 0.08239 0.48066
# Poissons Ratio (y) = 0.27518 0.71093
# Poissons Ratio (z) = 0.34652 0.15346
#
# Static dielectric constant tensor:
#      x y z
#    x 3.944530 0.000000 0.000000 
#    y 0.000000 3.516460 0.000000 
#    z 0.000000 0.000000 4.018160 
# 
# 
# High freq. dielectric constant tensor:
#      x y z
#    x 1.801060 0.000000 0.000000 
#    y 0.000000 1.755870 0.000000 
#    z 0.000000 0.000000 1.787270 
# 
# From -- ./inp_files/5604.got.cif
#   From: 2010.03.12/outbox.cif.g09.slc.cpg/sg28_3_cif.got.tgz:5604.got - 2010.04.14 03:39:34.
