data_PCOD8168046
_publ_section_title
;
Structure prediction by ZEFSAII (Michael W. Deem and Ramdas Pophale) SiO2 
 PCOD8168046
Probable space group: P M A 2
;
_chemical_formula_sum "Si O2"
_cell_formula_units_Z 24
_cell_length_a 8.522751
_cell_length_b 9.079356
_cell_length_c 15.599738
_cell_angle_alpha 90.000000
_cell_angle_beta 90.000000
_cell_angle_gamma 90.000000
_cell_volume 1207.124737
_symmetry_space_group_name_H-M "P M A 2"
_symmetry_group_IT_number 28
_symmetry_cell_setting 'orthorhombic'
loop_
_space_group_symop_operation_xyz
x,y,z
-x,-y,z
1/2-x,y,z
1/2+x,-y,z
loop_
_atom_site_type_symbol
_atom_site_label
_atom_site_fract_x
_atom_site_fract_y
_atom_site_fract_z
Si Si1 0.065027 0.836460 0.046310
Si Si2 0.063671 0.837273 0.363182
Si Si3 0.564847 0.661539 0.204463
Si Si4 0.436050 0.836177 0.695619
Si Si5 0.064307 0.164157 0.870214
Si Si6 0.565315 0.338231 0.531218
O O1 0.250000 0.848800 0.041495
O O2 0.014949 0.725848 0.120107
O O3 0.000000 0.000000 0.063838
O O4 0.000681 0.764132 0.957751
O O5 0.250000 0.835273 0.348726
O O6 0.011138 0.752135 0.448393
O O7 0.977612 0.764261 0.283549
O O8 0.000000 0.000000 0.373318
O O9 0.500000 0.500000 0.223291
O O10 0.750000 0.656545 0.191340
O O11 0.250000 0.842144 0.698572
O O12 0.499863 0.759644 0.783362
O O13 0.500590 0.740087 0.616563
O O14 0.500000 0.000000 0.684110
O O15 0.250000 0.167450 0.870706
O O16 0.000000 0.000000 0.868885
O O17 0.500000 0.500000 0.523541
O O18 0.750000 0.346115 0.536279
#
# Coordination Sequence:
#
# PCOD8168046 Si02
#       6
#     4   4   4   4   4   4
#     4  11  21  37  60  87 117 153 194 241 288 340
#     4  11  23  41  63  90 117 150 192 238 286 339
#     4  12  25  42  61  86 118 154 191 235 287 345
#     4  10  19  34  55  83 113 148 191 238 286 339
#     4  10  18  31  53  83 114 149 190 238 288 338
#     4  10  23  39  58  83 116 152 191 234 285 341
#
# _framework density 19.881955000000001
#
# number of rings (size 3 to 8) (size 9 to 14) (size 15 to 20)
#    0.000    1.333    0.000    9.000    0.000    4.000 
#    0.000    0.833    0.000    2.000    0.000    0.000 
#    0.000    0.000    0.000    0.000    0.000    0.000 
#
# Total GULP energy -297636.442646 kJ/mol
# GULP energy per Si atom -12401.518444 kJ/mol
# Density = 1.983670 g / cm^3
# Si number density = 19.881955 Si / 1000 Ang^3
#
#
#
# Elastic Constant Matrix: (Units=GPa)
#
#
# Indices 1 2 3 4 5 6 
#
# 1 109.5286 18.4404 34.2402 0.0000 0.0000 0.0000
# 2 18.4404 104.4091 55.8801 0.0000 0.0000 0.0000
# 3 34.2402 55.8801 171.5045 0.0000 0.0000 0.0000
# 4 0.0000 0.0000 0.0000 -31.4769 0.0000 0.0000
# 5 0.0000 0.0000 0.0000 0.0000 25.9350 0.0000
# 6 0.0000 0.0000 0.0000 0.0000 0.0000 30.0269
#
#
#
# Elastic Compliance Matrix: (Units=1/GPa)
#
#
# Indices 1 2 3 4 5 6 
#
# 1 0.009797 -0.000828 -0.001686 0.000000 0.000000 0.000000
# 2 -0.000828 0.011671 -0.003637 0.000000 0.000000 0.000000
# 3 -0.001686 -0.003637 0.007352 0.000000 0.000000 0.000000
# 4 0.000000 0.000000 0.000000 -0.031769 0.000000 0.000000
# 5 0.000000 0.000000 0.000000 0.000000 0.038558 0.000000
# 6 0.000000 0.000000 0.000000 0.000000 0.000000 0.033303
#
#
# Mechanical properties :
#
#
# Convention : Reuss Voigt Hill
#
# Bulk Modulus (GPa) = 60.54302 66.95152 63.74727
# Shear Modulus (GPa) = 57.65695 23.35576 40.50636
#
# Velocity S-wave (km/s) = 5.39097 3.43114 4.51859
# Velocity P-wave (km/s) = 8.32271 7.03168 7.70429
#
# Compressibility (1/GPa) = 0.01651718
#
# Stress axis : x y z
#
# Youngs Moduli (GPa) = 102.07715 85.68537 136.00841
#
# Poissons Ratio (x) = 0.07093 0.22933
# Poissons Ratio (y) = 0.08450 0.49470
# Poissons Ratio (z) = 0.17211 0.31166
#
# Static dielectric constant tensor:
#      x y z
#    x 3.733300 0.000000 0.000000 
#    y 0.000000 3.749800 0.000000 
#    z 0.000000 0.000000 4.532600 
# 
# 
# High freq. dielectric constant tensor:
#      x y z
#    x 1.790890 0.000000 0.000000 
#    y 0.000000 1.753790 0.000000 
#    z 0.000000 0.000000 1.804750 
# 
# From -- ./inp_files/6112.got.cif
#   From: 2010.03.12/outbox.cif.g09.slc.cpg/sg28_4_cif.got.tgz:6112.got - 2010.04.14 03:39:34.
