data_PCOD8168099
_publ_section_title
;
Structure prediction by ZEFSAII (Michael W. Deem and Ramdas Pophale) SiO2 
 PCOD8168099
Probable space group: P M A 2
;
_chemical_formula_sum "Si O2"
_cell_formula_units_Z 32
_cell_length_a 8.772177
_cell_length_b 14.245859
_cell_length_c 15.666174
_cell_angle_alpha 90.000000
_cell_angle_beta 90.000000
_cell_angle_gamma 90.000000
_cell_volume 1957.757847
_symmetry_space_group_name_H-M "P M A 2"
_symmetry_group_IT_number 28
_symmetry_cell_setting 'orthorhombic'
loop_
_space_group_symop_operation_xyz
x,y,z
-x,-y,z
1/2-x,y,z
1/2+x,-y,z
loop_
_atom_site_type_symbol
_atom_site_label
_atom_site_fract_x
_atom_site_fract_y
_atom_site_fract_z
Si Si1 0.068930 0.901928 0.697560
Si Si2 0.569773 0.601993 0.792220
Si Si3 0.571599 0.904769 0.880655
Si Si4 0.570579 0.397690 0.110322
Si Si5 0.430538 0.278816 0.629723
Si Si6 0.073074 0.289788 0.959261
Si Si7 0.570321 0.396379 0.480469
Si Si8 0.425380 0.598456 0.295317
O O1 0.250000 0.907439 0.698067
O O2 0.008630 0.878750 0.792060
O O3 0.011924 0.821814 0.633424
O O4 0.000000 0.000000 0.664823
O O5 0.500000 0.500000 0.787908
O O6 0.750000 0.593778 0.792819
O O7 0.514134 0.659582 0.710048
O O8 0.510580 0.654291 0.877003
O O9 0.750000 0.919072 0.862019
O O10 0.543312 0.821047 0.947280
O O11 0.500000 0.000000 0.919635
O O12 0.500000 0.500000 0.092775
O O13 0.750000 0.408375 0.100705
O O14 0.520419 0.357017 0.204653
O O15 0.514767 0.321654 0.042996
O O16 0.250000 0.264870 0.629856
O O17 0.483531 0.328094 0.543740
O O18 0.250000 0.311436 0.972041
O O19 0.500000 0.500000 0.488814
O O20 0.750000 0.402124 0.501695
O O21 0.542934 0.349271 0.385567
O O22 0.500000 0.500000 0.307827
O O23 0.250000 0.577596 0.284590
#
# Coordination Sequence:
#
# PCOD8168099 Si02
#       8
#     4   4   4   4   4   4   4   4
#     4  11  21  34  53  74  96 125 162 203 247 291
#     4  10  21  34  45  61  93 131 164 194 231 275
#     4  10  19  34  52  71  96 124 160 203 248 288
#     4  10  19  31  48  71  97 129 165 202 242 287
#     4  11  21  35  50  69  98 131 165 204 243 288
#     4  10  20  34  48  67  96 130 161 198 241 285
#     4  10  19  32  49  72  99 131 166 202 245 292
#     4   8  16  30  47  67  95 125 159 202 245 286
#
# _framework density 16.345229
#
# number of rings (size 3 to 8) (size 9 to 14) (size 15 to 20)
#    0.000    2.000    1.250    4.125    0.000    5.500 
#    0.000    0.000    0.000    0.000    0.000    0.875 
#    0.000    2.000    0.000    0.000    0.000    0.000 
#
# Total GULP energy -396617.746481 kJ/mol
# GULP energy per Si atom -12394.304578 kJ/mol
# Density = 1.630803 g / cm^3
# Si number density = 16.345229 Si / 1000 Ang^3
#
#
#
# Elastic Constant Matrix: (Units=GPa)
#
#
# Indices 1 2 3 4 5 6 
#
# 1 78.9882 44.0844 42.4703 0.0000 0.0000 0.0000
# 2 44.0844 105.0648 58.1854 0.0000 0.0000 0.0000
# 3 42.4703 58.1854 118.9882 0.0000 0.0000 0.0000
# 4 0.0000 0.0000 0.0000 9.2787 0.0000 0.0000
# 5 0.0000 0.0000 0.0000 0.0000 23.4753 0.0000
# 6 0.0000 0.0000 0.0000 0.0000 0.0000 28.3971
#
#
#
# Elastic Compliance Matrix: (Units=1/GPa)
#
#
# Indices 1 2 3 4 5 6 
#
# 1 0.017626 -0.005364 -0.003668 0.000000 0.000000 0.000000
# 2 -0.005364 0.014685 -0.005266 0.000000 0.000000 0.000000
# 3 -0.003668 -0.005266 0.012289 0.000000 0.000000 0.000000
# 4 0.000000 0.000000 0.000000 0.107774 0.000000 0.000000
# 5 0.000000 0.000000 0.000000 0.000000 0.042598 0.000000
# 6 0.000000 0.000000 0.000000 0.000000 0.000000 0.035215
#
#
# Mechanical properties :
#
#
# Convention : Reuss Voigt Hill
#
# Bulk Modulus (GPa) = 62.49045 65.83572 64.16309
# Shear Modulus (GPa) = 18.93080 22.78362 20.85721
#
# Velocity S-wave (km/s) = 3.40690 3.73755 3.57605
# Velocity P-wave (km/s) = 7.33421 7.68058 7.50939
#
# Compressibility (1/GPa) = 0.01600244
#
# Stress axis : x y z
#
# Youngs Moduli (GPa) = 56.73314 68.09482 81.37524
#
# Poissons Ratio (x) = 0.36529 0.29850
# Poissons Ratio (y) = 0.30434 0.42856
# Poissons Ratio (z) = 0.20810 0.35862
#
# Static dielectric constant tensor:
#      x y z
#    x 3.184680 0.000000 0.000000 
#    y 0.000000 3.003230 0.000000 
#    z 0.000000 0.000000 3.382540 
# 
# 
# High freq. dielectric constant tensor:
#      x y z
#    x 1.642050 0.000000 0.000000 
#    y 0.000000 1.608250 0.000000 
#    z 0.000000 0.000000 1.624240 
# 
# From -- ./inp_files/6416.got.cif
#   From: 2010.03.12/outbox.cif.g09.slc.cpg/sg28_4_cif.got.tgz:6416.got - 2010.04.14 03:39:34.
