data_PCOD8168966
_publ_section_title
;
Structure prediction by ZEFSAII (Michael W. Deem and Ramdas Pophale) SiO2 
 PCOD8168966
Probable space group: P C A 21
;
_chemical_formula_sum "Si O2"
_cell_formula_units_Z 32
_cell_length_a 12.081473
_cell_length_b 13.261976
_cell_length_c 9.432907
_cell_angle_alpha 90.000000
_cell_angle_beta 90.000000
_cell_angle_gamma 90.000000
_cell_volume 1511.380025
_symmetry_space_group_name_H-M "P C A 21"
_symmetry_group_IT_number 29
_symmetry_cell_setting 'orthorhombic'
loop_
_space_group_symop_operation_xyz
x,y,z
-x,-y,1/2+z
1/2-x,y,1/2+z
1/2+x,-y,z
loop_
_atom_site_type_symbol
_atom_site_label
_atom_site_fract_x
_atom_site_fract_y
_atom_site_fract_z
Si Si1 0.431703 0.584216 0.516100
Si Si2 0.115517 0.260893 0.455319
Si Si3 0.026338 0.918581 0.042014
Si Si4 0.503090 0.600879 0.835478
Si Si5 0.628317 0.981988 0.776535
Si Si6 0.688315 0.752982 0.759408
Si Si7 0.710832 0.302375 0.443804
Si Si8 0.736435 0.167645 0.177736
O O1 0.518488 0.658800 0.443091
O O2 0.465126 0.563524 0.679489
O O3 0.431084 0.484098 0.421276
O O4 0.309172 0.630155 0.508131
O O5 0.194244 0.280670 0.321762
O O6 0.191505 0.274786 0.594178
O O7 0.063048 0.148945 0.458193
O O8 0.110841 0.842952 0.121185
O O9 0.968991 0.987802 0.160758
O O10 0.085890 0.991830 0.932664
O O11 0.583022 0.697599 0.828076
O O12 0.396626 0.628755 0.929035
O O13 0.678718 0.871627 0.786150
O O14 0.723392 0.059905 0.732548
O O15 0.743104 0.253682 0.295070
O O16 0.686678 0.209406 0.550862
#
# Coordination Sequence:
#
# PCOD8168966 Si02
#       8
#     4   4   4   4   4   4   4   4
#     4  11  25  47  72 103 136 184 230 289 358 414
#     4  10  22  46  64  95 136 175 222 284 332 414
#     4  11  25  43  64 100 139 179 234 287 346 424
#     4  11  27  47  72 102 142 180 236 292 353 426
#     4  11  26  39  69  98 136 185 227 286 352 423
#     4  10  25  44  65  97 139 178 221 286 343 409
#     4  12  24  48  72 100 141 180 239 295 354 425
#     4  12  24  44  70 101 135 185 235 293 354 421
#
# _framework density 21.172702000000001
#
# number of rings (size 3 to 8) (size 9 to 14) (size 15 to 20)
#    0.000    1.000    3.750    1.500   12.250    1.000 
#    0.000    0.000    0.000    0.000    0.000    0.000 
#    0.000    0.000    0.000    0.000    0.000    0.000 
#
# Total GULP energy -396931.924731 kJ/mol
# GULP energy per Si atom -12404.122648 kJ/mol
# Density = 2.112451 g / cm^3
# Si number density = 21.172702 Si / 1000 Ang^3
#
#
#
# Elastic Constant Matrix: (Units=GPa)
#
#
# Indices 1 2 3 4 5 6 
#
# 1 73.9086 26.1371 17.0643 0.0000 0.0000 0.0000
# 2 26.1371 89.2444 19.0048 0.0000 0.0000 0.0000
# 3 17.0643 19.0048 50.7621 0.0000 0.0000 0.0000
# 4 0.0000 0.0000 0.0000 37.2876 0.0000 0.0000
# 5 0.0000 0.0000 0.0000 0.0000 38.3758 0.0000
# 6 0.0000 0.0000 0.0000 0.0000 0.0000 24.9837
#
#
#
# Elastic Compliance Matrix: (Units=1/GPa)
#
#
# Indices 1 2 3 4 5 6 
#
# 1 0.015767 -0.003791 -0.003881 0.000000 0.000000 0.000000
# 2 -0.003791 0.013088 -0.003625 0.000000 0.000000 0.000000
# 3 -0.003881 -0.003625 0.022362 0.000000 0.000000 0.000000
# 4 0.000000 0.000000 0.000000 0.026819 0.000000 0.000000
# 5 0.000000 0.000000 0.000000 0.000000 0.026058 0.000000
# 6 0.000000 0.000000 0.000000 0.000000 0.000000 0.040026
#
#
# Mechanical properties :
#
#
# Convention : Reuss Voigt Hill
#
# Bulk Modulus (GPa) = 34.93912 37.59195 36.26553
# Shear Modulus (GPa) = 28.36810 30.24335 29.30572
#
# Velocity S-wave (km/s) = 3.66436 3.78353 3.72442
# Velocity P-wave (km/s) = 5.86866 6.07292 5.97166
#
# Compressibility (1/GPa) = 0.02862122
#
# Stress axis : x y z
#
# Youngs Moduli (GPa) = 63.42368 76.40845 44.71947
#
# Poissons Ratio (x) = 0.28968 0.17355
# Poissons Ratio (y) = 0.24045 0.16212
# Poissons Ratio (z) = 0.24614 0.27701
#
# Static dielectric constant tensor:
#      x y z
#    x 3.788070 0.000000 0.000000 
#    y 0.000000 3.818430 0.000000 
#    z 0.000000 0.000000 3.945670 
# 
# 
# High freq. dielectric constant tensor:
#      x y z
#    x 1.829660 0.000000 0.000000 
#    y 0.000000 1.831420 0.000000 
#    z 0.000000 0.000000 1.839290 
# 
# From -- ./inp_files/1571.got.cif
#   From: 2010.03.12/outbox.cif.g09.slc.cpg/sg29_1_cif.got.tgz:1571.got - 2010.04.14 03:43:10.
