data_PCOD8168397
_publ_section_title
;
Structure prediction by ZEFSAII (Michael W. Deem and Ramdas Pophale) SiO2 
 PCOD8168397
Probable space group: P M A 2
;
_chemical_formula_sum "Si O2"
_cell_formula_units_Z 32
_cell_length_a 14.827950
_cell_length_b 8.854041
_cell_length_c 10.404531
_cell_angle_alpha 90.000000
_cell_angle_beta 90.000000
_cell_angle_gamma 90.000000
_cell_volume 1365.982546
_symmetry_space_group_name_H-M "P M A 2"
_symmetry_group_IT_number 28
_symmetry_cell_setting 'orthorhombic'
loop_
_space_group_symop_operation_xyz
x,y,z
-x,-y,z
1/2-x,y,z
1/2+x,-y,z
loop_
_atom_site_type_symbol
_atom_site_label
_atom_site_fract_x
_atom_site_fract_y
_atom_site_fract_z
Si Si1 0.517817 0.168053 0.600170
Si Si2 0.851307 0.395838 0.512866
Si Si3 0.851696 0.337038 0.094408
Si Si4 0.017817 0.168053 0.184407
Si Si5 0.351307 0.395838 0.271710
Si Si6 0.648304 0.662962 0.690169
Si Si7 0.851051 0.831859 0.946876
Si Si8 0.851051 0.168140 0.837701
O O1 0.579587 0.257211 0.498804
O O2 0.419255 0.238601 0.606680
O O3 0.570476 0.181838 0.734664
O O4 0.500000 0.000000 0.552015
O O5 0.750000 0.332406 0.507108
O O6 0.871832 0.500000 0.392288
O O7 0.866652 0.487355 0.648597
O O8 0.750000 0.289442 0.133781
O O9 0.866653 0.512645 0.135980
O O10 0.919255 0.238601 0.177897
O O11 0.866906 0.299897 0.943958
O O12 0.079587 0.257211 0.285773
O O13 0.070476 0.181839 0.049913
O O14 0.000000 0.000000 0.232561
O O15 0.250000 0.332406 0.277468
O O16 0.750000 0.710559 0.650796
O O17 0.633094 0.700103 0.840619
O O18 0.750000 0.810457 0.005881
O O19 0.859229 1.000000 0.892289
O O20 0.750000 0.189542 0.778696
#
# Coordination Sequence:
#
# PCOD8168397 Si02
#       8
#     4   4   4   4   4   4   4   4
#     4  12  23  37  68 101 136 173 225 284 349 415
#     4  10  24  48  71  94 133 181 234 290 344 404
#     4  10  22  39  63  94 134 184 224 273 338 407
#     4  12  23  37  68 101 136 173 225 284 349 415
#     4  10  24  48  71  94 133 181 234 290 344 404
#     4  10  22  39  63  94 134 184 224 273 338 407
#     4  10  20  37  63  96 140 178 220 280 345 411
#     4  10  20  37  63  96 140 178 220 280 345 411
#
# _framework density 23.426359000000001
#
# number of rings (size 3 to 8) (size 9 to 14) (size 15 to 20)
#    0.000    1.500    2.500    2.250    0.000    4.000 
#    0.000    8.750    0.000    4.500    0.000    0.000 
#    0.000    0.000    0.000    0.000    0.000    0.000 
#
# Total GULP energy -396651.418798 kJ/mol
# GULP energy per Si atom -12395.356837 kJ/mol
# Density = 2.337304 g / cm^3
# Si number density = 23.426359 Si / 1000 Ang^3
#
#
#
# Elastic Constant Matrix: (Units=GPa)
#
#
# Indices 1 2 3 4 5 6 
#
# 1 156.3657 77.6545 21.4062 0.0000 0.0000 0.0000
# 2 77.6545 128.0452 28.0502 0.0000 0.0000 0.0000
# 3 21.4062 28.0502 67.9992 0.0000 0.0000 0.0000
# 4 0.0000 0.0000 0.0000 30.7681 0.0000 0.0000
# 5 0.0000 0.0000 0.0000 0.0000 2.9285 0.0000
# 6 0.0000 0.0000 0.0000 0.0000 0.0000 27.3538
#
#
#
# Elastic Compliance Matrix: (Units=1/GPa)
#
#
# Indices 1 2 3 4 5 6 
#
# 1 0.009178 -0.005423 -0.000652 0.000000 0.000000 0.000000
# 2 -0.005423 0.011790 -0.003156 0.000000 0.000000 0.000000
# 3 -0.000652 -0.003156 0.016213 0.000000 0.000000 0.000000
# 4 0.000000 0.000000 0.000000 0.032501 0.000000 0.000000
# 5 0.000000 0.000000 0.000000 0.000000 0.341468 0.000000
# 6 0.000000 0.000000 0.000000 0.000000 0.000000 0.036558
#
#
# Mechanical properties :
#
#
# Convention : Reuss Voigt Hill
#
# Bulk Modulus (GPa) = 53.42399 67.40353 60.41376
# Shear Modulus (GPa) = 10.58402 27.23004 18.90703
#
# Velocity S-wave (km/s) = 2.12786 3.41305 2.84400
# Velocity P-wave (km/s) = 5.37510 6.66085 6.05221
#
# Compressibility (1/GPa) = 0.01871818
#
# Stress axis : x y z
#
# Youngs Moduli (GPa) = 108.95900 84.81703 61.67763
#
# Poissons Ratio (x) = 0.45997 0.04022
# Poissons Ratio (y) = 0.59090 0.19467
# Poissons Ratio (z) = 0.07105 0.26771
#
# Static dielectric constant tensor:
#      x y z
#    x 4.572760 0.000000 0.000000 
#    y 0.000000 4.389250 0.000000 
#    z 0.000000 0.000000 4.077600 
# 
# 
# High freq. dielectric constant tensor:
#      x y z
#    x 1.951500 0.000000 0.000000 
#    y 0.000000 1.919770 0.000000 
#    z 0.000000 0.000000 1.907330 
# 
# From -- ./inp_files/5630.got.cif
#   From: 2010.03.12/outbox.cif.g09.slc.cpg/sg28_3_cif.got.tgz:5630.got - 2010.04.14 03:39:34.
