data_PCOD8168919
_publ_section_title
;
Structure prediction by ZEFSAII (Michael W. Deem and Ramdas Pophale) SiO2 
 PCOD8168919
Probable space group: P C A 21
;
_chemical_formula_sum "Si O2"
_cell_formula_units_Z 28
_cell_length_a 11.928425
_cell_length_b 7.146729
_cell_length_c 15.785287
_cell_angle_alpha 90.000000
_cell_angle_beta 90.000000
_cell_angle_gamma 90.000000
_cell_volume 1345.683418
_symmetry_space_group_name_H-M "P C A 21"
_symmetry_group_IT_number 29
_symmetry_cell_setting 'orthorhombic'
loop_
_space_group_symop_operation_xyz
x,y,z
-x,-y,1/2+z
1/2-x,y,1/2+z
1/2+x,-y,z
loop_
_atom_site_type_symbol
_atom_site_label
_atom_site_fract_x
_atom_site_fract_y
_atom_site_fract_z
Si Si1 0.134816 0.750000 0.048460
Si Si2 0.451229 0.384160 0.616553
Si Si3 0.698666 0.552797 0.276036
Si Si4 0.322034 0.737442 0.913711
Si Si5 0.177968 0.762555 0.683211
Si Si6 0.951225 0.884156 0.480368
Si Si7 0.801330 0.947205 0.320885
O O1 0.049054 0.588167 0.074815
O O2 0.214158 0.812646 0.126178
O O3 0.214160 0.687352 0.970744
O O4 0.049057 0.911834 0.022102
O O5 0.395869 0.398561 0.708072
O O6 0.574470 0.297438 0.625397
O O7 0.386803 0.250000 0.548462
O O8 0.646264 0.445563 0.357590
O O9 0.795489 0.417694 0.240888
O O10 0.749995 0.750004 0.298458
O O11 0.425533 0.797434 0.971522
O O12 0.295491 0.917690 0.856033
O O13 0.146264 0.945557 0.739333
O O14 0.895862 0.898549 0.388849
#
# Coordination Sequence:
#
# PCOD8168919 Si02
#       7
#     4   4   4   4   4   4   4
#     4  10  22  44  60  92 132 164 216 276 324 386
#     4  11  23  40  67  93 124 176 218 263 332 396
#     4  10  23  40  63  91 130 167 214 273 331 384
#     4  10  22  42  61  94 131 164 216 274 318 400
#     4  10  22  42  61  94 131 164 216 274 318 400
#     4  11  23  40  67  93 124 176 218 263 332 396
#     4  10  23  40  63  91 130 167 214 273 331 384
#
# _framework density 20.807272000000001
#
# number of rings (size 3 to 8) (size 9 to 14) (size 15 to 20)
#    0.000    1.714    1.429    1.714    4.000    2.286 
#   10.286    0.000    0.000    0.000    0.000    0.000 
#    0.000    0.000    0.000    0.000    0.000    0.000 
#
# Total GULP energy -347098.967834 kJ/mol
# GULP energy per Si atom -12396.391708 kJ/mol
# Density = 2.075991 g / cm^3
# Si number density = 20.807272 Si / 1000 Ang^3
#
#
#
# Elastic Constant Matrix: (Units=GPa)
#
#
# Indices 1 2 3 4 5 6 
#
# 1 75.4457 56.3511 41.1290 0.0000 0.0000 0.0000
# 2 56.3511 151.6879 73.5446 0.0000 0.0000 0.0000
# 3 41.1290 73.5446 125.7273 0.0000 0.0000 0.0000
# 4 0.0000 0.0000 0.0000 54.9540 0.0000 0.0000
# 5 0.0000 0.0000 0.0000 0.0000 18.5743 0.0000
# 6 0.0000 0.0000 0.0000 0.0000 0.0000 27.0568
#
#
#
# Elastic Compliance Matrix: (Units=1/GPa)
#
#
# Indices 1 2 3 4 5 6 
#
# 1 0.019086 -0.005672 -0.002926 0.000000 0.000000 0.000000
# 2 -0.005672 0.010888 -0.004513 0.000000 0.000000 0.000000
# 3 -0.002926 -0.004513 0.011551 0.000000 0.000000 0.000000
# 4 0.000000 0.000000 0.000000 0.018197 0.000000 0.000000
# 5 0.000000 0.000000 0.000000 0.000000 0.053838 0.000000
# 6 0.000000 0.000000 0.000000 0.000000 0.000000 0.036959
#
#
# Mechanical properties :
#
#
# Convention : Reuss Voigt Hill
#
# Bulk Modulus (GPa) = 65.34830 77.21225 71.28028
# Shear Modulus (GPa) = 27.49642 32.23942 29.86792
#
# Velocity S-wave (km/s) = 3.63916 3.94055 3.79285
# Velocity P-wave (km/s) = 7.00947 7.60873 7.31524
#
# Compressibility (1/GPa) = 0.01530262
#
# Stress axis : x y z
#
# Youngs Moduli (GPa) = 52.39484 91.84581 86.57236
#
# Poissons Ratio (x) = 0.52092 0.25330
# Poissons Ratio (y) = 0.29717 0.39074
# Poissons Ratio (z) = 0.15330 0.41454
#
# Static dielectric constant tensor:
#      x y z
#    x 3.522150 0.000000 0.000000 
#    y 0.000000 3.925250 0.000000 
#    z 0.000000 0.000000 4.291390 
# 
# 
# High freq. dielectric constant tensor:
#      x y z
#    x 1.785130 0.000000 0.000000 
#    y 0.000000 1.825220 0.000000 
#    z 0.000000 0.000000 1.841580 
# 
# From -- ./inp_files/5088.got.cif
#   From: 2010.03.12/outbox.cif.g09.slc.cpg/sg29_3_cif.got.tgz:5088.got - 2010.04.14 03:43:10.
