data_PCOD8168787
_publ_section_title
;
Structure prediction by ZEFSAII (Michael W. Deem and Ramdas Pophale) SiO2 
 PCOD8168787
Probable space group: P C A 21
;
_chemical_formula_sum "Si O2"
_cell_formula_units_Z 24
_cell_length_a 8.809104
_cell_length_b 11.711531
_cell_length_c 11.545301
_cell_angle_alpha 90.000000
_cell_angle_beta 90.000000
_cell_angle_gamma 90.000000
_cell_volume 1191.106706
_symmetry_space_group_name_H-M "P C A 21"
_symmetry_group_IT_number 29
_symmetry_cell_setting 'orthorhombic'
loop_
_space_group_symop_operation_xyz
x,y,z
-x,-y,1/2+z
1/2-x,y,1/2+z
1/2+x,-y,z
loop_
_atom_site_type_symbol
_atom_site_label
_atom_site_fract_x
_atom_site_fract_y
_atom_site_fract_z
Si Si1 0.487245 0.144885 0.296240
Si Si2 0.091247 0.781703 0.067663
Si Si3 0.358805 0.586494 0.412971
Si Si4 0.491007 0.647851 0.958505
Si Si5 0.894275 0.277939 0.194622
Si Si6 0.670837 0.081426 0.850525
O O1 0.465758 0.173265 0.158969
O O2 0.451772 0.257734 0.369123
O O3 0.652685 0.097165 0.325315
O O4 0.364878 0.050324 0.330496
O O5 0.226288 0.736902 0.147344
O O6 0.039097 0.672448 0.991745
O O7 0.140632 0.885422 0.984071
O O8 0.395715 0.457622 0.444856
O O9 0.181614 0.611570 0.434308
O O10 0.397970 0.611974 0.279156
O O11 0.509018 0.698764 0.088561
O O12 0.932247 0.162366 0.266849
#
# Coordination Sequence:
#
# PCOD8168787 Si02
#       6
#     4   4   4   4   4   4
#     4  11  22  38  60  87 116 154 196 241 297 349
#     4   9  18  39  61  79 117 160 191 234 301 343
#     4  10  21  38  62  84 116 157 194 243 293 349
#     4  11  22  38  60  87 116 154 196 241 297 349
#     4   9  18  39  61  79 117 160 191 234 301 343
#     4  10  21  38  62  84 116 157 194 243 293 349
#
# _framework density 20.149329999999999
#
# number of rings (size 3 to 8) (size 9 to 14) (size 15 to 20)
#    0.000    2.000    6.667    0.000    4.667    0.000 
#    6.000    1.667    0.000    0.000    0.000    0.000 
#    0.000    0.000    0.000    0.000    0.000    0.000 
#
# Total GULP energy -297500.996628 kJ/mol
# GULP energy per Si atom -12395.874859 kJ/mol
# Density = 2.010347 g / cm^3
# Si number density = 20.149330 Si / 1000 Ang^3
#
#
#
# Elastic Constant Matrix: (Units=GPa)
#
#
# Indices 1 2 3 4 5 6 
#
# 1 9.1152 25.6221 11.3141 0.0000 0.0000 0.0000
# 2 25.6221 124.4834 31.0424 0.0000 0.0000 0.0000
# 3 11.3141 31.0424 128.7920 0.0000 0.0000 0.0000
# 4 0.0000 0.0000 0.0000 33.4568 0.0000 0.0000
# 5 0.0000 0.0000 0.0000 0.0000 9.8192 0.0000
# 6 0.0000 0.0000 0.0000 0.0000 0.0000 39.9633
#
#
#
# Elastic Compliance Matrix: (Units=1/GPa)
#
#
# Indices 1 2 3 4 5 6 
#
# 1 0.274639 -0.053742 -0.011173 0.000000 0.000000 0.000000
# 2 -0.053742 0.019063 0.000126 0.000000 0.000000 0.000000
# 3 -0.011173 0.000126 0.008716 0.000000 0.000000 0.000000
# 4 0.000000 0.000000 0.000000 0.029889 0.000000 0.000000
# 5 0.000000 0.000000 0.000000 0.000000 0.101841 0.000000
# 6 0.000000 0.000000 0.000000 0.000000 0.000000 0.025023
#
#
# Mechanical properties :
#
#
# Convention : Reuss Voigt Hill
#
# Bulk Modulus (GPa) = 5.78570 44.26088 25.02329
# Shear Modulus (GPa) = 7.73560 29.60867 18.67213
#
# Velocity S-wave (km/s) = 1.96150 3.83751 3.04746
# Velocity P-wave (km/s) = 2.82977 6.45364 4.98282
#
# Compressibility (1/GPa) = 0.17284007
#
# Stress axis : x y z
#
# Youngs Moduli (GPa) = 3.64114 52.45682 114.73756
#
# Poissons Ratio (x) = 2.81914 1.28198
# Poissons Ratio (y) = 0.19568 -0.01450
# Poissons Ratio (z) = 0.04068 -0.00663
#
# Static dielectric constant tensor:
#      x y z
#    x 3.116470 0.000000 0.000000 
#    y 0.000000 3.914160 0.000000 
#    z 0.000000 0.000000 4.343040 
# 
# 
# High freq. dielectric constant tensor:
#      x y z
#    x 1.732740 0.000000 0.000000 
#    y 0.000000 1.789720 0.000000 
#    z 0.000000 0.000000 1.812360 
# 
# From -- ./inp_files/2815.got.cif
#   From: 2010.03.12/outbox.cif.g09.slc.cpg/sg29_2_cif.got.tgz:2815.got - 2010.04.14 03:43:10.
