data_PCOD8168467
_publ_section_title
;
Structure prediction by ZEFSAII (Michael W. Deem and Ramdas Pophale) SiO2 
 PCOD8168467
Probable space group: P M A 2
;
_chemical_formula_sum "Si O2"
_cell_formula_units_Z 20
_cell_length_a 17.105604
_cell_length_b 7.596014
_cell_length_c 6.710709
_cell_angle_alpha 90.000000
_cell_angle_beta 90.000000
_cell_angle_gamma 90.000000
_cell_volume 871.951998
_symmetry_space_group_name_H-M "P M A 2"
_symmetry_group_IT_number 28
_symmetry_cell_setting 'orthorhombic'
loop_
_space_group_symop_operation_xyz
x,y,z
-x,-y,z
1/2-x,y,z
1/2+x,-y,z
loop_
_atom_site_type_symbol
_atom_site_label
_atom_site_fract_x
_atom_site_fract_y
_atom_site_fract_z
Si Si1 0.583622 0.975314 0.219640
Si Si2 0.093607 0.414815 0.180598
Si Si3 0.250000 0.695922 0.674842
Si Si4 0.250000 0.404790 0.997526
Si Si5 0.914017 0.292498 0.486666
Si Si6 0.250000 0.000683 0.997641
Si Si7 0.500000 0.500000 0.812268
O O1 0.571738 0.093163 0.417505
O O2 0.666322 0.030301 0.113777
O O3 0.500000 0.000000 0.096793
O O4 0.585453 0.772467 0.292072
O O5 0.058211 0.576236 0.307956
O O6 0.183001 0.456709 0.149363
O O7 0.060869 0.402238 0.955860
O O8 0.250000 0.519035 0.800816
O O9 0.176795 0.688301 0.530374
O O10 0.250000 0.870927 0.810782
O O11 0.250000 0.201865 0.925056
O O12 0.962422 0.343658 0.682724
#
# Coordination Sequence:
#
# PCOD8168467 Si02
#       7
#     4   4   2   2   4   2   2
#     4  11  24  46  72 101 144 190 229 298 364 418
#     4  11  24  46  70  99 142 184 235 289 357 431
#     4  12  24  44  70 104 141 182 237 306 357 419
#     4  10  21  45  71  96 133 194 224 285 366 417
#     4  12  26  44  71 108 136 184 243 296 353 431
#     4  10  25  43  71 108 138 186 249 285 355 452
#     4  12  24  44  72 102 144 180 244 288 350 452
#
# _framework density 22.937042999999999
#
# number of rings (size 3 to 8) (size 9 to 14) (size 15 to 20)
#    0.000    0.800    2.000    5.400    2.800    1.600 
#    7.200    2.000    0.000    0.000    0.000    0.000 
#    0.000    0.000    0.000    0.000    0.000    0.000 
#
# Total GULP energy -247807.539294 kJ/mol
# GULP energy per Si atom -12390.376965 kJ/mol
# Density = 2.288484 g / cm^3
# Si number density = 22.937043 Si / 1000 Ang^3
#
#
#
# Elastic Constant Matrix: (Units=GPa)
#
#
# Indices 1 2 3 4 5 6 
#
# 1 151.0706 32.5416 28.9559 0.0000 0.0000 0.0000
# 2 32.5416 151.1038 75.0747 0.0000 0.0000 0.0000
# 3 28.9559 75.0747 112.6325 0.0000 0.0000 0.0000
# 4 0.0000 0.0000 0.0000 38.9834 0.0000 0.0000
# 5 0.0000 0.0000 0.0000 0.0000 31.5267 0.0000
# 6 0.0000 0.0000 0.0000 0.0000 0.0000 -407.5141
#
#
#
# Elastic Compliance Matrix: (Units=1/GPa)
#
#
# Indices 1 2 3 4 5 6 
#
# 1 0.007048 -0.000923 -0.001196 0.000000 0.000000 0.000000
# 2 -0.000923 0.010016 -0.006439 0.000000 0.000000 0.000000
# 3 -0.001196 -0.006439 0.013478 0.000000 0.000000 0.000000
# 4 0.000000 0.000000 0.000000 0.025652 0.000000 0.000000
# 5 0.000000 0.000000 0.000000 0.000000 0.031719 0.000000
# 6 0.000000 0.000000 0.000000 0.000000 0.000000 -0.002454
#
#
# Mechanical properties :
#
#
# Convention : Reuss Voigt Hill
#
# Bulk Modulus (GPa) = 74.49134 76.43904 75.46519
# Shear Modulus (GPa) = 46.70730 -48.85181 -1.07226
#
# Velocity S-wave (km/s) = 4.51746 -4.62001 -0.68447
# Velocity P-wave (km/s) = 7.73026 2.22231 5.68751
#
# Compressibility (1/GPa) = 0.01342438
#
# Stress axis : x y z
#
# Youngs Moduli (GPa) = 141.89170 99.84245 74.19718
#
# Poissons Ratio (x) = 0.09219 0.08877
# Poissons Ratio (y) = 0.13102 0.47772
# Poissons Ratio (z) = 0.16975 0.64284
#
# Static dielectric constant tensor:
#      x y z
#    x 4.909080 0.000000 0.000000 
#    y 0.000000 4.157720 0.000000 
#    z 0.000000 0.000000 3.784480 
# 
# 
# High freq. dielectric constant tensor:
#      x y z
#    x 1.953790 0.000000 0.000000 
#    y 0.000000 1.915290 0.000000 
#    z 0.000000 0.000000 1.873170 
# 
# From -- ./inp_files/1097.got.cif
#   From: 2010.03.12/outbox.cif.g09.slc.cpg/sg28_1_cif.got.tgz:1097.got - 2010.04.14 03:39:34.
