data_PCOD8168655
_publ_section_title
;
Structure prediction by ZEFSAII (Michael W. Deem and Ramdas Pophale) SiO2 
 PCOD8168655
Probable space group: P C A 21
;
_chemical_formula_sum "Si O2"
_cell_formula_units_Z 28
_cell_length_a 5.034636
_cell_length_b 13.320173
_cell_length_c 23.539026
_cell_angle_alpha 90.000000
_cell_angle_beta 90.000000
_cell_angle_gamma 90.000000
_cell_volume 1578.579399
_symmetry_space_group_name_H-M "P C A 21"
_symmetry_group_IT_number 29
_symmetry_cell_setting 'orthorhombic'
loop_
_space_group_symop_operation_xyz
x,y,z
-x,-y,1/2+z
1/2-x,y,1/2+z
1/2+x,-y,z
loop_
_atom_site_type_symbol
_atom_site_label
_atom_site_fract_x
_atom_site_fract_y
_atom_site_fract_z
Si Si1 0.808515 0.449500 0.935330
Si Si2 0.974100 0.931902 0.741551
Si Si3 0.505612 0.236468 0.407776
Si Si4 0.505607 0.236468 0.832098
Si Si5 0.474098 0.068098 0.498323
Si Si6 0.369724 0.063359 0.619937
Si Si7 0.191485 0.550500 0.804545
O O1 0.527361 0.476983 0.964506
O O2 0.749999 0.477333 0.869938
O O3 0.894385 0.333983 0.942269
O O4 0.918064 0.848634 0.788473
O O5 0.267562 0.976776 0.748800
O O6 0.938988 0.879601 0.679009
O O7 0.750005 0.195969 0.369938
O O8 0.418063 0.151367 0.451402
O O9 0.250005 0.265357 0.369937
O O10 0.605615 0.333983 0.797606
O O11 0.267561 0.976776 0.491074
O O12 0.438988 0.120399 0.560865
O O13 0.058076 0.036149 0.619937
O O14 0.472639 0.523017 0.775369
#
# Coordination Sequence:
#
# PCOD8168655 Si02
#       7
#     4   4   4   4   4   4   4
#     4   9  16  28  44  61  85 116 149 184 215 251
#     4  10  20  33  48  66  91 121 152 185 218 259
#     4  11  21  30  44  69  96 121 148 177 223 278
#     4  11  21  30  44  69  96 121 148 177 223 278
#     4  10  20  33  48  66  91 121 152 185 218 259
#     4   8  16  32  50  64  80 112 158 194 214 242
#     4   9  16  28  44  61  85 116 149 184 215 251
#
# _framework density 17.737466000000001
#
# number of rings (size 3 to 8) (size 9 to 14) (size 15 to 20)
#    0.000    2.286    0.000    6.000    0.000    3.429 
#    0.000    0.000    0.000    0.000    0.000    2.000 
#    0.000    0.000    0.000    4.571    0.000    0.000 
#
# Total GULP energy -346899.054433 kJ/mol
# GULP energy per Si atom -12389.251944 kJ/mol
# Density = 1.769709 g / cm^3
# Si number density = 17.737466 Si / 1000 Ang^3
#
#
#
# Elastic Constant Matrix: (Units=GPa)
#
#
# Indices 1 2 3 4 5 6 
#
# 1 89.3683 14.8247 2.1972 0.0000 0.0000 0.0000
# 2 14.8247 68.6762 32.3261 0.0000 0.0000 0.0000
# 3 2.1972 32.3261 49.4565 0.0000 0.0000 0.0000
# 4 0.0000 0.0000 0.0000 -0.6093 0.0000 0.0000
# 5 0.0000 0.0000 0.0000 0.0000 15.9832 0.0000
# 6 0.0000 0.0000 0.0000 0.0000 0.0000 24.3516
#
#
#
# Elastic Compliance Matrix: (Units=1/GPa)
#
#
# Indices 1 2 3 4 5 6 
#
# 1 0.011696 -0.003293 0.001633 0.000000 0.000000 0.000000
# 2 -0.003293 0.021959 -0.014207 0.000000 0.000000 0.000000
# 3 0.001633 -0.014207 0.029433 0.000000 0.000000 0.000000
# 4 0.000000 0.000000 0.000000 -1.641095 0.000000 0.000000
# 5 0.000000 0.000000 0.000000 0.000000 0.062566 0.000000
# 6 0.000000 0.000000 0.000000 0.000000 0.000000 0.041065
#
#
# Mechanical properties :
#
#
# Convention : Reuss Voigt Hill
#
# Bulk Modulus (GPa) = 31.89397 34.02189 32.95793
# Shear Modulus (GPa) = -3.49116 18.48860 7.49872
#
# Velocity S-wave (km/s) = -1.40446 3.23204 2.05835
# Velocity P-wave (km/s) = 3.92303 5.75765 4.92650
#
# Compressibility (1/GPa) = 0.03135389
#
# Stress axis : x y z
#
# Youngs Moduli (GPa) = 85.50059 45.53895 33.97525
#
# Poissons Ratio (x) = 0.14998 -0.05548
# Poissons Ratio (y) = 0.28159 0.48268
# Poissons Ratio (z) = -0.13963 0.64696
#
# Static dielectric constant tensor:
#      x y z
#    x 3.784180 0.000000 0.000000 
#    y 0.000000 2.898170 0.000000 
#    z 0.000000 0.000000 3.099410 
# 
# 
# High freq. dielectric constant tensor:
#      x y z
#    x 1.723590 0.000000 0.000000 
#    y 0.000000 1.650880 0.000000 
#    z 0.000000 0.000000 1.635450 
# 
# From -- ./inp_files/5347.got.cif
#   From: 2010.03.12/outbox.cif.g09.slc.cpg/sg29_3_cif.got.tgz:5347.got - 2010.04.14 03:43:10.
