data_PCOD8168947
_publ_section_title
;
Structure prediction by ZEFSAII (Michael W. Deem and Ramdas Pophale) SiO2 
 PCOD8168947
Probable space group: P C A 21
;
_chemical_formula_sum "Si O2"
_cell_formula_units_Z 32
_cell_length_a 13.690227
_cell_length_b 6.181631
_cell_length_c 17.568869
_cell_angle_alpha 90.000000
_cell_angle_beta 90.000000
_cell_angle_gamma 90.000000
_cell_volume 1486.817044
_symmetry_space_group_name_H-M "P C A 21"
_symmetry_group_IT_number 29
_symmetry_cell_setting 'orthorhombic'
loop_
_space_group_symop_operation_xyz
x,y,z
-x,-y,1/2+z
1/2-x,y,1/2+z
1/2+x,-y,z
loop_
_atom_site_type_symbol
_atom_site_label
_atom_site_fract_x
_atom_site_fract_y
_atom_site_fract_z
Si Si1 0.988160 0.025543 0.910560
Si Si2 0.241600 0.554731 0.083414
Si Si3 0.865639 0.839442 0.653572
Si Si4 0.159736 0.268837 0.472257
Si Si5 0.106808 0.576423 0.344449
Si Si6 0.743528 0.187177 0.731146
Si Si7 0.831191 0.055293 0.501954
Si Si8 0.478266 0.766550 0.270257
O O1 0.941461 0.861181 0.972270
O O2 0.974527 0.944781 0.824900
O O3 0.938338 0.261242 0.908050
O O4 0.100741 0.013081 0.932267
O O5 0.166666 0.394491 0.124346
O O6 0.279968 0.710950 0.148786
O O7 0.192902 0.689285 0.012807
O O8 0.331549 0.422064 0.046301
O O9 0.973143 0.812111 0.688804
O O10 0.787370 0.946637 0.713587
O O11 0.880408 0.992345 0.581670
O O12 0.168939 0.401951 0.393030
O O13 0.237404 0.078947 0.478836
O O14 0.179709 0.682835 0.283193
O O15 0.014289 0.469237 0.300246
O O16 0.638302 0.195902 0.771676
#
# Coordination Sequence:
#
# PCOD8168947 Si02
#       8
#     4   4   4   4   4   4   4   4
#     4  11  25  42  63  99 136 174 228 282 342 413
#     4  10  22  44  67  95 136 175 224 285 346 399
#     4  10  22  44  62 100 137 170 230 285 330 420
#     4  10  24  41  66  95 133 175 222 279 341 402
#     4  11  24  43  66  98 142 170 233 285 335 425
#     4  11  24  42  69  95 138 180 224 286 345 406
#     4  10  24  41  70  94 133 177 225 282 341 407
#     4  11  25  39  67 100 131 185 224 276 350 410
#
# _framework density 21.522487000000002
#
# number of rings (size 3 to 8) (size 9 to 14) (size 15 to 20)
#    0.000    1.500    2.500    0.750    5.250    9.000 
#    0.000    0.000    0.000    0.000    0.000    0.000 
#    0.000    0.000    0.000    0.000    0.000    0.000 
#
# Total GULP energy -396495.007161 kJ/mol
# GULP energy per Si atom -12390.468974 kJ/mol
# Density = 2.147350 g / cm^3
# Si number density = 21.522487 Si / 1000 Ang^3
#
#
#
# Elastic Constant Matrix: (Units=GPa)
#
#
# Indices 1 2 3 4 5 6 
#
# 1 88.9801 37.5019 24.4140 0.0000 0.0000 0.0000
# 2 37.5019 113.8389 29.9609 0.0000 0.0000 0.0000
# 3 24.4140 29.9609 63.0941 0.0000 0.0000 0.0000
# 4 0.0000 0.0000 0.0000 34.1160 0.0000 0.0000
# 5 0.0000 0.0000 0.0000 0.0000 41.4323 0.0000
# 6 0.0000 0.0000 0.0000 0.0000 0.0000 24.1470
#
#
#
# Elastic Compliance Matrix: (Units=1/GPa)
#
#
# Indices 1 2 3 4 5 6 
#
# 1 0.013737 -0.003573 -0.003619 0.000000 0.000000 0.000000
# 2 -0.003573 0.010968 -0.003826 0.000000 0.000000 0.000000
# 3 -0.003619 -0.003826 0.019066 0.000000 0.000000 0.000000
# 4 0.000000 0.000000 0.000000 0.029312 0.000000 0.000000
# 5 0.000000 0.000000 0.000000 0.000000 0.024136 0.000000
# 6 0.000000 0.000000 0.000000 0.000000 0.000000 0.041413
#
#
# Mechanical properties :
#
#
# Convention : Reuss Voigt Hill
#
# Bulk Modulus (GPa) = 46.00564 49.96296 47.98430
# Shear Modulus (GPa) = 29.77721 31.54148 30.65934
#
# Velocity S-wave (km/s) = 3.72363 3.83235 3.77838
# Velocity P-wave (km/s) = 6.31738 6.54578 6.43259
#
# Compressibility (1/GPa) = 0.02173646
#
# Stress axis : x y z
#
# Youngs Moduli (GPa) = 72.79445 91.17175 52.44829
#
# Poissons Ratio (x) = 0.32576 0.18981
# Poissons Ratio (y) = 0.26010 0.20066
# Poissons Ratio (z) = 0.26344 0.34881
#
# Static dielectric constant tensor:
#      x y z
#    x 3.615310 0.000000 0.000000 
#    y 0.000000 4.178890 0.000000 
#    z 0.000000 0.000000 3.976490 
# 
# 
# High freq. dielectric constant tensor:
#      x y z
#    x 1.827650 0.000000 0.000000 
#    y 0.000000 1.856040 0.000000 
#    z 0.000000 0.000000 1.851750 
# 
# From -- ./inp_files/5211.got.cif
#   From: 2010.03.12/outbox.cif.g09.slc.cpg/sg29_3_cif.got.tgz:5211.got - 2010.04.14 03:43:10.
