data_PCOD8168672
_publ_section_title
;
Structure prediction by ZEFSAII (Michael W. Deem and Ramdas Pophale) SiO2 
 PCOD8168672
Probable space group: P C A 21
;
_chemical_formula_sum "Si O2"
_cell_formula_units_Z 24
_cell_length_a 16.009820
_cell_length_b 14.806742
_cell_length_c 5.005347
_cell_angle_alpha 90.000000
_cell_angle_beta 90.000000
_cell_angle_gamma 90.000000
_cell_volume 1186.533895
_symmetry_space_group_name_H-M "P C A 21"
_symmetry_group_IT_number 29
_symmetry_cell_setting 'orthorhombic'
loop_
_space_group_symop_operation_xyz
x,y,z
-x,-y,1/2+z
1/2-x,y,1/2+z
1/2+x,-y,z
loop_
_atom_site_type_symbol
_atom_site_label
_atom_site_fract_x
_atom_site_fract_y
_atom_site_fract_z
Si Si1 0.307963 0.139730 0.442260
Si Si2 0.306403 0.671509 0.546615
Si Si3 0.026593 0.050565 0.814820
Si Si4 0.421641 0.303089 0.578824
Si Si5 0.305898 0.466724 0.620710
Si Si6 0.981287 0.245003 0.605268
O O1 0.242721 0.125709 0.674099
O O2 0.380623 0.064654 0.433579
O O3 0.347887 0.238929 0.469830
O O4 0.259659 0.692969 0.274139
O O5 0.338318 0.568572 0.577375
O O6 0.385363 0.736977 0.541061
O O7 0.989056 0.141373 0.690258
O O8 0.028623 0.979122 0.570877
O O9 0.386700 0.403694 0.604622
O O10 0.493543 0.307828 0.355416
O O11 0.458539 0.265298 0.855077
O O12 0.234061 0.446644 0.407056
#
# Coordination Sequence:
#
# PCOD8168672 Si02
#       6
#     4   4   4   4   4   4
#     4  11  21  37  60  88 117 147 186 233 288 348
#     4  10  22  40  59  82 117 157 199 242 280 335
#     4  11  23  42  62  84 118 153 189 243 300 353
#     4  11  21  35  59  89 120 152 189 237 290 354
#     4  10  20  35  56  85 121 159 193 232 285 337
#     4  11  23  39  60  86 113 154 198 239 301 351
#
# _framework density 20.226984999999999
#
# number of rings (size 3 to 8) (size 9 to 14) (size 15 to 20)
#    0.000    1.333    0.000    8.000    0.000    1.333 
#    0.000    5.000    0.000    0.000    0.000    0.000 
#    0.000    0.000    0.000    0.000    0.000    0.000 
#
# Total GULP energy -297642.183618 kJ/mol
# GULP energy per Si atom -12401.757651 kJ/mol
# Density = 2.018095 g / cm^3
# Si number density = 20.226985 Si / 1000 Ang^3
#
#
#
# Elastic Constant Matrix: (Units=GPa)
#
#
# Indices 1 2 3 4 5 6 
#
# 1 143.6551 73.4283 86.5230 0.0000 0.0000 0.0000
# 2 73.4283 76.6256 56.7398 0.0000 0.0000 0.0000
# 3 86.5230 56.7398 192.9491 0.0000 0.0000 0.0000
# 4 0.0000 0.0000 0.0000 32.0750 0.0000 0.0000
# 5 0.0000 0.0000 0.0000 0.0000 10.2797 0.0000
# 6 0.0000 0.0000 0.0000 0.0000 0.0000 9.1060
#
#
#
# Elastic Compliance Matrix: (Units=1/GPa)
#
#
# Indices 1 2 3 4 5 6 
#
# 1 0.015051 -0.012049 -0.003206 0.000000 0.000000 0.000000
# 2 -0.012049 0.026329 -0.002339 0.000000 0.000000 0.000000
# 3 -0.003206 -0.002339 0.007308 0.000000 0.000000 0.000000
# 4 0.000000 0.000000 0.000000 0.031177 0.000000 0.000000
# 5 0.000000 0.000000 0.000000 0.000000 0.097279 0.000000
# 6 0.000000 0.000000 0.000000 0.000000 0.000000 0.109817
#
#
# Mechanical properties :
#
#
# Convention : Reuss Voigt Hill
#
# Bulk Modulus (GPa) = 74.07709 94.06801 84.07255
# Shear Modulus (GPa) = 15.30694 23.39473 19.35084
#
# Velocity S-wave (km/s) = 2.75391 3.40459 3.09639
# Velocity P-wave (km/s) = 6.84211 7.87795 7.37823
#
# Compressibility (1/GPa) = 0.01349945
#
# Stress axis : x y z
#
# Youngs Moduli (GPa) = 66.44225 37.98130 136.83069
#
# Poissons Ratio (x) = 0.45763 0.43867
# Poissons Ratio (y) = 0.80054 0.32011
# Poissons Ratio (z) = 0.21301 0.08886
#
# Static dielectric constant tensor:
#      x y z
#    x 3.641510 0.000000 0.000000 
#    y 0.000000 3.572310 0.000000 
#    z 0.000000 0.000000 3.955010 
# 
# 
# High freq. dielectric constant tensor:
#      x y z
#    x 1.786820 0.000000 0.000000 
#    y 0.000000 1.778930 0.000000 
#    z 0.000000 0.000000 1.817570 
# 
# From -- ./inp_files/215.got.cif
#   From: 2010.03.12/outbox.cif.g09.slc.cpg/sg29_1_cif.got.tgz:215.got - 2010.04.14 03:43:10.
