data_PCOD8168466
_publ_section_title
;
Structure prediction by ZEFSAII (Michael W. Deem and Ramdas Pophale) SiO2 
 PCOD8168466
Probable space group: P M A 2
;
_chemical_formula_sum "Si O2"
_cell_formula_units_Z 20
_cell_length_a 18.947911
_cell_length_b 5.706151
_cell_length_c 7.816277
_cell_angle_alpha 90.000000
_cell_angle_beta 90.000000
_cell_angle_gamma 90.000000
_cell_volume 845.093066
_symmetry_space_group_name_H-M "P M A 2"
_symmetry_group_IT_number 28
_symmetry_cell_setting 'orthorhombic'
loop_
_space_group_symop_operation_xyz
x,y,z
-x,-y,z
1/2-x,y,z
1/2+x,-y,z
loop_
_atom_site_type_symbol
_atom_site_label
_atom_site_fract_x
_atom_site_fract_y
_atom_site_fract_z
Si Si1 0.170893 0.705274 0.217970
Si Si2 0.829564 0.952890 0.522598
Si Si3 0.436621 0.357861 0.078449
Si Si4 0.967015 0.754821 0.433319
Si Si5 0.672092 0.949854 0.905592
O O1 0.250000 0.606913 0.237533
O O2 0.116008 0.499324 0.201967
O O3 0.149127 0.849062 0.386050
O O4 0.163547 0.849681 0.043565
O O5 0.750000 0.860204 0.484508
O O6 0.885468 0.743132 0.499336
O O7 0.834352 0.056239 0.715290
O O8 0.500000 0.500000 0.984477
O O9 0.473076 0.202842 0.226873
O O10 0.391791 0.232418 0.931695
O O11 0.000000 0.500000 0.487667
O O12 0.000000 0.000000 0.512605
O O13 0.750000 0.829703 0.926693
#
# Coordination Sequence:
#
# PCOD8168466 Si02
#       5
#     4   4   4   4   4
#     4  10  21  42  67  92 130 178 223 279 342 401
#     4  10  21  42  69  97 130 176 229 281 340 408
#     4  11  23  38  67  93 134 177 226 272 345 406
#     4  11  24  44  69 102 138 179 225 280 340 410
#     4  10  22  41  64  95 130 167 228 284 333 403
#
# _framework density 23.666032999999999
#
# number of rings (size 3 to 8) (size 9 to 14) (size 15 to 20)
#    0.000    1.600    2.000    3.000    0.000    1.600 
#   10.800    1.000    0.000    0.000    0.000    0.000 
#    0.000    0.000    0.000    0.000    0.000    0.000 
#
# Total GULP energy -247768.050409 kJ/mol
# GULP energy per Si atom -12388.402520 kJ/mol
# Density = 2.361217 g / cm^3
# Si number density = 23.666033 Si / 1000 Ang^3
#
#
#
# Elastic Constant Matrix: (Units=GPa)
#
#
# Indices 1 2 3 4 5 6 
#
# 1 80.1193 42.1874 -11.0582 0.0000 0.0000 0.0000
# 2 42.1874 98.7126 18.3458 0.0000 0.0000 0.0000
# 3 -11.0582 18.3458 105.5069 0.0000 0.0000 0.0000
# 4 0.0000 0.0000 0.0000 1.4158 0.0000 0.0000
# 5 0.0000 0.0000 0.0000 0.0000 18.9828 0.0000
# 6 0.0000 0.0000 0.0000 0.0000 0.0000 10.3512
#
#
#
# Elastic Compliance Matrix: (Units=1/GPa)
#
#
# Indices 1 2 3 4 5 6 
#
# 1 0.017067 -0.007881 0.003159 0.000000 0.000000 0.000000
# 2 -0.007881 0.014108 -0.003279 0.000000 0.000000 0.000000
# 3 0.003159 -0.003279 0.010379 0.000000 0.000000 0.000000
# 4 0.000000 0.000000 0.000000 0.706303 0.000000 0.000000
# 5 0.000000 0.000000 0.000000 0.000000 0.052679 0.000000
# 6 0.000000 0.000000 0.000000 0.000000 0.000000 0.096607
#
#
# Mechanical properties :
#
#
# Convention : Reuss Voigt Hill
#
# Bulk Modulus (GPa) = 39.13535 42.58767 40.86151
# Shear Modulus (GPa) = 5.42496 21.80755 13.61626
#
# Velocity S-wave (km/s) = 1.51568 3.03887 2.40125
# Velocity P-wave (km/s) = 4.43119 5.50884 4.99914
#
# Compressibility (1/GPa) = 0.02555234
#
# Stress axis : x y z
#
# Youngs Moduli (GPa) = 58.59114 70.88089 96.34497
#
# Poissons Ratio (x) = 0.55864 -0.30438
# Poissons Ratio (y) = 0.46178 0.31594
# Poissons Ratio (z) = -0.18511 0.23243
#
# Static dielectric constant tensor:
#      x y z
#    x 4.987710 0.000000 0.000000 
#    y 0.000000 3.882910 0.000000 
#    z 0.000000 0.000000 4.080190 
# 
# 
# High freq. dielectric constant tensor:
#      x y z
#    x 1.971080 0.000000 0.000000 
#    y 0.000000 1.900200 0.000000 
#    z 0.000000 0.000000 1.924820 
# 
# From -- ./inp_files/3676.got.cif
#   From: 2010.03.12/outbox.cif.g09.slc.cpg/sg28_2_cif.got.tgz:3676.got - 2010.04.14 03:39:34.
