data_PCOD8168623
_publ_section_title
;
Structure prediction by ZEFSAII (Michael W. Deem and Ramdas Pophale) SiO2 
 PCOD8168623
Probable space group: P C A 21
;
_chemical_formula_sum "Si O2"
_cell_formula_units_Z 16
_cell_length_a 16.661858
_cell_length_b 8.547510
_cell_length_c 5.189673
_cell_angle_alpha 90.000000
_cell_angle_beta 90.000000
_cell_angle_gamma 90.000000
_cell_volume 739.099724
_symmetry_space_group_name_H-M "P C A 21"
_symmetry_group_IT_number 29
_symmetry_cell_setting 'orthorhombic'
loop_
_space_group_symop_operation_xyz
x,y,z
-x,-y,1/2+z
1/2-x,y,1/2+z
1/2+x,-y,z
loop_
_atom_site_type_symbol
_atom_site_label
_atom_site_fract_x
_atom_site_fract_y
_atom_site_fract_z
Si Si1 0.968444 0.578601 0.358420
Si Si2 0.529283 0.920756 0.026589
Si Si3 0.218315 0.439395 0.740752
Si Si4 0.787536 0.906210 0.669192
O O1 0.998873 0.747718 0.448954
O O2 0.875142 0.582813 0.288704
O O3 0.983460 0.462205 0.597500
O O4 0.525234 0.024669 0.767010
O O5 0.618612 0.924316 0.134731
O O6 0.236465 0.531515 0.473312
O O7 0.263159 0.275963 0.674045
O O8 0.740432 0.988811 0.432845
#
# Coordination Sequence:
#
# PCOD8168623 Si02
#       4
#     4   4   4   4
#     4  12  25  41  67 103 138 172 221 286 340 392
#     4  12  25  41  67 103 138 172 221 286 340 392
#     4  10  19  36  67  93 117 171 243 257 295 399
#     4  10  19  36  67  93 117 171 243 257 295 399
#
# _framework density 21.647960000000001
#
# number of rings (size 3 to 8) (size 9 to 14) (size 15 to 20)
#    0.000    1.000    5.000    4.500    7.000    0.000 
#    0.000    0.000    0.000   30.000    0.000    0.000 
#    0.000    0.000    0.000    0.000    0.000    0.000 
#
# Total GULP energy -198289.452293 kJ/mol
# GULP energy per Si atom -12393.090768 kJ/mol
# Density = 2.159869 g / cm^3
# Si number density = 21.647960 Si / 1000 Ang^3
#
#
#
# Elastic Constant Matrix: (Units=GPa)
#
#
# Indices 1 2 3 4 5 6 
#
# 1 99.8108 35.6889 43.7536 0.0000 0.0000 0.0000
# 2 35.6889 46.4614 25.6977 0.0000 0.0000 0.0000
# 3 43.7536 25.6977 213.3859 0.0000 0.0000 0.0000
# 4 0.0000 0.0000 0.0000 30.7497 0.0000 0.0000
# 5 0.0000 0.0000 0.0000 0.0000 1.3365 0.0000
# 6 0.0000 0.0000 0.0000 0.0000 0.0000 17.4869
#
#
#
# Elastic Compliance Matrix: (Units=1/GPa)
#
#
# Indices 1 2 3 4 5 6 
#
# 1 0.014388 -0.010093 -0.001735 0.000000 0.000000 0.000000
# 2 -0.010093 0.030139 -0.001560 0.000000 0.000000 0.000000
# 3 -0.001735 -0.001560 0.005230 0.000000 0.000000 0.000000
# 4 0.000000 0.000000 0.000000 0.032521 0.000000 0.000000
# 5 0.000000 0.000000 0.000000 0.000000 0.748224 0.000000
# 6 0.000000 0.000000 0.000000 0.000000 0.000000 0.057186
#
#
# Mechanical properties :
#
#
# Convention : Reuss Voigt Hill
#
# Bulk Modulus (GPa) = 43.51279 63.32651 53.41965
# Shear Modulus (GPa) = 5.42227 26.88248 16.15237
#
# Velocity S-wave (km/s) = 1.58436 3.52774 2.73452
# Velocity P-wave (km/s) = 4.84672 6.77567 5.89069
#
# Compressibility (1/GPa) = 0.02298175
#
# Stress axis : x y z
#
# Youngs Moduli (GPa) = 69.50131 33.17992 191.20691
#
# Poissons Ratio (x) = 0.33487 0.33170
# Poissons Ratio (y) = 0.70145 0.29830
# Poissons Ratio (z) = 0.12057 0.05176
#
# Static dielectric constant tensor:
#      x y z
#    x 3.801830 0.000000 0.000000 
#    y 0.000000 3.583720 0.000000 
#    z 0.000000 0.000000 5.765330 
# 
# 
# High freq. dielectric constant tensor:
#      x y z
#    x 1.855280 0.000000 0.000000 
#    y 0.000000 1.788210 0.000000 
#    z 0.000000 0.000000 1.902480 
# 
# From -- ./inp_files/137.got.cif
#   From: 2010.03.12/outbox.cif.g09.slc.cpg/sg29_1_cif.got.tgz:137.got - 2010.04.14 03:43:10.
