data_PCOD8168134
_publ_section_title
;
Structure prediction by ZEFSAII (Michael W. Deem and Ramdas Pophale) SiO2 
 PCOD8168134
Probable space group: P M A 2
;
_chemical_formula_sum "Si O2"
_cell_formula_units_Z 32
_cell_length_a 8.929904
_cell_length_b 9.734570
_cell_length_c 20.345708
_cell_angle_alpha 90.000000
_cell_angle_beta 90.000000
_cell_angle_gamma 90.000000
_cell_volume 1768.627485
_symmetry_space_group_name_H-M "P M A 2"
_symmetry_group_IT_number 28
_symmetry_cell_setting 'orthorhombic'
loop_
_space_group_symop_operation_xyz
x,y,z
-x,-y,z
1/2-x,y,z
1/2+x,-y,z
loop_
_atom_site_type_symbol
_atom_site_label
_atom_site_fract_x
_atom_site_fract_y
_atom_site_fract_z
Si Si1 0.424997 0.641129 0.633180
Si Si2 0.923767 0.854035 0.025254
Si Si3 0.573765 0.350905 0.270813
Si Si4 0.425996 0.644012 0.782415
Si Si5 0.426061 0.857058 0.381043
Si Si6 0.073738 0.859498 0.529804
Si Si7 0.075650 0.147567 0.880562
Si Si8 0.427552 0.849668 0.153279
O O1 0.500000 0.500000 0.613977
O O2 0.250000 0.621931 0.624230
O O3 0.464360 0.685892 0.707483
O O4 0.489695 0.749584 0.581276
O O5 0.750000 0.869505 0.043847
O O6 0.009667 0.779947 0.085594
O O7 0.943045 0.783785 0.953514
O O8 0.000000 0.000000 0.018747
O O9 0.500000 0.500000 0.267131
O O10 0.750000 0.374356 0.271442
O O11 0.519677 0.269632 0.336024
O O12 0.524455 0.256132 0.209807
O O13 0.500000 0.500000 0.800864
O O14 0.250000 0.632184 0.794502
O O15 0.494549 0.758573 0.828310
O O16 0.250000 0.879140 0.373525
O O17 0.473094 0.819523 0.455546
O O18 0.500000 0.000000 0.358108
O O19 0.250000 0.875563 0.535890
O O20 0.000000 0.000000 0.551715
O O21 0.250000 0.132267 0.862818
O O22 0.000000 0.000000 0.877184
O O23 0.250000 0.867677 0.149699
O O24 0.500000 0.000000 0.165593
#
# Coordination Sequence:
#
# PCOD8168134 Si02
#       8
#     4   4   4   4   4   4   4   4
#     4   9  19  34  51  73 100 132 169 207 248 296
#     4   9  17  30  50  75 101 129 163 203 247 296
#     4  10  22  36  50  73 103 133 166 205 248 292
#     4  10  20  35  53  73 101 136 173 212 254 303
#     4   9  18  34  54  75 100 131 167 205 245 293
#     4   9  18  33  52  75 103 131 163 205 249 293
#     4  10  20  34  53  78 105 133 168 210 255 302
#     4  10  19  32  52  76 100 129 166 205 246 295
#
# _framework density 18.093126999999999
#
# number of rings (size 3 to 8) (size 9 to 14) (size 15 to 20)
#    0.000    2.500    0.000    2.625    0.000    5.000 
#    0.000    1.875    0.000    1.500    0.000    0.000 
#    0.000    0.000    0.000    0.000    0.000    0.000 
#
# Total GULP energy -396665.468345 kJ/mol
# GULP energy per Si atom -12395.795886 kJ/mol
# Density = 1.805195 g / cm^3
# Si number density = 18.093127 Si / 1000 Ang^3
#
#
#
# Elastic Constant Matrix: (Units=GPa)
#
#
# Indices 1 2 3 4 5 6 
#
# 1 66.3416 51.0453 48.7567 0.0000 0.0000 0.0000
# 2 51.0453 128.4611 96.9943 0.0000 0.0000 0.0000
# 3 48.7567 96.9943 140.1416 0.0000 0.0000 0.0000
# 4 0.0000 0.0000 0.0000 9.2394 0.0000 0.0000
# 5 0.0000 0.0000 0.0000 0.0000 31.6037 0.0000
# 6 0.0000 0.0000 0.0000 0.0000 0.0000 33.1016
#
#
#
# Elastic Compliance Matrix: (Units=1/GPa)
#
#
# Indices 1 2 3 4 5 6 
#
# 1 0.022473 -0.006339 -0.003431 0.000000 0.000000 0.000000
# 2 -0.006339 0.018093 -0.010317 0.000000 0.000000 0.000000
# 3 -0.003431 -0.010317 0.015470 0.000000 0.000000 0.000000
# 4 0.000000 0.000000 0.000000 0.108232 0.000000 0.000000
# 5 0.000000 0.000000 0.000000 0.000000 0.031642 0.000000
# 6 0.000000 0.000000 0.000000 0.000000 0.000000 0.030210
#
#
# Mechanical properties :
#
#
# Convention : Reuss Voigt Hill
#
# Bulk Modulus (GPa) = 63.04692 80.94855 71.99773
# Shear Modulus (GPa) = 18.41064 23.99882 21.20473
#
# Velocity S-wave (km/s) = 3.19336 3.64594 3.42713
# Velocity P-wave (km/s) = 6.96550 7.90954 7.45249
#
# Compressibility (1/GPa) = 0.01586120
#
# Stress axis : x y z
#
# Youngs Moduli (GPa) = 44.49864 55.26873 64.64081
#
# Poissons Ratio (x) = 0.35035 0.22179
# Poissons Ratio (y) = 0.28208 0.66692
# Poissons Ratio (z) = 0.15268 0.57022
#
# Static dielectric constant tensor:
#      x y z
#    x 3.361830 0.000000 0.000000 
#    y 0.000000 3.190780 0.000000 
#    z 0.000000 0.000000 3.885200 
# 
# 
# High freq. dielectric constant tensor:
#      x y z
#    x 1.706130 0.000000 0.000000 
#    y 0.000000 1.678590 0.000000 
#    z 0.000000 0.000000 1.718270 
# 
# From -- ./inp_files/7046.got.cif
#   From: 2010.03.12/outbox.cif.g09.slc.cpg/sg28_4_cif.got.tgz:7046.got - 2010.04.14 03:39:34.
