data_PCOD8168389
_publ_section_title
;
Structure prediction by ZEFSAII (Michael W. Deem and Ramdas Pophale) SiO2 
 PCOD8168389
Probable space group: P M A 2
;
_chemical_formula_sum "Si O2"
_cell_formula_units_Z 20
_cell_length_a 8.873242
_cell_length_b 9.186517
_cell_length_c 12.476829
_cell_angle_alpha 90.000000
_cell_angle_beta 90.000000
_cell_angle_gamma 90.000000
_cell_volume 1017.038591
_symmetry_space_group_name_H-M "P M A 2"
_symmetry_group_IT_number 28
_symmetry_cell_setting 'orthorhombic'
loop_
_space_group_symop_operation_xyz
x,y,z
-x,-y,z
1/2-x,y,z
1/2+x,-y,z
loop_
_atom_site_type_symbol
_atom_site_label
_atom_site_fract_x
_atom_site_fract_y
_atom_site_fract_z
Si Si1 0.924490 0.651778 0.647300
Si Si2 0.074639 0.852335 0.231769
Si Si3 0.571661 0.151787 0.475261
Si Si4 0.427541 0.656332 0.038154
Si Si5 0.924915 0.845394 0.855186
O O1 0.750000 0.627684 0.620290
O O2 0.948263 0.757439 0.746630
O O3 0.000000 0.500000 0.678118
O O4 0.005978 0.716374 0.543419
O O5 0.250000 0.882752 0.227062
O O6 0.023465 0.815992 0.352646
O O7 0.029641 0.718203 0.155481
O O8 0.000000 0.000000 0.188738
O O9 0.750000 0.142417 0.490483
O O10 0.500000 0.000000 0.514485
O O11 0.500000 0.500000 0.023460
O O12 0.250000 0.642061 0.021895
O O13 0.491788 0.765250 0.950910
O O14 0.750000 0.863504 0.884508
O O15 0.000000 0.000000 0.836569
#
# Coordination Sequence:
#
# PCOD8168389 Si02
#       5
#     4   4   4   4   4
#     4  11  24  40  59  85 117 152 190 235 287 340
#     4   9  20  37  58  85 115 150 191 236 283 335
#     4  10  20  37  60  86 117 152 193 237 283 336
#     4  11  23  39  59  85 118 153 191 235 286 340
#     4  11  24  41  62  87 115 149 190 235 284 339
#
# _framework density 19.664936000000001
#
# number of rings (size 3 to 8) (size 9 to 14) (size 15 to 20)
#    0.000    1.600    0.000    4.200    0.000   11.200 
#    0.000    2.000    0.000    0.000    0.000    0.000 
#    0.000    0.000    0.000    0.000    0.000    0.000 
#
# Total GULP energy -248109.234920 kJ/mol
# GULP energy per Si atom -12405.461746 kJ/mol
# Density = 1.962018 g / cm^3
# Si number density = 19.664936 Si / 1000 Ang^3
#
#
#
# Elastic Constant Matrix: (Units=GPa)
#
#
# Indices 1 2 3 4 5 6 
#
# 1 114.4942 69.3884 57.1301 0.0000 0.0000 0.0000
# 2 69.3884 140.0089 50.0438 0.0000 0.0000 0.0000
# 3 57.1301 50.0438 90.3927 0.0000 0.0000 0.0000
# 4 0.0000 0.0000 0.0000 9.9675 0.0000 0.0000
# 5 0.0000 0.0000 0.0000 0.0000 31.1651 0.0000
# 6 0.0000 0.0000 0.0000 0.0000 0.0000 39.2507
#
#
#
# Elastic Compliance Matrix: (Units=1/GPa)
#
#
# Indices 1 2 3 4 5 6 
#
# 1 0.015223 -0.005118 -0.006787 0.000000 0.000000 0.000000
# 2 -0.005118 0.010625 -0.002648 0.000000 0.000000 0.000000
# 3 -0.006787 -0.002648 0.016818 0.000000 0.000000 0.000000
# 4 0.000000 0.000000 0.000000 0.100326 0.000000 0.000000
# 5 0.000000 0.000000 0.000000 0.000000 0.032087 0.000000
# 6 0.000000 0.000000 0.000000 0.000000 0.000000 0.025477
#
#
# Mechanical properties :
#
#
# Convention : Reuss Voigt Hill
#
# Bulk Modulus (GPa) = 73.74739 77.55781 75.65260
# Shear Modulus (GPa) = 21.35077 27.29890 24.32483
#
# Velocity S-wave (km/s) = 3.29861 3.72990 3.52087
# Velocity P-wave (km/s) = 7.21742 7.62068 7.42179
#
# Compressibility (1/GPa) = 0.01355980
#
# Stress axis : x y z
#
# Youngs Moduli (GPa) = 65.69089 94.11406 59.45848
#
# Poissons Ratio (x) = 0.48171 0.40357
# Poissons Ratio (y) = 0.33623 0.15742
# Poissons Ratio (z) = 0.44588 0.24918
#
# Static dielectric constant tensor:
#      x y z
#    x 3.743180 0.000000 0.000000 
#    y 0.000000 5.164460 0.000000 
#    z 0.000000 0.000000 3.871840 
# 
# 
# High freq. dielectric constant tensor:
#      x y z
#    x 1.779850 0.000000 0.000000 
#    y 0.000000 1.772260 0.000000 
#    z 0.000000 0.000000 1.778620 
# 
# From -- ./inp_files/4547.got.cif
#   From: 2010.03.12/outbox.cif.g09.slc.cpg/sg28_3_cif.got.tgz:4547.got - 2010.04.14 03:39:34.
