data_PCOD8168167
_publ_section_title
;
Structure prediction by ZEFSAII (Michael W. Deem and Ramdas Pophale) SiO2 
 PCOD8168167
Probable space group: P M A 2
;
_chemical_formula_sum "Si O2"
_cell_formula_units_Z 24
_cell_length_a 8.909382
_cell_length_b 16.502856
_cell_length_c 9.155255
_cell_angle_alpha 90.000000
_cell_angle_beta 90.000000
_cell_angle_gamma 90.000000
_cell_volume 1346.099415
_symmetry_space_group_name_H-M "P M A 2"
_symmetry_group_IT_number 28
_symmetry_cell_setting 'orthorhombic'
loop_
_space_group_symop_operation_xyz
x,y,z
-x,-y,z
1/2-x,y,z
1/2+x,-y,z
loop_
_atom_site_type_symbol
_atom_site_label
_atom_site_fract_x
_atom_site_fract_y
_atom_site_fract_z
Si Si1 0.574223 0.761056 0.911790
Si Si2 0.584650 0.328207 0.674176
Si Si3 0.429342 0.584846 0.394396
Si Si4 0.928824 0.736810 0.241725
Si Si5 0.081292 0.832320 0.483068
Si Si6 0.428252 0.082697 0.734722
O O1 0.750000 0.756638 0.904063
O O2 0.517381 0.684519 0.816332
O O3 0.518452 0.846331 0.844786
O O4 0.517588 0.753141 0.076642
O O5 0.750000 0.350348 0.731368
O O6 0.525154 0.397959 0.564115
O O7 0.588667 0.247604 0.579044
O O8 0.500000 0.500000 0.346396
O O9 0.250000 0.585162 0.375970
O O10 0.499156 0.652169 0.289117
O O11 0.750000 0.732386 0.258572
O O12 0.991438 0.812287 0.335074
O O13 0.250000 0.862602 0.446344
O O14 0.992301 0.901097 0.572251
O O15 0.250000 0.075330 0.727080
O O16 0.500000 0.000000 0.795403
#
# Coordination Sequence:
#
# PCOD8168167 Si02
#       6
#     4   4   4   4   4   4
#     4   9  19  33  51  74 101 133 169 204 247 300
#     4   8  16  30  49  71  95 123 161 202 242 290
#     4  10  20  34  52  76 101 130 168 211 255 301
#     4  10  19  33  52  75 103 136 169 206 250 301
#     4   9  17  31  50  73  97 127 166 204 242 292
#     4  10  19  33  52  75 101 131 167 211 256 300
#
# _framework density 17.829293
#
# number of rings (size 3 to 8) (size 9 to 14) (size 15 to 20)
#    0.000    2.667    0.000    3.000    0.000    6.667 
#    0.000    1.667    0.000    4.000    0.000    0.000 
#    0.000    0.000    0.000    0.000    0.000    0.000 
#
# Total GULP energy -297516.434197 kJ/mol
# GULP energy per Si atom -12396.518092 kJ/mol
# Density = 1.778871 g / cm^3
# Si number density = 17.829293 Si / 1000 Ang^3
#
#
#
# Elastic Constant Matrix: (Units=GPa)
#
#
# Indices 1 2 3 4 5 6 
#
# 1 76.7558 36.3839 51.2083 0.0000 0.0000 0.0000
# 2 36.3839 81.7774 47.2009 0.0000 0.0000 0.0000
# 3 51.2083 47.2009 137.4027 0.0000 0.0000 0.0000
# 4 0.0000 0.0000 0.0000 18.9209 0.0000 0.0000
# 5 0.0000 0.0000 0.0000 0.0000 28.0491 0.0000
# 6 0.0000 0.0000 0.0000 0.0000 0.0000 24.5361
#
#
#
# Elastic Compliance Matrix: (Units=1/GPa)
#
#
# Indices 1 2 3 4 5 6 
#
# 1 0.019126 -0.005482 -0.005245 0.000000 0.000000 0.000000
# 2 -0.005482 0.016824 -0.003736 0.000000 0.000000 0.000000
# 3 -0.005245 -0.003736 0.010516 0.000000 0.000000 0.000000
# 4 0.000000 0.000000 0.000000 0.052852 0.000000 0.000000
# 5 0.000000 0.000000 0.000000 0.000000 0.035652 0.000000
# 6 0.000000 0.000000 0.000000 0.000000 0.000000 0.040756
#
#
# Mechanical properties :
#
#
# Convention : Reuss Voigt Hill
#
# Bulk Modulus (GPa) = 57.01401 62.83579 59.92490
# Shear Modulus (GPa) = 23.75310 25.04408 24.39859
#
# Velocity S-wave (km/s) = 3.65396 3.75194 3.70328
# Velocity P-wave (km/s) = 7.06039 7.35452 7.20895
#
# Compressibility (1/GPa) = 0.01753955
#
# Stress axis : x y z
#
# Youngs Moduli (GPa) = 52.28440 59.43906 95.09286
#
# Poissons Ratio (x) = 0.32586 0.49874
# Poissons Ratio (y) = 0.28664 0.35529
# Poissons Ratio (z) = 0.27422 0.22208
#
# Static dielectric constant tensor:
#      x y z
#    x 3.393810 0.000000 0.000000 
#    y 0.000000 3.275750 0.000000 
#    z 0.000000 0.000000 3.457070 
# 
# 
# High freq. dielectric constant tensor:
#      x y z
#    x 1.699720 0.000000 0.000000 
#    y 0.000000 1.670480 0.000000 
#    z 0.000000 0.000000 1.679290 
# 
# From -- ./inp_files/2541.got.cif
#   From: 2010.03.12/outbox.cif.g09.slc.cpg/sg28_2_cif.got.tgz:2541.got - 2010.04.14 03:39:34.
