data_PCOD8168871
_publ_section_title
;
Structure prediction by ZEFSAII (Michael W. Deem and Ramdas Pophale) SiO2 
 PCOD8168871
Probable space group: P C A 21
;
_chemical_formula_sum "Si O2"
_cell_formula_units_Z 28
_cell_length_a 5.514610
_cell_length_b 16.109882
_cell_length_c 12.867136
_cell_angle_alpha 90.000000
_cell_angle_beta 90.000000
_cell_angle_gamma 90.000000
_cell_volume 1143.112713
_symmetry_space_group_name_H-M "P C A 21"
_symmetry_group_IT_number 29
_symmetry_cell_setting 'orthorhombic'
loop_
_space_group_symop_operation_xyz
x,y,z
-x,-y,1/2+z
1/2-x,y,1/2+z
1/2+x,-y,z
loop_
_atom_site_type_symbol
_atom_site_label
_atom_site_fract_x
_atom_site_fract_y
_atom_site_fract_z
Si Si1 0.025111 0.665885 0.380590
Si Si2 0.160273 0.777551 0.019535
Si Si3 0.670369 0.971642 0.302385
Si Si4 0.670757 0.319574 0.698490
Si Si5 0.854412 0.785824 0.826298
Si Si6 0.650197 0.034802 0.068991
Si Si7 0.057957 0.449555 0.062976
O O1 0.119613 0.741840 0.451279
O O2 0.216554 0.630340 0.296216
O O3 0.935262 0.587886 0.447030
O O4 0.824837 0.709102 0.308877
O O5 0.129236 0.711281 0.113732
O O6 0.218102 0.868821 0.061544
O O7 0.922885 0.781304 0.948385
O O8 0.749721 0.875731 0.297710
O O9 0.400467 0.981014 0.358222
O O10 0.616603 0.009390 0.189252
O O11 0.567409 0.233057 0.744604
O O12 0.463080 0.376519 0.647368
O O13 0.382147 0.014493 0.018019
O O14 0.811770 0.503565 0.078954
#
# Coordination Sequence:
#
# PCOD8168871 Si02
#       7
#     4   4   4   4   4   4   4
#     4  10  26  45  74 106 146 190 246 295 372 446
#     4  10  24  43  66 101 142 192 243 308 365 437
#     4  10  23  41  64  98 139 190 245 305 360 417
#     4  10  24  46  74 106 137 197 244 291 370 452
#     4  11  25  43  73 101 151 195 252 314 366 444
#     4  10  22  38  62  93 134 184 242 299 357 414
#     4  11  28  50  77 111 153 182 232 300 368 448
#
# _framework density 24.494523000000001
#
# number of rings (size 3 to 8) (size 9 to 14) (size 15 to 20)
#    0.000    1.714    0.000    1.714   18.000    3.429 
#    0.000    0.000    0.000    0.000    0.000    0.000 
#    0.000    0.000    0.000    0.000    0.000    0.000 
#
# Total GULP energy -346985.211824 kJ/mol
# GULP energy per Si atom -12392.328994 kJ/mol
# Density = 2.443877 g / cm^3
# Si number density = 24.494523 Si / 1000 Ang^3
#
#
#
# Elastic Constant Matrix: (Units=GPa)
#
#
# Indices 1 2 3 4 5 6 
#
# 1 122.3604 20.7269 22.8998 0.0000 0.0000 0.0000
# 2 20.7269 92.6641 28.4492 0.0000 0.0000 0.0000
# 3 22.8998 28.4492 73.5341 0.0000 0.0000 0.0000
# 4 0.0000 0.0000 0.0000 35.6621 0.0000 0.0000
# 5 0.0000 0.0000 0.0000 0.0000 52.0416 0.0000
# 6 0.0000 0.0000 0.0000 0.0000 0.0000 41.4390
#
#
#
# Elastic Compliance Matrix: (Units=1/GPa)
#
#
# Indices 1 2 3 4 5 6 
#
# 1 0.008810 -0.001280 -0.002248 0.000000 0.000000 0.000000
# 2 -0.001280 0.012432 -0.004411 0.000000 0.000000 0.000000
# 3 -0.002248 -0.004411 0.016006 0.000000 0.000000 0.000000
# 4 0.000000 0.000000 0.000000 0.028041 0.000000 0.000000
# 5 0.000000 0.000000 0.000000 0.000000 0.019215 0.000000
# 6 0.000000 0.000000 0.000000 0.000000 0.000000 0.024132
#
#
# Mechanical properties :
#
#
# Convention : Reuss Voigt Hill
#
# Bulk Modulus (GPa) = 46.79719 48.07894 47.43806
# Shear Modulus (GPa) = 37.98258 40.26073 39.12165
#
# Velocity S-wave (km/s) = 3.94211 4.05861 4.00078
# Velocity P-wave (km/s) = 6.31403 6.45245 6.38361
#
# Compressibility (1/GPa) = 0.02136881
#
# Stress axis : x y z
#
# Youngs Moduli (GPa) = 113.50429 80.43531 62.47696
#
# Poissons Ratio (x) = 0.10299 0.14047
# Poissons Ratio (y) = 0.14533 0.27560
# Poissons Ratio (z) = 0.25519 0.35481
#
# Static dielectric constant tensor:
#      x y z
#    x 4.529150 0.000000 0.000000 
#    y 0.000000 4.140290 0.000000 
#    z 0.000000 0.000000 4.545360 
# 
# 
# High freq. dielectric constant tensor:
#      x y z
#    x 1.973000 0.000000 0.000000 
#    y 0.000000 1.958020 0.000000 
#    z 0.000000 0.000000 1.994970 
# 
# From -- ./inp_files/4073.got.cif
#   From: 2010.03.12/outbox.cif.g09.slc.cpg/sg29_3_cif.got.tgz:4073.got - 2010.04.14 03:43:10.
