data_PCOD8168378
_publ_section_title
;
Structure prediction by ZEFSAII (Michael W. Deem and Ramdas Pophale) SiO2 
 PCOD8168378
Probable space group: P M A 2
;
_chemical_formula_sum "Si O2"
_cell_formula_units_Z 28
_cell_length_a 8.650081
_cell_length_b 9.436049
_cell_length_c 18.175127
_cell_angle_alpha 90.000000
_cell_angle_beta 90.000000
_cell_angle_gamma 90.000000
_cell_volume 1483.500906
_symmetry_space_group_name_H-M "P M A 2"
_symmetry_group_IT_number 28
_symmetry_cell_setting 'orthorhombic'
loop_
_space_group_symop_operation_xyz
x,y,z
-x,-y,z
1/2-x,y,z
1/2+x,-y,z
loop_
_atom_site_type_symbol
_atom_site_label
_atom_site_fract_x
_atom_site_fract_y
_atom_site_fract_z
Si Si1 0.932805 0.845165 0.589110
Si Si2 0.932637 0.844169 0.272415
Si Si3 0.068135 0.351739 0.716094
Si Si4 0.933326 0.652970 0.883250
Si Si5 0.068816 0.153478 0.431429
Si Si6 0.933977 0.656991 0.137199
Si Si7 0.933722 0.156881 0.006281
O O1 0.750000 0.854864 0.596333
O O2 0.002689 0.758245 0.657413
O O3 0.978419 0.771856 0.509305
O O4 0.000000 0.000000 0.594922
O O5 0.750000 0.859756 0.266864
O O6 0.984684 0.779444 0.352910
O O7 0.992318 0.734442 0.211388
O O8 0.000000 0.000000 0.257858
O O9 0.250000 0.360600 0.709226
O O10 0.020301 0.311989 0.799155
O O11 0.000000 0.500000 0.692228
O O12 0.750000 0.651735 0.896004
O O13 0.000000 0.500000 0.907108
O O14 0.011892 0.778081 0.929006
O O15 0.250000 0.136892 0.428808
O O16 0.000000 0.000000 0.434855
O O17 0.750000 0.651719 0.130984
O O18 0.000000 0.500000 0.136713
O O19 0.001273 0.742764 0.069291
O O20 0.750000 0.150611 0.009937
O O21 0.000000 0.000000 0.015942
#
# Coordination Sequence:
#
# PCOD8168378 Si02
#       7
#     4   4   4   4   4   4   4
#     4   9  17  30  49  74 103 135 173 216 260 306
#     4   9  18  32  53  78 103 134 173 216 261 309
#     4   9  19  34  52  75 104 139 176 213 255 306
#     4  10  20  37  58  80 107 140 178 217 262 314
#     4   8  14  27  47  71 100 133 169 211 258 306
#     4  11  23  39  57  79 108 142 178 215 260 312
#     4  12  25  41  60  83 109 137 172 214 261 311
#
# _framework density 18.874272999999999
#
# number of rings (size 3 to 8) (size 9 to 14) (size 15 to 20)
#    0.000    2.286    0.000    3.000    0.000    4.000 
#    0.000    2.143    0.000    0.000    0.000    0.000 
#    0.000    0.000    0.000    0.000    0.000    0.000 
#
# Total GULP energy -346938.594072 kJ/mol
# GULP energy per Si atom -12390.664074 kJ/mol
# Density = 1.883131 g / cm^3
# Si number density = 18.874273 Si / 1000 Ang^3
#
#
#
# Elastic Constant Matrix: (Units=GPa)
#
#
# Indices 1 2 3 4 5 6 
#
# 1 52.8341 35.9717 38.0126 0.0000 0.0000 0.0000
# 2 35.9717 125.2476 89.9727 0.0000 0.0000 0.0000
# 3 38.0126 89.9727 167.1386 0.0000 0.0000 0.0000
# 4 0.0000 0.0000 0.0000 19.8852 0.0000 0.0000
# 5 0.0000 0.0000 0.0000 0.0000 6.1050 0.0000
# 6 0.0000 0.0000 0.0000 0.0000 0.0000 30.4719
#
#
#
# Elastic Compliance Matrix: (Units=1/GPa)
#
#
# Indices 1 2 3 4 5 6 
#
# 1 0.024356 -0.004918 -0.002892 0.000000 0.000000 0.000000
# 2 -0.004918 0.014011 -0.006424 0.000000 0.000000 0.000000
# 3 -0.002892 -0.006424 0.010099 0.000000 0.000000 0.000000
# 4 0.000000 0.000000 0.000000 0.050289 0.000000 0.000000
# 5 0.000000 0.000000 0.000000 0.000000 0.163800 0.000000
# 6 0.000000 0.000000 0.000000 0.000000 0.000000 0.032817
#
#
# Mechanical properties :
#
#
# Convention : Reuss Voigt Hill
#
# Bulk Modulus (GPa) = 50.00298 74.79268 62.39783
# Shear Modulus (GPa) = 15.12832 23.37665 19.25249
#
# Velocity S-wave (km/s) = 2.83420 3.52312 3.19727
# Velocity P-wave (km/s) = 6.10414 7.50084 6.83824
#
# Compressibility (1/GPa) = 0.01999881
#
# Stress axis : x y z
#
# Youngs Moduli (GPa) = 41.05753 71.37099 99.02018
#
# Poissons Ratio (x) = 0.35097 0.28638
# Poissons Ratio (y) = 0.20190 0.63611
# Poissons Ratio (z) = 0.11874 0.45849
#
# Static dielectric constant tensor:
#      x y z
#    x 3.473710 0.000000 0.000000 
#    y 0.000000 3.410060 0.000000 
#    z 0.000000 0.000000 4.350130 
# 
# 
# High freq. dielectric constant tensor:
#      x y z
#    x 1.733260 0.000000 0.000000 
#    y 0.000000 1.708700 0.000000 
#    z 0.000000 0.000000 1.763180 
# 
# From -- ./inp_files/6749.got.cif
#   From: 2010.03.12/outbox.cif.g09.slc.cpg/sg28_4_cif.got.tgz:6749.got - 2010.04.14 03:39:34.
