data_PCOD8168951
_publ_section_title
;
Structure prediction by ZEFSAII (Michael W. Deem and Ramdas Pophale) SiO2 
 PCOD8168951
Probable space group: P C A 21
;
_chemical_formula_sum "Si O2"
_cell_formula_units_Z 24
_cell_length_a 21.497511
_cell_length_b 5.565201
_cell_length_c 9.193209
_cell_angle_alpha 90.000000
_cell_angle_beta 90.000000
_cell_angle_gamma 90.000000
_cell_volume 1099.856860
_symmetry_space_group_name_H-M "P C A 21"
_symmetry_group_IT_number 29
_symmetry_cell_setting 'orthorhombic'
loop_
_space_group_symop_operation_xyz
x,y,z
-x,-y,1/2+z
1/2-x,y,1/2+z
1/2+x,-y,z
loop_
_atom_site_type_symbol
_atom_site_label
_atom_site_fract_x
_atom_site_fract_y
_atom_site_fract_z
Si Si1 0.367052 0.142954 0.214950
Si Si2 0.417725 0.036604 0.506793
Si Si3 0.554959 0.579095 0.211290
Si Si4 0.175766 0.663552 0.085913
Si Si5 0.970876 0.717770 0.019258
Si Si6 0.700863 0.371195 0.758779
O O1 0.415673 0.117154 0.082027
O O2 0.325675 0.383366 0.183898
O O3 0.401744 0.200780 0.367747
O O4 0.334349 0.880209 0.221240
O O5 0.352936 0.927093 0.563967
O O6 0.469395 0.849351 0.450004
O O7 0.451487 0.154975 0.645558
O O8 0.620659 0.501633 0.144244
O O9 0.556619 0.563232 0.385346
O O10 0.494731 0.439103 0.154320
O O11 0.229299 0.668073 0.205361
O O12 0.202381 0.575930 0.930916
#
# Coordination Sequence:
#
# PCOD8168951 Si02
#       6
#     4   4   4   4   4   4
#     4  11  25  45  68 102 137 184 225 291 346 409
#     4  10  22  44  66  97 139 178 234 288 351 409
#     4  11  23  43  69  98 142 177 237 284 352 415
#     4  10  25  44  66 100 131 189 225 294 337 415
#     4  11  25  39  70 102 137 186 228 293 350 421
#     4  11  26  45  71  95 144 176 239 282 344 409
#
# _framework density 21.821023
#
# number of rings (size 3 to 8) (size 9 to 14) (size 15 to 20)
#    0.000    1.333    1.667    2.000   11.667    2.667 
#    0.000    0.000    0.000    0.000    0.000    0.000 
#    0.000    0.000    0.000    0.000    0.000    0.000 
#
# Total GULP energy -297394.688289 kJ/mol
# GULP energy per Si atom -12391.445345 kJ/mol
# Density = 2.177136 g / cm^3
# Si number density = 21.821023 Si / 1000 Ang^3
#
#
#
# Elastic Constant Matrix: (Units=GPa)
#
#
# Indices 1 2 3 4 5 6 
#
# 1 112.3952 30.2311 62.5968 0.0000 0.0000 0.0000
# 2 30.2311 96.3941 27.1350 0.0000 0.0000 0.0000
# 3 62.5968 27.1350 123.0729 0.0000 0.0000 0.0000
# 4 0.0000 0.0000 0.0000 32.1126 0.0000 0.0000
# 5 0.0000 0.0000 0.0000 0.0000 41.3717 0.0000
# 6 0.0000 0.0000 0.0000 0.0000 0.0000 11.0637
#
#
#
# Elastic Compliance Matrix: (Units=1/GPa)
#
#
# Indices 1 2 3 4 5 6 
#
# 1 0.012891 -0.002343 -0.006040 0.000000 0.000000 0.000000
# 2 -0.002343 0.011486 -0.001341 0.000000 0.000000 0.000000
# 3 -0.006040 -0.001341 0.011493 0.000000 0.000000 0.000000
# 4 0.000000 0.000000 0.000000 0.031140 0.000000 0.000000
# 5 0.000000 0.000000 0.000000 0.000000 0.024171 0.000000
# 6 0.000000 0.000000 0.000000 0.000000 0.000000 0.090386
#
#
# Mechanical properties :
#
#
# Convention : Reuss Voigt Hill
#
# Bulk Modulus (GPa) = 60.89032 63.53198 62.21115
# Shear Modulus (GPa) = 24.21429 31.03623 27.62526
#
# Velocity S-wave (km/s) = 3.33480 3.77544 3.56194
# Velocity P-wave (km/s) = 6.54162 6.94144 6.74449
#
# Compressibility (1/GPa) = 0.01642297
#
# Stress axis : x y z
#
# Youngs Moduli (GPa) = 77.57185 87.06047 87.00902
#
# Poissons Ratio (x) = 0.20395 0.52555
# Poissons Ratio (y) = 0.18172 0.11668
# Poissons Ratio (z) = 0.46855 0.11675
#
# Static dielectric constant tensor:
#      x y z
#    x 3.854560 0.000000 0.000000 
#    y 0.000000 3.934800 0.000000 
#    z 0.000000 0.000000 3.871790 
# 
# 
# High freq. dielectric constant tensor:
#      x y z
#    x 1.860550 0.000000 0.000000 
#    y 0.000000 1.855070 0.000000 
#    z 0.000000 0.000000 1.859390 
# 
# From -- ./inp_files/2012.got.cif
#   From: 2010.03.12/outbox.cif.g09.slc.cpg/sg29_2_cif.got.tgz:2012.got - 2010.04.14 03:43:10.
