data_PCOD8168419
_publ_section_title
;
Structure prediction by ZEFSAII (Michael W. Deem and Ramdas Pophale) SiO2 
 PCOD8168419
Probable space group: P M A 2
;
_chemical_formula_sum "Si O2"
_cell_formula_units_Z 32
_cell_length_a 9.296283
_cell_length_b 14.393474
_cell_length_c 12.542913
_cell_angle_alpha 90.000000
_cell_angle_beta 90.000000
_cell_angle_gamma 90.000000
_cell_volume 1678.314604
_symmetry_space_group_name_H-M "P M A 2"
_symmetry_group_IT_number 28
_symmetry_cell_setting 'orthorhombic'
loop_
_space_group_symop_operation_xyz
x,y,z
-x,-y,z
1/2-x,y,z
1/2+x,-y,z
loop_
_atom_site_type_symbol
_atom_site_label
_atom_site_fract_x
_atom_site_fract_y
_atom_site_fract_z
Si Si1 0.916194 0.093381 0.186570
Si Si2 0.417735 0.405951 0.075551
Si Si3 0.917695 0.594016 0.829075
Si Si4 0.918262 0.403395 0.453495
Si Si5 0.418308 0.710259 0.661810
Si Si6 0.586534 0.093954 0.723087
Si Si7 0.087398 0.910484 0.952999
Si Si8 0.581787 0.291457 0.244005
O O1 0.750000 0.065999 0.193137
O O2 0.949989 0.181280 0.262512
O O3 0.961878 0.131038 0.067112
O O4 0.000000 0.000000 0.220173
O O5 0.500000 0.500000 0.105546
O O6 0.250000 0.419022 0.102705
O O7 0.441305 0.379247 0.952407
O O8 0.485433 0.324698 0.145687
O O9 0.750000 0.580318 0.802732
O O10 0.000000 0.500000 0.799387
O O11 0.983759 0.675101 0.758335
O O12 0.750000 0.424858 0.453037
O O13 0.963807 0.342775 0.554910
O O14 0.964379 0.345856 0.349531
O O15 0.000000 0.500000 0.455526
O O16 0.250000 0.694875 0.688801
O O17 0.451069 0.820519 0.644052
O O18 0.750000 0.061883 0.709040
O O19 0.565474 0.144019 0.841228
O O20 0.500000 0.000000 0.697875
O O21 0.250000 0.941362 0.968245
O O22 0.000000 0.000000 0.925344
O O23 0.750000 0.305909 0.215901
#
# Coordination Sequence:
#
# PCOD8168419 Si02
#       8
#     4   4   4   4   4   4   4   4
#     4   9  18  32  51  76 107 144 182 223 268 320
#     4  10  21  36  54  80 112 143 177 222 277 336
#     4  10  21  36  54  80 112 143 177 222 277 336
#     4  10  22  40  59  82 108 140 183 232 281 328
#     4  10  21  36  57  81 109 145 186 229 276 328
#     4   9  18  32  51  76 107 144 182 223 268 320
#     4   8  14  26  44  68  97 132 173 210 253 306
#     4  10  21  36  57  81 109 145 186 229 276 328
#
# _framework density 19.066748
#
# number of rings (size 3 to 8) (size 9 to 14) (size 15 to 20)
#    0.000    2.500    0.000    1.500    1.750    5.500 
#    0.000    0.625    0.000    0.000    0.000    0.000 
#    0.000    0.000    0.000    0.000    0.000    0.000 
#
# Total GULP energy -396483.748599 kJ/mol
# GULP energy per Si atom -12390.117144 kJ/mol
# Density = 1.902335 g / cm^3
# Si number density = 19.066748 Si / 1000 Ang^3
#
#
#
# Elastic Constant Matrix: (Units=GPa)
#
#
# Indices 1 2 3 4 5 6 
#
# 1 76.8627 61.0721 44.5467 0.0000 0.0000 0.0000
# 2 61.0721 148.3414 67.8144 0.0000 0.0000 0.0000
# 3 44.5467 67.8144 77.8136 0.0000 0.0000 0.0000
# 4 0.0000 0.0000 0.0000 29.2203 0.0000 0.0000
# 5 0.0000 0.0000 0.0000 0.0000 19.0003 0.0000
# 6 0.0000 0.0000 0.0000 0.0000 0.0000 33.4552
#
#
#
# Elastic Compliance Matrix: (Units=1/GPa)
#
#
# Indices 1 2 3 4 5 6 
#
# 1 0.021828 -0.005442 -0.007753 0.000000 0.000000 0.000000
# 2 -0.005442 0.012562 -0.007833 0.000000 0.000000 0.000000
# 3 -0.007753 -0.007833 0.024116 0.000000 0.000000 0.000000
# 4 0.000000 0.000000 0.000000 0.034223 0.000000 0.000000
# 5 0.000000 0.000000 0.000000 0.000000 0.052631 0.000000
# 6 0.000000 0.000000 0.000000 0.000000 0.000000 0.029891
#
#
# Mechanical properties :
#
#
# Convention : Reuss Voigt Hill
#
# Bulk Modulus (GPa) = 60.78936 72.20935 66.49935
# Shear Modulus (GPa) = 22.44272 24.97412 23.70842
#
# Velocity S-wave (km/s) = 3.43455 3.62308 3.53007
# Velocity P-wave (km/s) = 6.90506 7.44690 7.18109
#
# Compressibility (1/GPa) = 0.01645025
#
# Stress axis : x y z
#
# Youngs Moduli (GPa) = 45.81338 79.60256 41.46655
#
# Poissons Ratio (x) = 0.43321 0.32149
# Poissons Ratio (y) = 0.24932 0.32479
# Poissons Ratio (z) = 0.35520 0.62350
#
# Static dielectric constant tensor:
#      x y z
#    x 3.458920 0.000000 0.000000 
#    y 0.000000 3.339600 0.000000 
#    z 0.000000 0.000000 3.562740 
# 
# 
# High freq. dielectric constant tensor:
#      x y z
#    x 1.738160 0.000000 0.000000 
#    y 0.000000 1.738210 0.000000 
#    z 0.000000 0.000000 1.730450 
# 
# From -- ./inp_files/5001.got.cif
#   From: 2010.03.12/outbox.cif.g09.slc.cpg/sg28_3_cif.got.tgz:5001.got - 2010.04.14 03:39:34.
