data_PCOD8168478
_publ_section_title
;
Structure prediction by ZEFSAII (Michael W. Deem and Ramdas Pophale) SiO2 
 PCOD8168478
Probable space group: P M A 2
;
_chemical_formula_sum "Si O2"
_cell_formula_units_Z 32
_cell_length_a 8.894966
_cell_length_b 14.476171
_cell_length_c 12.349144
_cell_angle_alpha 90.000000
_cell_angle_beta 90.000000
_cell_angle_gamma 90.000000
_cell_volume 1590.138130
_symmetry_space_group_name_H-M "P M A 2"
_symmetry_group_IT_number 28
_symmetry_cell_setting 'orthorhombic'
loop_
_space_group_symop_operation_xyz
x,y,z
-x,-y,z
1/2-x,y,z
1/2+x,-y,z
loop_
_atom_site_type_symbol
_atom_site_label
_atom_site_fract_x
_atom_site_fract_y
_atom_site_fract_z
Si Si1 0.071649 0.898638 0.782640
Si Si2 0.915689 0.841818 0.207067
Si Si3 0.928957 0.781138 0.973645
Si Si4 0.577026 0.088676 0.401195
Si Si5 0.428431 0.593671 0.045338
Si Si6 0.072532 0.406658 0.507167
Si Si7 0.924885 0.228229 0.580323
Si Si8 0.918416 0.632998 0.264594
O O1 0.250000 0.908732 0.797702
O O2 0.028914 0.840640 0.676312
O O3 0.001870 0.841463 0.880612
O O4 0.000000 0.000000 0.775515
O O5 0.750000 0.886915 0.214075
O O6 0.911442 0.742342 0.261547
O O7 0.030373 0.903433 0.275489
O O8 0.969392 0.835853 0.083459
O O9 0.750000 0.770692 0.959145
O O10 0.000830 0.679165 0.979159
O O11 0.750000 0.069246 0.410050
O O12 0.531248 0.179209 0.467813
O O13 0.500000 0.000000 0.455426
O O14 0.500000 0.500000 0.995892
O O15 0.250000 0.594448 0.030165
O O16 0.468421 0.596312 0.173087
O O17 0.250000 0.411792 0.515432
O O18 0.019385 0.395605 0.382333
O O19 0.000000 0.500000 0.553936
O O20 0.016900 0.323311 0.583705
O O21 0.750000 0.253077 0.586619
O O22 0.750000 0.593147 0.243098
#
# Coordination Sequence:
#
# PCOD8168478 Si02
#       8
#     4   4   4   4   4   4   4   4
#     4  11  24  44  69  94 119 153 202 255 308 366
#     4   9  18  35  56  82 119 156 193 240 293 352
#     4  10  22  41  63  89 122 157 201 255 307 361
#     4  11  22  35  56  85 118 156 195 239 296 359
#     4  11  21  34  56  87 124 166 207 249 299 359
#     4  11  22  36  58  87 122 163 204 248 299 357
#     4  10  23  42  62  88 121 155 199 253 302 358
#     4   9  18  33  53  82 119 162 205 247 294 350
#
# _framework density 20.124037999999999
#
# number of rings (size 3 to 8) (size 9 to 14) (size 15 to 20)
#    0.000    1.750    1.250    4.125    0.000    6.500 
#    0.000    0.625    0.000    3.000    0.000    0.000 
#    0.000    0.000    0.000    0.000    0.000    0.000 
#
# Total GULP energy -396792.071087 kJ/mol
# GULP energy per Si atom -12399.752221 kJ/mol
# Density = 2.007823 g / cm^3
# Si number density = 20.124038 Si / 1000 Ang^3
#
#
#
# Elastic Constant Matrix: (Units=GPa)
#
#
# Indices 1 2 3 4 5 6 
#
# 1 111.0195 74.7513 56.6614 0.0000 0.0000 0.0000
# 2 74.7513 146.3995 60.6081 0.0000 0.0000 0.0000
# 3 56.6614 60.6081 98.9919 0.0000 0.0000 0.0000
# 4 0.0000 0.0000 0.0000 28.7467 0.0000 0.0000
# 5 0.0000 0.0000 0.0000 0.0000 26.5102 0.0000
# 6 0.0000 0.0000 0.0000 0.0000 0.0000 39.8723
#
#
#
# Elastic Compliance Matrix: (Units=1/GPa)
#
#
# Indices 1 2 3 4 5 6 
#
# 1 0.015649 -0.005736 -0.005445 0.000000 0.000000 0.000000
# 2 -0.005736 0.011252 -0.003606 0.000000 0.000000 0.000000
# 3 -0.005445 -0.003606 0.015426 0.000000 0.000000 0.000000
# 4 0.000000 0.000000 0.000000 0.034787 0.000000 0.000000
# 5 0.000000 0.000000 0.000000 0.000000 0.037721 0.000000
# 6 0.000000 0.000000 0.000000 0.000000 0.000000 0.025080
#
#
# Mechanical properties :
#
#
# Convention : Reuss Voigt Hill
#
# Bulk Modulus (GPa) = 78.41341 82.27248 80.34294
# Shear Modulus (GPa) = 28.77857 29.98519 29.38188
#
# Velocity S-wave (km/s) = 3.78571 3.86426 3.82519
# Velocity P-wave (km/s) = 7.62617 7.80266 7.71492
#
# Compressibility (1/GPa) = 0.01275292
#
# Stress axis : x y z
#
# Youngs Moduli (GPa) = 63.90365 88.87123 64.82387
#
# Poissons Ratio (x) = 0.50975 0.35298
# Poissons Ratio (y) = 0.36654 0.23376
# Poissons Ratio (z) = 0.34797 0.32048
#
# Static dielectric constant tensor:
#      x y z
#    x 3.649030 0.000000 0.000000 
#    y 0.000000 3.745210 0.000000 
#    z 0.000000 0.000000 3.573650 
# 
# 
# High freq. dielectric constant tensor:
#      x y z
#    x 1.790370 0.000000 0.000000 
#    y 0.000000 1.796880 0.000000 
#    z 0.000000 0.000000 1.765490 
# 
# From -- ./inp_files/5033.got.cif
#   From: 2010.03.12/outbox.cif.g09.slc.cpg/sg28_3_cif.got.tgz:5033.got - 2010.04.14 03:39:34.
