data_PCOD8168569
_publ_section_title
;
Structure prediction by ZEFSAII (Michael W. Deem and Ramdas Pophale) SiO2 
 PCOD8168569
Probable space group: P C A 21
;
_chemical_formula_sum "Si O2"
_cell_formula_units_Z 24
_cell_length_a 8.962718
_cell_length_b 8.644301
_cell_length_c 16.721813
_cell_angle_alpha 90.000000
_cell_angle_beta 90.000000
_cell_angle_gamma 90.000000
_cell_volume 1295.546411
_symmetry_space_group_name_H-M "P C A 21"
_symmetry_group_IT_number 29
_symmetry_cell_setting 'orthorhombic'
loop_
_space_group_symop_operation_xyz
x,y,z
-x,-y,1/2+z
1/2-x,y,1/2+z
1/2+x,-y,z
loop_
_atom_site_type_symbol
_atom_site_label
_atom_site_fract_x
_atom_site_fract_y
_atom_site_fract_z
Si Si1 0.252735 0.007445 0.405980
Si Si2 0.496782 0.796633 0.335554
Si Si3 0.495229 0.811067 0.990028
Si Si4 0.234707 0.483375 0.584187
Si Si5 0.998518 0.698494 0.654702
Si Si6 0.016493 0.555325 0.973636
O O1 0.359678 0.912226 0.347457
O O2 0.148990 0.887802 0.452109
O O3 0.154391 0.125242 0.354660
O O4 0.352912 0.103309 0.467330
O O5 0.497375 0.762443 0.242659
O O6 0.476052 0.641528 0.388706
O O7 0.504458 0.630990 0.963359
O O8 0.479226 0.828004 0.086118
O O9 0.336791 0.376105 0.639001
O O10 0.336234 0.592961 0.526438
O O11 0.134048 0.578371 0.645878
O O12 0.126988 0.385281 0.524299
#
# Coordination Sequence:
#
# PCOD8168569 Si02
#       6
#     4   4   4   4   4   4
#     4  10  22  38  54  78 112 148 180 216 270 330
#     4  11  22  36  56  81 110 140 180 231 272 312
#     4   9  20  38  58  79 108 148 184 213 264 328
#     4   8  18  34  54  82 108 136 180 222 266 320
#     4  10  20  34  54  82 110 138 178 228 272 310
#     4  10  18  36  60  80 104 144 186 220 260 326
#
# _framework density 18.525003000000002
#
# number of rings (size 3 to 8) (size 9 to 14) (size 15 to 20)
#    0.000    2.667    0.000    4.000    0.000    5.333 
#    0.000    5.000    0.000    0.000    0.000    0.000 
#    0.000    0.000    0.000    0.000    0.000    0.000 
#
# Total GULP energy -297425.446609 kJ/mol
# GULP energy per Si atom -12392.726942 kJ/mol
# Density = 1.848284 g / cm^3
# Si number density = 18.525003 Si / 1000 Ang^3
#
#
#
# Elastic Constant Matrix: (Units=GPa)
#
#
# Indices 1 2 3 4 5 6 
#
# 1 74.5849 -4.7764 6.8887 0.0000 0.0000 0.0000
# 2 -4.7764 58.5525 23.7967 0.0000 0.0000 0.0000
# 3 6.8887 23.7967 129.9656 0.0000 0.0000 0.0000
# 4 0.0000 0.0000 0.0000 31.0175 0.0000 0.0000
# 5 0.0000 0.0000 0.0000 0.0000 18.7946 0.0000
# 6 0.0000 0.0000 0.0000 0.0000 0.0000 20.6009
#
#
#
# Elastic Compliance Matrix: (Units=1/GPa)
#
#
# Indices 1 2 3 4 5 6 
#
# 1 0.013597 0.001515 -0.000998 0.000000 0.000000 0.000000
# 2 0.001515 0.018621 -0.003490 0.000000 0.000000 0.000000
# 3 -0.000998 -0.003490 0.008386 0.000000 0.000000 0.000000
# 4 0.000000 0.000000 0.000000 0.032240 0.000000 0.000000
# 5 0.000000 0.000000 0.000000 0.000000 0.053207 0.000000
# 6 0.000000 0.000000 0.000000 0.000000 0.000000 0.048541
#
#
# Mechanical properties :
#
#
# Convention : Reuss Voigt Hill
#
# Bulk Modulus (GPa) = 28.85376 34.99122 31.92249
# Shear Modulus (GPa) = 26.02945 29.89554 27.96250
#
# Velocity S-wave (km/s) = 3.75253 4.02156 3.88937
# Velocity P-wave (km/s) = 5.86385 6.36346 6.11875
#
# Compressibility (1/GPa) = 0.03465753
#
# Stress axis : x y z
#
# Youngs Moduli (GPa) = 73.54712 53.70413 119.24339
#
# Poissons Ratio (x) = -0.08135 0.11901
# Poissons Ratio (y) = -0.11141 0.41612
# Poissons Ratio (z) = 0.07340 0.18741
#
# Static dielectric constant tensor:
#      x y z
#    x 3.777060 0.000000 0.000000 
#    y 0.000000 3.309550 0.000000 
#    z 0.000000 0.000000 3.255710 
# 
# 
# High freq. dielectric constant tensor:
#      x y z
#    x 1.750010 0.000000 0.000000 
#    y 0.000000 1.704260 0.000000 
#    z 0.000000 0.000000 1.705930 
# 
# From -- ./inp_files/4945.got.cif
#   From: 2010.03.12/outbox.cif.g09.slc.cpg/sg29_3_cif.got.tgz:4945.got - 2010.04.14 03:43:10.
