data_PCOD8168684
_publ_section_title
;
Structure prediction by ZEFSAII (Michael W. Deem and Ramdas Pophale) SiO2 
 PCOD8168684
Probable space group: P C A 21
;
_chemical_formula_sum "Si O2"
_cell_formula_units_Z 24
_cell_length_a 9.758917
_cell_length_b 13.671164
_cell_length_c 8.789383
_cell_angle_alpha 90.000000
_cell_angle_beta 90.000000
_cell_angle_gamma 90.000000
_cell_volume 1172.642167
_symmetry_space_group_name_H-M "P C A 21"
_symmetry_group_IT_number 29
_symmetry_cell_setting 'orthorhombic'
loop_
_space_group_symop_operation_xyz
x,y,z
-x,-y,1/2+z
1/2-x,y,1/2+z
1/2+x,-y,z
loop_
_atom_site_type_symbol
_atom_site_label
_atom_site_fract_x
_atom_site_fract_y
_atom_site_fract_z
Si Si1 0.227142 0.226170 0.291520
Si Si2 0.100994 0.471659 0.505053
Si Si3 0.560461 0.736591 0.569691
Si Si4 0.413087 0.925446 0.517178
Si Si5 0.879057 0.579579 0.668219
Si Si6 0.338837 0.008611 0.832327
O O1 0.386501 0.243036 0.242580
O O2 0.201303 0.246221 0.470043
O O3 0.132222 0.304329 0.200581
O O4 0.191977 0.113665 0.256246
O O5 0.011627 0.374584 0.549284
O O6 0.112949 0.482048 0.324297
O O7 0.251198 0.463503 0.576036
O O8 0.017780 0.563717 0.571466
O O9 0.441751 0.808621 0.509336
O O10 0.546696 0.984591 0.462901
O O11 0.389135 0.943580 0.693771
O O12 0.289725 0.955119 0.408184
#
# Coordination Sequence:
#
# PCOD8168684 Si02
#       6
#     4   4   4   4   4   4
#     4   9  18  34  57  80 108 148 191 228 282 349
#     4  10  20  37  58  84 114 148 192 240 291 345
#     4   9  19  35  56  82 112 147 189 236 286 350
#     4  11  22  37  58  84 116 150 190 234 289 346
#     4  10  20  36  59  83 113 150 193 242 291 347
#     4  11  21  37  58  83 113 149 191 240 285 347
#
# _framework density 20.4666
#
# number of rings (size 3 to 8) (size 9 to 14) (size 15 to 20)
#    0.000    2.000    0.000    5.000    0.000    1.333 
#    0.000    8.333    0.000    0.000    0.000    0.000 
#    0.000    0.000    0.000    0.000    0.000    0.000 
#
# Total GULP energy -297464.585642 kJ/mol
# GULP energy per Si atom -12394.357735 kJ/mol
# Density = 2.042002 g / cm^3
# Si number density = 20.466600 Si / 1000 Ang^3
#
#
#
# Elastic Constant Matrix: (Units=GPa)
#
#
# Indices 1 2 3 4 5 6 
#
# 1 77.6548 25.0647 18.0316 0.0000 0.0000 0.0000
# 2 25.0647 64.8608 19.0562 0.0000 0.0000 0.0000
# 3 18.0316 19.0562 77.8090 0.0000 0.0000 0.0000
# 4 0.0000 0.0000 0.0000 25.5220 0.0000 0.0000
# 5 0.0000 0.0000 0.0000 0.0000 40.4310 0.0000
# 6 0.0000 0.0000 0.0000 0.0000 0.0000 29.5038
#
#
#
# Elastic Compliance Matrix: (Units=1/GPa)
#
#
# Indices 1 2 3 4 5 6 
#
# 1 0.015062 -0.005167 -0.002225 0.000000 0.000000 0.000000
# 2 -0.005167 0.018385 -0.003305 0.000000 0.000000 0.000000
# 3 -0.002225 -0.003305 0.014177 0.000000 0.000000 0.000000
# 4 0.000000 0.000000 0.000000 0.039182 0.000000 0.000000
# 5 0.000000 0.000000 0.000000 0.000000 0.024733 0.000000
# 6 0.000000 0.000000 0.000000 0.000000 0.000000 0.033894
#
#
# Mechanical properties :
#
#
# Convention : Reuss Voigt Hill
#
# Bulk Modulus (GPa) = 38.12441 38.29220 38.20831
# Shear Modulus (GPa) = 28.47844 29.63618 29.05731
#
# Velocity S-wave (km/s) = 3.73427 3.80942 3.77204
# Velocity P-wave (km/s) = 6.10419 6.17245 6.13842
#
# Compressibility (1/GPa) = 0.02622991
#
# Stress axis : x y z
#
# Youngs Moduli (GPa) = 66.39295 54.39097 70.53601
#
# Poissons Ratio (x) = 0.28102 0.15695
# Poissons Ratio (y) = 0.34304 0.23315
# Poissons Ratio (z) = 0.14773 0.17979
#
# Static dielectric constant tensor:
#      x y z
#    x 3.501260 0.000000 0.000000 
#    y 0.000000 3.800690 0.000000 
#    z 0.000000 0.000000 3.848770 
# 
# 
# High freq. dielectric constant tensor:
#      x y z
#    x 1.773250 0.000000 0.000000 
#    y 0.000000 1.796470 0.000000 
#    z 0.000000 0.000000 1.814550 
# 
# From -- ./inp_files/1145.got.cif
#   From: 2010.03.12/outbox.cif.g09.slc.cpg/sg29_1_cif.got.tgz:1145.got - 2010.04.14 03:43:10.
