data_PCOD8168312
_publ_section_title
;
Structure prediction by ZEFSAII (Michael W. Deem and Ramdas Pophale) SiO2 
 PCOD8168312
Probable space group: P M A 2
;
_chemical_formula_sum "Si O2"
_cell_formula_units_Z 32
_cell_length_a 15.763869
_cell_length_b 15.476192
_cell_length_c 6.920391
_cell_angle_alpha 90.000000
_cell_angle_beta 90.000000
_cell_angle_gamma 90.000000
_cell_volume 1688.330860
_symmetry_space_group_name_H-M "P M A 2"
_symmetry_group_IT_number 28
_symmetry_cell_setting 'orthorhombic'
loop_
_space_group_symop_operation_xyz
x,y,z
-x,-y,z
1/2-x,y,z
1/2+x,-y,z
loop_
_atom_site_type_symbol
_atom_site_label
_atom_site_fract_x
_atom_site_fract_y
_atom_site_fract_z
Si Si1 0.156261 0.141041 0.052980
Si Si2 0.986321 0.399245 0.361590
Si Si3 0.348135 0.287445 0.359384
Si Si4 0.911080 0.983907 0.345951
Si Si5 0.647866 0.311623 0.095360
Si Si6 0.587899 0.280017 0.669315
Si Si7 0.574520 0.834894 0.654362
Si Si8 0.342236 0.833717 0.368826
O O1 0.250000 0.146740 0.969041
O O2 0.134225 0.223150 0.183087
O O3 0.150593 0.054980 0.184244
O O4 0.096225 0.138415 0.870463
O O5 0.915803 0.381053 0.194517
O O6 0.949641 0.364485 0.564212
O O7 0.000000 0.500000 0.379134
O O8 0.080985 0.360842 0.325513
O O9 0.250000 0.322372 0.357042
O O10 0.362388 0.236655 0.561366
O O11 0.922261 0.921540 0.528894
O O12 0.887497 0.078056 0.424450
O O13 0.000000 0.000000 0.239369
O O14 0.750000 0.331048 0.127631
O O15 0.620096 0.218604 0.184505
O O16 0.626500 0.310471 0.870260
O O17 0.518186 0.204874 0.671744
O O18 0.661761 0.234931 0.544688
O O19 0.250000 0.863716 0.310216
#
# Coordination Sequence:
#
# PCOD8168312 Si02
#       8
#     4   4   4   4   4   4   4   4
#     4  10  21  35  55  79 107 145 187 232 280 332
#     4  10  22  39  62  90 119 148 184 234 293 354
#     4   9  19  37  58  83 114 149 187 233 287 350
#     4  11  22  35  52  79 114 149 191 237 284 327
#     4  10  22  39  62  87 116 156 199 240 286 345
#     4  10  20  37  59  83 111 151 194 233 284 342
#     4  10  20  34  56  81 110 150 192 238 286 338
#     4  10  21  37  54  77 112 151 194 240 283 331
#
# _framework density 18.953633
#
# number of rings (size 3 to 8) (size 9 to 14) (size 15 to 20)
#    0.000    2.000    1.250    1.875    3.500    4.500 
#    0.000    0.000    0.000    0.000    0.000    0.000 
#    0.000    0.000    0.000    0.000    0.000    0.000 
#
# Total GULP energy -396457.577504 kJ/mol
# GULP energy per Si atom -12389.299297 kJ/mol
# Density = 1.891049 g / cm^3
# Si number density = 18.953633 Si / 1000 Ang^3
#
#
#
# Elastic Constant Matrix: (Units=GPa)
#
#
# Indices 1 2 3 4 5 6 
#
# 1 88.0736 52.3838 36.7341 0.0000 0.0000 0.0000
# 2 52.3838 132.0236 38.8624 0.0000 0.0000 0.0000
# 3 36.7341 38.8624 114.5397 0.0000 0.0000 0.0000
# 4 0.0000 0.0000 0.0000 10.0166 0.0000 0.0000
# 5 0.0000 0.0000 0.0000 0.0000 26.2600 0.0000
# 6 0.0000 0.0000 0.0000 0.0000 0.0000 22.1343
#
#
#
# Elastic Compliance Matrix: (Units=1/GPa)
#
#
# Indices 1 2 3 4 5 6 
#
# 1 0.015903 -0.005342 -0.003288 0.000000 0.000000 0.000000
# 2 -0.005342 0.010209 -0.001751 0.000000 0.000000 0.000000
# 3 -0.003288 -0.001751 0.010379 0.000000 0.000000 0.000000
# 4 0.000000 0.000000 0.000000 0.099835 0.000000 0.000000
# 5 0.000000 0.000000 0.000000 0.000000 0.038081 0.000000
# 6 0.000000 0.000000 0.000000 0.000000 0.000000 0.045179
#
#
# Mechanical properties :
#
#
# Convention : Reuss Voigt Hill
#
# Bulk Modulus (GPa) = 63.57193 65.62195 64.59694
# Shear Modulus (GPa) = 20.35921 25.45929 22.90925
#
# Velocity S-wave (km/s) = 3.28099 3.66900 3.48041
# Velocity P-wave (km/s) = 6.92581 7.25578 7.09271
#
# Compressibility (1/GPa) = 0.01573021
#
# Stress axis : x y z
#
# Youngs Moduli (GPa) = 62.88261 97.94965 96.34870
#
# Poissons Ratio (x) = 0.52325 0.31676
# Poissons Ratio (y) = 0.33592 0.16868
# Poissons Ratio (z) = 0.20673 0.17148
#
# Static dielectric constant tensor:
#      x y z
#    x 4.292600 0.000000 0.000000 
#    y 0.000000 3.397990 0.000000 
#    z 0.000000 0.000000 3.386610 
# 
# 
# High freq. dielectric constant tensor:
#      x y z
#    x 1.752850 0.000000 0.000000 
#    y 0.000000 1.718740 0.000000 
#    z 0.000000 0.000000 1.732250 
# 
# From -- ./inp_files/1200.got.cif
#   From: 2010.03.12/outbox.cif.g09.slc.cpg/sg28_1_cif.got.tgz:1200.got - 2010.04.14 03:39:34.
