data_PCOD8168212
_publ_section_title
;
Structure prediction by ZEFSAII (Michael W. Deem and Ramdas Pophale) SiO2 
 PCOD8168212
Probable space group: P M A 2
;
_chemical_formula_sum "Si O2"
_cell_formula_units_Z 24
_cell_length_a 8.872421
_cell_length_b 9.083637
_cell_length_c 15.563299
_cell_angle_alpha 90.000000
_cell_angle_beta 90.000000
_cell_angle_gamma 90.000000
_cell_volume 1254.306211
_symmetry_space_group_name_H-M "P M A 2"
_symmetry_group_IT_number 28
_symmetry_cell_setting 'orthorhombic'
loop_
_space_group_symop_operation_xyz
x,y,z
-x,-y,z
1/2-x,y,z
1/2+x,-y,z
loop_
_atom_site_type_symbol
_atom_site_label
_atom_site_fract_x
_atom_site_fract_y
_atom_site_fract_z
Si Si1 0.924574 0.844021 0.315780
Si Si2 0.071182 0.658720 0.166338
Si Si3 0.927686 0.160880 0.632227
Si Si4 0.924244 0.154753 0.818744
Si Si5 0.923524 0.653532 0.485019
Si Si6 0.072694 0.840598 0.004129
O O1 0.750000 0.861378 0.289763
O O2 0.943469 0.756650 0.403531
O O3 0.013700 0.763195 0.241090
O O4 0.000000 0.000000 0.331444
O O5 0.250000 0.644738 0.171928
O O6 0.015518 0.726773 0.075831
O O7 0.000000 0.500000 0.178021
O O8 0.750000 0.144697 0.616200
O O9 0.963226 0.232175 0.727508
O O10 0.996199 0.274990 0.566278
O O11 0.000000 0.000000 0.620754
O O12 0.750000 0.121666 0.822136
O O13 0.971012 0.230540 0.909870
O O14 0.000000 0.000000 0.816161
O O15 0.750000 0.627341 0.508139
O O16 0.000000 0.500000 0.462136
O O17 0.250000 0.863716 0.013669
O O18 0.000000 0.000000 0.018425
#
# Coordination Sequence:
#
# PCOD8168212 Si02
#       6
#     4   4   4   4   4   4
#     4  11  24  41  62  86 111 141 179 223 270 323
#     4  11  23  38  57  81 112 148 184 225 273 325
#     4  10  19  33  56  83 112 146 185 229 273 321
#     4   8  15  29  50  77 108 141 179 224 271 317
#     4  11  24  40  58  81 111 146 182 223 273 327
#     4   9  18  33  54  80 109 142 182 226 271 321
#
# _framework density 19.134084999999999
#
# number of rings (size 3 to 8) (size 9 to 14) (size 15 to 20)
#    0.000    2.000    0.000    3.500    0.000    8.667 
#    0.000    0.833    0.000    2.000    0.000    0.000 
#    0.000    0.000    0.000    0.000    0.000    0.000 
#
# Total GULP energy -297427.427145 kJ/mol
# GULP energy per Si atom -12392.809464 kJ/mol
# Density = 1.909053 g / cm^3
# Si number density = 19.134085 Si / 1000 Ang^3
#
#
#
# Elastic Constant Matrix: (Units=GPa)
#
#
# Indices 1 2 3 4 5 6 
#
# 1 89.8033 48.0299 58.6099 0.0000 0.0000 0.0000
# 2 48.0299 101.8305 42.6405 0.0000 0.0000 0.0000
# 3 58.6099 42.6405 130.6205 0.0000 0.0000 0.0000
# 4 0.0000 0.0000 0.0000 -79.3313 0.0000 0.0000
# 5 0.0000 0.0000 0.0000 0.0000 16.1730 0.0000
# 6 0.0000 0.0000 0.0000 0.0000 0.0000 29.2623
#
#
#
# Elastic Compliance Matrix: (Units=1/GPa)
#
#
# Indices 1 2 3 4 5 6 
#
# 1 0.018516 -0.006086 -0.006321 0.000000 0.000000 0.000000
# 2 -0.006086 0.013376 -0.001635 0.000000 0.000000 0.000000
# 3 -0.006321 -0.001635 0.011026 0.000000 0.000000 0.000000
# 4 0.000000 0.000000 0.000000 -0.012605 0.000000 0.000000
# 5 0.000000 0.000000 0.000000 0.000000 0.061831 0.000000
# 6 0.000000 0.000000 0.000000 0.000000 0.000000 0.034174
#
#
# Mechanical properties :
#
#
# Convention : Reuss Voigt Hill
#
# Bulk Modulus (GPa) = 67.42386 68.97942 68.20164
# Shear Modulus (GPa) = 31.37771 4.75240 18.06506
#
# Velocity S-wave (km/s) = 4.05394 1.57770 3.07600
# Velocity P-wave (km/s) = 7.56483 6.28074 6.95249
#
# Compressibility (1/GPa) = 0.01483155
#
# Stress axis : x y z
#
# Youngs Moduli (GPa) = 54.00611 74.76151 90.69366
#
# Poissons Ratio (x) = 0.45504 0.57332
# Poissons Ratio (y) = 0.32871 0.14833
# Poissons Ratio (z) = 0.34140 0.12227
#
# Static dielectric constant tensor:
#      x y z
#    x 3.677690 0.000000 0.000000 
#    y 0.000000 3.357990 0.000000 
#    z 0.000000 0.000000 4.361380 
# 
# 
# High freq. dielectric constant tensor:
#      x y z
#    x 1.755510 0.000000 0.000000 
#    y 0.000000 1.719530 0.000000 
#    z 0.000000 0.000000 1.774230 
# 
# From -- ./inp_files/6037.got.cif
#   From: 2010.03.12/outbox.cif.g09.slc.cpg/sg28_4_cif.got.tgz:6037.got - 2010.04.14 03:39:34.
