data_PCOD8168566
_publ_section_title
;
Structure prediction by ZEFSAII (Michael W. Deem and Ramdas Pophale) SiO2 
 PCOD8168566
Probable space group: P C A 21
;
_chemical_formula_sum "Si O2"
_cell_formula_units_Z 32
_cell_length_a 13.635103
_cell_length_b 7.317113
_cell_length_c 17.384761
_cell_angle_alpha 90.000000
_cell_angle_beta 90.000000
_cell_angle_gamma 90.000000
_cell_volume 1734.470467
_symmetry_space_group_name_H-M "P C A 21"
_symmetry_group_IT_number 29
_symmetry_cell_setting 'orthorhombic'
loop_
_space_group_symop_operation_xyz
x,y,z
-x,-y,1/2+z
1/2-x,y,1/2+z
1/2+x,-y,z
loop_
_atom_site_type_symbol
_atom_site_label
_atom_site_fract_x
_atom_site_fract_y
_atom_site_fract_z
Si Si1 0.462240 0.457995 0.630060
Si Si2 0.199865 0.400973 0.021618
Si Si3 0.459005 0.043486 0.018195
Si Si4 0.297860 0.101617 0.127558
Si Si5 0.966210 0.732594 0.413750
Si Si6 0.588653 0.958427 0.154630
Si Si7 0.035661 0.231394 0.735690
Si Si8 0.408199 0.458898 0.993391
O O1 0.371147 0.525611 0.575415
O O2 0.439057 0.255233 0.659985
O O3 0.479987 0.590561 0.701967
O O4 0.557908 0.457134 0.575390
O O5 0.250939 0.254829 0.075214
O O6 0.136309 0.297838 0.957115
O O7 0.291953 0.505254 0.983102
O O8 0.554482 0.044691 0.073149
O O9 0.368078 0.976897 0.073127
O O10 0.476829 0.910012 0.946601
O O11 0.436022 0.245388 0.987271
O O12 0.204919 0.996776 0.164145
O O13 0.361064 0.198376 0.193956
O O14 0.941637 0.750228 0.324859
O O15 0.036718 0.558371 0.423720
O O16 0.534967 0.057495 0.225028
#
# Coordination Sequence:
#
# PCOD8168566 Si02
#       8
#     4   4   4   4   4   4   4   4
#     4  10  18  35  63  84 108 153 192 235 282 346
#     4   9  18  37  63  83 108 153 199 233 277 349
#     4  10  18  35  63  84 108 153 192 235 282 346
#     4   9  18  37  63  83 108 153 199 233 277 349
#     4  11  23  39  55  87 124 147 188 250 291 331
#     4  10  19  38  61  87 108 152 198 233 284 347
#     4  11  23  39  55  87 124 147 188 250 291 331
#     4  10  19  38  61  87 108 152 198 233 284 347
#
# _framework density 18.449435000000001
#
# number of rings (size 3 to 8) (size 9 to 14) (size 15 to 20)
#    0.000    2.000    7.500    0.000    0.000    2.000 
#    9.000    0.000    0.000    0.000    0.000    0.000 
#    0.000    0.000    0.000    0.000    0.000    0.000 
#
# Total GULP energy -396517.632797 kJ/mol
# GULP energy per Si atom -12391.176025 kJ/mol
# Density = 1.840744 g / cm^3
# Si number density = 18.449435 Si / 1000 Ang^3
#
#
#
# Elastic Constant Matrix: (Units=GPa)
#
#
# Indices 1 2 3 4 5 6 
#
# 1 142.8580 40.5544 51.8237 0.0000 0.0000 0.0000
# 2 40.5544 67.6750 28.0381 0.0000 0.0000 0.0000
# 3 51.8237 28.0381 107.5892 0.0000 0.0000 0.0000
# 4 0.0000 0.0000 0.0000 26.2420 0.0000 0.0000
# 5 0.0000 0.0000 0.0000 0.0000 16.4751 0.0000
# 6 0.0000 0.0000 0.0000 0.0000 0.0000 25.1701
#
#
#
# Elastic Compliance Matrix: (Units=1/GPa)
#
#
# Indices 1 2 3 4 5 6 
#
# 1 0.009454 -0.004236 -0.003450 0.000000 0.000000 0.000000
# 2 -0.004236 0.018463 -0.002771 0.000000 0.000000 0.000000
# 3 -0.003450 -0.002771 0.011679 0.000000 0.000000 0.000000
# 4 0.000000 0.000000 0.000000 0.038107 0.000000 0.000000
# 5 0.000000 0.000000 0.000000 0.000000 0.060698 0.000000
# 6 0.000000 0.000000 0.000000 0.000000 0.000000 0.039730
#
#
# Mechanical properties :
#
#
# Convention : Reuss Voigt Hill
#
# Bulk Modulus (GPa) = 53.52890 62.10607 57.81749
# Shear Modulus (GPa) = 24.35806 26.75784 25.55795
#
# Velocity S-wave (km/s) = 3.63748 3.81246 3.72600
# Velocity P-wave (km/s) = 6.83509 7.28805 7.06520
#
# Compressibility (1/GPa) = 0.01868150
#
# Stress axis : x y z
#
# Youngs Moduli (GPa) = 105.77577 54.16235 85.62731
#
# Poissons Ratio (x) = 0.22943 0.29540
# Poissons Ratio (y) = 0.44807 0.23728
# Poissons Ratio (z) = 0.36491 0.15009
#
# Static dielectric constant tensor:
#      x y z
#    x 7.540120 0.000000 0.000000 
#    y 0.000000 3.455280 0.000000 
#    z 0.000000 0.000000 3.110440 
# 
# 
# High freq. dielectric constant tensor:
#      x y z
#    x 1.733090 0.000000 0.000000 
#    y 0.000000 1.704440 0.000000 
#    z 0.000000 0.000000 1.683770 
# 
# From -- ./inp_files/5171.got.cif
#   From: 2010.03.12/outbox.cif.g09.slc.cpg/sg29_3_cif.got.tgz:5171.got - 2010.04.14 03:43:10.
