data_PCOD8168528
_publ_section_title
;
Structure prediction by ZEFSAII (Michael W. Deem and Ramdas Pophale) SiO2 
 PCOD8168528
Probable space group: P C A 21
;
_chemical_formula_sum "Si O2"
_cell_formula_units_Z 28
_cell_length_a 5.487317
_cell_length_b 15.902728
_cell_length_c 11.882791
_cell_angle_alpha 90.000000
_cell_angle_beta 90.000000
_cell_angle_gamma 90.000000
_cell_volume 1036.931671
_symmetry_space_group_name_H-M "P C A 21"
_symmetry_group_IT_number 29
_symmetry_cell_setting 'orthorhombic'
loop_
_space_group_symop_operation_xyz
x,y,z
-x,-y,1/2+z
1/2-x,y,1/2+z
1/2+x,-y,z
loop_
_atom_site_type_symbol
_atom_site_label
_atom_site_fract_x
_atom_site_fract_y
_atom_site_fract_z
Si Si1 0.122796 0.526803 0.714210
Si Si2 0.387878 0.719404 0.222966
Si Si3 0.394162 0.223731 0.239588
Si Si4 0.122795 0.460926 0.467709
Si Si5 0.883053 0.190387 0.990603
Si Si6 0.380187 0.266441 0.977472
Si Si7 0.996022 0.051153 0.839765
O O1 0.373457 0.500298 0.780463
O O2 0.103468 0.624118 0.679128
O O3 0.129354 0.472034 0.601567
O O4 0.631370 0.744628 0.295797
O O5 0.133959 0.729290 0.290133
O O6 0.379601 0.786910 0.121306
O O7 0.455587 0.124754 0.248073
O O8 0.354020 0.253419 0.111440
O O9 0.377362 0.496351 0.416283
O O10 0.083017 0.363002 0.442598
O O11 0.621411 0.215115 0.936589
O O12 0.950537 0.092673 0.964271
O O13 0.116501 0.235144 0.927471
O O14 0.737808 0.004408 0.822554
#
# Coordination Sequence:
#
# PCOD8168528 Si02
#       7
#     4   4   4   4   4   4   4
#     4  10  16  25  46  82 115 142 175 226 262 293
#     4  10  19  35  57  87 111 144 191 223 261 319
#     4  10  20  37  58  80 110 141 180 228 273 331
#     4  10  16  25  46  82 115 142 175 226 262 293
#     4  10  20  37  58  80 110 141 180 228 273 331
#     4  10  19  35  57  87 111 144 191 223 261 319
#     4  12  26  44  60  82 108 140 180 226 286 348
#
# _framework density 27.002744
#
# number of rings (size 3 to 8) (size 9 to 14) (size 15 to 20)
#    0.000    1.714    0.000   10.286    0.000    0.000 
#    0.000   17.143    0.000    0.000    0.000   74.000 
#    0.000    0.000    0.000    0.000    0.000    0.000 
#
# Total GULP energy -347021.931873 kJ/mol
# GULP energy per Si atom -12393.640424 kJ/mol
# Density = 2.694128 g / cm^3
# Si number density = 27.002744 Si / 1000 Ang^3
#
#
#
# Elastic Constant Matrix: (Units=GPa)
#
#
# Indices 1 2 3 4 5 6 
#
# 1 297.2360 58.4262 73.3708 0.0000 0.0000 0.0000
# 2 58.4262 152.9491 15.9023 0.0000 0.0000 0.0000
# 3 73.3708 15.9023 106.7147 0.0000 0.0000 0.0000
# 4 0.0000 0.0000 0.0000 13.1977 0.0000 0.0000
# 5 0.0000 0.0000 0.0000 0.0000 51.0646 0.0000
# 6 0.0000 0.0000 0.0000 0.0000 0.0000 62.7992
#
#
#
# Elastic Compliance Matrix: (Units=1/GPa)
#
#
# Indices 1 2 3 4 5 6 
#
# 1 0.004314 -0.001361 -0.002763 0.000000 0.000000 0.000000
# 2 -0.001361 0.007070 -0.000118 0.000000 0.000000 0.000000
# 3 -0.002763 -0.000118 0.011288 0.000000 0.000000 0.000000
# 4 0.000000 0.000000 0.000000 0.075771 0.000000 0.000000
# 5 0.000000 0.000000 0.000000 0.000000 0.019583 0.000000
# 6 0.000000 0.000000 0.000000 0.000000 0.000000 0.015924
#
#
# Mechanical properties :
#
#
# Convention : Reuss Voigt Hill
#
# Bulk Modulus (GPa) = 70.48015 94.69983 82.58999
# Shear Modulus (GPa) = 33.97588 52.69234 43.33411
#
# Velocity S-wave (km/s) = 3.55101 4.42222 4.01035
# Velocity P-wave (km/s) = 6.55520 7.82441 7.21776
#
# Compressibility (1/GPa) = 0.01418839
#
# Stress axis : x y z
#
# Youngs Moduli (GPa) = 231.81123 141.43985 88.58811
#
# Poissons Ratio (x) = 0.19244 0.24479
# Poissons Ratio (y) = 0.31540 0.01046
# Poissons Ratio (z) = 0.64054 0.01671
#
# Static dielectric constant tensor:
#      x y z
#    x 7.037220 0.000000 0.000000 
#    y 0.000000 4.516460 0.000000 
#    z 0.000000 0.000000 5.297150 
# 
# 
# High freq. dielectric constant tensor:
#      x y z
#    x 2.161030 0.000000 0.000000 
#    y 0.000000 2.052470 0.000000 
#    z 0.000000 0.000000 2.150120 
# 
# From -- ./inp_files/4063.got.cif
#   From: 2010.03.12/outbox.cif.g09.slc.cpg/sg29_3_cif.got.tgz:4063.got - 2010.04.14 03:43:10.
