data_PCOD8168768
_publ_section_title
;
Structure prediction by ZEFSAII (Michael W. Deem and Ramdas Pophale) SiO2 
 PCOD8168768
Probable space group: P C A 21
;
_chemical_formula_sum "Si O2"
_cell_formula_units_Z 28
_cell_length_a 16.649382
_cell_length_b 15.061386
_cell_length_c 5.123812
_cell_angle_alpha 90.000000
_cell_angle_beta 90.000000
_cell_angle_gamma 90.000000
_cell_volume 1284.861285
_symmetry_space_group_name_H-M "P C A 21"
_symmetry_group_IT_number 29
_symmetry_cell_setting 'orthorhombic'
loop_
_space_group_symop_operation_xyz
x,y,z
-x,-y,1/2+z
1/2-x,y,1/2+z
1/2+x,-y,z
loop_
_atom_site_type_symbol
_atom_site_label
_atom_site_fract_x
_atom_site_fract_y
_atom_site_fract_z
Si Si1 0.051583 0.746022 0.896340
Si Si2 0.789283 0.507317 0.345579
Si Si3 0.446865 0.010882 0.477555
Si Si4 0.193809 0.867982 0.942755
Si Si5 0.708855 0.713297 0.865487
Si Si6 0.542749 0.794576 0.887711
Si Si7 0.536276 0.461280 0.916108
O O1 0.145089 0.774736 0.919105
O O2 0.037506 0.643486 0.963357
O O3 0.021835 0.767470 0.605798
O O4 0.001513 0.801931 0.108957
O O5 0.761653 0.461455 0.614292
O O6 0.767974 0.610535 0.360485
O O7 0.881671 0.492449 0.285418
O O8 0.415535 0.111573 0.447711
O O9 0.482188 0.002930 0.768086
O O10 0.371792 0.946534 0.426834
O O11 0.258300 0.874719 0.712310
O O12 0.746539 0.759437 0.609731
O O13 0.612990 0.721902 0.878399
O O14 0.471839 0.490333 0.696842
#
# Coordination Sequence:
#
# PCOD8168768 Si02
#       7
#     4   4   4   4   4   4   4
#     4  12  25  43  68  98 132 183 219 283 338 397
#     4  10  21  38  59  84 123 168 206 262 334 387
#     4  12  23  45  70  97 134 178 222 272 337 410
#     4  12  26  44  69 104 140 176 228 283 338 403
#     4  10  21  36  58  91 126 161 210 270 325 380
#     4  12  23  42  70  94 134 173 226 262 343 408
#     4  12  25  42  66  98 133 171 237 282 329 395
#
# _framework density 21.792237
#
# number of rings (size 3 to 8) (size 9 to 14) (size 15 to 20)
#    0.000    0.571    2.857    6.000    0.000    4.571 
#    0.000    0.000    0.000    0.000    0.000    0.000 
#    0.000    0.000    0.000    0.000    0.000    0.000 
#
# Total GULP energy -347258.947762 kJ/mol
# GULP energy per Si atom -12402.105277 kJ/mol
# Density = 2.174264 g / cm^3
# Si number density = 21.792237 Si / 1000 Ang^3
#
#
#
# Elastic Constant Matrix: (Units=GPa)
#
#
# Indices 1 2 3 4 5 6 
#
# 1 105.3655 10.2850 30.4651 0.0000 0.0000 0.0000
# 2 10.2850 84.7050 10.6565 0.0000 0.0000 0.0000
# 3 30.4651 10.6565 115.4520 0.0000 0.0000 0.0000
# 4 0.0000 0.0000 0.0000 20.9657 0.0000 0.0000
# 5 0.0000 0.0000 0.0000 0.0000 38.4074 0.0000
# 6 0.0000 0.0000 0.0000 0.0000 0.0000 40.8773
#
#
#
# Elastic Compliance Matrix: (Units=1/GPa)
#
#
# Indices 1 2 3 4 5 6 
#
# 1 0.010346 -0.000923 -0.002645 0.000000 0.000000 0.000000
# 2 -0.000923 0.012027 -0.000866 0.000000 0.000000 0.000000
# 3 -0.002645 -0.000866 0.009439 0.000000 0.000000 0.000000
# 4 0.000000 0.000000 0.000000 0.047697 0.000000 0.000000
# 5 0.000000 0.000000 0.000000 0.000000 0.026037 0.000000
# 6 0.000000 0.000000 0.000000 0.000000 0.000000 0.024463
#
#
# Mechanical properties :
#
#
# Convention : Reuss Voigt Hill
#
# Bulk Modulus (GPa) = 43.58690 45.37062 44.47876
# Shear Modulus (GPa) = 34.12371 36.99115 35.55743
#
# Velocity S-wave (km/s) = 3.96139 4.12448 4.04376
# Velocity P-wave (km/s) = 6.40063 6.59898 6.50056
#
# Compressibility (1/GPa) = 0.02294267
#
# Stress axis : x y z
#
# Youngs Moduli (GPa) = 96.65948 83.14756 105.93820
#
# Poissons Ratio (x) = 0.07678 0.28018
# Poissons Ratio (y) = 0.08926 0.09179
# Poissons Ratio (z) = 0.25564 0.07204
#
# Static dielectric constant tensor:
#      x y z
#    x 3.840300 0.000000 0.000000 
#    y 0.000000 3.909540 0.000000 
#    z 0.000000 0.000000 4.374660 
# 
# 
# High freq. dielectric constant tensor:
#      x y z
#    x 1.854490 0.000000 0.000000 
#    y 0.000000 1.845650 0.000000 
#    z 0.000000 0.000000 1.881520 
# 
# From -- ./inp_files/244.got.cif
#   From: 2010.03.12/outbox.cif.g09.slc.cpg/sg29_1_cif.got.tgz:244.got - 2010.04.14 03:43:10.
