data_PCOD8168215
_publ_section_title
;
Structure prediction by ZEFSAII (Michael W. Deem and Ramdas Pophale) SiO2 
 PCOD8168215
Probable space group: P M A 2
;
_chemical_formula_sum "Si O2"
_cell_formula_units_Z 32
_cell_length_a 13.696812
_cell_length_b 11.556370
_cell_length_c 9.565663
_cell_angle_alpha 90.000000
_cell_angle_beta 90.000000
_cell_angle_gamma 90.000000
_cell_volume 1514.105055
_symmetry_space_group_name_H-M "P M A 2"
_symmetry_group_IT_number 28
_symmetry_cell_setting 'orthorhombic'
loop_
_space_group_symop_operation_xyz
x,y,z
-x,-y,z
1/2-x,y,z
1/2+x,-y,z
loop_
_atom_site_type_symbol
_atom_site_label
_atom_site_fract_x
_atom_site_fract_y
_atom_site_fract_z
Si Si1 0.888831 0.981987 0.013030
Si Si2 0.070074 0.209078 0.796787
Si Si3 0.861412 0.404852 0.122287
Si Si4 0.864076 0.661215 0.035456
Si Si5 0.999159 0.751116 0.261350
Si Si6 0.637983 0.820801 0.484253
Si Si7 0.856035 0.218742 0.883561
Si Si8 0.856185 0.036573 0.305101
O O1 0.846349 0.953863 0.167557
O O2 0.874279 0.885278 0.894526
O O3 0.000000 0.000000 0.036556
O O4 0.838514 0.101291 0.967689
O O5 0.112985 0.193842 0.645056
O O6 0.951251 0.202476 0.784236
O O7 0.105019 0.327998 0.871494
O O8 0.750000 0.402452 0.171743
O O9 0.894592 0.533898 0.084930
O O10 0.926707 0.356984 0.250171
O O11 0.878929 0.323298 0.988699
O O12 0.750000 0.685192 0.058653
O O13 0.929951 0.754230 0.122456
O O14 0.060071 0.869234 0.279054
O O15 0.930243 0.733196 0.396134
O O16 0.750000 0.786312 0.458195
O O17 0.617491 0.952992 0.435420
O O18 0.750000 0.243112 0.806655
O O19 0.750000 0.095217 0.333594
#
# Coordination Sequence:
#
# PCOD8168215 Si02
#       8
#     4   4   4   4   4   4   4   4
#     4  10  19  33  57  89 122 161 212 267 322 383
#     4  11  23  41  62  92 130 173 216 262 328 394
#     4  10  21  39  66  99 127 157 211 277 335 386
#     4  11  23  39  67  97 126 165 221 278 330 389
#     4  12  21  39  63  93 125 168 219 275 324 382
#     4  11  26  42  58  87 134 181 220 263 319 393
#     4  10  20  36  63  95 126 161 208 274 331 382
#     4  11  22  37  59  91 129 173 215 267 328 389
#
# _framework density 21.134598
#
# number of rings (size 3 to 8) (size 9 to 14) (size 15 to 20)
#    0.000    1.250    2.500    4.500    0.000    6.000 
#    0.000    2.500    5.500    0.750    0.000    0.000 
#    0.000    0.000    0.000    0.000    0.000    0.000 
#
# Total GULP energy -396506.298247 kJ/mol
# GULP energy per Si atom -12390.821820 kJ/mol
# Density = 2.108649 g / cm^3
# Si number density = 21.134598 Si / 1000 Ang^3
#
#
#
# Elastic Constant Matrix: (Units=GPa)
#
#
# Indices 1 2 3 4 5 6 
#
# 1 151.5739 55.5122 57.6032 0.0000 0.0000 0.0000
# 2 55.5122 100.0709 50.8330 0.0000 0.0000 0.0000
# 3 57.6032 50.8330 137.8344 0.0000 0.0000 0.0000
# 4 0.0000 0.0000 0.0000 20.1215 0.0000 0.0000
# 5 0.0000 0.0000 0.0000 0.0000 33.0345 0.0000
# 6 0.0000 0.0000 0.0000 0.0000 0.0000 16.4877
#
#
#
# Elastic Compliance Matrix: (Units=1/GPa)
#
#
# Indices 1 2 3 4 5 6 
#
# 1 0.008845 -0.003727 -0.002322 0.000000 0.000000 0.000000
# 2 -0.003727 0.013867 -0.003557 0.000000 0.000000 0.000000
# 3 -0.002322 -0.003557 0.009537 0.000000 0.000000 0.000000
# 4 0.000000 0.000000 0.000000 0.049698 0.000000 0.000000
# 5 0.000000 0.000000 0.000000 0.000000 0.030271 0.000000
# 6 0.000000 0.000000 0.000000 0.000000 0.000000 0.060651
#
#
# Mechanical properties :
#
#
# Convention : Reuss Voigt Hill
#
# Bulk Modulus (GPa) = 76.69871 79.70844 78.20358
# Shear Modulus (GPa) = 25.45482 28.96413 27.20947
#
# Velocity S-wave (km/s) = 3.47423 3.70599 3.59198
# Velocity P-wave (km/s) = 7.24314 7.49060 7.36791
#
# Compressibility (1/GPa) = 0.01303803
#
# Stress axis : x y z
#
# Youngs Moduli (GPa) = 113.06055 72.11348 104.85404
#
# Poissons Ratio (x) = 0.26877 0.24346
# Poissons Ratio (y) = 0.42138 0.37292
# Poissons Ratio (z) = 0.26251 0.25647
#
# Static dielectric constant tensor:
#      x y z
#    x 4.270070 0.000000 0.000000 
#    y 0.000000 3.147890 0.000000 
#    z 0.000000 0.000000 3.580140 
# 
# 
# High freq. dielectric constant tensor:
#      x y z
#    x 1.869110 0.000000 0.000000 
#    y 0.000000 1.812490 0.000000 
#    z 0.000000 0.000000 1.784660 
# 
# From -- ./inp_files/3564.got.cif
#   From: 2010.03.12/outbox.cif.g09.slc.cpg/sg28_2_cif.got.tgz:3564.got - 2010.04.14 03:39:34.
