data_PCOD8168658
_publ_section_title
;
Structure prediction by ZEFSAII (Michael W. Deem and Ramdas Pophale) SiO2 
 PCOD8168658
Probable space group: P C A 21
;
_chemical_formula_sum "Si O2"
_cell_formula_units_Z 32
_cell_length_a 20.696057
_cell_length_b 8.075495
_cell_length_c 10.071604
_cell_angle_alpha 90.000000
_cell_angle_beta 90.000000
_cell_angle_gamma 90.000000
_cell_volume 1683.276290
_symmetry_space_group_name_H-M "P C A 21"
_symmetry_group_IT_number 29
_symmetry_cell_setting 'orthorhombic'
loop_
_space_group_symop_operation_xyz
x,y,z
-x,-y,1/2+z
1/2-x,y,1/2+z
1/2+x,-y,z
loop_
_atom_site_type_symbol
_atom_site_label
_atom_site_fract_x
_atom_site_fract_y
_atom_site_fract_z
Si Si1 0.114252 0.063071 0.777320
Si Si2 0.479058 0.703016 0.551741
Si Si3 0.300980 0.380305 0.279976
Si Si4 0.183619 0.387472 0.478367
Si Si5 0.406587 0.094197 0.979940
Si Si6 0.068624 0.597578 0.547701
Si Si7 0.469125 0.827230 0.826863
Si Si8 0.612803 0.300714 0.817553
O O1 0.156197 0.221592 0.827409
O O2 0.122875 0.037669 0.620050
O O3 0.039422 0.091459 0.812624
O O4 0.138405 0.888547 0.843199
O O5 0.518027 0.858131 0.493870
O O6 0.533387 0.570019 0.591463
O O7 0.443640 0.752402 0.688254
O O8 0.428435 0.639708 0.443901
O O9 0.237223 0.399235 0.366288
O O10 0.334343 0.557781 0.300029
O O11 0.285049 0.354748 0.123827
O O12 0.137925 0.240336 0.425084
O O13 0.139778 0.553341 0.489175
O O14 0.410592 0.947547 0.872678
O O15 0.024953 0.685945 0.438197
O O16 0.071640 0.708337 0.681022
#
# Coordination Sequence:
#
# PCOD8168658 Si02
#       8
#     4   4   4   4   4   4   4   4
#     4  10  20  37  59  87 114 154 187 226 297 345
#     4  10  20  33  53  90 116 144 190 229 281 351
#     4  10  22  42  60  80 111 153 195 241 284 343
#     4   9  21  41  59  79 109 151 198 234 288 339
#     4   9  18  36  57  78 118 147 181 234 285 344
#     4  10  20  36  60  80 114 162 181 230 296 343
#     4  11  19  34  58  89 118 146 192 232 282 357
#     4  11  20  37  58  81 120 149 182 236 289 340
#
# _framework density 19.010546999999999
#
# number of rings (size 3 to 8) (size 9 to 14) (size 15 to 20)
#    0.000    2.000    2.500    3.750    0.000    1.000 
#    4.500    1.250    0.000    0.000    0.000    0.000 
#    0.000    0.000    0.000    0.000    0.000    0.000 
#
# Total GULP energy -396577.055997 kJ/mol
# GULP energy per Si atom -12393.033000 kJ/mol
# Density = 1.896728 g / cm^3
# Si number density = 19.010547 Si / 1000 Ang^3
#
#
#
# Elastic Constant Matrix: (Units=GPa)
#
#
# Indices 1 2 3 4 5 6 
#
# 1 53.7948 29.7421 47.4556 0.0000 0.0000 0.0000
# 2 29.7421 106.2500 35.5894 0.0000 0.0000 0.0000
# 3 47.4556 35.5894 113.3785 0.0000 0.0000 0.0000
# 4 0.0000 0.0000 0.0000 29.0668 0.0000 0.0000
# 5 0.0000 0.0000 0.0000 0.0000 31.7897 0.0000
# 6 0.0000 0.0000 0.0000 0.0000 0.0000 18.9913
#
#
#
# Elastic Compliance Matrix: (Units=1/GPa)
#
#
# Indices 1 2 3 4 5 6 
#
# 1 0.031632 -0.004939 -0.011689 0.000000 0.000000 0.000000
# 2 -0.004939 0.011289 -0.001476 0.000000 0.000000 0.000000
# 3 -0.011689 -0.001476 0.014176 0.000000 0.000000 0.000000
# 4 0.000000 0.000000 0.000000 0.034404 0.000000 0.000000
# 5 0.000000 0.000000 0.000000 0.000000 0.031457 0.000000
# 6 0.000000 0.000000 0.000000 0.000000 0.000000 0.052656
#
#
# Mechanical properties :
#
#
# Convention : Reuss Voigt Hill
#
# Bulk Modulus (GPa) = 47.87606 55.44415 51.66011
# Shear Modulus (GPa) = 22.85351 26.67862 24.76607
#
# Velocity S-wave (km/s) = 3.47096 3.75021 3.61328
# Velocity P-wave (km/s) = 6.42667 6.92678 6.68141
#
# Compressibility (1/GPa) = 0.02088726
#
# Stress axis : x y z
#
# Youngs Moduli (GPa) = 31.61375 88.58312 70.54120
#
# Poissons Ratio (x) = 0.43752 0.82458
# Poissons Ratio (y) = 0.15614 0.10414
# Poissons Ratio (z) = 0.36955 0.13077
#
# Static dielectric constant tensor:
#      x y z
#    x 3.106770 0.000000 0.000000 
#    y 0.000000 3.637200 0.000000 
#    z 0.000000 0.000000 3.490300 
# 
# 
# High freq. dielectric constant tensor:
#      x y z
#    x 1.700680 0.000000 0.000000 
#    y 0.000000 1.753160 0.000000 
#    z 0.000000 0.000000 1.738080 
# 
# From -- ./inp_files/2253.got.cif
#   From: 2010.03.12/outbox.cif.g09.slc.cpg/sg29_2_cif.got.tgz:2253.got - 2010.04.14 03:43:10.
