data_PCOD8168603
_publ_section_title
;
Structure prediction by ZEFSAII (Michael W. Deem and Ramdas Pophale) SiO2 
 PCOD8168603
Probable space group: P C A 21
;
_chemical_formula_sum "Si O2"
_cell_formula_units_Z 20
_cell_length_a 16.423068
_cell_length_b 10.374089
_cell_length_c 5.263796
_cell_angle_alpha 90.000000
_cell_angle_beta 90.000000
_cell_angle_gamma 90.000000
_cell_volume 896.815922
_symmetry_space_group_name_H-M "P C A 21"
_symmetry_group_IT_number 29
_symmetry_cell_setting 'orthorhombic'
loop_
_space_group_symop_operation_xyz
x,y,z
-x,-y,1/2+z
1/2-x,y,1/2+z
1/2+x,-y,z
loop_
_atom_site_type_symbol
_atom_site_label
_atom_site_fract_x
_atom_site_fract_y
_atom_site_fract_z
Si Si1 0.041099 0.552039 0.744110
Si Si2 0.844245 0.655753 0.339209
Si Si3 0.058597 0.853911 0.767729
Si Si4 0.665222 0.763390 0.339708
Si Si5 0.894918 0.019673 0.767723
O O1 0.132533 0.492456 0.784730
O O2 0.045815 0.702713 0.791082
O O3 0.014682 0.517036 0.457279
O O4 0.748846 0.684045 0.379148
O O5 0.886126 0.701087 0.605500
O O6 0.881576 0.742526 0.108154
O O7 0.106314 0.884470 0.507142
O O8 0.112312 0.900294 0.008486
O O9 0.972947 0.926014 0.775980
O O10 0.679553 0.916206 0.289275
#
# Coordination Sequence:
#
# PCOD8168603 Si02
#       5
#     4   4   4   4   4
#     4  12  23  37  59  89 124 159 197 250 307 357
#     4  10  21  36  59  86 111 150 204 244 288 357
#     4  10  21  33  54  86 117 146 185 239 294 345
#     4  10  20  37  61  82 111 154 199 246 289 355
#     4  10  19  35  55  81 115 149 187 235 292 350
#
# _framework density 22.301120999999998
#
# number of rings (size 3 to 8) (size 9 to 14) (size 15 to 20)
#    0.000    1.600    0.000    6.000    0.000    3.200 
#    0.000    0.000    0.000   28.800    0.000    0.000 
#    0.000    0.000    0.000    0.000    0.000    0.000 
#
# Total GULP energy -247818.617481 kJ/mol
# GULP energy per Si atom -12390.930874 kJ/mol
# Density = 2.225036 g / cm^3
# Si number density = 22.301121 Si / 1000 Ang^3
#
#
#
# Elastic Constant Matrix: (Units=GPa)
#
#
# Indices 1 2 3 4 5 6 
#
# 1 39.2955 11.3572 -5.9733 0.0000 0.0000 0.0000
# 2 11.3572 127.8469 36.9204 0.0000 0.0000 0.0000
# 3 -5.9733 36.9204 192.6572 0.0000 0.0000 0.0000
# 4 0.0000 0.0000 0.0000 39.4846 0.0000 0.0000
# 5 0.0000 0.0000 0.0000 0.0000 8.9683 0.0000
# 6 0.0000 0.0000 0.0000 0.0000 0.0000 19.2994
#
#
#
# Elastic Compliance Matrix: (Units=1/GPa)
#
#
# Indices 1 2 3 4 5 6 
#
# 1 0.026444 -0.002737 0.001344 0.000000 0.000000 0.000000
# 2 -0.002737 0.008563 -0.001726 0.000000 0.000000 0.000000
# 3 0.001344 -0.001726 0.005563 0.000000 0.000000 0.000000
# 4 0.000000 0.000000 0.000000 0.025326 0.000000 0.000000
# 5 0.000000 0.000000 0.000000 0.000000 0.111504 0.000000
# 6 0.000000 0.000000 0.000000 0.000000 0.000000 0.051815
#
#
# Mechanical properties :
#
#
# Convention : Reuss Voigt Hill
#
# Bulk Modulus (GPa) = 29.12694 49.37868 39.25281
# Shear Modulus (GPa) = 20.25132 34.71680 27.48406
#
# Velocity S-wave (km/s) = 3.01671 3.94982 3.51437
# Velocity P-wave (km/s) = 5.02227 6.55678 5.84014
#
# Compressibility (1/GPa) = 0.03433248
#
# Stress axis : x y z
#
# Youngs Moduli (GPa) = 37.81615 116.77525 179.75882
#
# Poissons Ratio (x) = 0.31966 -0.24168
# Poissons Ratio (y) = 0.10352 0.31026
# Poissons Ratio (z) = -0.05084 0.20155
#
# Static dielectric constant tensor:
#      x y z
#    x 3.698860 0.000000 0.000000 
#    y 0.000000 4.088390 0.000000 
#    z 0.000000 0.000000 5.279280 
# 
# 
# High freq. dielectric constant tensor:
#      x y z
#    x 1.829660 0.000000 0.000000 
#    y 0.000000 1.870610 0.000000 
#    z 0.000000 0.000000 1.921800 
# 
# From -- ./inp_files/330.got.cif
#   From: 2010.03.12/outbox.cif.g09.slc.cpg/sg29_1_cif.got.tgz:330.got - 2010.04.14 03:43:10.
