data_PCOD8168323
_publ_section_title
;
Structure prediction by ZEFSAII (Michael W. Deem and Ramdas Pophale) SiO2 
 PCOD8168323
Probable space group: P M A 2
;
_chemical_formula_sum "Si O2"
_cell_formula_units_Z 28
_cell_length_a 8.907708
_cell_length_b 9.848070
_cell_length_c 17.302920
_cell_angle_alpha 90.000000
_cell_angle_beta 90.000000
_cell_angle_gamma 90.000000
_cell_volume 1517.876716
_symmetry_space_group_name_H-M "P M A 2"
_symmetry_group_IT_number 28
_symmetry_cell_setting 'orthorhombic'
loop_
_space_group_symop_operation_xyz
x,y,z
-x,-y,z
1/2-x,y,z
1/2+x,-y,z
loop_
_atom_site_type_symbol
_atom_site_label
_atom_site_fract_x
_atom_site_fract_y
_atom_site_fract_z
Si Si1 0.425120 0.637886 0.905180
Si Si2 0.075242 0.361563 0.484148
Si Si3 0.571592 0.851157 0.612418
Si Si4 0.572695 0.639813 0.307901
Si Si5 0.924652 0.141269 0.022768
Si Si6 0.925958 0.143814 0.197692
Si Si7 0.072832 0.643140 0.727161
O O1 0.500000 0.500000 0.932336
O O2 0.250000 0.621195 0.918276
O O3 0.463154 0.671831 0.816651
O O4 0.491846 0.752884 0.961292
O O5 0.250000 0.388937 0.490652
O O6 0.027527 0.232158 0.535221
O O7 0.026560 0.329830 0.396454
O O8 0.000000 0.500000 0.515155
O O9 0.750000 0.864684 0.622698
O O10 0.502941 0.769126 0.684016
O O11 0.500000 0.000000 0.607165
O O12 0.500000 0.500000 0.279947
O O13 0.750000 0.632331 0.296935
O O14 0.504940 0.755378 0.255587
O O15 0.750000 0.120361 0.009325
O O16 0.957846 0.191516 0.109911
O O17 0.000000 0.000000 0.004412
O O18 0.750000 0.135580 0.215458
O O19 0.000000 0.000000 0.213271
O O20 0.250000 0.637260 0.710047
O O21 0.000000 0.500000 0.700827
#
# Coordination Sequence:
#
# PCOD8168323 Si02
#       7
#     4   4   4   4   4   4   4
#     4   9  19  35  54  78 106 136 173 215 258 307
#     4   9  20  37  57  79 104 137 175 214 259 313
#     4  11  23  38  55  79 109 140 176 217 262 310
#     4  10  20  36  56  80 108 138 175 217 262 311
#     4   9  19  35  53  75 104 138 176 215 258 310
#     4  10  20  35  54  77 106 141 179 218 263 314
#     4  10  20  36  57  80 107 140 177 216 261 313
#
# _framework density 18.446821
#
# number of rings (size 3 to 8) (size 9 to 14) (size 15 to 20)
#    0.000    2.286    0.000    2.143    0.000    6.286 
#    0.000    4.286    0.000    0.000    0.000    0.000 
#    0.000    0.000    0.000    0.000    0.000    0.000 
#
# Total GULP energy -347236.984760 kJ/mol
# GULP energy per Si atom -12401.320884 kJ/mol
# Density = 1.840484 g / cm^3
# Si number density = 18.446821 Si / 1000 Ang^3
#
#
#
# Elastic Constant Matrix: (Units=GPa)
#
#
# Indices 1 2 3 4 5 6 
#
# 1 79.5637 70.4019 54.0856 0.0000 0.0000 0.0000
# 2 70.4019 155.0634 91.7840 0.0000 0.0000 0.0000
# 3 54.0856 91.7840 107.4586 0.0000 0.0000 0.0000
# 4 0.0000 0.0000 0.0000 44.5757 0.0000 0.0000
# 5 0.0000 0.0000 0.0000 0.0000 26.4973 0.0000
# 6 0.0000 0.0000 0.0000 0.0000 0.0000 39.5733
#
#
#
# Elastic Compliance Matrix: (Units=1/GPa)
#
#
# Indices 1 2 3 4 5 6 
#
# 1 0.022372 -0.007063 -0.005227 0.000000 0.000000 0.000000
# 2 -0.007063 0.015273 -0.009490 0.000000 0.000000 0.000000
# 3 -0.005227 -0.009490 0.020043 0.000000 0.000000 0.000000
# 4 0.000000 0.000000 0.000000 0.022434 0.000000 0.000000
# 5 0.000000 0.000000 0.000000 0.000000 0.037740 0.000000
# 6 0.000000 0.000000 0.000000 0.000000 0.000000 0.025270
#
#
# Mechanical properties :
#
#
# Convention : Reuss Voigt Hill
#
# Bulk Modulus (GPa) = 70.78935 86.06987 78.42961
# Shear Modulus (GPa) = 26.12314 30.51687 28.32001
#
# Velocity S-wave (km/s) = 3.76724 4.07174 3.92244
# Velocity P-wave (km/s) = 7.57502 8.29850 7.94500
#
# Compressibility (1/GPa) = 0.01412642
#
# Stress axis : x y z
#
# Youngs Moduli (GPa) = 44.69936 65.47362 49.89301
#
# Poissons Ratio (x) = 0.46245 0.26080
# Poissons Ratio (y) = 0.31572 0.47351
# Poissons Ratio (z) = 0.23365 0.62137
#
# Static dielectric constant tensor:
#      x y z
#    x 3.457190 0.000000 0.000000 
#    y 0.000000 3.401830 0.000000 
#    z 0.000000 0.000000 3.618250 
# 
# 
# High freq. dielectric constant tensor:
#      x y z
#    x 1.723000 0.000000 0.000000 
#    y 0.000000 1.717200 0.000000 
#    z 0.000000 0.000000 1.722900 
# 
# From -- ./inp_files/6729.got.cif
#   From: 2010.03.12/outbox.cif.g09.slc.cpg/sg28_4_cif.got.tgz:6729.got - 2010.04.14 03:39:34.
