data_PCOD8168164
_publ_section_title
;
Structure prediction by ZEFSAII (Michael W. Deem and Ramdas Pophale) SiO2 
 PCOD8168164
Probable space group: P M A 2
;
_chemical_formula_sum "Si O2"
_cell_formula_units_Z 32
_cell_length_a 8.834463
_cell_length_b 14.328368
_cell_length_c 15.577219
_cell_angle_alpha 90.000000
_cell_angle_beta 90.000000
_cell_angle_gamma 90.000000
_cell_volume 1971.817919
_symmetry_space_group_name_H-M "P M A 2"
_symmetry_group_IT_number 28
_symmetry_cell_setting 'orthorhombic'
loop_
_space_group_symop_operation_xyz
x,y,z
-x,-y,z
1/2-x,y,z
1/2+x,-y,z
loop_
_atom_site_type_symbol
_atom_site_label
_atom_site_fract_x
_atom_site_fract_y
_atom_site_fract_z
Si Si1 0.926854 0.405006 0.064260
Si Si2 0.072191 0.218049 0.310194
Si Si3 0.070085 0.788307 0.995394
Si Si4 0.427378 0.899034 0.644958
Si Si5 0.072551 0.899207 0.833346
Si Si6 0.571609 0.403531 0.263793
Si Si7 0.927079 0.898924 0.477679
Si Si8 0.429289 0.899652 0.160288
O O1 0.750000 0.415246 0.050462
O O2 0.992783 0.316380 0.011498
O O3 0.966526 0.388566 0.163686
O O4 0.000000 0.500000 0.028731
O O5 0.250000 0.216859 0.290141
O O6 0.033368 0.167551 0.398948
O O7 0.010547 0.322988 0.317830
O O8 0.982106 0.168031 0.234982
O O9 0.250000 0.783672 0.997668
O O10 0.013551 0.857877 0.069915
O O11 0.009064 0.827074 0.904393
O O12 0.250000 0.905510 0.627756
O O13 0.461731 0.854643 0.738943
O O14 0.505693 0.848065 0.563715
O O15 0.500000 0.000000 0.647043
O O16 0.250000 0.914282 0.845992
O O17 0.000000 0.000000 0.846612
O O18 0.500000 0.500000 0.296440
O O19 0.750000 0.402569 0.281428
O O20 0.750000 0.913175 0.489523
O O21 0.000000 0.000000 0.461238
O O22 0.250000 0.908081 0.163772
O O23 0.500000 0.000000 0.174914
#
# Coordination Sequence:
#
# PCOD8168164 Si02
#       8
#     4   4   4   4   4   4   4   4
#     4   9  17  31  48  67  89 119 153 191 233 272
#     4  11  22  34  48  69  94 125 162 197 236 281
#     4   9  17  31  47  65  93 125 156 188 230 277
#     4   9  16  27  45  67  89 117 153 192 235 276
#     4   9  17  29  46  67  93 123 154 190 228 275
#     4  10  19  33  52  72  94 123 157 197 241 281
#     4  10  20  32  47  67  93 125 158 195 237 279
#     4  11  21  33  46  64  93 130 164 193 230 274
#
# _framework density 16.228680000000001
#
# number of rings (size 3 to 8) (size 9 to 14) (size 15 to 20)
#    0.000    2.250    1.250    3.375    0.000    4.000 
#    0.000    1.250    0.000    0.000    0.000    0.875 
#    0.000    4.000    0.000    0.000    0.000    0.000 
#
# Total GULP energy -396680.560522 kJ/mol
# GULP energy per Si atom -12396.267516 kJ/mol
# Density = 1.619174 g / cm^3
# Si number density = 16.228680 Si / 1000 Ang^3
#
#
#
# Elastic Constant Matrix: (Units=GPa)
#
#
# Indices 1 2 3 4 5 6 
#
# 1 59.9280 33.2255 43.5500 0.0000 0.0000 0.0000
# 2 33.2255 108.6995 52.5195 0.0000 0.0000 0.0000
# 3 43.5500 52.5195 119.3660 0.0000 0.0000 0.0000
# 4 0.0000 0.0000 0.0000 9.8333 0.0000 0.0000
# 5 0.0000 0.0000 0.0000 0.0000 7.2416 0.0000
# 6 0.0000 0.0000 0.0000 0.0000 0.0000 24.8423
#
#
#
# Elastic Compliance Matrix: (Units=1/GPa)
#
#
# Indices 1 2 3 4 5 6 
#
# 1 0.023965 -0.003938 -0.007011 0.000000 0.000000 0.000000
# 2 -0.003938 0.012330 -0.003989 0.000000 0.000000 0.000000
# 3 -0.007011 -0.003989 0.012690 0.000000 0.000000 0.000000
# 4 0.000000 0.000000 0.000000 0.101696 0.000000 0.000000
# 5 0.000000 0.000000 0.000000 0.000000 0.138091 0.000000
# 6 0.000000 0.000000 0.000000 0.000000 0.000000 0.040254
#
#
# Mechanical properties :
#
#
# Convention : Reuss Voigt Hill
#
# Bulk Modulus (GPa) = 52.32532 60.73148 56.52840
# Shear Modulus (GPa) = 13.68847 18.96333 16.32590
#
# Velocity S-wave (km/s) = 2.90741 3.42205 3.17518
# Velocity P-wave (km/s) = 6.60176 7.28817 6.95344
#
# Compressibility (1/GPa) = 0.01911121
#
# Stress axis : x y z
#
# Youngs Moduli (GPa) = 41.72807 81.10017 78.79992
#
# Poissons Ratio (x) = 0.31935 0.55245
# Poissons Ratio (y) = 0.16432 0.31430
# Poissons Ratio (z) = 0.29255 0.32347
#
# Static dielectric constant tensor:
#      x y z
#    x 3.086750 0.000000 0.000000 
#    y 0.000000 3.108770 0.000000 
#    z 0.000000 0.000000 3.526830 
# 
# 
# High freq. dielectric constant tensor:
#      x y z
#    x 1.627100 0.000000 0.000000 
#    y 0.000000 1.604920 0.000000 
#    z 0.000000 0.000000 1.617860 
# 
# From -- ./inp_files/6415.got.cif
#   From: 2010.03.12/outbox.cif.g09.slc.cpg/sg28_4_cif.got.tgz:6415.got - 2010.04.14 03:39:34.
