data_PCOD8168005
_publ_section_title
;
Structure prediction by ZEFSAII (Michael W. Deem and Ramdas Pophale) SiO2 
 PCOD8168005
Probable space group: P M A 2
;
_chemical_formula_sum "Si O2"
_cell_formula_units_Z 32
_cell_length_a 8.995663
_cell_length_b 14.396715
_cell_length_c 15.517707
_cell_angle_alpha 90.000000
_cell_angle_beta 90.000000
_cell_angle_gamma 90.000000
_cell_volume 2009.667143
_symmetry_space_group_name_H-M "P M A 2"
_symmetry_group_IT_number 28
_symmetry_cell_setting 'orthorhombic'
loop_
_space_group_symop_operation_xyz
x,y,z
-x,-y,z
1/2-x,y,z
1/2+x,-y,z
loop_
_atom_site_type_symbol
_atom_site_label
_atom_site_fract_x
_atom_site_fract_y
_atom_site_fract_z
Si Si1 0.424156 0.713394 0.750000
Si Si2 0.425272 0.598516 0.581968
Si Si3 0.077611 0.400785 0.894740
Si Si4 0.077072 0.401466 0.085727
Si Si5 0.572750 0.398783 0.251522
Si Si6 0.426135 0.711480 0.419012
Si Si7 0.075952 0.908016 0.678142
Si Si8 0.425162 0.907051 0.480637
O O1 0.250000 0.704072 0.768563
O O2 0.469967 0.656968 0.665446
O O3 0.512772 0.675754 0.831410
O O4 0.471604 0.820166 0.735684
O O5 0.500000 0.500000 0.590390
O O6 0.250000 0.585257 0.574954
O O7 0.489774 0.650597 0.497915
O O8 0.250000 0.417422 0.874896
O O9 0.000000 0.500000 0.881878
O O10 0.055515 0.357254 0.990937
O O11 0.250000 0.411414 0.109568
O O12 0.000000 0.500000 0.080247
O O13 0.991529 0.349525 0.164192
O O14 0.500000 0.500000 0.264595
O O15 0.750000 0.408220 0.246840
O O16 0.520604 0.333014 0.329516
O O17 0.250000 0.711729 0.426649
O O18 0.482762 0.817861 0.426518
O O19 0.250000 0.923224 0.682023
O O20 0.025757 0.891143 0.579584
O O21 0.000000 0.000000 0.716815
O O22 0.250000 0.918958 0.472528
O O23 0.500000 0.000000 0.442616
#
# Coordination Sequence:
#
# PCOD8168005 Si02
#       8
#     4   4   4   4   4   4   4   4
#     4  10  19  31  47  66  91 123 155 186 226 269
#     4  10  19  31  43  59  88 125 156 181 212 256
#     4  10  20  32  47  67  92 122 154 189 229 271
#     4   9  17  30  46  64  88 117 148 187 230 267
#     4  10  18  28  45  67  90 120 153 186 222 263
#     4   9  17  30  46  63  89 123 152 179 220 268
#     4   9  17  30  48  67  88 118 152 190 231 269
#     4   9  16  30  48  65  87 116 150 188 226 265
#
# _framework density 15.923033999999999
#
# number of rings (size 3 to 8) (size 9 to 14) (size 15 to 20)
#    0.000    2.500    1.250    2.625    0.000    3.500 
#    0.000    2.500    0.000    0.000    0.000    0.875 
#    0.000    2.000    0.000    0.000    0.000    0.000 
#
# Total GULP energy -396645.858781 kJ/mol
# GULP energy per Si atom -12395.183087 kJ/mol
# Density = 1.588679 g / cm^3
# Si number density = 15.923034 Si / 1000 Ang^3
#
#
#
# Elastic Constant Matrix: (Units=GPa)
#
#
# Indices 1 2 3 4 5 6 
#
# 1 52.7646 43.0584 48.6697 0.0000 0.0000 0.0000
# 2 43.0584 122.4151 66.2144 0.0000 0.0000 0.0000
# 3 48.6697 66.2144 126.7896 0.0000 0.0000 0.0000
# 4 0.0000 0.0000 0.0000 13.7926 0.0000 0.0000
# 5 0.0000 0.0000 0.0000 0.0000 28.4846 0.0000
# 6 0.0000 0.0000 0.0000 0.0000 0.0000 24.3882
#
#
#
# Elastic Compliance Matrix: (Units=1/GPa)
#
#
# Indices 1 2 3 4 5 6 
#
# 1 0.032745 -0.006577 -0.009135 0.000000 0.000000 0.000000
# 2 -0.006577 0.012706 -0.004111 0.000000 0.000000 0.000000
# 3 -0.009135 -0.004111 0.013541 0.000000 0.000000 0.000000
# 4 0.000000 0.000000 0.000000 0.072503 0.000000 0.000000
# 5 0.000000 0.000000 0.000000 0.000000 0.035107 0.000000
# 6 0.000000 0.000000 0.000000 0.000000 0.000000 0.041003
#
#
# Mechanical properties :
#
#
# Convention : Reuss Voigt Hill
#
# Bulk Modulus (GPa) = 51.68968 68.65048 60.17008
# Shear Modulus (GPa) = 19.70845 22.93484 21.32165
#
# Velocity S-wave (km/s) = 3.52196 3.79932 3.66327
# Velocity P-wave (km/s) = 7.00511 7.90278 7.46745
#
# Compressibility (1/GPa) = 0.01934622
#
# Stress axis : x y z
#
# Youngs Moduli (GPa) = 30.53901 78.70413 73.85215
#
# Poissons Ratio (x) = 0.51761 0.67464
# Poissons Ratio (y) = 0.20084 0.30360
# Poissons Ratio (z) = 0.27897 0.32355
#
# Static dielectric constant tensor:
#      x y z
#    x 2.944980 0.000000 0.000000 
#    y 0.000000 2.971570 0.000000 
#    z 0.000000 0.000000 3.449510 
# 
# 
# High freq. dielectric constant tensor:
#      x y z
#    x 1.607380 0.000000 0.000000 
#    y 0.000000 1.591980 0.000000 
#    z 0.000000 0.000000 1.606250 
# 
# From -- ./inp_files/6413.got.cif
#   From: 2010.03.12/outbox.cif.g09.slc.cpg/sg28_4_cif.got.tgz:6413.got - 2010.04.14 03:39:34.
