data_PCOD8168280
_publ_section_title
;
Structure prediction by ZEFSAII (Michael W. Deem and Ramdas Pophale) SiO2 
 PCOD8168280
Probable space group: P M A 2
;
_chemical_formula_sum "Si O2"
_cell_formula_units_Z 24
_cell_length_a 8.943674
_cell_length_b 15.388073
_cell_length_c 9.894493
_cell_angle_alpha 90.000000
_cell_angle_beta 90.000000
_cell_angle_gamma 90.000000
_cell_volume 1361.738587
_symmetry_space_group_name_H-M "P M A 2"
_symmetry_group_IT_number 28
_symmetry_cell_setting 'orthorhombic'
loop_
_space_group_symop_operation_xyz
x,y,z
-x,-y,z
1/2-x,y,z
1/2+x,-y,z
loop_
_atom_site_type_symbol
_atom_site_label
_atom_site_fract_x
_atom_site_fract_y
_atom_site_fract_z
Si Si1 0.416843 0.415813 0.562440
Si Si2 0.927445 0.909785 0.085587
Si Si3 0.575112 0.238661 0.581199
Si Si4 0.572835 0.769706 0.862697
Si Si5 0.073906 0.909950 0.366399
Si Si6 0.586455 0.581373 0.882868
O O1 0.500000 0.500000 0.499470
O O2 0.250000 0.410588 0.500981
O O3 0.504201 0.327771 0.525380
O O4 0.407825 0.427144 0.722298
O O5 0.750000 0.919761 0.101292
O O6 0.998745 0.879494 0.226604
O O7 0.971756 0.840262 0.972777
O O8 0.000000 0.000000 0.038331
O O9 0.750000 0.254408 0.600766
O O10 0.506076 0.206962 0.722414
O O11 0.539288 0.163249 0.475491
O O12 0.750000 0.764846 0.835351
O O13 0.514968 0.675557 0.917097
O O14 0.250000 0.924295 0.344481
O O15 0.000000 0.000000 0.415959
O O16 0.500000 0.500000 0.947862
O O17 0.750000 0.576178 0.947280
#
# Coordination Sequence:
#
# PCOD8168280 Si02
#       6
#     4   4   4   4   4   4
#     4   9  16  27  45  69  99 132 164 200 242 289
#     4  10  20  35  54  73  95 127 165 203 246 298
#     4  10  20  32  49  75 103 130 164 206 248 290
#     4   9  19  33  49  72 101 130 161 199 245 295
#     4  10  21  36  53  73  97 128 167 206 246 298
#     4   8  14  25  41  64  93 123 154 188 228 276
#
# _framework density 17.62453
#
# number of rings (size 3 to 8) (size 9 to 14) (size 15 to 20)
#    0.000    2.667    0.000    4.000    0.000    8.667 
#    0.000    3.333    0.000    1.000    0.000    4.667 
#    0.000    0.000    0.000    0.000    0.000    0.000 
#
# Total GULP energy -297512.779800 kJ/mol
# GULP energy per Si atom -12396.365825 kJ/mol
# Density = 1.758442 g / cm^3
# Si number density = 17.624530 Si / 1000 Ang^3
#
#
#
# Elastic Constant Matrix: (Units=GPa)
#
#
# Indices 1 2 3 4 5 6 
#
# 1 108.5492 76.7494 50.7254 0.0000 0.0000 0.0000
# 2 76.7494 163.2546 83.7325 0.0000 0.0000 0.0000
# 3 50.7254 83.7325 73.8585 0.0000 0.0000 0.0000
# 4 0.0000 0.0000 0.0000 -1.7036 0.0000 0.0000
# 5 0.0000 0.0000 0.0000 0.0000 12.0103 0.0000
# 6 0.0000 0.0000 0.0000 0.0000 0.0000 29.7209
#
#
#
# Elastic Compliance Matrix: (Units=1/GPa)
#
#
# Indices 1 2 3 4 5 6 
#
# 1 0.014643 -0.004124 -0.005382 0.000000 0.000000 0.000000
# 2 -0.004124 0.015797 -0.015076 0.000000 0.000000 0.000000
# 3 -0.005382 -0.015076 0.034327 0.000000 0.000000 0.000000
# 4 0.000000 0.000000 0.000000 -0.587009 0.000000 0.000000
# 5 0.000000 0.000000 0.000000 0.000000 0.083262 0.000000
# 6 0.000000 0.000000 0.000000 0.000000 0.000000 0.033646
#
#
# Mechanical properties :
#
#
# Convention : Reuss Voigt Hill
#
# Bulk Modulus (GPa) = 64.08804 85.34188 74.71496
# Shear Modulus (GPa) = -14.24628 16.96918 1.36145
#
# Velocity S-wave (km/s) = -2.84618 3.10629 0.87986
# Velocity P-wave (km/s) = 5.06369 7.83535 6.59673
#
# Compressibility (1/GPa) = 0.01560354
#
# Stress axis : x y z
#
# Youngs Moduli (GPa) = 68.29228 63.30473 29.13138
#
# Poissons Ratio (x) = 0.26105 0.15677
# Poissons Ratio (y) = 0.28162 0.43919
# Poissons Ratio (z) = 0.36752 0.95440
#
# Static dielectric constant tensor:
#      x y z
#    x 3.470630 0.000000 0.000000 
#    y 0.000000 3.526210 0.000000 
#    z 0.000000 0.000000 2.879680 
# 
# 
# High freq. dielectric constant tensor:
#      x y z
#    x 1.693310 0.000000 0.000000 
#    y 0.000000 1.697560 0.000000 
#    z 0.000000 0.000000 1.635810 
# 
# From -- ./inp_files/2488.got.cif
#   From: 2010.03.12/outbox.cif.g09.slc.cpg/sg28_2_cif.got.tgz:2488.got - 2010.04.14 03:39:34.
