data_PCOD8168079
_publ_section_title
;
Structure prediction by ZEFSAII (Michael W. Deem and Ramdas Pophale) SiO2 
 PCOD8168079
Probable space group: P M A 2
;
_chemical_formula_sum "Si O2"
_cell_formula_units_Z 32
_cell_length_a 9.008858
_cell_length_b 14.260225
_cell_length_c 15.514454
_cell_angle_alpha 90.000000
_cell_angle_beta 90.000000
_cell_angle_gamma 90.000000
_cell_volume 1993.116184
_symmetry_space_group_name_H-M "P M A 2"
_symmetry_group_IT_number 28
_symmetry_cell_setting 'orthorhombic'
loop_
_space_group_symop_operation_xyz
x,y,z
-x,-y,z
1/2-x,y,z
1/2+x,-y,z
loop_
_atom_site_type_symbol
_atom_site_label
_atom_site_fract_x
_atom_site_fract_y
_atom_site_fract_z
Si Si1 0.076174 0.100325 0.102830
Si Si2 0.577469 0.099122 0.457211
Si Si3 0.924214 0.224909 0.613952
Si Si4 0.422814 0.406911 0.869697
Si Si5 0.923786 0.100226 0.267631
Si Si6 0.422434 0.205802 0.928736
Si Si7 0.575704 0.098669 0.776762
Si Si8 0.075276 0.405806 0.671777
O O1 0.250000 0.083653 0.117201
O O2 0.004656 0.151959 0.187385
O O3 0.045310 0.170538 0.024565
O O4 0.000000 0.000000 0.084167
O O5 0.750000 0.078862 0.470708
O O6 0.519690 0.171171 0.528742
O O7 0.548005 0.145056 0.362252
O O8 0.500000 0.000000 0.469559
O O9 0.750000 0.246717 0.610730
O O10 0.966865 0.164805 0.697386
O O11 0.013877 0.321143 0.614969
O O12 0.500000 0.500000 0.907932
O O13 0.250000 0.425930 0.876590
O O14 0.470748 0.314957 0.923474
O O15 0.471634 0.389648 0.771041
O O16 0.750000 0.091721 0.247771
O O17 0.000000 0.000000 0.269671
O O18 0.250000 0.194955 0.902904
O O19 0.518329 0.143516 0.864653
O O20 0.750000 0.082753 0.784827
O O21 0.500000 0.000000 0.759482
O O22 0.250000 0.413479 0.660172
O O23 0.000000 0.500000 0.636285
#
# Coordination Sequence:
#
# PCOD8168079 Si02
#       8
#     4   4   4   4   4   4   4   4
#     4  10  19  30  46  66  92 123 155 192 231 272
#     4   9  18  31  47  68  95 126 157 194 233 276
#     4  10  20  33  47  68  95 124 159 193 231 276
#     4   9  18  32  49  68  90 117 151 192 233 274
#     4   9  16  28  46  66  90 119 153 192 234 273
#     4  10  20  34  48  66  93 124 157 192 231 275
#     4  11  22  32  45  64  92 128 161 191 223 266
#     4  10  19  32  51  70  92 121 155 196 238 278
#
# _framework density 16.055261000000002
#
# number of rings (size 3 to 8) (size 9 to 14) (size 15 to 20)
#    0.000    2.250    1.250    3.000    0.000    4.500 
#    0.000    0.000    0.000    0.000    0.000    0.875 
#    0.000    4.000    0.000    0.000    0.000    0.000 
#
# Total GULP energy -396728.140444 kJ/mol
# GULP energy per Si atom -12397.754389 kJ/mol
# Density = 1.601872 g / cm^3
# Si number density = 16.055261 Si / 1000 Ang^3
#
#
#
# Elastic Constant Matrix: (Units=GPa)
#
#
# Indices 1 2 3 4 5 6 
#
# 1 70.7411 47.4682 47.2880 0.0000 0.0000 0.0000
# 2 47.4682 111.8836 54.6191 0.0000 0.0000 0.0000
# 3 47.2880 54.6191 113.6743 0.0000 0.0000 0.0000
# 4 0.0000 0.0000 0.0000 9.4762 0.0000 0.0000
# 5 0.0000 0.0000 0.0000 0.0000 14.4834 0.0000
# 6 0.0000 0.0000 0.0000 0.0000 0.0000 27.2383
#
#
#
# Elastic Compliance Matrix: (Units=1/GPa)
#
#
# Indices 1 2 3 4 5 6 
#
# 1 0.022769 -0.006580 -0.006311 0.000000 0.000000 0.000000
# 2 -0.006580 0.013578 -0.003787 0.000000 0.000000 0.000000
# 3 -0.006311 -0.003787 0.013242 0.000000 0.000000 0.000000
# 4 0.000000 0.000000 0.000000 0.105528 0.000000 0.000000
# 5 0.000000 0.000000 0.000000 0.000000 0.069045 0.000000
# 6 0.000000 0.000000 0.000000 0.000000 0.000000 0.036713
#
#
# Mechanical properties :
#
#
# Convention : Reuss Voigt Hill
#
# Bulk Modulus (GPa) = 61.59525 66.11662 63.85594
# Shear Modulus (GPa) = 16.68663 20.03448 18.36056
#
# Velocity S-wave (km/s) = 3.22735 3.53632 3.38536
# Velocity P-wave (km/s) = 7.23433 7.61210 7.42562
#
# Compressibility (1/GPa) = 0.01623502
#
# Stress axis : x y z
#
# Youngs Moduli (GPa) = 43.91846 73.64810 75.51808
#
# Poissons Ratio (x) = 0.48457 0.47656
# Poissons Ratio (y) = 0.28897 0.28599
# Poissons Ratio (z) = 0.27715 0.27891
#
# Static dielectric constant tensor:
#      x y z
#    x 3.110900 0.000000 0.000000 
#    y 0.000000 2.955750 0.000000 
#    z 0.000000 0.000000 3.428820 
# 
# 
# High freq. dielectric constant tensor:
#      x y z
#    x 1.627410 0.000000 0.000000 
#    y 0.000000 1.595230 0.000000 
#    z 0.000000 0.000000 1.610390 
# 
# From -- ./inp_files/6394.got.cif
#   From: 2010.03.12/outbox.cif.g09.slc.cpg/sg28_4_cif.got.tgz:6394.got - 2010.04.14 03:39:34.
