data_PCOD8168138
_publ_section_title
;
Structure prediction by ZEFSAII (Michael W. Deem and Ramdas Pophale) SiO2 
 PCOD8168138
Probable space group: P M A 2
;
_chemical_formula_sum "Si O2"
_cell_formula_units_Z 32
_cell_length_a 9.469544
_cell_length_b 16.030073
_cell_length_c 11.358838
_cell_angle_alpha 90.000000
_cell_angle_beta 90.000000
_cell_angle_gamma 90.000000
_cell_volume 1724.243002
_symmetry_space_group_name_H-M "P M A 2"
_symmetry_group_IT_number 28
_symmetry_cell_setting 'orthorhombic'
loop_
_space_group_symop_operation_xyz
x,y,z
-x,-y,z
1/2-x,y,z
1/2+x,-y,z
loop_
_atom_site_type_symbol
_atom_site_label
_atom_site_fract_x
_atom_site_fract_y
_atom_site_fract_z
Si Si1 0.906381 0.725198 0.397750
Si Si2 0.095145 0.928824 0.285272
Si Si3 0.416453 0.916038 0.786322
Si Si4 0.415040 0.743315 0.917891
Si Si5 0.591218 0.140765 0.528163
Si Si6 0.598319 0.568164 0.557899
Si Si7 0.919672 0.584083 0.822538
Si Si8 0.586807 0.247414 0.192632
O O1 0.750000 0.761266 0.367829
O O2 0.888769 0.643053 0.470846
O O3 0.988672 0.787133 0.484184
O O4 0.988421 0.697039 0.277940
O O5 0.250000 0.944855 0.234902
O O6 0.092833 0.930493 0.427754
O O7 0.036551 0.843322 0.234577
O O8 0.000000 0.000000 0.230670
O O9 0.250000 0.934611 0.798290
O O10 0.457767 0.833824 0.863504
O O11 0.461109 0.897269 0.651510
O O12 0.500000 0.000000 0.827900
O O13 0.250000 0.725165 0.889844
O O14 0.514065 0.668261 0.875805
O O15 0.444233 0.743474 0.056558
O O16 0.750000 0.177542 0.543605
O O17 0.500000 0.500000 0.497587
O O18 0.750000 0.525576 0.576798
O O19 0.542131 0.595107 0.685758
O O20 0.750000 0.579449 0.848570
O O21 0.000000 0.500000 0.870550
O O22 0.750000 0.264409 0.223568
#
# Coordination Sequence:
#
# PCOD8168138 Si02
#       8
#     4   4   4   4   4   4   4   4
#     4  10  19  32  52  78 103 129 169 217 261 308
#     4   9  17  29  46  68  94 126 165 209 255 303
#     4  10  21  35  53  79 111 146 183 224 271 325
#     4  10  21  38  57  77 106 146 188 228 270 317
#     4   9  18  32  49  72 103 137 170 208 263 323
#     4   9  19  33  51  79 110 134 159 199 252 311
#     4  10  20  36  59  86 113 140 174 218 268 323
#     4   9  20  37  52  69  99 138 177 215 258 310
#
# _framework density 18.558869000000001
#
# number of rings (size 3 to 8) (size 9 to 14) (size 15 to 20)
#    0.000    2.500    0.000    2.625    0.000    5.500 
#    0.000    0.625    0.000    1.500    0.000    0.000 
#    0.000    0.000    0.000    0.000    0.000    0.000 
#
# Total GULP energy -396482.827063 kJ/mol
# GULP energy per Si atom -12390.088346 kJ/mol
# Density = 1.851663 g / cm^3
# Si number density = 18.558869 Si / 1000 Ang^3
#
#
#
# Elastic Constant Matrix: (Units=GPa)
#
#
# Indices 1 2 3 4 5 6 
#
# 1 96.3776 58.1319 41.6961 0.0000 0.0000 0.0000
# 2 58.1319 96.5070 36.2802 0.0000 0.0000 0.0000
# 3 41.6961 36.2802 74.2569 0.0000 0.0000 0.0000
# 4 0.0000 0.0000 0.0000 12.0221 0.0000 0.0000
# 5 0.0000 0.0000 0.0000 0.0000 24.5367 0.0000
# 6 0.0000 0.0000 0.0000 0.0000 0.0000 35.9703
#
#
#
# Elastic Compliance Matrix: (Units=1/GPa)
#
#
# Indices 1 2 3 4 5 6 
#
# 1 0.018226 -0.008736 -0.005966 0.000000 0.000000 0.000000
# 2 -0.008736 0.016881 -0.003342 0.000000 0.000000 0.000000
# 3 -0.005966 -0.003342 0.018450 0.000000 0.000000 0.000000
# 4 0.000000 0.000000 0.000000 0.083180 0.000000 0.000000
# 5 0.000000 0.000000 0.000000 0.000000 0.040755 0.000000
# 6 0.000000 0.000000 0.000000 0.000000 0.000000 0.027801
#
#
# Mechanical properties :
#
#
# Convention : Reuss Voigt Hill
#
# Bulk Modulus (GPa) = 57.24684 59.92865 58.58775
# Shear Modulus (GPa) = 20.22624 23.24136 21.73380
#
# Velocity S-wave (km/s) = 3.30486 3.54263 3.42581
# Velocity P-wave (km/s) = 6.74358 7.00677 6.87643
#
# Compressibility (1/GPa) = 0.01746821
#
# Stress axis : x y z
#
# Youngs Moduli (GPa) = 54.86620 59.23994 54.20151
#
# Poissons Ratio (x) = 0.51751 0.32337
# Poissons Ratio (y) = 0.47930 0.18115
# Poissons Ratio (z) = 0.32733 0.19799
#
# Static dielectric constant tensor:
#      x y z
#    x 4.346460 0.000000 0.000000 
#    y 0.000000 3.301540 0.000000 
#    z 0.000000 0.000000 3.435430 
# 
# 
# High freq. dielectric constant tensor:
#      x y z
#    x 1.727390 0.000000 0.000000 
#    y 0.000000 1.706820 0.000000 
#    z 0.000000 0.000000 1.712450 
# 
# From -- ./inp_files/5015.got.cif
#   From: 2010.03.12/outbox.cif.g09.slc.cpg/sg28_3_cif.got.tgz:5015.got - 2010.04.14 03:39:34.
