data_PCOD8168034
_publ_section_title
;
Structure prediction by ZEFSAII (Michael W. Deem and Ramdas Pophale) SiO2 
 PCOD8168034
Probable space group: P M A 2
;
_chemical_formula_sum "Si O2"
_cell_formula_units_Z 28
_cell_length_a 8.694398
_cell_length_b 9.664717
_cell_length_c 18.386553
_cell_angle_alpha 90.000000
_cell_angle_beta 90.000000
_cell_angle_gamma 90.000000
_cell_volume 1545.001753
_symmetry_space_group_name_H-M "P M A 2"
_symmetry_group_IT_number 28
_symmetry_cell_setting 'orthorhombic'
loop_
_space_group_symop_operation_xyz
x,y,z
-x,-y,z
1/2-x,y,z
1/2+x,-y,z
loop_
_atom_site_type_symbol
_atom_site_label
_atom_site_fract_x
_atom_site_fract_y
_atom_site_fract_z
Si Si1 0.573468 0.350585 0.308580
Si Si2 0.433199 0.846601 0.881828
Si Si3 0.433003 0.152070 0.734939
Si Si4 0.930862 0.650173 0.607203
Si Si5 0.070209 0.652357 0.147743
Si Si6 0.932061 0.847968 0.028793
Si Si7 0.430138 0.348332 0.447843
O O1 0.500000 0.500000 0.302650
O O2 0.750000 0.367097 0.327700
O O3 0.549119 0.282612 0.229075
O O4 0.497446 0.265935 0.377003
O O5 0.250000 0.845294 0.881319
O O6 0.499024 0.776245 0.808344
O O7 0.500000 0.000000 0.881806
O O8 0.497305 0.776753 0.955641
O O9 0.250000 0.144114 0.740316
O O10 0.491771 0.243868 0.667601
O O11 0.500000 0.000000 0.723200
O O12 0.750000 0.632378 0.613190
O O13 0.975933 0.712450 0.527263
O O14 0.000000 0.500000 0.621250
O O15 0.250000 0.646741 0.126646
O O16 0.000000 0.500000 0.141099
O O17 0.976639 0.752831 0.095850
O O18 0.750000 0.859116 0.021015
O O19 0.000000 0.000000 0.041707
O O20 0.500000 0.500000 0.444049
O O21 0.250000 0.354726 0.439051
#
# Coordination Sequence:
#
# PCOD8168034 Si02
#       7
#     4   4   4   4   4   4   4
#     4   9  16  26  43  67  95 126 161 200 239 283
#     4  10  18  31  51  74  97 125 163 203 242 287
#     4  10  19  33  51  73  98 126 162 201 242 289
#     4   9  19  32  48  71 100 129 160 200 244 289
#     4  10  20  34  51  75 105 134 166 205 250 297
#     4  11  21  35  55  77 101 131 166 205 248 294
#     4   9  15  25  42  65  92 123 159 198 239 283
#
# _framework density 18.122955999999999
#
# number of rings (size 3 to 8) (size 9 to 14) (size 15 to 20)
#    0.000    2.286    0.000    6.857    0.000    3.429 
#    0.000    0.714    0.000    2.571    0.000    4.000 
#    0.000    0.000    0.000    0.000    0.000    0.000 
#
# Total GULP energy -346906.725450 kJ/mol
# GULP energy per Si atom -12389.525909 kJ/mol
# Density = 1.808171 g / cm^3
# Si number density = 18.122956 Si / 1000 Ang^3
#
#
#
# Elastic Constant Matrix: (Units=GPa)
#
#
# Indices 1 2 3 4 5 6 
#
# 1 119.7806 25.2780 65.6964 0.0000 0.0000 0.0000
# 2 25.2780 46.2870 51.1777 0.0000 0.0000 0.0000
# 3 65.6964 51.1777 186.4982 0.0000 0.0000 0.0000
# 4 0.0000 0.0000 0.0000 -28.9738 0.0000 0.0000
# 5 0.0000 0.0000 0.0000 0.0000 36.5648 0.0000
# 6 0.0000 0.0000 0.0000 0.0000 0.0000 18.8167
#
#
#
# Elastic Compliance Matrix: (Units=1/GPa)
#
#
# Indices 1 2 3 4 5 6 
#
# 1 0.010525 -0.002367 -0.003058 0.000000 0.000000 0.000000
# 2 -0.002367 0.031547 -0.007823 0.000000 0.000000 0.000000
# 3 -0.003058 -0.007823 0.008586 0.000000 0.000000 0.000000
# 4 0.000000 0.000000 0.000000 -0.034514 0.000000 0.000000
# 5 0.000000 0.000000 0.000000 0.000000 0.027349 0.000000
# 6 0.000000 0.000000 0.000000 0.000000 0.000000 0.053144
#
#
# Mechanical properties :
#
#
# Convention : Reuss Voigt Hill
#
# Bulk Modulus (GPa) = 41.38745 70.76333 56.07539
# Shear Modulus (GPa) = 38.11350 19.30913 28.71132
#
# Velocity S-wave (km/s) = 4.59088 3.26767 3.98458
# Velocity P-wave (km/s) = 7.14060 7.30533 7.22344
#
# Compressibility (1/GPa) = 0.02416191
#
# Stress axis : x y z
#
# Youngs Moduli (GPa) = 95.00797 31.69916 116.46775
#
# Poissons Ratio (x) = 0.07502 0.35619
# Poissons Ratio (y) = 0.22485 0.91114
# Poissons Ratio (z) = 0.29056 0.24799
#
# Static dielectric constant tensor:
#      x y z
#    x 3.503390 0.000000 0.000000 
#    y 0.000000 2.849290 0.000000 
#    z 0.000000 0.000000 4.910580 
# 
# 
# High freq. dielectric constant tensor:
#      x y z
#    x 1.720650 0.000000 0.000000 
#    y 0.000000 1.632280 0.000000 
#    z 0.000000 0.000000 1.737690 
# 
# From -- ./inp_files/6907.got.cif
#   From: 2010.03.12/outbox.cif.g09.slc.cpg/sg28_4_cif.got.tgz:6907.got - 2010.04.14 03:39:34.
