data_PCOD8168860
_publ_section_title
;
Structure prediction by ZEFSAII (Michael W. Deem and Ramdas Pophale) SiO2 
 PCOD8168860
Probable space group: P C A 21
;
_chemical_formula_sum "Si O2"
_cell_formula_units_Z 32
_cell_length_a 8.463617
_cell_length_b 13.621610
_cell_length_c 11.622105
_cell_angle_alpha 90.000000
_cell_angle_beta 90.000000
_cell_angle_gamma 90.000000
_cell_volume 1339.890287
_symmetry_space_group_name_H-M "P C A 21"
_symmetry_group_IT_number 29
_symmetry_cell_setting 'orthorhombic'
loop_
_space_group_symop_operation_xyz
x,y,z
-x,-y,1/2+z
1/2-x,y,1/2+z
1/2+x,-y,z
loop_
_atom_site_type_symbol
_atom_site_label
_atom_site_fract_x
_atom_site_fract_y
_atom_site_fract_z
Si Si1 0.548657 0.941031 0.945340
Si Si2 0.893915 0.865624 0.896639
Si Si3 0.358101 0.797488 0.803466
Si Si4 0.552933 0.179934 0.662176
Si Si5 0.197670 0.670510 0.512077
Si Si6 0.560869 0.614868 0.746619
Si Si7 0.040045 0.327565 0.516775
Si Si8 0.846188 0.516626 0.865562
O O1 0.725928 0.917289 0.908026
O O2 0.433064 0.897462 0.849282
O O3 0.529774 0.058535 0.936315
O O4 0.499562 0.904827 0.073172
O O5 0.890446 0.777940 0.988142
O O6 0.930216 0.822847 0.768525
O O7 0.234633 0.831326 0.705080
O O8 0.262837 0.741336 0.903588
O O9 0.505598 0.725929 0.773530
O O10 0.556765 0.284953 0.592613
O O11 0.366044 0.674974 0.576678
O O12 0.158675 0.561322 0.470557
O O13 0.640977 0.620985 0.619966
O O14 0.682150 0.571809 0.840325
O O15 0.412680 0.538672 0.752972
O O16 0.035576 0.396892 0.404947
#
# Coordination Sequence:
#
# PCOD8168860 Si02
#       8
#     4   4   4   4   4   4   4   4
#     4  11  28  48  75 112 147 193 257 316 391 474
#     4  12  28  49  72 112 149 198 254 326 378 478
#     4  10  21  45  73 106 144 192 249 312 375 457
#     4  11  24  48  81 102 149 205 248 321 392 456
#     4  10  22  44  72 105 143 199 249 307 381 454
#     4  11  25  41  70 104 149 196 238 310 380 442
#     4  12  25  43  72 104 147 188 258 308 371 459
#     4  11  25  44  67 109 148 193 249 306 372 460
#
# _framework density 23.882549999999998
#
# number of rings (size 3 to 8) (size 9 to 14) (size 15 to 20)
#    0.000    1.000    3.750    1.500    3.500    6.000 
#    0.000    0.000    0.000    0.000    0.000    0.000 
#    0.000    0.000    0.000    0.000    0.000    0.000 
#
# Total GULP energy -396558.563179 kJ/mol
# GULP energy per Si atom -12392.455099 kJ/mol
# Density = 2.382819 g / cm^3
# Si number density = 23.882550 Si / 1000 Ang^3
#
#
#
# Elastic Constant Matrix: (Units=GPa)
#
#
# Indices 1 2 3 4 5 6 
#
# 1 92.8566 35.4437 45.5892 0.0000 0.0000 0.0000
# 2 35.4437 131.6023 62.9632 0.0000 0.0000 0.0000
# 3 45.5892 62.9632 132.3962 0.0000 0.0000 0.0000
# 4 0.0000 0.0000 0.0000 31.7033 0.0000 0.0000
# 5 0.0000 0.0000 0.0000 0.0000 41.6229 0.0000
# 6 0.0000 0.0000 0.0000 0.0000 0.0000 34.5121
#
#
#
# Elastic Compliance Matrix: (Units=1/GPa)
#
#
# Indices 1 2 3 4 5 6 
#
# 1 0.013281 -0.001798 -0.003718 0.000000 0.000000 0.000000
# 2 -0.001798 0.010080 -0.004175 0.000000 0.000000 0.000000
# 3 -0.003718 -0.004175 0.010819 0.000000 0.000000 0.000000
# 4 0.000000 0.000000 0.000000 0.031542 0.000000 0.000000
# 5 0.000000 0.000000 0.000000 0.000000 0.024025 0.000000
# 6 0.000000 0.000000 0.000000 0.000000 0.000000 0.028975
#
#
# Mechanical properties :
#
#
# Convention : Reuss Voigt Hill
#
# Bulk Modulus (GPa) = 67.57510 71.64970 69.61240
# Shear Modulus (GPa) = 34.95588 35.75826 35.35707
#
# Velocity S-wave (km/s) = 3.82993 3.87364 3.85184
# Velocity P-wave (km/s) = 6.92199 7.07621 6.99953
#
# Compressibility (1/GPa) = 0.01479835
#
# Stress axis : x y z
#
# Youngs Moduli (GPa) = 75.29517 99.20414 92.43250
#
# Poissons Ratio (x) = 0.17837 0.34367
# Poissons Ratio (y) = 0.13538 0.38588
# Poissons Ratio (z) = 0.27995 0.41415
#
# Static dielectric constant tensor:
#      x y z
#    x 4.089120 0.000000 0.000000 
#    y 0.000000 4.343280 0.000000 
#    z 0.000000 0.000000 4.363300 
# 
# 
# High freq. dielectric constant tensor:
#      x y z
#    x 1.937780 0.000000 0.000000 
#    y 0.000000 1.953670 0.000000 
#    z 0.000000 0.000000 1.950140 
# 
# From -- ./inp_files/2960.got.cif
#   From: 2010.03.12/outbox.cif.g09.slc.cpg/sg29_2_cif.got.tgz:2960.got - 2010.04.14 03:43:10.
