data_PCOD8168480
_publ_section_title
;
Structure prediction by ZEFSAII (Michael W. Deem and Ramdas Pophale) SiO2 
 PCOD8168480
Probable space group: P M A 2
;
_chemical_formula_sum "Si O2"
_cell_formula_units_Z 20
_cell_length_a 9.990057
_cell_length_b 7.589974
_cell_length_c 12.612387
_cell_angle_alpha 90.000000
_cell_angle_beta 90.000000
_cell_angle_gamma 90.000000
_cell_volume 956.325074
_symmetry_space_group_name_H-M "P M A 2"
_symmetry_group_IT_number 28
_symmetry_cell_setting 'orthorhombic'
loop_
_space_group_symop_operation_xyz
x,y,z
-x,-y,z
1/2-x,y,z
1/2+x,-y,z
loop_
_atom_site_type_symbol
_atom_site_label
_atom_site_fract_x
_atom_site_fract_y
_atom_site_fract_z
Si Si1 0.014182 0.802238 0.720530
Si Si2 0.902509 0.342730 0.928985
Si Si3 0.750000 0.988054 0.446226
Si Si4 0.000000 0.000000 0.305759
Si Si5 0.093321 0.668061 0.170239
Si Si6 0.750000 0.702309 0.624406
Si Si7 0.250000 0.677771 0.577763
O O1 0.875425 0.700044 0.703981
O O2 0.062316 0.807399 0.843196
O O3 0.120152 0.707162 0.647312
O O4 0.000000 0.000000 0.679815
O O5 0.750000 0.406525 0.916694
O O6 0.000000 0.500000 0.899266
O O7 0.928244 0.275351 0.048048
O O8 0.750000 0.877185 0.553657
O O9 0.620662 0.935565 0.379065
O O10 0.750000 0.197732 0.473792
O O11 0.953068 0.164426 0.236325
O O12 0.250000 0.623230 0.192921
O O13 0.000000 0.500000 0.198421
O O14 0.750000 0.530028 0.547627
#
# Coordination Sequence:
#
# PCOD8168480 Si02
#       7
#     4   4   2   2   4   2   2
#     4  12  23  41  65 100 138 175 219 269 326 397
#     4  10  22  41  66 101 139 175 219 265 324 404
#     4  12  26  46  68 100 132 170 234 292 340 398
#     4  12  26  46  72  98 138 172 228 294 346 398
#     4  10  24  46  72 103 137 178 226 278 341 407
#     4  12  26  44  71  95 132 181 221 274 333 394
#     4  12  24  46  67  93 132 175 225 272 331 398
#
# _framework density 20.913392999999999
#
# number of rings (size 3 to 8) (size 9 to 14) (size 15 to 20)
#    0.000    0.800    4.000    3.000    4.200    1.600 
#    0.000    0.000    0.000    0.000    0.000    0.000 
#    0.000    0.000    0.000    0.000    0.000    0.000 
#
# Total GULP energy -248019.354621 kJ/mol
# GULP energy per Si atom -12400.967731 kJ/mol
# Density = 2.086579 g / cm^3
# Si number density = 20.913393 Si / 1000 Ang^3
#
#
#
# Elastic Constant Matrix: (Units=GPa)
#
#
# Indices 1 2 3 4 5 6 
#
# 1 170.5751 35.2070 47.6909 0.0000 0.0000 0.0000
# 2 35.2070 99.7718 23.4273 0.0000 0.0000 0.0000
# 3 47.6909 23.4273 88.2412 0.0000 0.0000 0.0000
# 4 0.0000 0.0000 0.0000 30.3339 0.0000 0.0000
# 5 0.0000 0.0000 0.0000 0.0000 35.6515 0.0000
# 6 0.0000 0.0000 0.0000 0.0000 0.0000 39.4423
#
#
#
# Elastic Compliance Matrix: (Units=1/GPa)
#
#
# Indices 1 2 3 4 5 6 
#
# 1 0.007175 -0.001729 -0.003419 0.000000 0.000000 0.000000
# 2 -0.001729 0.011106 -0.002014 0.000000 0.000000 0.000000
# 3 -0.003419 -0.002014 0.013715 0.000000 0.000000 0.000000
# 4 0.000000 0.000000 0.000000 0.032966 0.000000 0.000000
# 5 0.000000 0.000000 0.000000 0.000000 0.028049 0.000000
# 6 0.000000 0.000000 0.000000 0.000000 0.000000 0.025353
#
#
# Mechanical properties :
#
#
# Convention : Reuss Voigt Hill
#
# Bulk Modulus (GPa) = 56.58608 63.47094 60.02851
# Shear Modulus (GPa) = 36.08014 37.90307 36.99160
#
# Velocity S-wave (km/s) = 4.15808 4.26183 4.21027
# Velocity P-wave (km/s) = 7.08300 7.39141 7.23885
#
# Compressibility (1/GPa) = 0.01767219
#
# Stress axis : x y z
#
# Youngs Moduli (GPa) = 139.36672 90.04172 72.91262
#
# Poissons Ratio (x) = 0.15570 0.24928
# Poissons Ratio (y) = 0.24099 0.14684
# Poissons Ratio (z) = 0.47648 0.18134
#
# Static dielectric constant tensor:
#      x y z
#    x 4.054000 0.000000 0.000000 
#    y 0.000000 3.779420 0.000000 
#    z 0.000000 0.000000 3.824750 
# 
# 
# High freq. dielectric constant tensor:
#      x y z
#    x 1.843790 0.000000 0.000000 
#    y 0.000000 1.810880 0.000000 
#    z 0.000000 0.000000 1.820200 
# 
# From -- ./inp_files/4626.got.cif
#   From: 2010.03.12/outbox.cif.g09.slc.cpg/sg28_3_cif.got.tgz:4626.got - 2010.04.14 03:39:34.
