data_PCOD8168436
_publ_section_title
;
Structure prediction by ZEFSAII (Michael W. Deem and Ramdas Pophale) SiO2 
 PCOD8168436
Probable space group: P M A 2
;
_chemical_formula_sum "Si O2"
_cell_formula_units_Z 32
_cell_length_a 14.619122
_cell_length_b 9.324503
_cell_length_c 10.861082
_cell_angle_alpha 90.000000
_cell_angle_beta 90.000000
_cell_angle_gamma 90.000000
_cell_volume 1480.539764
_symmetry_space_group_name_H-M "P M A 2"
_symmetry_group_IT_number 28
_symmetry_cell_setting 'orthorhombic'
loop_
_space_group_symop_operation_xyz
x,y,z
-x,-y,z
1/2-x,y,z
1/2+x,-y,z
loop_
_atom_site_type_symbol
_atom_site_label
_atom_site_fract_x
_atom_site_fract_y
_atom_site_fract_z
Si Si1 0.466755 0.344033 0.453570
Si Si2 0.352070 0.371356 0.954551
Si Si3 0.853958 0.260621 0.736682
Si Si4 0.644050 0.300950 0.007331
Si Si5 0.914191 0.089330 0.516506
Si Si6 0.479827 0.149050 0.086927
Si Si7 0.145762 0.130592 0.315982
Si Si8 0.645041 0.566868 0.675135
O O1 0.500000 0.500000 0.407829
O O2 0.552662 0.235278 0.449991
O O3 0.386242 0.286095 0.365177
O O4 0.421492 0.343293 0.588353
O O5 0.250000 0.328356 0.994000
O O6 0.374083 0.529315 0.005387
O O7 0.362666 0.364105 0.808627
O O8 0.418815 0.254942 0.008643
O O9 0.750000 0.305924 0.761703
O O10 0.890171 0.232799 0.875452
O O11 0.859978 0.127317 0.642498
O O12 0.896440 0.404358 0.675462
O O13 0.750000 0.264880 0.038209
O O14 0.577646 0.229726 0.110136
O O15 0.856596 0.993846 0.420694
O O16 0.000000 0.000000 0.563687
O O17 0.426176 0.095776 0.208607
O O18 0.500000 0.000000 0.015166
O O19 0.250000 0.142252 0.268137
O O20 0.750000 0.572188 0.626891
#
# Coordination Sequence:
#
# PCOD8168436 Si02
#       8
#     4   4   4   4   4   4   4   4
#     4  11  21  36  62  97 130 159 214 275 332 383
#     4   9  20  40  66  96 130 173 216 267 330 389
#     4   9  17  34  60  92 129 167 202 252 323 399
#     4   9  21  40  65  98 132 165 215 272 334 399
#     4  10  21  37  60  89 127 173 218 259 324 386
#     4  12  25  42  65  89 127 172 226 269 325 380
#     4  11  26  48  65  85 125 180 229 276 323 386
#     4   9  18  34  60  95 132 164 201 256 329 393
#
# _framework density 21.613738000000001
#
# number of rings (size 3 to 8) (size 9 to 14) (size 15 to 20)
#    0.000    2.000    1.250    4.125    1.750    2.500 
#    2.250    0.000    0.000    0.750    0.000    0.000 
#    0.000    0.000    0.000    0.000    0.000    0.000 
#
# Total GULP energy -396583.333417 kJ/mol
# GULP energy per Si atom -12393.229169 kJ/mol
# Density = 2.156454 g / cm^3
# Si number density = 21.613738 Si / 1000 Ang^3
#
#
#
# Elastic Constant Matrix: (Units=GPa)
#
#
# Indices 1 2 3 4 5 6 
#
# 1 124.3070 59.8965 39.6219 0.0000 0.0000 0.0000
# 2 59.8965 131.0060 37.7994 0.0000 0.0000 0.0000
# 3 39.6219 37.7994 63.2633 0.0000 0.0000 0.0000
# 4 0.0000 0.0000 0.0000 29.7756 0.0000 0.0000
# 5 0.0000 0.0000 0.0000 0.0000 32.5024 0.0000
# 6 0.0000 0.0000 0.0000 0.0000 0.0000 27.0650
#
#
#
# Elastic Compliance Matrix: (Units=1/GPa)
#
#
# Indices 1 2 3 4 5 6 
#
# 1 0.011443 -0.003823 -0.004883 0.000000 0.000000 0.000000
# 2 -0.003823 0.010501 -0.003880 0.000000 0.000000 0.000000
# 3 -0.004883 -0.003880 0.021183 0.000000 0.000000 0.000000
# 4 0.000000 0.000000 0.000000 0.033584 0.000000 0.000000
# 5 0.000000 0.000000 0.000000 0.000000 0.030767 0.000000
# 6 0.000000 0.000000 0.000000 0.000000 0.000000 0.036948
#
#
# Mechanical properties :
#
#
# Convention : Reuss Voigt Hill
#
# Bulk Modulus (GPa) = 55.69142 65.91244 60.80193
# Shear Modulus (GPa) = 28.47678 29.95251 29.21465
#
# Velocity S-wave (km/s) = 3.63372 3.72668 3.68050
# Velocity P-wave (km/s) = 6.58998 7.00567 6.80100
#
# Compressibility (1/GPa) = 0.01795609
#
# Stress axis : x y z
#
# Youngs Moduli (GPa) = 87.39006 95.23328 47.20780
#
# Poissons Ratio (x) = 0.36408 0.23049
# Poissons Ratio (y) = 0.33409 0.18315
# Poissons Ratio (z) = 0.42668 0.36947
#
# Static dielectric constant tensor:
#      x y z
#    x 3.998460 0.000000 0.000000 
#    y 0.000000 3.937370 0.000000 
#    z 0.000000 0.000000 3.709990 
# 
# 
# High freq. dielectric constant tensor:
#      x y z
#    x 1.858190 0.000000 0.000000 
#    y 0.000000 1.846530 0.000000 
#    z 0.000000 0.000000 1.826260 
# 
# From -- ./inp_files/5651.got.cif
#   From: 2010.03.12/outbox.cif.g09.slc.cpg/sg28_3_cif.got.tgz:5651.got - 2010.04.14 03:39:34.
