data_PCOD8168230
_publ_section_title
;
Structure prediction by ZEFSAII (Michael W. Deem and Ramdas Pophale) SiO2 
 PCOD8168230
Probable space group: P M A 2
;
_chemical_formula_sum "Si O2"
_cell_formula_units_Z 28
_cell_length_a 9.333833
_cell_length_b 17.696675
_cell_length_c 9.292453
_cell_angle_alpha 90.000000
_cell_angle_beta 90.000000
_cell_angle_gamma 90.000000
_cell_volume 1534.907028
_symmetry_space_group_name_H-M "P M A 2"
_symmetry_group_IT_number 28
_symmetry_cell_setting 'orthorhombic'
loop_
_space_group_symop_operation_xyz
x,y,z
-x,-y,z
1/2-x,y,z
1/2+x,-y,z
loop_
_atom_site_type_symbol
_atom_site_label
_atom_site_fract_x
_atom_site_fract_y
_atom_site_fract_z
Si Si1 0.917151 0.425643 0.671860
Si Si2 0.082169 0.076252 0.139280
Si Si3 0.419501 0.746450 0.642079
Si Si4 0.907530 0.291703 0.181384
Si Si5 0.416120 0.569246 0.004854
Si Si6 0.083982 0.200368 0.381615
Si Si7 0.592239 0.172413 0.935105
O O1 0.750000 0.439148 0.641647
O O2 0.965286 0.342013 0.615383
O O3 0.000000 0.500000 0.606692
O O4 0.953692 0.419813 0.839174
O O5 0.250000 0.061464 0.116101
O O6 0.055921 0.128550 0.279473
O O7 0.000000 0.000000 0.177164
O O8 0.021137 0.108999 0.987320
O O9 0.250000 0.753344 0.621125
O O10 0.499440 0.803508 0.532582
O O11 0.463206 0.777725 0.800271
O O12 0.750000 0.309586 0.249055
O O13 0.973376 0.360345 0.093315
O O14 0.021504 0.274714 0.304840
O O15 0.888375 0.223850 0.072757
O O16 0.500000 0.500000 0.072938
O O17 0.250000 0.556423 0.028406
O O18 0.250000 0.211855 0.414373
O O19 0.750000 0.136977 0.899436
#
# Coordination Sequence:
#
# PCOD8168230 Si02
#       7
#     4   4   4   4   4   4   4
#     4   9  17  30  48  74 105 138 178 222 267 315
#     4  10  21  38  59  83 109 137 171 212 259 316
#     4  10  19  34  55  79 108 143 182 219 261 318
#     4   9  16  31  52  72  97 133 174 214 258 313
#     4   9  16  27  45  71 100 130 169 219 268 313
#     4  10  22  36  52  78 109 138 174 218 262 309
#     4   9  17  32  56  81 104 133 171 214 258 308
#
# _framework density 18.242146000000002
#
# number of rings (size 3 to 8) (size 9 to 14) (size 15 to 20)
#    0.000    2.571    1.429    0.857    0.000    3.429 
#    0.000    1.429    0.000    1.714    0.000    0.000 
#    0.000    0.000    0.000    0.000    0.000    0.000 
#
# Total GULP energy -346903.094293 kJ/mol
# GULP energy per Si atom -12389.396225 kJ/mol
# Density = 1.820063 g / cm^3
# Si number density = 18.242146 Si / 1000 Ang^3
#
#
#
# Elastic Constant Matrix: (Units=GPa)
#
#
# Indices 1 2 3 4 5 6 
#
# 1 79.8814 53.5942 41.2649 0.0000 0.0000 0.0000
# 2 53.5942 85.0398 20.8856 0.0000 0.0000 0.0000
# 3 41.2649 20.8856 64.2367 0.0000 0.0000 0.0000
# 4 0.0000 0.0000 0.0000 21.1055 0.0000 0.0000
# 5 0.0000 0.0000 0.0000 0.0000 28.0246 0.0000
# 6 0.0000 0.0000 0.0000 0.0000 0.0000 30.9598
#
#
#
# Elastic Compliance Matrix: (Units=1/GPa)
#
#
# Indices 1 2 3 4 5 6 
#
# 1 0.030540 -0.015681 -0.014520 0.000000 0.000000 0.000000
# 2 -0.015681 0.020831 0.003300 0.000000 0.000000 0.000000
# 3 -0.014520 0.003300 0.023822 0.000000 0.000000 0.000000
# 4 0.000000 0.000000 0.000000 0.047381 0.000000 0.000000
# 5 0.000000 0.000000 0.000000 0.000000 0.035683 0.000000
# 6 0.000000 0.000000 0.000000 0.000000 0.000000 0.032300
#
#
# Mechanical properties :
#
#
# Convention : Reuss Voigt Hill
#
# Bulk Modulus (GPa) = 46.74731 51.18303 48.96517
# Shear Modulus (GPa) = 19.88159 23.57886 21.73023
#
# Velocity S-wave (km/s) = 3.30490 3.59910 3.45514
# Velocity P-wave (km/s) = 6.34388 6.73720 6.54350
#
# Compressibility (1/GPa) = 0.02139160
#
# Stress axis : x y z
#
# Youngs Moduli (GPa) = 32.74398 48.00499 41.97812
#
# Poissons Ratio (x) = 0.75276 0.60953
# Poissons Ratio (y) = 0.51346 -0.13854
# Poissons Ratio (z) = 0.47545 -0.15843
#
# Static dielectric constant tensor:
#      x y z
#    x 3.392400 0.000000 0.000000 
#    y 0.000000 2.996160 0.000000 
#    z 0.000000 0.000000 3.240410 
# 
# 
# High freq. dielectric constant tensor:
#      x y z
#    x 1.702870 0.000000 0.000000 
#    y 0.000000 1.698550 0.000000 
#    z 0.000000 0.000000 1.691130 
# 
# From -- ./inp_files/2657.got.cif
#   From: 2010.03.12/outbox.cif.g09.slc.cpg/sg28_2_cif.got.tgz:2657.got - 2010.04.14 03:39:34.
