data_PCOD8168112
_publ_section_title
;
Structure prediction by ZEFSAII (Michael W. Deem and Ramdas Pophale) SiO2 
 PCOD8168112
Probable space group: P M A 2
;
_chemical_formula_sum "Si O2"
_cell_formula_units_Z 32
_cell_length_a 8.975301
_cell_length_b 14.482600
_cell_length_c 12.293813
_cell_angle_alpha 90.000000
_cell_angle_beta 90.000000
_cell_angle_gamma 90.000000
_cell_volume 1598.019818
_symmetry_space_group_name_H-M "P M A 2"
_symmetry_group_IT_number 28
_symmetry_cell_setting 'orthorhombic'
loop_
_space_group_symop_operation_xyz
x,y,z
-x,-y,z
1/2-x,y,z
1/2+x,-y,z
loop_
_atom_site_type_symbol
_atom_site_label
_atom_site_fract_x
_atom_site_fract_y
_atom_site_fract_z
Si Si1 0.425382 0.790628 0.524390
Si Si2 0.073929 0.775106 0.938245
Si Si3 0.574123 0.099797 0.733427
Si Si4 0.576663 0.909173 0.093318
Si Si5 0.914303 0.838316 0.317874
Si Si6 0.581893 0.633062 0.245394
Si Si7 0.574582 0.409827 0.459748
Si Si8 0.573287 0.593939 0.998941
O O1 0.250000 0.786551 0.530215
O O2 0.488702 0.844110 0.628989
O O3 0.470149 0.847483 0.416492
O O4 0.486293 0.684757 0.516351
O O5 0.250000 0.762670 0.949043
O O6 0.029564 0.838930 0.836630
O O7 0.007868 0.820883 0.046330
O O8 0.997649 0.675309 0.926149
O O9 0.750000 0.085133 0.725047
O O10 0.500000 0.000000 0.741215
O O11 0.750000 0.905790 0.060101
O O12 0.555000 0.913214 0.223994
O O13 0.500000 0.000000 0.043031
O O14 0.750000 0.851443 0.368644
O O15 0.925157 0.742600 0.253928
O O16 0.750000 0.597503 0.268560
O O17 0.469583 0.588887 0.332526
O O18 0.528471 0.605382 0.125340
O O19 0.500000 0.500000 0.516307
O O20 0.750000 0.417574 0.472062
O O21 0.500000 0.500000 0.955005
O O22 0.750000 0.593153 0.982424
#
# Coordination Sequence:
#
# PCOD8168112 Si02
#       8
#     4   4   4   4   4   4   4   4
#     4   9  20  38  58  82 114 149 189 237 289 345
#     4  11  23  40  62  86 115 153 195 245 297 349
#     4  10  23  43  65  88 113 145 192 246 298 351
#     4  11  22  37  56  84 119 154 191 238 293 355
#     4   9  18  34  54  80 116 153 188 233 285 340
#     4   9  17  32  52  77 112 153 192 232 276 329
#     4  10  19  31  51  80 113 152 191 231 277 334
#     4  11  22  37  57  85 120 158 197 241 290 346
#
# _framework density 20.024781999999998
#
# number of rings (size 3 to 8) (size 9 to 14) (size 15 to 20)
#    0.000    2.000    1.250    2.250    0.000    6.500 
#    0.000    3.125    0.000    1.500    0.000    0.000 
#    0.000    0.000    0.000    0.000    0.000    0.000 
#
# Total GULP energy -396777.077584 kJ/mol
# GULP energy per Si atom -12399.283674 kJ/mol
# Density = 1.997920 g / cm^3
# Si number density = 20.024782 Si / 1000 Ang^3
#
#
#
# Elastic Constant Matrix: (Units=GPa)
#
#
# Indices 1 2 3 4 5 6 
#
# 1 77.8933 57.0011 38.1253 0.0000 0.0000 0.0000
# 2 57.0011 142.3806 51.9192 0.0000 0.0000 0.0000
# 3 38.1253 51.9192 86.9513 0.0000 0.0000 0.0000
# 4 0.0000 0.0000 0.0000 24.6929 0.0000 0.0000
# 5 0.0000 0.0000 0.0000 0.0000 23.0495 0.0000
# 6 0.0000 0.0000 0.0000 0.0000 0.0000 33.7834
#
#
#
# Elastic Compliance Matrix: (Units=1/GPa)
#
#
# Indices 1 2 3 4 5 6 
#
# 1 0.019742 -0.006068 -0.005033 0.000000 0.000000 0.000000
# 2 -0.006068 0.010844 -0.003814 0.000000 0.000000 0.000000
# 3 -0.005033 -0.003814 0.015985 0.000000 0.000000 0.000000
# 4 0.000000 0.000000 0.000000 0.040498 0.000000 0.000000
# 5 0.000000 0.000000 0.000000 0.000000 0.043385 0.000000
# 6 0.000000 0.000000 0.000000 0.000000 0.000000 0.029600
#
#
# Mechanical properties :
#
#
# Convention : Reuss Voigt Hill
#
# Bulk Modulus (GPa) = 59.73668 66.81294 63.27481
# Shear Modulus (GPa) = 25.58017 26.98380 26.28199
#
# Velocity S-wave (km/s) = 3.57799 3.67484 3.62674
# Velocity P-wave (km/s) = 6.85313 7.17241 7.01459
#
# Compressibility (1/GPa) = 0.01674013
#
# Stress axis : x y z
#
# Youngs Moduli (GPa) = 50.65297 92.21975 62.55948
#
# Poissons Ratio (x) = 0.55963 0.31485
# Poissons Ratio (y) = 0.30738 0.23860
# Poissons Ratio (z) = 0.25493 0.35173
#
# Static dielectric constant tensor:
#      x y z
#    x 3.539640 0.000000 0.000000 
#    y 0.000000 3.899370 0.000000 
#    z 0.000000 0.000000 3.494690 
# 
# 
# High freq. dielectric constant tensor:
#      x y z
#    x 1.778430 0.000000 0.000000 
#    y 0.000000 1.793870 0.000000 
#    z 0.000000 0.000000 1.756110 
# 
# From -- ./inp_files/5051.got.cif
#   From: 2010.03.12/outbox.cif.g09.slc.cpg/sg28_3_cif.got.tgz:5051.got - 2010.04.14 03:39:34.
