data_PCOD8168154
_publ_section_title
;
Structure prediction by ZEFSAII (Michael W. Deem and Ramdas Pophale) SiO2 
 PCOD8168154
Probable space group: P M A 2
;
_chemical_formula_sum "Si O2"
_cell_formula_units_Z 32
_cell_length_a 8.826978
_cell_length_b 16.465510
_cell_length_c 11.297551
_cell_angle_alpha 90.000000
_cell_angle_beta 90.000000
_cell_angle_gamma 90.000000
_cell_volume 1641.993909
_symmetry_space_group_name_H-M "P M A 2"
_symmetry_group_IT_number 28
_symmetry_cell_setting 'orthorhombic'
loop_
_space_group_symop_operation_xyz
x,y,z
-x,-y,z
1/2-x,y,z
1/2+x,-y,z
loop_
_atom_site_type_symbol
_atom_site_label
_atom_site_fract_x
_atom_site_fract_y
_atom_site_fract_z
Si Si1 0.570410 0.916051 0.093000
Si Si2 0.079319 0.618617 0.791993
Si Si3 0.077166 0.077038 0.827724
Si Si4 0.429766 0.587650 0.062822
Si Si5 0.584316 0.203790 0.689544
Si Si6 0.923640 0.271436 0.443021
Si Si7 0.428677 0.256741 0.196905
Si Si8 0.572796 0.578834 0.564472
O O1 0.750000 0.922731 0.106263
O O2 0.512990 0.830983 0.149633
O O3 0.500000 0.000000 0.148611
O O4 0.510632 0.908297 0.958621
O O5 0.250000 0.584509 0.771566
O O6 0.075356 0.712381 0.758898
O O7 0.959205 0.574927 0.705842
O O8 0.026491 0.604213 0.926397
O O9 0.250000 0.057792 0.840654
O O10 0.051242 0.152385 0.742827
O O11 0.000000 0.000000 0.766569
O O12 0.500000 0.500000 0.102219
O O13 0.250000 0.583849 0.082017
O O14 0.492891 0.664152 0.138099
O O15 0.750000 0.165154 0.714732
O O16 0.559921 0.205845 0.548033
O O17 0.750000 0.278224 0.399414
O O18 0.033489 0.251884 0.335269
O O19 0.974849 0.353552 0.502816
O O20 0.250000 0.266406 0.176908
O O21 0.500000 0.500000 0.504431
O O22 0.750000 0.588178 0.538348
#
# Coordination Sequence:
#
# PCOD8168154 Si02
#       8
#     4   4   4   4   4   4   4   4
#     4   9  20  37  59  88 118 147 183 229 279 335
#     4   9  19  35  55  81 112 145 182 226 279 337
#     4  10  19  32  53  82 114 144 175 215 267 327
#     4  11  23  38  57  83 116 155 195 236 285 339
#     4   9  18  34  55  79 108 140 176 221 272 329
#     4  10  22  40  58  78 106 142 186 230 275 330
#     4  11  23  40  60  84 114 149 193 241 287 336
#     4  11  21  34  55  81 109 142 181 228 280 331
#
# _framework density 19.488502
#
# number of rings (size 3 to 8) (size 9 to 14) (size 15 to 20)
#    0.000    2.000    0.000    4.500    0.000    6.500 
#    0.000    3.125    0.000    1.500    0.000    0.000 
#    0.000    0.000    0.000    0.000    0.000    0.000 
#
# Total GULP energy -396560.772085 kJ/mol
# GULP energy per Si atom -12392.524128 kJ/mol
# Density = 1.944415 g / cm^3
# Si number density = 19.488502 Si / 1000 Ang^3
#
#
#
# Elastic Constant Matrix: (Units=GPa)
#
#
# Indices 1 2 3 4 5 6 
#
# 1 52.8936 34.5266 20.4464 0.0000 0.0000 0.0000
# 2 34.5266 120.0292 44.7381 0.0000 0.0000 0.0000
# 3 20.4464 44.7381 76.8252 0.0000 0.0000 0.0000
# 4 0.0000 0.0000 0.0000 -1.0651 0.0000 0.0000
# 5 0.0000 0.0000 0.0000 0.0000 30.0110 0.0000
# 6 0.0000 0.0000 0.0000 0.0000 0.0000 35.5024
#
#
#
# Elastic Compliance Matrix: (Units=1/GPa)
#
#
# Indices 1 2 3 4 5 6 
#
# 1 0.023805 -0.005730 -0.002999 0.000000 0.000000 0.000000
# 2 -0.005730 0.012020 -0.005475 0.000000 0.000000 0.000000
# 3 -0.002999 -0.005475 0.017003 0.000000 0.000000 0.000000
# 4 0.000000 0.000000 0.000000 -0.938859 0.000000 0.000000
# 5 0.000000 0.000000 0.000000 0.000000 0.033321 0.000000
# 6 0.000000 0.000000 0.000000 0.000000 0.000000 0.028167
#
#
# Mechanical properties :
#
#
# Convention : Reuss Voigt Hill
#
# Bulk Modulus (GPa) = 40.94804 49.90783 45.42793
# Shear Modulus (GPa) = -6.34522 22.89211 8.27344
#
# Velocity S-wave (km/s) = -1.80636 3.43103 2.06265
# Velocity P-wave (km/s) = 4.08735 6.43121 5.38827
#
# Compressibility (1/GPa) = 0.02442119
#
# Stress axis : x y z
#
# Youngs Moduli (GPa) = 42.00738 83.19383 58.81361
#
# Poissons Ratio (x) = 0.47669 0.17638
# Poissons Ratio (y) = 0.24070 0.32199
# Poissons Ratio (z) = 0.12598 0.45547
#
# Static dielectric constant tensor:
#      x y z
#    x 3.590260 0.000000 0.000000 
#    y 0.000000 3.704750 0.000000 
#    z 0.000000 0.000000 3.599710 
# 
# 
# High freq. dielectric constant tensor:
#      x y z
#    x 1.762820 0.000000 0.000000 
#    y 0.000000 1.763920 0.000000 
#    z 0.000000 0.000000 1.746110 
# 
# From -- ./inp_files/5027.got.cif
#   From: 2010.03.12/outbox.cif.g09.slc.cpg/sg28_3_cif.got.tgz:5027.got - 2010.04.14 03:39:34.
