data_PCOD8168175
_publ_section_title
;
Structure prediction by ZEFSAII (Michael W. Deem and Ramdas Pophale) SiO2 
 PCOD8168175
Probable space group: P M A 2
;
_chemical_formula_sum "Si O2"
_cell_formula_units_Z 32
_cell_length_a 16.253390
_cell_length_b 9.137580
_cell_length_c 11.600724
_cell_angle_alpha 90.000000
_cell_angle_beta 90.000000
_cell_angle_gamma 90.000000
_cell_volume 1722.900682
_symmetry_space_group_name_H-M "P M A 2"
_symmetry_group_IT_number 28
_symmetry_cell_setting 'orthorhombic'
loop_
_space_group_symop_operation_xyz
x,y,z
-x,-y,z
1/2-x,y,z
1/2+x,-y,z
loop_
_atom_site_type_symbol
_atom_site_label
_atom_site_fract_x
_atom_site_fract_y
_atom_site_fract_z
Si Si1 0.654767 0.802313 0.745250
Si Si2 0.028492 0.336326 0.352464
Si Si3 0.158682 0.410608 0.186634
Si Si4 0.845159 0.096839 0.994185
Si Si5 0.903067 0.783878 0.003237
Si Si6 0.921308 0.096672 0.761353
Si Si7 0.514894 0.673737 0.608779
Si Si8 0.562638 0.304317 0.133046
O O1 0.750000 0.761482 0.737828
O O2 0.618549 0.759235 0.870100
O O3 0.605819 0.700533 0.657094
O O4 0.642523 0.974664 0.712097
O O5 0.122447 0.337386 0.303761
O O6 0.018301 0.263905 0.477806
O O7 0.000000 0.500000 0.370485
O O8 0.971653 0.253300 0.257913
O O9 0.250000 0.472849 0.212098
O O10 0.091916 0.528678 0.142561
O O11 0.164731 0.293585 0.083931
O O12 0.750000 0.055784 0.978427
O O13 0.857095 0.211795 0.097617
O O14 0.880063 0.166437 0.875120
O O15 0.897963 0.955777 0.028922
O O16 0.993465 0.720833 0.034495
O O17 0.945298 0.228265 0.674225
O O18 0.000000 0.000000 0.797911
O O19 0.500000 0.500000 0.619633
#
# Coordination Sequence:
#
# PCOD8168175 Si02
#       8
#     4   4   4   4   4   4   4   4
#     4  10  20  35  54  77 108 142 176 218 271 324
#     4   8  18  35  53  72  99 138 175 208 258 315
#     4  10  19  33  54  79 106 134 170 216 263 309
#     4  11  20  32  52  78 107 136 171 215 262 310
#     4  10  19  34  52  74 105 141 172 203 257 323
#     4   9  18  34  54  74 102 142 176 208 263 328
#     4  10  20  36  57  78 101 136 183 226 262 312
#     4  10  19  33  53  76 103 137 174 212 257 315
#
# _framework density 18.573328
#
# number of rings (size 3 to 8) (size 9 to 14) (size 15 to 20)
#    0.000    2.250    0.000    6.375    0.000    2.500 
#    0.000   10.625    0.000   10.500    0.000    0.000 
#    0.000    0.000    0.000    0.000    0.000    0.000 
#
# Total GULP energy -396476.933943 kJ/mol
# GULP energy per Si atom -12389.904186 kJ/mol
# Density = 1.853105 g / cm^3
# Si number density = 18.573328 Si / 1000 Ang^3
#
#
#
# Elastic Constant Matrix: (Units=GPa)
#
#
# Indices 1 2 3 4 5 6 
#
# 1 103.4063 30.1805 57.9310 0.0000 0.0000 0.0000
# 2 30.1805 66.9248 56.8419 0.0000 0.0000 0.0000
# 3 57.9310 56.8419 132.0468 0.0000 0.0000 0.0000
# 4 0.0000 0.0000 0.0000 16.2767 0.0000 0.0000
# 5 0.0000 0.0000 0.0000 0.0000 12.7256 0.0000
# 6 0.0000 0.0000 0.0000 0.0000 0.0000 25.4995
#
#
#
# Elastic Compliance Matrix: (Units=1/GPa)
#
#
# Indices 1 2 3 4 5 6 
#
# 1 0.012929 -0.001597 -0.004985 0.000000 0.000000 0.000000
# 2 -0.001597 0.023751 -0.009523 0.000000 0.000000 0.000000
# 3 -0.004985 -0.009523 0.013860 0.000000 0.000000 0.000000
# 4 0.000000 0.000000 0.000000 0.061437 0.000000 0.000000
# 5 0.000000 0.000000 0.000000 0.000000 0.078582 0.000000
# 6 0.000000 0.000000 0.000000 0.000000 0.000000 0.039216
#
#
# Mechanical properties :
#
#
# Convention : Reuss Voigt Hill
#
# Bulk Modulus (GPa) = 54.55689 65.80940 60.18314
# Shear Modulus (GPa) = 18.65006 21.39532 20.02269
#
# Velocity S-wave (km/s) = 3.17224 3.39770 3.28691
# Velocity P-wave (km/s) = 6.54638 7.13454 6.84678
#
# Compressibility (1/GPa) = 0.01832949
#
# Stress axis : x y z
#
# Youngs Moduli (GPa) = 77.34356 42.10377 72.15210
#
# Poissons Ratio (x) = 0.06723 0.35968
# Poissons Ratio (y) = 0.12349 0.68714
# Poissons Ratio (z) = 0.38556 0.40097
#
# Static dielectric constant tensor:
#      x y z
#    x 3.476790 0.000000 0.000000 
#    y 0.000000 3.361190 0.000000 
#    z 0.000000 0.000000 3.563880 
# 
# 
# High freq. dielectric constant tensor:
#      x y z
#    x 1.722580 0.000000 0.000000 
#    y 0.000000 1.704300 0.000000 
#    z 0.000000 0.000000 1.712590 
# 
# From -- ./inp_files/5729.got.cif
#   From: 2010.03.12/outbox.cif.g09.slc.cpg/sg28_3_cif.got.tgz:5729.got - 2010.04.14 03:39:34.
