data_PCOD8168527
_publ_section_title
;
Structure prediction by ZEFSAII (Michael W. Deem and Ramdas Pophale) SiO2 
 PCOD8168527
Probable space group: P C A 21
;
_chemical_formula_sum "Si O2"
_cell_formula_units_Z 32
_cell_length_a 15.379979
_cell_length_b 18.683400
_cell_length_c 5.293686
_cell_angle_alpha 90.000000
_cell_angle_beta 90.000000
_cell_angle_gamma 90.000000
_cell_volume 1521.142258
_symmetry_space_group_name_H-M "P C A 21"
_symmetry_group_IT_number 29
_symmetry_cell_setting 'orthorhombic'
loop_
_space_group_symop_operation_xyz
x,y,z
-x,-y,1/2+z
1/2-x,y,1/2+z
1/2+x,-y,z
loop_
_atom_site_type_symbol
_atom_site_label
_atom_site_fract_x
_atom_site_fract_y
_atom_site_fract_z
Si Si1 0.696418 0.881416 0.175410
Si Si2 0.806148 0.499533 0.148400
Si Si3 0.148136 0.345266 0.685234
Si Si4 0.657405 0.283481 0.151695
Si Si5 0.648500 0.343589 0.651492
Si Si6 0.945083 0.999026 0.644513
Si Si7 0.196273 0.882521 0.158470
Si Si8 0.158195 0.285199 0.185108
O O1 0.747113 0.901473 0.430626
O O2 0.671910 0.798760 0.169772
O O3 0.608931 0.926414 0.169907
O O4 0.736283 0.499884 0.372200
O O5 0.866788 0.569479 0.173719
O O6 0.865317 0.428781 0.171781
O O7 0.105890 0.306714 0.439725
O O8 0.250565 0.326995 0.696678
O O9 0.104840 0.312658 0.939550
O O10 0.604502 0.312766 0.395346
O O11 0.749647 0.323614 0.131806
O O12 0.667913 0.199271 0.173671
O O13 0.605774 0.304736 0.895476
O O14 0.888094 0.069343 0.687075
O O15 0.983167 0.001779 0.362953
O O16 0.259362 0.900451 0.391648
#
# Coordination Sequence:
#
# PCOD8168527 Si02
#       8
#     4   4   4   4   4   4   4   4
#     4  12  21  38  65  88 105 145 197 236 270 332
#     4  12  16  20  34  52  96 158 162 190 260 354
#     4  10  16  25  36  65 105 135 177 207 271 311
#     4  10  16  27  44  69  99 125 178 227 258 295
#     4  10  16  25  36  65 105 135 177 207 271 311
#     4  12  28  46  58  84 122 150 174 232 300 348
#     4  12  21  38  65  88 105 145 197 236 270 332
#     4  10  16  27  44  69  99 125 178 227 258 295
#
# _framework density 21.036821
#
# number of rings (size 3 to 8) (size 9 to 14) (size 15 to 20)
#    0.000    1.000   10.000    2.250    0.000    0.000 
#    0.000    0.000    0.000    0.000    0.000    0.000 
#    0.000    0.000    0.000   38.250    0.000    0.500 
#
# Total GULP energy -396677.960662 kJ/mol
# GULP energy per Si atom -12396.186271 kJ/mol
# Density = 2.098894 g / cm^3
# Si number density = 21.036821 Si / 1000 Ang^3
#
#
#
# Elastic Constant Matrix: (Units=GPa)
#
#
# Indices 1 2 3 4 5 6 
#
# 1 16.3469 22.5655 -7.0509 0.0000 0.0000 0.0000
# 2 22.5655 109.5024 7.7130 0.0000 0.0000 0.0000
# 3 -7.0509 7.7130 156.7580 0.0000 0.0000 0.0000
# 4 0.0000 0.0000 0.0000 21.3687 0.0000 0.0000
# 5 0.0000 0.0000 0.0000 0.0000 16.8076 0.0000
# 6 0.0000 0.0000 0.0000 0.0000 0.0000 0.5735
#
#
#
# Elastic Compliance Matrix: (Units=1/GPa)
#
#
# Indices 1 2 3 4 5 6 
#
# 1 0.089136 -0.018716 0.004930 0.000000 0.000000 0.000000
# 2 -0.018716 0.013094 -0.001486 0.000000 0.000000 0.000000
# 3 0.004930 -0.001486 0.006674 0.000000 0.000000 0.000000
# 4 0.000000 0.000000 0.000000 0.046798 0.000000 0.000000
# 5 0.000000 0.000000 0.000000 0.000000 0.059497 0.000000
# 6 0.000000 0.000000 0.000000 0.000000 0.000000 1.743533
#
#
# Mechanical properties :
#
#
# Convention : Reuss Voigt Hill
#
# Bulk Modulus (GPa) = 12.76153 36.56248 24.66201
# Shear Modulus (GPa) = 2.48090 25.04193 13.76142
#
# Velocity S-wave (km/s) = 1.08714 3.45394 2.56043
# Velocity P-wave (km/s) = 2.76682 5.77271 4.52656
#
# Compressibility (1/GPa) = 0.07836050
#
# Stress axis : x y z
#
# Youngs Moduli (GPa) = 11.21881 76.37252 149.83205
#
# Poissons Ratio (x) = 1.42937 -0.73870
# Poissons Ratio (y) = 0.20997 0.22266
# Poissons Ratio (z) = -0.05531 0.11350
#
# Static dielectric constant tensor:
#      x y z
#    x 2.998500 0.000000 0.000000 
#    y 0.000000 4.014760 0.000000 
#    z 0.000000 0.000000 6.474590 
# 
# 
# High freq. dielectric constant tensor:
#      x y z
#    x 1.737950 0.000000 0.000000 
#    y 0.000000 1.843510 0.000000 
#    z 0.000000 0.000000 1.869660 
# 
# From -- ./inp_files/287.got.cif
#   From: 2010.03.12/outbox.cif.g09.slc.cpg/sg29_1_cif.got.tgz:287.got - 2010.04.14 03:43:10.
