data_PCOD8168950
_publ_section_title
;
Structure prediction by ZEFSAII (Michael W. Deem and Ramdas Pophale) SiO2 
 PCOD8168950
Probable space group: P C A 21
;
_chemical_formula_sum "Si O2"
_cell_formula_units_Z 24
_cell_length_a 12.778665
_cell_length_b 6.432533
_cell_length_c 13.429919
_cell_angle_alpha 90.000000
_cell_angle_beta 90.000000
_cell_angle_gamma 90.000000
_cell_volume 1103.928387
_symmetry_space_group_name_H-M "P C A 21"
_symmetry_group_IT_number 29
_symmetry_cell_setting 'orthorhombic'
loop_
_space_group_symop_operation_xyz
x,y,z
-x,-y,1/2+z
1/2-x,y,1/2+z
1/2+x,-y,z
loop_
_atom_site_type_symbol
_atom_site_label
_atom_site_fract_x
_atom_site_fract_y
_atom_site_fract_z
Si Si1 0.978289 0.240316 0.932970
Si Si2 0.753597 0.408558 0.920220
Si Si3 0.037701 0.499769 0.120442
Si Si4 0.397453 0.890969 0.524597
Si Si5 0.234415 0.266535 0.095400
Si Si6 0.875099 0.620449 0.261354
O O1 0.857249 0.268767 0.903913
O O2 0.053534 0.251819 0.837474
O O3 0.007352 0.419923 0.010639
O O4 0.002471 0.014070 0.979959
O O5 0.721940 0.510077 0.815492
O O6 0.656029 0.261320 0.945355
O O7 0.771576 0.587310 0.003439
O O8 0.058762 0.748871 0.114552
O O9 0.141280 0.380742 0.155182
O O10 0.948556 0.454573 0.202615
O O11 0.304884 0.043583 0.559155
O O12 0.327445 0.231466 0.174623
#
# Coordination Sequence:
#
# PCOD8168950 Si02
#       6
#     4   4   4   4   4   4
#     4  11  23  44  67  99 136 179 225 283 340 405
#     4  11  23  44  70  95 140 179 226 283 345 406
#     4  10  22  44  68  94 135 175 222 283 343 402
#     4  10  22  46  66  97 139 176 225 289 333 400
#     4  10  22  44  66  96 132 175 228 281 341 407
#     4  12  22  44  71  95 132 182 224 271 352 408
#
# _framework density 21.740539999999999
#
# number of rings (size 3 to 8) (size 9 to 14) (size 15 to 20)
#    0.000    1.333    6.667    1.000    2.333    0.000 
#   15.000    0.000    0.000    0.000    0.000    0.000 
#    0.000    0.000    0.000    0.000    0.000    0.000 
#
# Total GULP energy -297494.039581 kJ/mol
# GULP energy per Si atom -12395.584983 kJ/mol
# Density = 2.169106 g / cm^3
# Si number density = 21.740540 Si / 1000 Ang^3
#
#
#
# Elastic Constant Matrix: (Units=GPa)
#
#
# Indices 1 2 3 4 5 6 
#
# 1 82.2646 -1.0643 21.1326 0.0000 0.0000 0.0000
# 2 -1.0643 80.5227 13.1870 0.0000 0.0000 0.0000
# 3 21.1326 13.1870 96.5690 0.0000 0.0000 0.0000
# 4 0.0000 0.0000 0.0000 11.3207 0.0000 0.0000
# 5 0.0000 0.0000 0.0000 0.0000 52.0802 0.0000
# 6 0.0000 0.0000 0.0000 0.0000 0.0000 22.3781
#
#
#
# Elastic Compliance Matrix: (Units=1/GPa)
#
#
# Indices 1 2 3 4 5 6 
#
# 1 0.012913 0.000648 -0.002914 0.000000 0.000000 0.000000
# 2 0.000648 0.012735 -0.001881 0.000000 0.000000 0.000000
# 3 -0.002914 -0.001881 0.011250 0.000000 0.000000 0.000000
# 4 0.000000 0.000000 0.000000 0.088334 0.000000 0.000000
# 5 0.000000 0.000000 0.000000 0.000000 0.019201 0.000000
# 6 0.000000 0.000000 0.000000 0.000000 0.000000 0.044686
#
#
# Mechanical properties :
#
#
# Convention : Reuss Voigt Hill
#
# Bulk Modulus (GPa) = 34.96037 36.20744 35.58390
# Shear Modulus (GPa) = 24.16058 32.22920 28.19489
#
# Velocity S-wave (km/s) = 3.33725 3.85443 3.60513
# Velocity P-wave (km/s) = 5.56465 6.04147 5.80796
#
# Compressibility (1/GPa) = 0.02860381
#
# Stress axis : x y z
#
# Youngs Moduli (GPa) = 77.44181 78.52101 88.88985
#
# Poissons Ratio (x) = -0.05088 0.25905
# Poissons Ratio (y) = -0.05018 0.16719
# Poissons Ratio (z) = 0.22569 0.14769
#
# Static dielectric constant tensor:
#      x y z
#    x 4.196030 0.000000 0.000000 
#    y 0.000000 3.743850 0.000000 
#    z 0.000000 0.000000 3.844720 
# 
# 
# High freq. dielectric constant tensor:
#      x y z
#    x 1.871220 0.000000 0.000000 
#    y 0.000000 1.832310 0.000000 
#    z 0.000000 0.000000 1.846630 
# 
# From -- ./inp_files/4442.got.cif
#   From: 2010.03.12/outbox.cif.g09.slc.cpg/sg29_3_cif.got.tgz:4442.got - 2010.04.14 03:43:10.
