data_PCOD8168497
_publ_section_title
;
Structure prediction by ZEFSAII (Michael W. Deem and Ramdas Pophale) SiO2 
 PCOD8168497
Probable space group: P M A 2
;
_chemical_formula_sum "Si O2"
_cell_formula_units_Z 18
_cell_length_a 9.724457
_cell_length_b 7.779959
_cell_length_c 10.263001
_cell_angle_alpha 90.000000
_cell_angle_beta 90.000000
_cell_angle_gamma 90.000000
_cell_volume 776.456339
_symmetry_space_group_name_H-M "P M A 2"
_symmetry_group_IT_number 28
_symmetry_cell_setting 'orthorhombic'
loop_
_space_group_symop_operation_xyz
x,y,z
-x,-y,z
1/2-x,y,z
1/2+x,-y,z
loop_
_atom_site_type_symbol
_atom_site_label
_atom_site_fract_x
_atom_site_fract_y
_atom_site_fract_z
Si Si1 0.750000 0.243315 0.185951
Si Si2 0.750000 0.714886 0.399212
Si Si3 0.250000 0.140685 0.134325
Si Si4 0.486849 0.691217 0.010154
Si Si5 0.500000 0.500000 0.457113
Si Si6 0.750000 0.281131 0.496817
Si Si7 0.750000 0.932537 0.650896
Si Si8 0.500000 0.000000 0.827678
O O1 0.616379 0.338745 0.130881
O O2 0.750000 0.246040 0.341716
O O3 0.750000 0.060708 0.111361
O O4 0.750000 0.860564 0.291542
O O5 0.608996 0.609222 0.371363
O O6 0.750000 0.777854 0.547671
O O7 0.375468 0.234994 0.069475
O O8 0.500000 0.500000 0.945040
O O9 0.437364 0.837965 0.908051
O O10 0.607800 0.379480 0.539058
O O11 0.750000 0.106104 0.571427
O O12 0.617317 0.915336 0.739935
#
# Coordination Sequence:
#
# PCOD8168497 Si02
#       8
#     2   2   2   4   2   2   2   2
#     4  12  23  43  72 102 146 178 227 291 362 424
#     4  11  24  44  67 109 133 191 219 283 361 423
#     4  12  23  43  72 102 146 178 227 291 362 424
#     4  12  27  46  73 103 139 188 238 287 352 412
#     4  10  24  40  64  98 154 162 230 278 336 430
#     4  11  24  44  67 109 133 191 219 283 361 423
#     4  12  26  48  76  92 140 184 244 280 348 414
#     4  12  26  50  72 100 138 194 246 296 328 400
#
# _framework density 23.182245999999999
#
# number of rings (size 3 to 8) (size 9 to 14) (size 15 to 20)
#    0.000    0.444    3.333    4.667    9.333    0.000 
#   12.000    0.000    0.000    0.000    0.000    0.000 
#    0.000    0.000    0.000    0.000    0.000    0.000 
#
# Total GULP energy -223007.335878 kJ/mol
# GULP energy per Si atom -12389.296438 kJ/mol
# Density = 2.312948 g / cm^3
# Si number density = 23.182246 Si / 1000 Ang^3
#
#
#
# Elastic Constant Matrix: (Units=GPa)
#
#
# Indices 1 2 3 4 5 6 
#
# 1 166.5104 11.7859 23.3887 0.0000 0.0000 0.0000
# 2 11.7859 137.2348 24.0390 0.0000 0.0000 0.0000
# 3 23.3887 24.0390 100.1624 0.0000 0.0000 0.0000
# 4 0.0000 0.0000 0.0000 19.4616 0.0000 0.0000
# 5 0.0000 0.0000 0.0000 0.0000 29.2861 0.0000
# 6 0.0000 0.0000 0.0000 0.0000 0.0000 35.8189
#
#
#
# Elastic Compliance Matrix: (Units=1/GPa)
#
#
# Indices 1 2 3 4 5 6 
#
# 1 0.006220 -0.000292 -0.001382 0.000000 0.000000 0.000000
# 2 -0.000292 0.007620 -0.001761 0.000000 0.000000 0.000000
# 3 -0.001382 -0.001761 0.010729 0.000000 0.000000 0.000000
# 4 0.000000 0.000000 0.000000 0.051383 0.000000 0.000000
# 5 0.000000 0.000000 0.000000 0.000000 0.034146 0.000000
# 6 0.000000 0.000000 0.000000 0.000000 0.000000 0.027918
#
#
# Mechanical properties :
#
#
# Convention : Reuss Voigt Hill
#
# Bulk Modulus (GPa) = 56.49852 58.03719 57.26785
# Shear Modulus (GPa) = 33.15922 39.89290 36.52606
#
# Velocity S-wave (km/s) = 3.78613 4.15280 3.97370
# Velocity P-wave (km/s) = 6.59829 6.93425 6.76835
#
# Compressibility (1/GPa) = 0.01769958
#
# Stress axis : x y z
#
# Youngs Moduli (GPa) = 160.75914 131.22880 93.20394
#
# Poissons Ratio (x) = 0.03833 0.12885
# Poissons Ratio (y) = 0.04695 0.16410
# Poissons Ratio (z) = 0.22224 0.23105
#
# Static dielectric constant tensor:
#      x y z
#    x 4.324910 0.000000 0.000000 
#    y 0.000000 4.525110 0.000000 
#    z 0.000000 0.000000 4.052930 
# 
# 
# High freq. dielectric constant tensor:
#      x y z
#    x 1.934250 0.000000 0.000000 
#    y 0.000000 1.932330 0.000000 
#    z 0.000000 0.000000 1.894710 
# 
# From -- ./inp_files/4649.got.cif
#   From: 2010.03.12/outbox.cif.g09.slc.cpg/sg28_3_cif.got.tgz:4649.got - 2010.04.14 03:39:34.
