data_PCOD8168741
_publ_section_title
;
Structure prediction by ZEFSAII (Michael W. Deem and Ramdas Pophale) SiO2 
 PCOD8168741
Probable space group: P C A 21
;
_chemical_formula_sum "Si O2"
_cell_formula_units_Z 20
_cell_length_a 15.096560
_cell_length_b 5.143129
_cell_length_c 12.347912
_cell_angle_alpha 90.000000
_cell_angle_beta 90.000000
_cell_angle_gamma 90.000000
_cell_volume 958.735791
_symmetry_space_group_name_H-M "P C A 21"
_symmetry_group_IT_number 29
_symmetry_cell_setting 'orthorhombic'
loop_
_space_group_symop_operation_xyz
x,y,z
-x,-y,1/2+z
1/2-x,y,1/2+z
1/2+x,-y,z
loop_
_atom_site_type_symbol
_atom_site_label
_atom_site_fract_x
_atom_site_fract_y
_atom_site_fract_z
Si Si1 0.271508 0.962547 0.584700
Si Si2 0.918444 0.268151 0.711006
Si Si3 0.425074 0.080636 0.079605
Si Si4 0.965809 0.422829 0.944616
Si Si5 0.148340 0.469288 0.014139
O O1 0.171550 0.003678 0.624861
O O2 0.299354 0.201550 0.508636
O O3 0.335393 0.930005 0.689994
O O4 0.281773 0.708706 0.506437
O O5 0.905466 0.509714 0.628656
O O6 0.011332 0.126423 0.682731
O O7 0.916552 0.377873 0.831416
O O8 0.418124 0.338199 0.005068
O O9 0.463447 0.844835 0.010394
O O10 0.070599 0.486164 0.923675
#
# Coordination Sequence:
#
# PCOD8168741 Si02
#       5
#     4   4   4   4   4
#     4  10  20  41  60  85 130 162 201 269 305 361
#     4   9  23  39  65  88 129 159 210 255 315 373
#     4  11  23  40  65  90 128 165 208 259 319 372
#     4  11  21  39  65  92 122 172 204 253 323 378
#     4   9  19  39  59  85 125 160 197 270 298 362
#
# _framework density 20.860804999999999
#
# number of rings (size 3 to 8) (size 9 to 14) (size 15 to 20)
#    1.200    0.800    2.000    1.200    2.800    0.000 
#    3.600    2.000    0.000    0.000    0.000    0.000 
#    0.000    0.000    0.000    0.000    0.000    0.000 
#
# Total GULP energy -247800.461369 kJ/mol
# GULP energy per Si atom -12390.023068 kJ/mol
# Density = 2.081332 g / cm^3
# Si number density = 20.860805 Si / 1000 Ang^3
#
#
#
# Elastic Constant Matrix: (Units=GPa)
#
#
# Indices 1 2 3 4 5 6 
#
# 1 143.8016 23.9784 26.1708 0.0000 0.0000 0.0000
# 2 23.9784 136.0388 24.0267 0.0000 0.0000 0.0000
# 3 26.1708 24.0267 52.3533 0.0000 0.0000 0.0000
# 4 0.0000 0.0000 0.0000 20.1567 0.0000 0.0000
# 5 0.0000 0.0000 0.0000 0.0000 12.9956 0.0000
# 6 0.0000 0.0000 0.0000 0.0000 0.0000 35.6385
#
#
#
# Elastic Compliance Matrix: (Units=1/GPa)
#
#
# Indices 1 2 3 4 5 6 
#
# 1 0.007718 -0.000739 -0.003519 0.000000 0.000000 0.000000
# 2 -0.000739 0.008070 -0.003334 0.000000 0.000000 0.000000
# 3 -0.003519 -0.003334 0.022390 0.000000 0.000000 0.000000
# 4 0.000000 0.000000 0.000000 0.049611 0.000000 0.000000
# 5 0.000000 0.000000 0.000000 0.000000 0.076949 0.000000
# 6 0.000000 0.000000 0.000000 0.000000 0.000000 0.028060
#
#
# Mechanical properties :
#
#
# Convention : Reuss Voigt Hill
#
# Bulk Modulus (GPa) = 43.48975 53.39395 48.44185
# Shear Modulus (GPa) = 23.18613 30.95934 27.07274
#
# Velocity S-wave (km/s) = 3.33749 3.85657 3.60638
# Velocity P-wave (km/s) = 5.97868 6.74402 6.37285
#
# Compressibility (1/GPa) = 0.02299392
#
# Stress axis : x y z
#
# Youngs Moduli (GPa) = 129.57342 123.91641 44.66229
#
# Poissons Ratio (x) = 0.09155 0.15716
# Poissons Ratio (y) = 0.09573 0.14891
# Poissons Ratio (z) = 0.45595 0.41317
#
# Static dielectric constant tensor:
#      x y z
#    x 3.811080 0.000000 0.000000 
#    y 0.000000 3.867050 0.000000 
#    z 0.000000 0.000000 3.169610 
# 
# 
# High freq. dielectric constant tensor:
#      x y z
#    x 1.825860 0.000000 0.000000 
#    y 0.000000 1.832110 0.000000 
#    z 0.000000 0.000000 1.758260 
# 
# From -- ./inp_files/3286.got.cif
#   From: 2010.03.12/outbox.cif.g09.slc.cpg/sg29_2_cif.got.tgz:3286.got - 2010.04.14 03:43:10.
