data_PCOD8168872
_publ_section_title
;
Structure prediction by ZEFSAII (Michael W. Deem and Ramdas Pophale) SiO2 
 PCOD8168872
Probable space group: P C A 21
;
_chemical_formula_sum "Si O2"
_cell_formula_units_Z 28
_cell_length_a 21.146551
_cell_length_b 5.009610
_cell_length_c 10.580113
_cell_angle_alpha 90.000000
_cell_angle_beta 90.000000
_cell_angle_gamma 90.000000
_cell_volume 1120.814569
_symmetry_space_group_name_H-M "P C A 21"
_symmetry_group_IT_number 29
_symmetry_cell_setting 'orthorhombic'
loop_
_space_group_symop_operation_xyz
x,y,z
-x,-y,1/2+z
1/2-x,y,1/2+z
1/2+x,-y,z
loop_
_atom_site_type_symbol
_atom_site_label
_atom_site_fract_x
_atom_site_fract_y
_atom_site_fract_z
Si Si1 0.049242 0.434085 0.250000
Si Si2 0.615711 0.080328 0.880352
Si Si3 0.615710 0.080329 0.337874
Si Si4 0.789291 0.570734 0.109112
Si Si5 0.127864 0.931923 0.609113
Si Si6 0.049243 0.434086 0.968226
Si Si7 0.250000 0.180977 0.359112
O O1 0.107947 0.640060 0.265492
O O2 0.999999 0.500002 0.359112
O O3 0.075959 0.138211 0.263227
O O4 0.019980 0.464330 0.109112
O O5 0.587237 0.114655 0.736828
O O6 0.607948 0.359937 0.952735
O O7 0.575961 0.861786 0.955000
O O8 0.689199 0.010190 0.866248
O O9 0.587236 0.114655 0.481399
O O10 0.689199 0.010190 0.351976
O O11 0.810666 0.263098 0.109113
O O12 0.749320 0.631439 0.235419
O O13 0.850959 0.759237 0.109113
O O14 0.749321 0.631438 0.982804
#
# Coordination Sequence:
#
# PCOD8168872 Si02
#       7
#     4   4   4   4   4   4   4
#     4  12  29  49  77 106 145 196 256 316 372 432
#     4  11  25  46  76 108 149 191 248 300 381 445
#     4  11  25  46  76 108 149 191 248 300 381 445
#     4  10  22  38  64 101 146 193 228 276 361 436
#     4  10  22  42  68 101 140 195 230 278 361 442
#     4  12  29  49  77 106 145 196 256 316 372 432
#     4  10  24  44  70 112 152 188 234 304 372 456
#
# _framework density 24.981831
#
# number of rings (size 3 to 8) (size 9 to 14) (size 15 to 20)
#    0.000    1.143    0.000    5.143    8.000   10.286 
#    0.000    0.000    0.000    0.000    0.000    0.000 
#    0.000    0.000    0.000    0.000    0.000    0.000 
#
# Total GULP energy -347219.583986 kJ/mol
# GULP energy per Si atom -12400.699428 kJ/mol
# Density = 2.492497 g / cm^3
# Si number density = 24.981831 Si / 1000 Ang^3
#
#
#
# Elastic Constant Matrix: (Units=GPa)
#
#
# Indices 1 2 3 4 5 6 
#
# 1 60.9146 8.4188 37.1914 0.0000 0.0000 0.0000
# 2 8.4188 90.1516 29.5348 0.0000 0.0000 0.0000
# 3 37.1914 29.5348 233.6008 0.0000 0.0000 0.0000
# 4 0.0000 0.0000 0.0000 36.0005 0.0000 0.0000
# 5 0.0000 0.0000 0.0000 0.0000 41.7231 0.0000
# 6 0.0000 0.0000 0.0000 0.0000 0.0000 18.9858
#
#
#
# Elastic Compliance Matrix: (Units=1/GPa)
#
#
# Indices 1 2 3 4 5 6 
#
# 1 0.018237 -0.000784 -0.002804 0.000000 0.000000 0.000000
# 2 -0.000784 0.011605 -0.001342 0.000000 0.000000 0.000000
# 3 -0.002804 -0.001342 0.004897 0.000000 0.000000 0.000000
# 4 0.000000 0.000000 0.000000 0.027777 0.000000 0.000000
# 5 0.000000 0.000000 0.000000 0.000000 0.023968 0.000000
# 6 0.000000 0.000000 0.000000 0.000000 0.000000 0.052671
#
#
# Mechanical properties :
#
#
# Convention : Reuss Voigt Hill
#
# Bulk Modulus (GPa) = 40.19730 59.43967 49.81849
# Shear Modulus (GPa) = 31.78437 39.97667 35.88052
#
# Velocity S-wave (km/s) = 3.57080 4.00463 3.79392
# Velocity P-wave (km/s) = 5.75555 6.72514 6.25915
#
# Compressibility (1/GPa) = 0.02487729
#
# Stress axis : x y z
#
# Youngs Moduli (GPa) = 54.83356 86.16626 204.20612
#
# Poissons Ratio (x) = 0.06758 0.57266
# Poissons Ratio (y) = 0.04301 0.27413
# Poissons Ratio (z) = 0.15377 0.11567
#
# Static dielectric constant tensor:
#      x y z
#    x 4.022250 0.000000 0.000000 
#    y 0.000000 4.527070 0.000000 
#    z 0.000000 0.000000 5.234320 
# 
# 
# High freq. dielectric constant tensor:
#      x y z
#    x 1.962650 0.000000 0.000000 
#    y 0.000000 2.005410 0.000000 
#    z 0.000000 0.000000 2.023070 
# 
# From -- ./inp_files/3765.got.cif
#   From: 2010.03.12/outbox.cif.g09.slc.cpg/sg29_2_cif.got.tgz:3765.got - 2010.04.14 03:43:10.
