data_PCOD8168469
_publ_section_title
;
Structure prediction by ZEFSAII (Michael W. Deem and Ramdas Pophale) SiO2 
 PCOD8168469
Probable space group: P M A 2
;
_chemical_formula_sum "Si O2"
_cell_formula_units_Z 28
_cell_length_a 8.950022
_cell_length_b 9.110658
_cell_length_c 18.256904
_cell_angle_alpha 90.000000
_cell_angle_beta 90.000000
_cell_angle_gamma 90.000000
_cell_volume 1488.678715
_symmetry_space_group_name_H-M "P M A 2"
_symmetry_group_IT_number 28
_symmetry_cell_setting 'orthorhombic'
loop_
_space_group_symop_operation_xyz
x,y,z
-x,-y,z
1/2-x,y,z
1/2+x,-y,z
loop_
_atom_site_type_symbol
_atom_site_label
_atom_site_fract_x
_atom_site_fract_y
_atom_site_fract_z
Si Si1 0.424803 0.158155 0.852750
Si Si2 0.925431 0.156410 0.426937
Si Si3 0.576852 0.346496 0.284245
Si Si4 0.423971 0.842342 0.989999
Si Si5 0.423578 0.155667 0.691729
Si Si6 0.427450 0.342018 0.554072
Si Si7 0.924312 0.156730 0.151018
O O1 0.250000 0.145822 0.867561
O O2 0.458873 0.225555 0.772300
O O3 0.500000 0.000000 0.852127
O O4 0.499790 0.246942 0.921570
O O5 0.750000 0.140985 0.444240
O O6 0.955658 0.243862 0.352893
O O7 0.007209 0.237060 0.492730
O O8 0.000000 0.000000 0.416515
O O9 0.500000 0.500000 0.298525
O O10 0.750000 0.378307 0.273753
O O11 0.511010 0.268924 0.211290
O O12 0.250000 0.858276 0.973269
O O13 0.452362 0.771282 0.070203
O O14 0.500000 0.000000 0.993364
O O15 0.250000 0.121537 0.684039
O O16 0.475076 0.274990 0.632465
O O17 0.500000 0.000000 0.677489
O O18 0.500000 0.500000 0.545914
O O19 0.250000 0.355076 0.545078
O O20 0.750000 0.129395 0.164451
O O21 0.000000 0.000000 0.160382
#
# Coordination Sequence:
#
# PCOD8168469 Si02
#       7
#     4   4   4   4   4   4   4
#     4   9  15  25  42  67  98 129 164 207 255 303
#     4  11  23  39  60  85 110 137 172 214 260 309
#     4  10  22  38  55  77 106 139 174 212 255 305
#     4   9  15  24  41  67  98 129 163 206 255 302
#     4   9  19  33  51  75 103 135 172 215 259 307
#     4  11  23  39  57  79 108 141 177 216 261 312
#     4   9  18  32  50  74 103 134 171 214 257 304
#
# _framework density 18.808623999999998
#
# number of rings (size 3 to 8) (size 9 to 14) (size 15 to 20)
#    0.000    2.286    0.000    3.857    0.000    6.286 
#    0.000    0.000    0.000    0.857    0.000    6.000 
#    0.000    0.000    0.000    0.000    0.000    0.000 
#
# Total GULP energy -347005.155560 kJ/mol
# GULP energy per Si atom -12393.041270 kJ/mol
# Density = 1.876581 g / cm^3
# Si number density = 18.808624 Si / 1000 Ang^3
#
#
#
# Elastic Constant Matrix: (Units=GPa)
#
#
# Indices 1 2 3 4 5 6 
#
# 1 89.5824 43.5760 66.1590 0.0000 0.0000 0.0000
# 2 43.5760 93.6139 51.2315 0.0000 0.0000 0.0000
# 3 66.1590 51.2315 160.1895 0.0000 0.0000 0.0000
# 4 0.0000 0.0000 0.0000 -33.2764 0.0000 0.0000
# 5 0.0000 0.0000 0.0000 0.0000 30.2738 0.0000
# 6 0.0000 0.0000 0.0000 0.0000 0.0000 22.5735
#
#
#
# Elastic Compliance Matrix: (Units=1/GPa)
#
#
# Indices 1 2 3 4 5 6 
#
# 1 0.017937 -0.005206 -0.005743 0.000000 0.000000 0.000000
# 2 -0.005206 0.014460 -0.002474 0.000000 0.000000 0.000000
# 3 -0.005743 -0.002474 0.009406 0.000000 0.000000 0.000000
# 4 0.000000 0.000000 0.000000 -0.030051 0.000000 0.000000
# 5 0.000000 0.000000 0.000000 0.000000 0.033032 0.000000
# 6 0.000000 0.000000 0.000000 0.000000 0.000000 0.044300
#
#
# Mechanical properties :
#
#
# Convention : Reuss Voigt Hill
#
# Bulk Modulus (GPa) = 66.86629 73.92430 70.39529
# Shear Modulus (GPa) = 41.35154 16.07548 28.71351
#
# Velocity S-wave (km/s) = 4.69395 2.92667 3.91143
# Velocity P-wave (km/s) = 8.06260 7.12806 7.60969
#
# Compressibility (1/GPa) = 0.01495522
#
# Stress axis : x y z
#
# Youngs Moduli (GPa) = 55.75142 69.15753 106.31828
#
# Poissons Ratio (x) = 0.36007 0.61057
# Poissons Ratio (y) = 0.29027 0.26305
# Poissons Ratio (z) = 0.32017 0.17111
#
# Static dielectric constant tensor:
#      x y z
#    x 3.557600 0.000000 0.000000 
#    y 0.000000 3.074030 0.000000 
#    z 0.000000 0.000000 4.780510 
# 
# 
# High freq. dielectric constant tensor:
#      x y z
#    x 1.738260 0.000000 0.000000 
#    y 0.000000 1.685380 0.000000 
#    z 0.000000 0.000000 1.764640 
# 
# From -- ./inp_files/6768.got.cif
#   From: 2010.03.12/outbox.cif.g09.slc.cpg/sg28_4_cif.got.tgz:6768.got - 2010.04.14 03:39:34.
