data_PCOD8168697
_publ_section_title
;
Structure prediction by ZEFSAII (Michael W. Deem and Ramdas Pophale) SiO2 
 PCOD8168697
Probable space group: P C A 21
;
_chemical_formula_sum "Si O2"
_cell_formula_units_Z 32
_cell_length_a 9.056077
_cell_length_b 18.773081
_cell_length_c 8.641425
_cell_angle_alpha 90.000000
_cell_angle_beta 90.000000
_cell_angle_gamma 90.000000
_cell_volume 1469.132700
_symmetry_space_group_name_H-M "P C A 21"
_symmetry_group_IT_number 29
_symmetry_cell_setting 'orthorhombic'
loop_
_space_group_symop_operation_xyz
x,y,z
-x,-y,1/2+z
1/2-x,y,1/2+z
1/2+x,-y,z
loop_
_atom_site_type_symbol
_atom_site_label
_atom_site_fract_x
_atom_site_fract_y
_atom_site_fract_z
Si Si1 0.392124 0.543198 0.543190
Si Si2 0.075064 0.576460 0.680742
Si Si3 0.615597 0.991900 0.912404
Si Si4 0.537657 0.808711 0.657147
Si Si5 0.643416 0.062050 0.226602
Si Si6 0.608072 0.690592 0.056904
Si Si7 0.415974 0.341958 0.209058
Si Si8 0.284255 0.164379 0.446602
O O1 0.224876 0.558854 0.590582
O O2 0.410606 0.556134 0.360442
O O3 0.439414 0.464202 0.595457
O O4 0.503774 0.590710 0.640802
O O5 0.030615 0.660628 0.659271
O O6 0.452725 0.978740 0.852458
O O7 0.693981 0.037108 0.774128
O O8 0.682688 0.918449 0.977860
O O9 0.602732 0.044052 0.053616
O O10 0.398202 0.853977 0.722013
O O11 0.485515 0.727409 0.664243
O O12 0.609417 0.825483 0.487900
O O13 0.683681 0.822095 0.765365
O O14 0.755327 0.664521 0.138221
O O15 0.611924 0.777240 0.037853
O O16 0.597457 0.651415 0.892178
#
# Coordination Sequence:
#
# PCOD8168697 Si02
#       8
#     4   4   4   4   4   4   4   4
#     4  12  25  43  65  91 127 165 207 260 314 378
#     4  12  25  43  65  93 124 163 209 258 315 376
#     4  11  21  37  58  84 116 155 200 251 304 366
#     4   9  19  35  57  85 117 156 201 251 305 369
#     4  11  22  37  58  85 118 155 202 251 306 365
#     4  10  20  37  62  90 119 156 205 256 310 373
#     4  10  20  38  61  89 122 158 202 253 309 369
#     4   9  18  34  58  83 115 154 200 248 303 368
#
# _framework density 21.781555999999998
#
# number of rings (size 3 to 8) (size 9 to 14) (size 15 to 20)
#    0.000    1.500    0.000    6.750    0.000    1.000 
#    0.000    6.250    0.000    0.000    0.000    0.000 
#    0.000    0.000    0.000    0.000    0.000    0.000 
#
# Total GULP energy -396471.972864 kJ/mol
# GULP energy per Si atom -12389.749152 kJ/mol
# Density = 2.173198 g / cm^3
# Si number density = 21.781556 Si / 1000 Ang^3
#
#
#
# Elastic Constant Matrix: (Units=GPa)
#
#
# Indices 1 2 3 4 5 6 
#
# 1 40.8020 18.8504 -6.3304 0.0000 0.0000 0.0000
# 2 18.8504 68.5628 20.2455 0.0000 0.0000 0.0000
# 3 -6.3304 20.2455 96.4414 0.0000 0.0000 0.0000
# 4 0.0000 0.0000 0.0000 28.2941 0.0000 0.0000
# 5 0.0000 0.0000 0.0000 0.0000 34.1263 0.0000
# 6 0.0000 0.0000 0.0000 0.0000 0.0000 4.9761
#
#
#
# Elastic Compliance Matrix: (Units=1/GPa)
#
#
# Indices 1 2 3 4 5 6 
#
# 1 0.029364 -0.009214 0.003862 0.000000 0.000000 0.000000
# 2 -0.009214 0.018440 -0.004476 0.000000 0.000000 0.000000
# 3 0.003862 -0.004476 0.011562 0.000000 0.000000 0.000000
# 4 0.000000 0.000000 0.000000 0.035343 0.000000 0.000000
# 5 0.000000 0.000000 0.000000 0.000000 0.029303 0.000000
# 6 0.000000 0.000000 0.000000 0.000000 0.000000 0.200963
#
#
# Mechanical properties :
#
#
# Convention : Reuss Voigt Hill
#
# Bulk Modulus (GPa) = 25.18202 30.14858 27.66530
# Shear Modulus (GPa) = 13.97166 25.01535 19.49350
#
# Velocity S-wave (km/s) = 2.53542 3.39258 2.99482
# Velocity P-wave (km/s) = 4.48970 5.40532 4.96865
#
# Compressibility (1/GPa) = 0.03971087
#
# Stress axis : x y z
#
# Youngs Moduli (GPa) = 34.05481 54.23000 86.48978
#
# Poissons Ratio (x) = 0.49966 -0.33399
# Poissons Ratio (y) = 0.31377 0.38711
# Poissons Ratio (z) = -0.13151 0.24272
#
# Static dielectric constant tensor:
#      x y z
#    x 3.621520 0.000000 0.000000 
#    y 0.000000 4.263920 0.000000 
#    z 0.000000 0.000000 4.079400 
# 
# 
# High freq. dielectric constant tensor:
#      x y z
#    x 1.827110 0.000000 0.000000 
#    y 0.000000 1.869490 0.000000 
#    z 0.000000 0.000000 1.868150 
# 
# From -- ./inp_files/1269.got.cif
#   From: 2010.03.12/outbox.cif.g09.slc.cpg/sg29_1_cif.got.tgz:1269.got - 2010.04.14 03:43:10.
