data_PCOD8168816
_publ_section_title
;
Structure prediction by ZEFSAII (Michael W. Deem and Ramdas Pophale) SiO2 
 PCOD8168816
Probable space group: P C A 21
;
_chemical_formula_sum "Si O2"
_cell_formula_units_Z 28
_cell_length_a 9.659859
_cell_length_b 8.415209
_cell_length_c 16.553016
_cell_angle_alpha 90.000000
_cell_angle_beta 90.000000
_cell_angle_gamma 90.000000
_cell_volume 1345.590241
_symmetry_space_group_name_H-M "P C A 21"
_symmetry_group_IT_number 29
_symmetry_cell_setting 'orthorhombic'
loop_
_space_group_symop_operation_xyz
x,y,z
-x,-y,1/2+z
1/2-x,y,1/2+z
1/2+x,-y,z
loop_
_atom_site_type_symbol
_atom_site_label
_atom_site_fract_x
_atom_site_fract_y
_atom_site_fract_z
Si Si1 0.519436 0.211384 0.773230
Si Si2 0.702842 0.674714 0.156097
Si Si3 0.897202 0.567164 0.891571
Si Si4 0.150136 0.508837 0.998105
Si Si5 0.591034 0.966205 0.654088
Si Si6 0.329030 0.812225 0.603039
Si Si7 0.293982 0.618956 0.752949
O O1 0.444944 0.282222 0.694334
O O2 0.428707 0.254695 0.853926
O O3 0.666268 0.290662 0.794008
O O4 0.544423 0.027511 0.744999
O O5 0.667131 0.626120 0.065078
O O6 0.813192 0.813819 0.162498
O O7 0.771469 0.530289 0.205019
O O8 0.906789 0.438473 0.818781
O O9 0.741987 0.552568 0.923846
O O10 0.994346 0.517726 0.965451
O O11 0.185255 0.685636 0.030767
O O12 0.459304 0.933282 0.594817
O O13 0.681469 0.101633 0.609499
O O14 0.370853 0.728905 0.687817
#
# Coordination Sequence:
#
# PCOD8168816 Si02
#       7
#     4   4   4   4   4   4   4
#     4  10  21  40  62  94 126 170 219 269 320 393
#     4  10  22  36  68  93 118 171 225 270 321 378
#     4  11  22  40  64  91 134 163 209 270 332 385
#     4  11  24  39  67  97 130 168 214 278 330 390
#     4  11  21  40  64  92 130 168 216 271 319 390
#     4  10  23  39  67  93 128 168 223 268 322 382
#     4   9  21  38  64  94 122 162 226 276 308 380
#
# _framework density 20.808713000000001
#
# number of rings (size 3 to 8) (size 9 to 14) (size 15 to 20)
#    0.000    1.714    2.857    0.857   12.000    0.000 
#    0.000    0.000   22.000    0.000    0.000    0.000 
#    0.000    0.000    0.000    0.000    0.000    0.000 
#
# Total GULP energy -346926.431776 kJ/mol
# GULP energy per Si atom -12390.229706 kJ/mol
# Density = 2.076135 g / cm^3
# Si number density = 20.808713 Si / 1000 Ang^3
#
#
#
# Elastic Constant Matrix: (Units=GPa)
#
#
# Indices 1 2 3 4 5 6 
#
# 1 72.9389 26.5514 20.3125 0.0000 0.0000 0.0000
# 2 26.5514 95.2389 36.1099 0.0000 0.0000 0.0000
# 3 20.3125 36.1099 89.4199 0.0000 0.0000 0.0000
# 4 0.0000 0.0000 0.0000 36.3582 0.0000 0.0000
# 5 0.0000 0.0000 0.0000 0.0000 34.7920 0.0000
# 6 0.0000 0.0000 0.0000 0.0000 0.0000 33.8267
#
#
#
# Elastic Compliance Matrix: (Units=1/GPa)
#
#
# Indices 1 2 3 4 5 6 
#
# 1 0.015588 -0.003546 -0.002109 0.000000 0.000000 0.000000
# 2 -0.003546 0.013205 -0.004527 0.000000 0.000000 0.000000
# 3 -0.002109 -0.004527 0.013490 0.000000 0.000000 0.000000
# 4 0.000000 0.000000 0.000000 0.027504 0.000000 0.000000
# 5 0.000000 0.000000 0.000000 0.000000 0.028742 0.000000
# 6 0.000000 0.000000 0.000000 0.000000 0.000000 0.029562
#
#
# Mechanical properties :
#
#
# Convention : Reuss Voigt Hill
#
# Bulk Modulus (GPa) = 45.62169 47.06059 46.34114
# Shear Modulus (GPa) = 32.10003 32.63698 32.36851
#
# Velocity S-wave (km/s) = 3.93189 3.96464 3.94830
# Velocity P-wave (km/s) = 6.52571 6.60475 6.56535
#
# Compressibility (1/GPa) = 0.02191940
#
# Stress axis : x y z
#
# Youngs Moduli (GPa) = 64.15056 75.72921 74.12704
#
# Poissons Ratio (x) = 0.26855 0.15633
# Poissons Ratio (y) = 0.22749 0.33557
# Poissons Ratio (z) = 0.13529 0.34282
#
# Static dielectric constant tensor:
#      x y z
#    x 3.731620 0.000000 0.000000 
#    y 0.000000 4.005400 0.000000 
#    z 0.000000 0.000000 3.668680 
# 
# 
# High freq. dielectric constant tensor:
#      x y z
#    x 1.822860 0.000000 0.000000 
#    y 0.000000 1.806480 0.000000 
#    z 0.000000 0.000000 1.795420 
# 
# From -- ./inp_files/4982.got.cif
#   From: 2010.03.12/outbox.cif.g09.slc.cpg/sg29_3_cif.got.tgz:4982.got - 2010.04.14 03:43:10.
