data_PCOD8168484
_publ_section_title
;
Structure prediction by ZEFSAII (Michael W. Deem and Ramdas Pophale) SiO2 
 PCOD8168484
Probable space group: P M A 2
;
_chemical_formula_sum "Si O2"
_cell_formula_units_Z 32
_cell_length_a 17.558365
_cell_length_b 13.521498
_cell_length_c 6.850071
_cell_angle_alpha 90.000000
_cell_angle_beta 90.000000
_cell_angle_gamma 90.000000
_cell_volume 1626.312328
_symmetry_space_group_name_H-M "P M A 2"
_symmetry_group_IT_number 28
_symmetry_cell_setting 'orthorhombic'
loop_
_space_group_symop_operation_xyz
x,y,z
-x,-y,z
1/2-x,y,z
1/2+x,-y,z
loop_
_atom_site_type_symbol
_atom_site_label
_atom_site_fract_x
_atom_site_fract_y
_atom_site_fract_z
Si Si1 0.162771 0.193154 0.130250
Si Si2 0.919909 0.451421 0.414183
Si Si3 0.335966 0.350634 0.440589
Si Si4 0.919903 0.951425 0.414207
Si Si5 0.662769 0.306860 0.130188
Si Si6 0.580405 0.288613 0.732077
Si Si7 0.580419 0.788635 0.732115
Si Si8 0.335966 0.850627 0.440533
O O1 0.250000 0.155671 0.146227
O O2 0.154755 0.301900 0.226158
O O3 0.106142 0.118838 0.239233
O O4 0.139705 0.197447 0.905693
O O5 0.856002 0.534627 0.435612
O O6 0.893844 0.381194 0.239174
O O7 0.927493 0.391820 0.616620
O O8 0.000000 0.500000 0.355623
O O9 0.250000 0.338874 0.516169
O O10 0.390913 0.296193 0.589394
O O11 0.927461 0.891855 0.616689
O O12 0.855988 0.034631 0.435514
O O13 0.000000 0.000000 0.355681
O O14 0.750000 0.344336 0.146135
O O15 0.654746 0.198121 0.226118
O O16 0.639695 0.302559 0.905638
O O17 0.499998 0.249983 0.815717
O O18 0.609080 0.203780 0.589374
O O19 0.250000 0.838852 0.516106
#
# Coordination Sequence:
#
# PCOD8168484 Si02
#       8
#     4   4   4   4   4   4   4   4
#     4  10  24  41  63  91 123 162 205 253 305 359
#     4  11  23  40  64  92 124 162 205 250 303 360
#     4  10  22  42  63  87 123 161 200 250 304 362
#     4  11  23  40  64  92 124 162 205 250 303 360
#     4  10  24  41  63  91 123 162 205 253 305 359
#     4  11  23  39  63  93 124 160 204 250 305 361
#     4  11  23  39  63  93 124 160 204 250 305 361
#     4  10  22  42  63  87 123 161 200 250 304 362
#
# _framework density 19.676418000000002
#
# number of rings (size 3 to 8) (size 9 to 14) (size 15 to 20)
#    0.000    1.500    2.500    1.500    3.500    6.000 
#    0.000    0.000    0.000    0.000    0.000    0.000 
#    0.000    0.000    0.000    0.000    0.000    0.000 
#
# Total GULP energy -396930.903272 kJ/mol
# GULP energy per Si atom -12404.090727 kJ/mol
# Density = 1.963163 g / cm^3
# Si number density = 19.676418 Si / 1000 Ang^3
#
#
#
# Elastic Constant Matrix: (Units=GPa)
#
#
# Indices 1 2 3 4 5 6 
#
# 1 103.1255 29.2885 30.1336 0.0000 0.0000 0.0000
# 2 29.2885 109.3357 26.4131 0.0000 0.0000 0.0000
# 3 30.1336 26.4131 98.5993 0.0000 0.0000 0.0000
# 4 0.0000 0.0000 0.0000 14.6788 0.0000 0.0000
# 5 0.0000 0.0000 0.0000 0.0000 35.2595 0.0000
# 6 0.0000 0.0000 0.0000 0.0000 0.0000 39.5074
#
#
#
# Elastic Compliance Matrix: (Units=1/GPa)
#
#
# Indices 1 2 3 4 5 6 
#
# 1 0.011171 -0.002318 -0.002793 0.000000 0.000000 0.000000
# 2 -0.002318 0.010260 -0.002040 0.000000 0.000000 0.000000
# 3 -0.002793 -0.002040 0.011542 0.000000 0.000000 0.000000
# 4 0.000000 0.000000 0.000000 0.068126 0.000000 0.000000
# 5 0.000000 0.000000 0.000000 0.000000 0.028361 0.000000
# 6 0.000000 0.000000 0.000000 0.000000 0.000000 0.025312
#
#
# Mechanical properties :
#
#
# Convention : Reuss Voigt Hill
#
# Bulk Modulus (GPa) = 53.55837 53.63677 53.59757
# Shear Modulus (GPa) = 28.52285 32.90415 30.71350
#
# Velocity S-wave (km/s) = 3.81149 4.09377 3.95515
# Velocity P-wave (km/s) = 6.82998 7.04726 6.93947
#
# Compressibility (1/GPa) = 0.01867122
#
# Stress axis : x y z
#
# Youngs Moduli (GPa) = 89.51442 97.46725 86.63831
#
# Poissons Ratio (x) = 0.22591 0.24200
# Poissons Ratio (y) = 0.20747 0.17675
# Poissons Ratio (z) = 0.25004 0.19884
#
# Static dielectric constant tensor:
#      x y z
#    x 3.693460 0.000000 0.000000 
#    y 0.000000 3.688280 0.000000 
#    z 0.000000 0.000000 3.398520 
# 
# 
# High freq. dielectric constant tensor:
#      x y z
#    x 1.787340 0.000000 0.000000 
#    y 0.000000 1.771810 0.000000 
#    z 0.000000 0.000000 1.756320 
# 
# From -- ./inp_files/1215.got.cif
#   From: 2010.03.12/outbox.cif.g09.slc.cpg/sg28_1_cif.got.tgz:1215.got - 2010.04.14 03:39:34.
