data_PCOD8168713
_publ_section_title
;
Structure prediction by ZEFSAII (Michael W. Deem and Ramdas Pophale) SiO2 
 PCOD8168713
Probable space group: P C A 21
;
_chemical_formula_sum "Si O2"
_cell_formula_units_Z 20
_cell_length_a 9.956609
_cell_length_b 9.173067
_cell_length_c 8.499741
_cell_angle_alpha 90.000000
_cell_angle_beta 90.000000
_cell_angle_gamma 90.000000
_cell_volume 776.303797
_symmetry_space_group_name_H-M "P C A 21"
_symmetry_group_IT_number 29
_symmetry_cell_setting 'orthorhombic'
loop_
_space_group_symop_operation_xyz
x,y,z
-x,-y,1/2+z
1/2-x,y,1/2+z
1/2+x,-y,z
loop_
_atom_site_type_symbol
_atom_site_label
_atom_site_fract_x
_atom_site_fract_y
_atom_site_fract_z
Si Si1 0.318946 0.181944 0.217510
Si Si2 0.981365 0.108722 0.983411
Si Si3 0.163188 0.914574 0.174365
Si Si4 0.452527 0.646334 0.554930
Si Si5 0.038037 0.339987 0.211154
O O1 0.388618 0.164255 0.385646
O O2 0.404000 0.288922 0.107963
O O3 0.172473 0.248800 0.247069
O O4 0.293061 0.016861 0.139899
O O5 0.860067 0.076540 0.863085
O O6 0.942364 0.241880 0.099452
O O7 0.026701 0.968424 0.085462
O O8 0.172394 0.748389 0.112964
O O9 0.424151 0.490634 0.629880
O O10 0.452690 0.630449 0.367629
#
# Coordination Sequence:
#
# PCOD8168713 Si02
#       5
#     4   4   4   4   4
#     4  10  22  42  65  90 124 165 206 258 315 369
#     4  10  21  38  63  92 124 164 206 255 311 369
#     4  10  20  38  62  91 124 160 203 250 306 370
#     4  11  23  41  66  94 128 165 209 260 313 372
#     4  11  22  41  66  93 128 166 208 261 315 372
#
# _framework density 25.763112
#
# number of rings (size 3 to 8) (size 9 to 14) (size 15 to 20)
#    0.000    1.600    0.000    7.200    0.000    3.200 
#    0.000   18.000    0.000    0.000    0.000    0.000 
#    0.000    0.000    0.000    0.000    0.000    0.000 
#
# Total GULP energy -248018.824835 kJ/mol
# GULP energy per Si atom -12400.941242 kJ/mol
# Density = 2.570447 g / cm^3
# Si number density = 25.763112 Si / 1000 Ang^3
#
#
#
# Elastic Constant Matrix: (Units=GPa)
#
#
# Indices 1 2 3 4 5 6 
#
# 1 43.6505 -36.5310 -26.0601 0.0000 0.0000 0.0000
# 2 -36.5310 126.4763 16.5903 0.0000 0.0000 0.0000
# 3 -26.0601 16.5903 142.5713 0.0000 0.0000 0.0000
# 4 0.0000 0.0000 0.0000 52.8592 0.0000 0.0000
# 5 0.0000 0.0000 0.0000 0.0000 18.2412 0.0000
# 6 0.0000 0.0000 0.0000 0.0000 0.0000 17.0659
#
#
#
# Elastic Compliance Matrix: (Units=1/GPa)
#
#
# Indices 1 2 3 4 5 6 
#
# 1 0.033470 0.009002 0.005070 0.000000 0.000000 0.000000
# 2 0.009002 0.010451 0.000429 0.000000 0.000000 0.000000
# 3 0.005070 0.000429 0.007891 0.000000 0.000000 0.000000
# 4 0.000000 0.000000 0.000000 0.018918 0.000000 0.000000
# 5 0.000000 0.000000 0.000000 0.000000 0.054821 0.000000
# 6 0.000000 0.000000 0.000000 0.000000 0.000000 0.058596
#
#
# Mechanical properties :
#
#
# Convention : Reuss Voigt Hill
#
# Bulk Modulus (GPa) = 12.37376 24.52184 18.44780
# Shear Modulus (GPa) = 27.46021 41.54651 34.50336
#
# Velocity S-wave (km/s) = 3.26831 4.02012 3.66355
# Velocity P-wave (km/s) = 4.36530 5.57560 5.00715
#
# Compressibility (1/GPa) = 0.08081615
#
# Stress axis : x y z
#
# Youngs Moduli (GPa) = 29.87715 95.68913 126.72899
#
# Poissons Ratio (x) = -0.86143 -0.64256
# Poissons Ratio (y) = -0.26897 -0.05442
# Poissons Ratio (z) = -0.15149 -0.04109
#
# Static dielectric constant tensor:
#      x y z
#    x 4.305690 0.000000 0.000000 
#    y 0.000000 4.769690 0.000000 
#    z 0.000000 0.000000 4.894610 
# 
# 
# High freq. dielectric constant tensor:
#      x y z
#    x 2.025640 0.000000 0.000000 
#    y 0.000000 2.036840 0.000000 
#    z 0.000000 0.000000 2.047570 
# 
# From -- ./inp_files/1319.got.cif
#   From: 2010.03.12/outbox.cif.g09.slc.cpg/sg29_1_cif.got.tgz:1319.got - 2010.04.14 03:43:10.
