data_PCOD8168518
_publ_section_title
;
Structure prediction by ZEFSAII (Michael W. Deem and Ramdas Pophale) SiO2 
 PCOD8168518
Probable space group: P M A 2
;
_chemical_formula_sum "Si O2"
_cell_formula_units_Z 32
_cell_length_a 8.686171
_cell_length_b 14.517931
_cell_length_c 12.298963
_cell_angle_alpha 90.000000
_cell_angle_beta 90.000000
_cell_angle_gamma 90.000000
_cell_volume 1550.963573
_symmetry_space_group_name_H-M "P M A 2"
_symmetry_group_IT_number 28
_symmetry_cell_setting 'orthorhombic'
loop_
_space_group_symop_operation_xyz
x,y,z
-x,-y,z
1/2-x,y,z
1/2+x,-y,z
loop_
_atom_site_type_symbol
_atom_site_label
_atom_site_fract_x
_atom_site_fract_y
_atom_site_fract_z
Si Si1 0.431547 0.207877 0.846800
Si Si2 0.431836 0.221214 0.453922
Si Si3 0.568963 0.404124 0.377846
Si Si4 0.071246 0.907123 0.285922
Si Si5 0.431195 0.898118 0.647440
Si Si6 0.422835 0.364423 0.152358
Si Si7 0.932096 0.592687 0.914368
Si Si8 0.579249 0.844055 0.086371
O O1 0.250000 0.201842 0.821521
O O2 0.527622 0.153021 0.758577
O O3 0.486134 0.315107 0.850699
O O4 0.471278 0.159232 0.961098
O O5 0.250000 0.220480 0.467229
O O6 0.491029 0.325869 0.452464
O O7 0.482039 0.177719 0.339526
O O8 0.506157 0.163393 0.550124
O O9 0.500000 0.500000 0.420561
O O10 0.750000 0.400883 0.396555
O O11 0.534622 0.393082 0.249637
O O12 0.250000 0.901644 0.313560
O O13 0.040875 0.904668 0.155941
O O14 0.000000 0.000000 0.336280
O O15 0.250000 0.907381 0.635981
O O16 0.500000 0.000000 0.644315
O O17 0.250000 0.400388 0.179013
O O18 0.418138 0.256029 0.138299
O O19 0.488359 0.406066 0.039777
O O20 0.750000 0.590449 0.911862
O O21 0.000000 0.500000 0.858612
O O22 0.750000 0.887869 0.096679
#
# Coordination Sequence:
#
# PCOD8168518 Si02
#       8
#     4   4   4   4   4   4   4   4
#     4   9  20  40  63  90 124 164 209 259 312 366
#     4  12  25  45  68  91 124 161 203 261 316 370
#     4  12  24  38  59  91 127 168 211 255 306 370
#     4  12  24  38  59  90 125 163 206 251 310 379
#     4  12  26  46  71  97 121 155 205 260 317 380
#     4   9  17  32  54  83 122 168 210 254 303 358
#     4   9  18  32  54  86 125 168 211 254 302 359
#     4   9  18  35  59  86 124 167 206 252 310 368
#
# _framework density 20.632335000000001
#
# number of rings (size 3 to 8) (size 9 to 14) (size 15 to 20)
#    0.000    1.500    1.250    6.750    0.000    3.000 
#    0.000    3.125    0.000    1.500    0.000    0.000 
#    0.000    0.000    0.000    0.000    0.000    0.000 
#
# Total GULP energy -396792.020154 kJ/mol
# GULP energy per Si atom -12399.750630 kJ/mol
# Density = 2.058537 g / cm^3
# Si number density = 20.632335 Si / 1000 Ang^3
#
#
#
# Elastic Constant Matrix: (Units=GPa)
#
#
# Indices 1 2 3 4 5 6 
#
# 1 140.5327 63.1801 50.9650 0.0000 0.0000 0.0000
# 2 63.1801 143.0346 60.1717 0.0000 0.0000 0.0000
# 3 50.9650 60.1717 99.1003 0.0000 0.0000 0.0000
# 4 0.0000 0.0000 0.0000 121.3682 0.0000 0.0000
# 5 0.0000 0.0000 0.0000 0.0000 33.0177 0.0000
# 6 0.0000 0.0000 0.0000 0.0000 0.0000 36.5571
#
#
#
# Elastic Compliance Matrix: (Units=1/GPa)
#
#
# Indices 1 2 3 4 5 6 
#
# 1 0.009563 -0.002895 -0.003161 0.000000 0.000000 0.000000
# 2 -0.002895 0.010266 -0.004745 0.000000 0.000000 0.000000
# 3 -0.003161 -0.004745 0.014597 0.000000 0.000000 0.000000
# 4 0.000000 0.000000 0.000000 0.008239 0.000000 0.000000
# 5 0.000000 0.000000 0.000000 0.000000 0.030287 0.000000
# 6 0.000000 0.000000 0.000000 0.000000 0.000000 0.027354
#
#
# Mechanical properties :
#
#
# Convention : Reuss Voigt Hill
#
# Bulk Modulus (GPa) = 77.96335 81.25569 79.60952
# Shear Modulus (GPa) = 39.62524 52.07864 45.85194
#
# Velocity S-wave (km/s) = 4.38715 5.02952 4.71928
# Velocity P-wave (km/s) = 7.97068 8.55548 8.26826
#
# Compressibility (1/GPa) = 0.01282654
#
# Stress axis : x y z
#
# Youngs Moduli (GPa) = 104.56564 97.41030 68.50703
#
# Poissons Ratio (x) = 0.28197 0.21653
# Poissons Ratio (y) = 0.30268 0.32504
# Poissons Ratio (z) = 0.33050 0.46217
#
# Static dielectric constant tensor:
#      x y z
#    x 3.656660 0.000000 0.000000 
#    y 0.000000 4.030700 0.000000 
#    z 0.000000 0.000000 3.700650 
# 
# 
# High freq. dielectric constant tensor:
#      x y z
#    x 1.803750 0.000000 0.000000 
#    y 0.000000 1.821330 0.000000 
#    z 0.000000 0.000000 1.789330 
# 
# From -- ./inp_files/5062.got.cif
#   From: 2010.03.12/outbox.cif.g09.slc.cpg/sg28_3_cif.got.tgz:5062.got - 2010.04.14 03:39:34.
