data_PCOD8169079
_publ_section_title
;
Structure prediction by ZEFSAII (Michael W. Deem and Ramdas Pophale) SiO2 
 PCOD8169079
Probable space group: P C A 21
;
_chemical_formula_sum "Si O2"
_cell_formula_units_Z 24
_cell_length_a 16.671443
_cell_length_b 4.971543
_cell_length_c 11.465719
_cell_angle_alpha 90.000000
_cell_angle_beta 90.000000
_cell_angle_gamma 90.000000
_cell_volume 950.310846
_symmetry_space_group_name_H-M "P C A 21"
_symmetry_group_IT_number 29
_symmetry_cell_setting 'orthorhombic'
loop_
_space_group_symop_operation_xyz
x,y,z
-x,-y,1/2+z
1/2-x,y,1/2+z
1/2+x,-y,z
loop_
_atom_site_type_symbol
_atom_site_label
_atom_site_fract_x
_atom_site_fract_y
_atom_site_fract_z
Si Si1 0.741240 0.274626 0.658190
Si Si2 0.910117 0.227413 0.744083
Si Si3 0.990738 0.932217 0.039963
Si Si4 0.826439 0.946937 0.956881
Si Si5 0.695394 0.763184 0.801838
Si Si6 0.970284 0.559215 0.401578
O O1 0.837414 0.315243 0.661095
O O2 0.709340 0.568636 0.691497
O O3 0.717911 0.187270 0.527442
O O4 0.704990 0.066781 0.753698
O O5 0.975334 0.060864 0.670166
O O6 0.961117 0.472147 0.801234
O O7 0.874027 0.044311 0.844166
O O8 0.897310 0.827595 0.040077
O O9 0.043931 0.731137 0.959212
O O10 0.994684 0.238238 0.998197
O O11 0.760728 0.731595 0.908554
O O12 0.609752 0.696124 0.854094
#
# Coordination Sequence:
#
# PCOD8169079 Si02
#       6
#     4   4   4   4   4   4
#     4  11  24  42  69  98 134 182 227 287 354 417
#     4  10  24  44  67  98 135 175 226 281 342 415
#     4  11  24  42  66  96 134 181 225 284 351 414
#     4  10  24  45  69 101 140 181 235 293 350 425
#     4  11  24  43  68 101 135 178 233 289 352 424
#     4  11  24  42  67  98 134 177 228 286 349 419
#
# _framework density 25.254891000000001
#
# number of rings (size 3 to 8) (size 9 to 14) (size 15 to 20)
#    0.000    1.333    0.000    4.000    0.000   17.333 
#    0.000    0.000    0.000    0.000    0.000    0.000 
#    0.000    0.000    0.000    0.000    0.000    0.000 
#
# Total GULP energy -297450.945684 kJ/mol
# GULP energy per Si atom -12393.789404 kJ/mol
# Density = 2.519741 g / cm^3
# Si number density = 25.254891 Si / 1000 Ang^3
#
#
#
# Elastic Constant Matrix: (Units=GPa)
#
#
# Indices 1 2 3 4 5 6 
#
# 1 154.0384 12.6665 59.7185 0.0000 0.0000 0.0000
# 2 12.6665 66.7584 21.2192 0.0000 0.0000 0.0000
# 3 59.7185 21.2192 122.8248 0.0000 0.0000 0.0000
# 4 0.0000 0.0000 0.0000 28.2586 0.0000 0.0000
# 5 0.0000 0.0000 0.0000 0.0000 56.2999 0.0000
# 6 0.0000 0.0000 0.0000 0.0000 0.0000 19.5471
#
#
#
# Elastic Compliance Matrix: (Units=1/GPa)
#
#
# Indices 1 2 3 4 5 6 
#
# 1 0.008005 -0.000298 -0.003841 0.000000 0.000000 0.000000
# 2 -0.000298 0.015861 -0.002595 0.000000 0.000000 0.000000
# 3 -0.003841 -0.002595 0.010457 0.000000 0.000000 0.000000
# 4 0.000000 0.000000 0.000000 0.035387 0.000000 0.000000
# 5 0.000000 0.000000 0.000000 0.000000 0.017762 0.000000
# 6 0.000000 0.000000 0.000000 0.000000 0.000000 0.051158
#
#
# Mechanical properties :
#
#
# Convention : Reuss Voigt Hill
#
# Bulk Modulus (GPa) = 47.94893 58.98111 53.46502
# Shear Modulus (GPa) = 31.43633 37.48896 34.46264
#
# Velocity S-wave (km/s) = 3.53195 3.85700 3.69805
# Velocity P-wave (km/s) = 5.97161 6.57574 6.28094
#
# Compressibility (1/GPa) = 0.02085552
#
# Stress axis : x y z
#
# Youngs Moduli (GPa) = 124.91528 63.04845 95.62563
#
# Poissons Ratio (x) = 0.01880 0.36728
# Poissons Ratio (y) = 0.03724 0.24816
# Poissons Ratio (z) = 0.47977 0.16362
#
# Static dielectric constant tensor:
#      x y z
#    x 5.415620 0.000000 0.000000 
#    y 0.000000 4.067980 0.000000 
#    z 0.000000 0.000000 4.868790 
# 
# 
# High freq. dielectric constant tensor:
#      x y z
#    x 2.030070 0.000000 0.000000 
#    y 0.000000 1.977350 0.000000 
#    z 0.000000 0.000000 2.014880 
# 
# From -- ./inp_files/3571.got.cif
#   From: 2010.03.12/outbox.cif.g09.slc.cpg/sg29_2_cif.got.tgz:3571.got - 2010.04.14 03:43:10.
