data_PCOD8169214
_publ_section_title
;
Structure prediction by ZEFSAII (Michael W. Deem and Ramdas Pophale) SiO2 
 PCOD8169214
Probable space group: P C A 21
;
_chemical_formula_sum "Si O2"
_cell_formula_units_Z 32
_cell_length_a 18.560280
_cell_length_b 6.629161
_cell_length_c 12.337329
_cell_angle_alpha 90.000000
_cell_angle_beta 90.000000
_cell_angle_gamma 90.000000
_cell_volume 1517.973663
_symmetry_space_group_name_H-M "P C A 21"
_symmetry_group_IT_number 29
_symmetry_cell_setting 'orthorhombic'
loop_
_space_group_symop_operation_xyz
x,y,z
-x,-y,1/2+z
1/2-x,y,1/2+z
1/2+x,-y,z
loop_
_atom_site_type_symbol
_atom_site_label
_atom_site_fract_x
_atom_site_fract_y
_atom_site_fract_z
Si Si1 0.570231 0.585659 0.075490
Si Si2 0.676221 0.705437 0.577419
Si Si3 0.869629 0.009227 0.254120
Si Si4 0.281209 0.602585 0.253648
Si Si5 0.469452 0.112883 0.756271
Si Si6 0.695254 0.724620 0.930399
Si Si7 0.054799 0.445958 0.430093
Si Si8 0.380283 0.722738 0.750077
O O1 0.528484 0.744183 0.151289
O O2 0.591753 0.388558 0.142960
O O3 0.640799 0.691848 0.028908
O O4 0.521461 0.521335 0.974435
O O5 0.652146 0.899440 0.644092
O O6 0.718977 0.547005 0.651811
O O7 0.727583 0.783159 0.481019
O O8 0.605959 0.595875 0.531574
O O9 0.831504 0.908562 0.357174
O O10 0.846372 0.240565 0.244630
O O11 0.955446 0.995158 0.267757
O O12 0.294638 0.479841 0.363264
O O13 0.205959 0.720421 0.256433
O O14 0.455344 0.240977 0.863781
O O15 0.404707 0.954024 0.744610
O O16 0.087974 0.621077 0.357124
#
# Coordination Sequence:
#
# PCOD8169214 Si02
#       8
#     4   4   4   4   4   4   4   4
#     4  11  24  44  69  93 134 174 216 270 334 392
#     4  11  24  43  66  96 133 173 220 272 328 397
#     4  11  26  42  65  99 133 169 221 279 330 394
#     4  11  24  43  66  95 136 173 222 270 336 389
#     4  11  26  44  67 101 135 171 225 277 332 396
#     4  11  24  43  66  96 133 173 220 272 328 397
#     4  11  24  44  69  93 134 174 216 270 334 392
#     4  11  24  41  66  97 130 173 218 276 322 395
#
# _framework density 21.080736999999999
#
# number of rings (size 3 to 8) (size 9 to 14) (size 15 to 20)
#    0.000    1.000    2.500    3.000    3.500   11.000 
#    0.000    0.000    0.000    0.000    0.000    0.000 
#    0.000    0.000    0.000    0.000    0.000    0.000 
#
# Total GULP energy -397093.555851 kJ/mol
# GULP energy per Si atom -12409.173620 kJ/mol
# Density = 2.103276 g / cm^3
# Si number density = 21.080737 Si / 1000 Ang^3
#
#
#
# Elastic Constant Matrix: (Units=GPa)
#
#
# Indices 1 2 3 4 5 6 
#
# 1 96.9625 20.1725 15.8425 0.0000 0.0000 0.0000
# 2 20.1725 63.9044 20.1072 0.0000 0.0000 0.0000
# 3 15.8425 20.1072 90.5246 0.0000 0.0000 0.0000
# 4 0.0000 0.0000 0.0000 17.7998 0.0000 0.0000
# 5 0.0000 0.0000 0.0000 0.0000 41.7034 0.0000
# 6 0.0000 0.0000 0.0000 0.0000 0.0000 39.7265
#
#
#
# Elastic Compliance Matrix: (Units=1/GPa)
#
#
# Indices 1 2 3 4 5 6 
#
# 1 0.011170 -0.003130 -0.001260 0.000000 0.000000 0.000000
# 2 -0.003130 0.017701 -0.003384 0.000000 0.000000 0.000000
# 3 -0.001260 -0.003384 0.012019 0.000000 0.000000 0.000000
# 4 0.000000 0.000000 0.000000 0.056180 0.000000 0.000000
# 5 0.000000 0.000000 0.000000 0.000000 0.023979 0.000000
# 6 0.000000 0.000000 0.000000 0.000000 0.000000 0.025172
#
#
# Mechanical properties :
#
#
# Convention : Reuss Voigt Hill
#
# Bulk Modulus (GPa) = 39.45821 40.40398 39.93110
# Shear Modulus (GPa) = 29.37445 32.86390 31.11918
#
# Velocity S-wave (km/s) = 3.73691 3.95264 3.84629
# Velocity P-wave (km/s) = 6.11373 6.32765 6.22161
#
# Compressibility (1/GPa) = 0.02534327
#
# Stress axis : x y z
#
# Youngs Moduli (GPa) = 89.52391 56.49371 83.20275
#
# Poissons Ratio (x) = 0.17681 0.10481
# Poissons Ratio (y) = 0.28018 0.28156
# Poissons Ratio (z) = 0.11277 0.19118
#
# Static dielectric constant tensor:
#      x y z
#    x 3.840900 0.000000 0.000000 
#    y 0.000000 3.670200 0.000000 
#    z 0.000000 0.000000 3.901590 
# 
# 
# High freq. dielectric constant tensor:
#      x y z
#    x 1.840570 0.000000 0.000000 
#    y 0.000000 1.825540 0.000000 
#    z 0.000000 0.000000 1.838840 
# 
# From -- ./inp_files/3857.got.cif
#   From: 2010.03.12/outbox.cif.g09.slc.cpg/sg29_2_cif.got.tgz:3857.got - 2010.04.14 03:43:10.
