data_PCOD8169893
_publ_section_title
;
Structure prediction by ZEFSAII (Michael W. Deem and Ramdas Pophale) SiO2 
 PCOD8169893
Probable space group: P M N 21
;
_chemical_formula_sum "Si O2"
_cell_formula_units_Z 32
_cell_length_a 9.044303
_cell_length_b 11.674682
_cell_length_c 17.419428
_cell_angle_alpha 90.000000
_cell_angle_beta 90.000000
_cell_angle_gamma 90.000000
_cell_volume 1839.306279
_symmetry_space_group_name_H-M "P M N 21"
_symmetry_group_IT_number 31
_symmetry_cell_setting 'orthorhombic'
loop_
_space_group_symop_operation_xyz
x,y,z
1/2-x,-y,1/2+z
-x,y,z
1/2+x,-y,1/2+z
loop_
_atom_site_type_symbol
_atom_site_label
_atom_site_fract_x
_atom_site_fract_y
_atom_site_fract_z
Si Si1 0.172492 0.847652 0.776500
Si Si2 0.328200 0.075885 0.112575
Si Si3 0.323859 0.151024 0.660173
Si Si4 0.665324 0.349347 0.549385
Si Si5 0.826809 0.528279 0.465453
Si Si6 0.333808 0.349560 0.380417
Si Si7 0.324176 0.900889 0.314293
Si Si8 0.672793 0.208686 0.958483
O O1 0.207796 0.843166 0.685851
O O2 0.243954 0.738278 0.820222
O O3 0.000000 0.839998 0.793895
O O4 0.231022 0.967391 0.811299
O O5 0.500000 0.039766 0.114865
O O6 0.231342 0.961720 0.116000
O O7 0.286809 0.146031 0.037322
O O8 0.500000 0.145780 0.667229
O O9 0.270169 0.260549 0.611025
O O10 0.250872 0.165599 0.743508
O O11 0.500000 0.386224 0.573378
O O12 0.763969 0.465244 0.542392
O O13 0.663660 0.289277 0.464815
O O14 0.760061 0.467620 0.388484
O O15 0.779387 0.659929 0.467043
O O16 0.000000 0.513202 0.464289
O O17 0.500000 0.382638 0.354241
O O18 0.500000 0.891338 0.306003
O O19 0.271283 0.846889 0.393050
O O20 0.500000 0.196510 0.938232
#
# Coordination Sequence:
#
# PCOD8169893 Si02
#       8
#     4   4   4   4   4   4   4   4
#     4   8  15  31  52  74  99 125 161 208 251 293
#     4   9  19  34  52  75 104 136 168 204 248 305
#     4  10  19  34  53  77 107 134 165 208 259 304
#     4   8  17  31  51  73  97 131 166 204 249 296
#     4   9  18  32  49  71 100 134 172 215 251 290
#     4   8  15  30  51  72  96 129 167 207 250 294
#     4  10  21  34  53  77 103 134 170 210 252 309
#     4  10  21  36  51  71 104 141 171 206 258 303
#
# _framework density 17.397863000000001
#
# number of rings (size 3 to 8) (size 9 to 14) (size 15 to 20)
#    0.750    2.250    0.000    1.500    1.750    2.500 
#    0.000    4.375    0.000    1.500    0.000    0.000 
#    0.000    0.000    0.000    0.000    0.000    0.000 
#
# Total GULP energy -396529.845822 kJ/mol
# GULP energy per Si atom -12391.557682 kJ/mol
# Density = 1.735826 g / cm^3
# Si number density = 17.397863 Si / 1000 Ang^3
#
#
#
# Elastic Constant Matrix: (Units=GPa)
#
#
# Indices 1 2 3 4 5 6 
#
# 1 60.1730 43.8544 42.8040 0.0000 0.0000 0.0000
# 2 43.8544 101.0706 69.4238 0.0000 0.0000 0.0000
# 3 42.8040 69.4238 109.3135 0.0000 0.0000 0.0000
# 4 0.0000 0.0000 0.0000 -4.5773 0.0000 0.0000
# 5 0.0000 0.0000 0.0000 0.0000 23.3736 0.0000
# 6 0.0000 0.0000 0.0000 0.0000 0.0000 25.9521
#
#
#
# Elastic Compliance Matrix: (Units=1/GPa)
#
#
# Indices 1 2 3 4 5 6 
#
# 1 0.025950 -0.007592 -0.005340 0.000000 0.000000 0.000000
# 2 -0.007592 0.019771 -0.009584 0.000000 0.000000 0.000000
# 3 -0.005340 -0.009584 0.017325 0.000000 0.000000 0.000000
# 4 0.000000 0.000000 0.000000 -0.218469 0.000000 0.000000
# 5 0.000000 0.000000 0.000000 0.000000 0.042783 0.000000
# 6 0.000000 0.000000 0.000000 0.000000 0.000000 0.038533
#
#
# Mechanical properties :
#
#
# Convention : Reuss Voigt Hill
#
# Bulk Modulus (GPa) = 55.50630 64.74681 60.12655
# Shear Modulus (GPa) = -216.72234 16.58133 -100.07050
#
# Velocity S-wave (km/s) = -11.17313 3.09053 -7.59235
# Velocity P-wave (km/s) = 11.59648 7.07328 6.49796
#
# Compressibility (1/GPa) = 0.01801597
#
# Stress axis : x y z
#
# Youngs Moduli (GPa) = 38.53523 50.57907 57.71893
#
# Poissons Ratio (x) = 0.38399 0.30821
# Poissons Ratio (y) = 0.29256 0.55315
# Poissons Ratio (z) = 0.20577 0.48473
#
# Static dielectric constant tensor:
#      x y z
#    x 3.091480 0.000000 0.000000 
#    y 0.000000 3.231150 0.000000 
#    z 0.000000 0.000000 3.211820 
# 
# 
# High freq. dielectric constant tensor:
#      x y z
#    x 1.662160 0.000000 0.000000 
#    y 0.000000 1.661890 0.000000 
#    z 0.000000 0.000000 1.664050 
# 
# From -- ./inp_files/5931.got.cif
#   From: 2010.03.12/outbox.cif.g09.slc.cpg/sg31_3_cif.got.tgz:5931.got - 2010.04.14 01:42:59.
