data_PCOD8169336
_publ_section_title
;
Structure prediction by ZEFSAII (Michael W. Deem and Ramdas Pophale) SiO2 
 PCOD8169336
Probable space group: P C A 21
;
_chemical_formula_sum "Si O2"
_cell_formula_units_Z 20
_cell_length_a 10.532626
_cell_length_b 7.378483
_cell_length_c 10.477780
_cell_angle_alpha 90.000000
_cell_angle_beta 90.000000
_cell_angle_gamma 90.000000
_cell_volume 814.278597
_symmetry_space_group_name_H-M "P C A 21"
_symmetry_group_IT_number 29
_symmetry_cell_setting 'orthorhombic'
loop_
_space_group_symop_operation_xyz
x,y,z
-x,-y,1/2+z
1/2-x,y,1/2+z
1/2+x,-y,z
loop_
_atom_site_type_symbol
_atom_site_label
_atom_site_fract_x
_atom_site_fract_y
_atom_site_fract_z
Si Si1 0.415931 0.978256 0.764100
Si Si2 0.039231 0.515850 0.600888
Si Si3 0.792918 0.396628 0.752664
Si Si4 0.679581 0.710833 0.424782
Si Si5 0.068141 0.133928 0.999213
O O1 0.312778 0.817115 0.778595
O O2 0.356796 0.172082 0.801112
O O3 0.464160 0.999635 0.617905
O O4 0.532418 0.951226 0.862388
O O5 0.168668 0.573892 0.669633
O O6 0.062615 0.331542 0.519936
O O7 0.922904 0.476567 0.694010
O O8 0.009439 0.680154 0.506344
O O9 0.767481 0.513622 0.880678
O O10 0.782686 0.824154 0.504027
#
# Coordination Sequence:
#
# PCOD8169336 Si02
#       5
#     4   4   4   4   4
#     4  12  28  48  82 119 158 212 266 337 403 485
#     4  12  25  51  74 114 157 212 258 334 400 474
#     4  12  27  47  81 109 160 204 268 325 406 473
#     4  12  26  49  78 114 159 208 271 331 399 485
#     4  12  28  51  79 120 158 214 269 337 398 487
#
# _framework density 24.561617999999999
#
# number of rings (size 3 to 8) (size 9 to 14) (size 15 to 20)
#    0.000    0.000    6.000    2.400    5.600    0.000 
#    0.000    0.000    0.000    0.000    0.000    0.000 
#    0.000    0.000    0.000    0.000    0.000    0.000 
#
# Total GULP energy -247975.675364 kJ/mol
# GULP energy per Si atom -12398.783768 kJ/mol
# Density = 2.450571 g / cm^3
# Si number density = 24.561618 Si / 1000 Ang^3
#
#
#
# Elastic Constant Matrix: (Units=GPa)
#
#
# Indices 1 2 3 4 5 6 
#
# 1 105.8379 15.6758 26.7120 0.0000 0.0000 0.0000
# 2 15.6758 105.7166 19.0870 0.0000 0.0000 0.0000
# 3 26.7120 19.0870 101.2384 0.0000 0.0000 0.0000
# 4 0.0000 0.0000 0.0000 53.1773 0.0000 0.0000
# 5 0.0000 0.0000 0.0000 0.0000 33.8960 0.0000
# 6 0.0000 0.0000 0.0000 0.0000 0.0000 29.2368
#
#
#
# Elastic Compliance Matrix: (Units=1/GPa)
#
#
# Indices 1 2 3 4 5 6 
#
# 1 0.010237 -0.001067 -0.002500 0.000000 0.000000 0.000000
# 2 -0.001067 0.009904 -0.001586 0.000000 0.000000 0.000000
# 3 -0.002500 -0.001586 0.010836 0.000000 0.000000 0.000000
# 4 0.000000 0.000000 0.000000 0.018805 0.000000 0.000000
# 5 0.000000 0.000000 0.000000 0.000000 0.029502 0.000000
# 6 0.000000 0.000000 0.000000 0.000000 0.000000 0.034204
#
#
# Mechanical properties :
#
#
# Convention : Reuss Voigt Hill
#
# Bulk Modulus (GPa) = 48.37351 48.41585 48.39468
# Shear Modulus (GPa) = 38.26032 40.01655 39.13844
#
# Velocity S-wave (km/s) = 3.95109 4.04075 3.99617
# Velocity P-wave (km/s) = 6.36807 6.44399 6.40614
#
# Compressibility (1/GPa) = 0.02067247
#
# Stress axis : x y z
#
# Youngs Moduli (GPa) = 97.68129 100.97211 92.28246
#
# Poissons Ratio (x) = 0.10770 0.23071
# Poissons Ratio (y) = 0.10419 0.14634
# Poissons Ratio (z) = 0.24421 0.16012
#
# Static dielectric constant tensor:
#      x y z
#    x 4.333800 0.000000 0.000000 
#    y 0.000000 4.708880 0.000000 
#    z 0.000000 0.000000 4.496310 
# 
# 
# High freq. dielectric constant tensor:
#      x y z
#    x 1.968060 0.000000 0.000000 
#    y 0.000000 1.993270 0.000000 
#    z 0.000000 0.000000 1.983080 
# 
# From -- ./inp_files/1341.got.cif
#   From: 2010.03.12/outbox.cif.g09.slc.cpg/sg29_1_cif.got.tgz:1341.got - 2010.04.14 03:43:10.
