data_PCOD8169270
_publ_section_title
;
Structure prediction by ZEFSAII (Michael W. Deem and Ramdas Pophale) SiO2 
 PCOD8169270
Probable space group: P C A 21
;
_chemical_formula_sum "Si O2"
_cell_formula_units_Z 24
_cell_length_a 9.273139
_cell_length_b 8.445842
_cell_length_c 12.359602
_cell_angle_alpha 90.000000
_cell_angle_beta 90.000000
_cell_angle_gamma 90.000000
_cell_volume 967.997439
_symmetry_space_group_name_H-M "P C A 21"
_symmetry_group_IT_number 29
_symmetry_cell_setting 'orthorhombic'
loop_
_space_group_symop_operation_xyz
x,y,z
-x,-y,1/2+z
1/2-x,y,1/2+z
1/2+x,-y,z
loop_
_atom_site_type_symbol
_atom_site_label
_atom_site_fract_x
_atom_site_fract_y
_atom_site_fract_z
Si Si1 0.978608 0.579800 0.309050
Si Si2 0.311530 0.272407 0.479916
Si Si3 0.843239 0.149280 0.197653
Si Si4 0.749879 0.482847 0.663053
Si Si5 0.085094 0.968429 0.094329
Si Si6 0.507556 0.249585 0.905294
O O1 0.949659 0.716457 0.398195
O O2 0.861282 0.608036 0.214654
O O3 0.134581 0.571072 0.254663
O O4 0.935161 0.422725 0.376326
O O5 0.311973 0.429060 0.557932
O O6 0.165599 0.259349 0.409404
O O7 0.325257 0.111852 0.544520
O O8 0.844631 0.323714 0.140928
O O9 0.676534 0.089459 0.199768
O O10 0.927935 0.137994 0.310717
O O11 0.926287 0.027519 0.120298
O O12 0.073868 0.814486 0.017086
#
# Coordination Sequence:
#
# PCOD8169270 Si02
#       6
#     4   4   4   4   4   4
#     4  11  25  46  76 109 147 192 251 322 373 450
#     4  12  26  46  79 107 151 197 259 309 387 458
#     4  11  28  48  73 109 154 198 253 315 385 453
#     4  11  26  46  75 111 147 196 251 315 381 450
#     4  12  27  47  75 110 148 205 250 319 377 465
#     4  11  26  49  72 112 151 198 254 310 387 456
#
# _framework density 24.793455000000002
#
# number of rings (size 3 to 8) (size 9 to 14) (size 15 to 20)
#    0.000    0.667    3.333    3.000    9.333    4.000 
#    0.000    0.000    0.000    0.000    0.000    0.000 
#    0.000    0.000    0.000    0.000    0.000    0.000 
#
# Total GULP energy -297390.731074 kJ/mol
# GULP energy per Si atom -12391.280461 kJ/mol
# Density = 2.473702 g / cm^3
# Si number density = 24.793455 Si / 1000 Ang^3
#
#
#
# Elastic Constant Matrix: (Units=GPa)
#
#
# Indices 1 2 3 4 5 6 
#
# 1 90.8736 14.3476 30.5545 0.0000 0.0000 0.0000
# 2 14.3476 66.6164 29.4402 0.0000 0.0000 0.0000
# 3 30.5545 29.4402 72.7612 0.0000 0.0000 0.0000
# 4 0.0000 0.0000 0.0000 36.1552 0.0000 0.0000
# 5 0.0000 0.0000 0.0000 0.0000 42.7201 0.0000
# 6 0.0000 0.0000 0.0000 0.0000 0.0000 39.4773
#
#
#
# Elastic Compliance Matrix: (Units=1/GPa)
#
#
# Indices 1 2 3 4 5 6 
#
# 1 0.012825 -0.000465 -0.005197 0.000000 0.000000 0.000000
# 2 -0.000465 0.018297 -0.007208 0.000000 0.000000 0.000000
# 3 -0.005197 -0.007208 0.018843 0.000000 0.000000 0.000000
# 4 0.000000 0.000000 0.000000 0.027659 0.000000 0.000000
# 5 0.000000 0.000000 0.000000 0.000000 0.023408 0.000000
# 6 0.000000 0.000000 0.000000 0.000000 0.000000 0.025331
#
#
# Mechanical properties :
#
#
# Convention : Reuss Voigt Hill
#
# Bulk Modulus (GPa) = 41.28199 42.10398 41.69298
# Shear Modulus (GPa) = 31.21526 34.06446 32.63986
#
# Velocity S-wave (km/s) = 3.55211 3.71068 3.63226
# Velocity P-wave (km/s) = 5.78876 5.94791 5.86887
#
# Compressibility (1/GPa) = 0.02422364
#
# Stress axis : x y z
#
# Youngs Moduli (GPa) = 77.97095 54.65397 53.07149
#
# Poissons Ratio (x) = 0.02543 0.27583
# Poissons Ratio (y) = 0.03628 0.38253
# Poissons Ratio (z) = 0.40525 0.39393
#
# Static dielectric constant tensor:
#      x y z
#    x 4.366500 0.000000 0.000000 
#    y 0.000000 4.458680 0.000000 
#    z 0.000000 0.000000 4.503430 
# 
# 
# High freq. dielectric constant tensor:
#      x y z
#    x 1.995010 0.000000 0.000000 
#    y 0.000000 1.988270 0.000000 
#    z 0.000000 0.000000 1.977360 
# 
# From -- ./inp_files/2805.got.cif
#   From: 2010.03.12/outbox.cif.g09.slc.cpg/sg29_2_cif.got.tgz:2805.got - 2010.04.14 03:43:10.
