data_PCOD8169484
_publ_section_title
;
Structure prediction by ZEFSAII (Michael W. Deem and Ramdas Pophale) SiO2 
 PCOD8169484
Probable space group: P N C 2
;
_chemical_formula_sum "Si O2"
_cell_formula_units_Z 30
_cell_length_a 7.343119
_cell_length_b 32.128441
_cell_length_c 5.252957
_cell_angle_alpha 90.000000
_cell_angle_beta 90.000000
_cell_angle_gamma 90.000000
_cell_volume 1239.293193
_symmetry_space_group_name_H-M "P N C 2"
_symmetry_group_IT_number 30
_symmetry_cell_setting 'orthorhombic'
loop_
_space_group_symop_operation_xyz
x,y,z
-x,-y,z
-x,1/2+y,1/2+z
x,1/2-y,1/2+z
loop_
_atom_site_type_symbol
_atom_site_label
_atom_site_fract_x
_atom_site_fract_y
_atom_site_fract_z
Si Si1 0.744437 0.940398 0.307390
Si Si2 0.127371 0.590604 0.821013
Si Si3 0.500000 0.500000 0.502703
Si Si4 0.138887 0.730682 0.454976
Si Si5 0.441479 0.270560 0.517352
Si Si6 0.361072 0.134911 0.960697
Si Si7 0.447365 0.928499 0.657359
Si Si8 0.957693 0.138593 0.818503
O O1 0.654001 0.941650 0.585326
O O2 0.962683 0.942719 0.339330
O O3 0.666372 0.979746 0.157072
O O4 0.680724 0.895954 0.193020
O O5 0.128454 0.607611 0.532379
O O6 0.320723 0.570212 0.902566
O O7 0.106165 0.626291 0.036432
O O8 0.613192 0.464870 0.348030
O O9 0.046752 0.742540 0.725584
O O10 0.348966 0.742299 0.492746
O O11 0.116957 0.682959 0.392010
O O12 0.349528 0.245937 0.755145
O O13 0.417404 0.319823 0.561717
O O14 0.530692 0.116795 0.792761
O O15 0.175303 0.138505 0.801707
#
# Coordination Sequence:
#
# PCOD8169484 Si02
#       8
#     4   4   2   4   4   4   4   4
#     4  10  23  46  68 103 139 173 234 283 344 421
#     4  11  25  42  72 101 134 178 230 277 334 414
#     4  10  24  46  72 104 142 178 226 294 354 422
#     4  10  21  37  56  88 133 175 223 283 340 400
#     4  10  23  37  58  95 133 175 230 280 337 404
#     4  10  23  40  68  95 138 178 231 289 337 406
#     4  11  23  44  74  99 136 184 225 283 354 407
#     4  11  23  42  64  99 133 176 234 285 333 406
#
# _framework density 24.207346000000001
#
# number of rings (size 3 to 8) (size 9 to 14) (size 15 to 20)
#    0.000    1.600    1.333    2.000    7.467    2.133 
#    0.000    4.000    0.000    0.000    0.000    0.000 
#    0.000    0.000    0.000    0.000    0.000    0.000 
#
# Total GULP energy -371827.618376 kJ/mol
# GULP energy per Si atom -12394.253946 kJ/mol
# Density = 2.415225 g / cm^3
# Si number density = 24.207346 Si / 1000 Ang^3
#
#
#
# Elastic Constant Matrix: (Units=GPa)
#
#
# Indices 1 2 3 4 5 6 
#
# 1 50.3529 -21.3400 6.4352 0.0000 0.0000 0.0000
# 2 -21.3400 83.4175 20.8850 0.0000 0.0000 0.0000
# 3 6.4352 20.8850 91.7757 0.0000 0.0000 0.0000
# 4 0.0000 0.0000 0.0000 32.1266 0.0000 0.0000
# 5 0.0000 0.0000 0.0000 0.0000 25.7298 0.0000
# 6 0.0000 0.0000 0.0000 0.0000 0.0000 26.6913
#
#
#
# Elastic Compliance Matrix: (Units=1/GPa)
#
#
# Indices 1 2 3 4 5 6 
#
# 1 0.023100 0.006696 -0.003144 0.000000 0.000000 0.000000
# 2 0.006696 0.014653 -0.003804 0.000000 0.000000 0.000000
# 3 -0.003144 -0.003804 0.011982 0.000000 0.000000 0.000000
# 4 0.000000 0.000000 0.000000 0.031127 0.000000 0.000000
# 5 0.000000 0.000000 0.000000 0.000000 0.038865 0.000000
# 6 0.000000 0.000000 0.000000 0.000000 0.000000 0.037465
#
#
# Mechanical properties :
#
#
# Convention : Reuss Voigt Hill
#
# Bulk Modulus (GPa) = 20.31174 26.38962 23.35068
# Shear Modulus (GPa) = 28.71804 31.54725 30.13264
#
# Velocity S-wave (km/s) = 3.44806 3.61392 3.53196
# Velocity P-wave (km/s) = 4.92556 5.32344 5.12836
#
# Compressibility (1/GPa) = 0.04923260
#
# Stress axis : x y z
#
# Youngs Moduli (GPa) = 43.29082 68.24340 83.45669
#
# Poissons Ratio (x) = -0.45699 0.26235
# Poissons Ratio (y) = -0.28989 0.31748
# Poissons Ratio (z) = 0.13609 0.25961
#
# Static dielectric constant tensor:
#      x y z
#    x 4.421040 0.000000 0.000000 
#    y 0.000000 4.200420 0.000000 
#    z 0.000000 0.000000 4.684790 
# 
# 
# High freq. dielectric constant tensor:
#      x y z
#    x 1.957930 0.000000 0.000000 
#    y 0.000000 1.952870 0.000000 
#    z 0.000000 0.000000 1.971840 
# 
# From -- ./inp_files/569.got.cif
#   From: 2010.03.12/outbox.cif.g09.slc.cpg/sg30_1_cif.got.tgz:569.got - 2010.04.14 01:38:02.
