data_PCOD8169481
_publ_section_title
;
Structure prediction by ZEFSAII (Michael W. Deem and Ramdas Pophale) SiO2 
 PCOD8169481
Probable space group: P N C 2
;
_chemical_formula_sum "Si O2"
_cell_formula_units_Z 30
_cell_length_a 22.824160
_cell_length_b 5.162107
_cell_length_c 12.624954
_cell_angle_alpha 90.000000
_cell_angle_beta 90.000000
_cell_angle_gamma 90.000000
_cell_volume 1487.481626
_symmetry_space_group_name_H-M "P N C 2"
_symmetry_group_IT_number 30
_symmetry_cell_setting 'orthorhombic'
loop_
_space_group_symop_operation_xyz
x,y,z
-x,-y,z
-x,1/2+y,1/2+z
x,1/2-y,1/2+z
loop_
_atom_site_type_symbol
_atom_site_label
_atom_site_fract_x
_atom_site_fract_y
_atom_site_fract_z
Si Si1 0.122075 0.026946 0.519970
Si Si2 0.593322 0.078617 0.762194
Si Si3 0.784743 0.993800 0.341717
Si Si4 0.436727 0.409451 0.027037
Si Si5 0.649001 0.555105 0.846120
Si Si6 0.500000 0.000000 0.922333
Si Si7 0.067852 0.520682 0.433265
Si Si8 0.160877 0.003559 0.754628
O O1 0.180767 0.043039 0.450923
O O2 0.087761 0.300172 0.516829
O O3 0.078989 0.804029 0.479495
O O4 0.140953 0.950761 0.636588
O O5 0.633968 0.334678 0.758383
O O6 0.571171 0.997035 0.646546
O O7 0.629925 0.835288 0.805258
O O8 0.539004 0.163851 0.837586
O O9 0.717389 0.953605 0.369509
O O10 0.804477 0.774312 0.258611
O O11 0.796184 0.275115 0.292316
O O12 0.500000 0.500000 0.981403
O O13 0.382653 0.512686 0.957543
O O14 0.448751 0.107237 0.001563
O O15 0.102483 0.480251 0.324453
O O16 0.000000 0.500000 0.405969
#
# Coordination Sequence:
#
# PCOD8169481 Si02
#       8
#     4   4   4   4   4   2   4   4
#     4  10  21  39  62  86 119 167 204 242 300 349
#     4  11  24  39  63  87 119 153 193 237 304 358
#     4  10  22  40  61  85 121 154 206 252 296 349
#     4  11  23  40  65  87 120 155 194 236 308 368
#     4  11  25  41  59  93 119 152 199 255 294 358
#     4  10  22  40  60  86 118 154 188 236 288 370
#     4  10  21  36  58  94 128 156 200 249 292 352
#     4  10  21  40  63  87 119 166 200 245 300 351
#
# _framework density 20.168316999999998
#
# number of rings (size 3 to 8) (size 9 to 14) (size 15 to 20)
#    0.000    1.600    2.000    2.000    1.867    3.200 
#    0.000    0.000    0.000    0.000    0.000    0.000 
#    0.000    0.000    0.000    0.000    0.000    0.000 
#
# Total GULP energy -371783.979275 kJ/mol
# GULP energy per Si atom -12392.799309 kJ/mol
# Density = 2.012241 g / cm^3
# Si number density = 20.168317 Si / 1000 Ang^3
#
#
#
# Elastic Constant Matrix: (Units=GPa)
#
#
# Indices 1 2 3 4 5 6 
#
# 1 150.2410 43.2075 40.6149 0.0000 0.0000 0.0000
# 2 43.2075 93.0189 21.7867 0.0000 0.0000 0.0000
# 3 40.6149 21.7867 96.8036 0.0000 0.0000 0.0000
# 4 0.0000 0.0000 0.0000 19.0020 0.0000 0.0000
# 5 0.0000 0.0000 0.0000 0.0000 10.8985 0.0000
# 6 0.0000 0.0000 0.0000 0.0000 0.0000 23.4437
#
#
#
# Elastic Compliance Matrix: (Units=1/GPa)
#
#
# Indices 1 2 3 4 5 6 
#
# 1 0.008331 -0.003221 -0.002771 0.000000 0.000000 0.000000
# 2 -0.003221 0.012594 -0.001483 0.000000 0.000000 0.000000
# 3 -0.002771 -0.001483 0.011826 0.000000 0.000000 0.000000
# 4 0.000000 0.000000 0.000000 0.052626 0.000000 0.000000
# 5 0.000000 0.000000 0.000000 0.000000 0.091755 0.000000
# 6 0.000000 0.000000 0.000000 0.000000 0.000000 0.042655
#
#
# Mechanical properties :
#
#
# Convention : Reuss Voigt Hill
#
# Bulk Modulus (GPa) = 56.17177 61.25354 58.71266
# Shear Modulus (GPa) = 20.77519 26.29914 23.53716
#
# Velocity S-wave (km/s) = 3.21298 3.61499 3.41990
# Velocity P-wave (km/s) = 6.45572 6.91819 6.69095
#
# Compressibility (1/GPa) = 0.01780254
#
# Stress axis : x y z
#
# Youngs Moduli (GPa) = 120.02999 79.40288 84.55674
#
# Poissons Ratio (x) = 0.25575 0.23427
# Poissons Ratio (y) = 0.38661 0.12540
# Poissons Ratio (z) = 0.33255 0.11776
#
# Static dielectric constant tensor:
#      x y z
#    x 3.715100 0.000000 0.000000 
#    y 0.000000 4.388070 0.000000 
#    z 0.000000 0.000000 3.461250 
# 
# 
# High freq. dielectric constant tensor:
#      x y z
#    x 1.787500 0.000000 0.000000 
#    y 0.000000 1.802810 0.000000 
#    z 0.000000 0.000000 1.778930 
# 
# From -- ./inp_files/4479.got.cif
#   From: 2010.03.12/outbox.cif.g09.slc.cpg/sg30_3_cif.got.tgz:4479.got - 2010.04.14 01:38:02.
