data_PCOD8169352
_publ_section_title
;
Structure prediction by ZEFSAII (Michael W. Deem and Ramdas Pophale) SiO2 
 PCOD8169352
Probable space group: P C A 21
;
_chemical_formula_sum "Si O2"
_cell_formula_units_Z 20
_cell_length_a 7.589823
_cell_length_b 10.268725
_cell_length_c 8.600303
_cell_angle_alpha 90.000000
_cell_angle_beta 90.000000
_cell_angle_gamma 90.000000
_cell_volume 670.288740
_symmetry_space_group_name_H-M "P C A 21"
_symmetry_group_IT_number 29
_symmetry_cell_setting 'orthorhombic'
loop_
_space_group_symop_operation_xyz
x,y,z
-x,-y,1/2+z
1/2-x,y,1/2+z
1/2+x,-y,z
loop_
_atom_site_type_symbol
_atom_site_label
_atom_site_fract_x
_atom_site_fract_y
_atom_site_fract_z
Si Si1 0.933115 0.147970 0.003990
Si Si2 0.350535 0.368043 0.245943
Si Si3 0.631030 0.256248 0.822720
Si Si4 0.164850 0.136302 0.523523
Si Si5 0.353067 0.527134 0.944754
O O1 0.887602 0.260509 0.134277
O O2 0.807183 0.171282 0.856790
O O3 0.138027 0.151399 0.955997
O O4 0.883094 0.008527 0.079291
O O5 0.499331 0.373206 0.382116
O O6 0.164374 0.395354 0.336787
O O7 0.356464 0.226682 0.174039
O O8 0.377761 0.485193 0.122058
O O9 0.464553 0.178073 0.886493
O O10 0.661966 0.399045 0.907542
#
# Coordination Sequence:
#
# PCOD8169352 Si02
#       5
#     4   4   4   4   4
#     4  12  30  50  83 115 161 215 273 337 413 481
#     4  12  28  48  80 117 161 213 272 333 411 491
#     4  12  29  54  80 119 163 211 273 341 403 492
#     4  12  29  49  79 119 160 215 268 337 411 488
#     4  12  28  51  80 120 161 214 270 340 410 490
#
# _framework density 29.837889000000001
#
# number of rings (size 3 to 8) (size 9 to 14) (size 15 to 20)
#    0.000    0.000    2.000    6.000   14.000    1.600 
#    0.000    0.000    0.000    0.000    0.000    0.000 
#    0.000    0.000    0.000    0.000    0.000    0.000 
#
# Total GULP energy -248152.494693 kJ/mol
# GULP energy per Si atom -12407.624735 kJ/mol
# Density = 2.976998 g / cm^3
# Si number density = 29.837889 Si / 1000 Ang^3
#
#
#
# Elastic Constant Matrix: (Units=GPa)
#
#
# Indices 1 2 3 4 5 6 
#
# 1 159.1864 3.2973 34.9288 0.0000 0.0000 0.0000
# 2 3.2973 89.7926 -24.5869 0.0000 0.0000 0.0000
# 3 34.9288 -24.5869 124.6790 0.0000 0.0000 0.0000
# 4 0.0000 0.0000 0.0000 35.8008 0.0000 0.0000
# 5 0.0000 0.0000 0.0000 0.0000 57.1990 0.0000
# 6 0.0000 0.0000 0.0000 0.0000 0.0000 47.2107
#
#
#
# Elastic Compliance Matrix: (Units=1/GPa)
#
#
# Indices 1 2 3 4 5 6 
#
# 1 0.006749 -0.000809 -0.002050 0.000000 0.000000 0.000000
# 2 -0.000809 0.011869 0.002567 0.000000 0.000000 0.000000
# 3 -0.002050 0.002567 0.009101 0.000000 0.000000 0.000000
# 4 0.000000 0.000000 0.000000 0.027932 0.000000 0.000000
# 5 0.000000 0.000000 0.000000 0.000000 0.017483 0.000000
# 6 0.000000 0.000000 0.000000 0.000000 0.000000 0.021182
#
#
# Mechanical properties :
#
#
# Convention : Reuss Voigt Hill
#
# Bulk Modulus (GPa) = 36.85238 44.54849 40.70043
# Shear Modulus (GPa) = 48.10230 52.04337 50.07283
#
# Velocity S-wave (km/s) = 4.01948 4.18090 4.10098
# Velocity P-wave (km/s) = 5.82403 6.18620 6.00785
#
# Compressibility (1/GPa) = 0.02713529
#
# Stress axis : x y z
#
# Youngs Moduli (GPa) = 148.17979 84.24964 109.87510
#
# Poissons Ratio (x) = 0.06817 0.22526
# Poissons Ratio (y) = 0.11991 -0.28209
# Poissons Ratio (z) = 0.30380 -0.21630
#
# Static dielectric constant tensor:
#      x y z
#    x 5.919530 0.000000 0.000000 
#    y 0.000000 6.203290 0.000000 
#    z 0.000000 0.000000 5.023440 
# 
# 
# High freq. dielectric constant tensor:
#      x y z
#    x 2.240150 0.000000 0.000000 
#    y 0.000000 2.256310 0.000000 
#    z 0.000000 0.000000 2.213410 
# 
# From -- ./inp_files/1100.got.cif
#   From: 2010.03.12/outbox.cif.g09.slc.cpg/sg29_1_cif.got.tgz:1100.got - 2010.04.14 03:43:10.
