data_PCOD8169659
_publ_section_title
;
Structure prediction by ZEFSAII (Michael W. Deem and Ramdas Pophale) SiO2 
 PCOD8169659
Probable space group: P N C 2
;
_chemical_formula_sum "Si O2"
_cell_formula_units_Z 20
_cell_length_a 14.752329
_cell_length_b 6.485696
_cell_length_c 9.647027
_cell_angle_alpha 90.000000
_cell_angle_beta 90.000000
_cell_angle_gamma 90.000000
_cell_volume 923.019065
_symmetry_space_group_name_H-M "P N C 2"
_symmetry_group_IT_number 30
_symmetry_cell_setting 'orthorhombic'
loop_
_space_group_symop_operation_xyz
x,y,z
-x,-y,z
-x,1/2+y,1/2+z
x,1/2-y,1/2+z
loop_
_atom_site_type_symbol
_atom_site_label
_atom_site_fract_x
_atom_site_fract_y
_atom_site_fract_z
Si Si1 0.171810 0.134401 0.090390
Si Si2 0.671810 0.865598 0.751143
Si Si3 0.750000 0.223332 0.920767
Si Si4 0.400485 0.054258 0.475370
Si Si5 0.900485 0.554258 0.866164
O O1 0.250000 0.250000 0.170767
O O2 0.091305 0.114642 0.203486
O O3 0.138215 0.256724 0.955799
O O4 0.211863 0.914524 0.045885
O O5 0.591305 0.885358 0.638047
O O6 0.638215 0.743276 0.885734
O O7 0.711864 0.085476 0.795649
O O8 0.666299 0.360531 0.970762
O O9 0.833701 0.360532 0.870771
O O10 0.500000 0.000000 0.418664
O O11 0.000000 0.500000 0.922870
#
# Coordination Sequence:
#
# PCOD8169659 Si02
#       5
#     4   4   4   4   4
#     4  12  24  50  71 102 144 184 242 288 352 427
#     4  12  24  50  71 102 144 184 242 288 352 427
#     4  12  24  46  76  98 142 190 230 294 354 416
#     4  12  29  44  73 109 142 186 237 296 354 422
#     4  12  29  44  73 109 142 186 237 296 354 422
#
# _framework density 21.668026000000001
#
# number of rings (size 3 to 8) (size 9 to 14) (size 15 to 20)
#    0.000    0.000    8.000    1.200    5.600    0.000 
#    0.000    0.000    0.000    0.000    0.000    0.000 
#    0.000    0.000    0.000    0.000    0.000    0.000 
#
# Total GULP energy -248006.482562 kJ/mol
# GULP energy per Si atom -12400.324128 kJ/mol
# Density = 2.161871 g / cm^3
# Si number density = 21.668026 Si / 1000 Ang^3
#
#
#
# Elastic Constant Matrix: (Units=GPa)
#
#
# Indices 1 2 3 4 5 6 
#
# 1 131.9647 52.2609 38.4050 0.0000 0.0000 0.0000
# 2 52.2609 133.8009 61.5087 0.0000 0.0000 0.0000
# 3 38.4050 61.5087 147.6781 0.0000 0.0000 0.0000
# 4 0.0000 0.0000 0.0000 28.4636 0.0000 0.0000
# 5 0.0000 0.0000 0.0000 0.0000 32.0753 0.0000
# 6 0.0000 0.0000 0.0000 0.0000 0.0000 25.0872
#
#
#
# Elastic Compliance Matrix: (Units=1/GPa)
#
#
# Indices 1 2 3 4 5 6 
#
# 1 0.009106 -0.003052 -0.001097 0.000000 0.000000 0.000000
# 2 -0.003052 0.010267 -0.003482 0.000000 0.000000 0.000000
# 3 -0.001097 -0.003482 0.008507 0.000000 0.000000 0.000000
# 4 0.000000 0.000000 0.000000 0.035133 0.000000 0.000000
# 5 0.000000 0.000000 0.000000 0.000000 0.031177 0.000000
# 6 0.000000 0.000000 0.000000 0.000000 0.000000 0.039861
#
#
# Mechanical properties :
#
#
# Convention : Reuss Voigt Hill
#
# Bulk Modulus (GPa) = 79.25972 79.75476 79.50724
# Shear Modulus (GPa) = 32.56932 34.54315 33.55623
#
# Velocity S-wave (km/s) = 3.88120 3.99707 3.93956
# Velocity P-wave (km/s) = 7.53282 7.62821 7.58067
#
# Compressibility (1/GPa) = 0.01261675
#
# Stress axis : x y z
#
# Youngs Moduli (GPa) = 109.82030 97.40025 117.54857
#
# Poissons Ratio (x) = 0.29731 0.12891
# Poissons Ratio (y) = 0.33522 0.40935
# Poissons Ratio (z) = 0.12044 0.33919
#
# Static dielectric constant tensor:
#      x y z
#    x 3.211860 0.000000 0.000000 
#    y 0.000000 5.064070 0.000000 
#    z 0.000000 0.000000 4.987070 
# 
# 
# High freq. dielectric constant tensor:
#      x y z
#    x 1.845160 0.000000 0.000000 
#    y 0.000000 1.860810 0.000000 
#    z 0.000000 0.000000 1.872130 
# 
# From -- ./inp_files/4203.got.cif
#   From: 2010.03.12/outbox.cif.g09.slc.cpg/sg30_3_cif.got.tgz:4203.got - 2010.04.14 01:38:02.
