data_PCOD8169014
_publ_section_title
;
Structure prediction by ZEFSAII (Michael W. Deem and Ramdas Pophale) SiO2 
 PCOD8169014
Probable space group: P C A 21
;
_chemical_formula_sum "Si O2"
_cell_formula_units_Z 32
_cell_length_a 19.852723
_cell_length_b 5.520518
_cell_length_c 12.472578
_cell_angle_alpha 90.000000
_cell_angle_beta 90.000000
_cell_angle_gamma 90.000000
_cell_volume 1366.961056
_symmetry_space_group_name_H-M "P C A 21"
_symmetry_group_IT_number 29
_symmetry_cell_setting 'orthorhombic'
loop_
_space_group_symop_operation_xyz
x,y,z
-x,-y,1/2+z
1/2-x,y,1/2+z
1/2+x,-y,z
loop_
_atom_site_type_symbol
_atom_site_label
_atom_site_fract_x
_atom_site_fract_y
_atom_site_fract_z
Si Si1 0.812009 0.609415 0.346470
Si Si2 0.713322 0.928445 0.486197
Si Si3 0.600181 0.197794 0.363954
Si Si4 0.956883 0.275736 0.086820
Si Si5 0.114185 0.224004 0.654545
Si Si6 0.330544 0.745029 0.524331
Si Si7 0.681556 0.548755 0.233605
Si Si8 0.910736 0.929219 0.659640
O O1 0.770374 0.773700 0.427693
O O2 0.868643 0.758149 0.281348
O O3 0.846531 0.390241 0.412271
O O4 0.760196 0.511029 0.257200
O O5 0.683430 0.778085 0.585970
O O6 0.652881 0.998521 0.407558
O O7 0.753315 0.163957 0.526456
O O8 0.546866 0.261438 0.457429
O O9 0.640389 0.441484 0.334550
O O10 0.561908 0.103726 0.255987
O O11 0.927064 0.532978 0.124197
O O12 0.033912 0.270156 0.127000
O O13 0.922567 0.033041 0.135677
O O14 0.338788 0.572148 0.623900
O O15 0.388271 0.945781 0.547405
O O16 0.657304 0.823092 0.214208
#
# Coordination Sequence:
#
# PCOD8169014 Si02
#       8
#     4   4   4   4   4   4   4   4
#     4  12  23  40  71 103 146 179 232 302 375 428
#     4  11  23  43  68 105 138 186 231 296 376 440
#     4  10  23  43  75  96 141 190 238 290 375 424
#     4  11  28  50  71 104 144 194 252 298 345 434
#     4  11  28  45  73 104 143 188 243 302 358 429
#     4  11  25  40  68 106 142 182 233 303 358 441
#     4  11  23  43  70 104 138 187 236 294 370 438
#     4  11  25  48  70 102 142 196 249 293 357 436
#
# _framework density 23.409593000000001
#
# number of rings (size 3 to 8) (size 9 to 14) (size 15 to 20)
#    0.000    1.000    2.500    3.000   14.000    1.000 
#    2.250    0.000    0.000    0.000    0.000    0.000 
#    0.000    0.000    0.000    0.000    0.000    0.000 
#
# Total GULP energy -396584.004706 kJ/mol
# GULP energy per Si atom -12393.250147 kJ/mol
# Density = 2.335631 g / cm^3
# Si number density = 23.409593 Si / 1000 Ang^3
#
#
#
# Elastic Constant Matrix: (Units=GPa)
#
#
# Indices 1 2 3 4 5 6 
#
# 1 44.0036 9.0936 31.2543 0.0000 0.0000 0.0000
# 2 9.0936 94.8814 28.3932 0.0000 0.0000 0.0000
# 3 31.2543 28.3932 109.4521 0.0000 0.0000 0.0000
# 4 0.0000 0.0000 0.0000 40.4860 0.0000 0.0000
# 5 0.0000 0.0000 0.0000 0.0000 33.9457 0.0000
# 6 0.0000 0.0000 0.0000 0.0000 0.0000 35.4189
#
#
#
# Elastic Compliance Matrix: (Units=1/GPa)
#
#
# Indices 1 2 3 4 5 6 
#
# 1 0.028516 -0.000321 -0.008060 0.000000 0.000000 0.000000
# 2 -0.000321 0.011430 -0.002873 0.000000 0.000000 0.000000
# 3 -0.008060 -0.002873 0.012183 0.000000 0.000000 0.000000
# 4 0.000000 0.000000 0.000000 0.024700 0.000000 0.000000
# 5 0.000000 0.000000 0.000000 0.000000 0.029459 0.000000
# 6 0.000000 0.000000 0.000000 0.000000 0.000000 0.028234
#
#
# Mechanical properties :
#
#
# Convention : Reuss Voigt Hill
#
# Bulk Modulus (GPa) = 33.75955 42.86884 38.31419
# Shear Modulus (GPa) = 29.95737 33.94320 31.95028
#
# Velocity S-wave (km/s) = 3.58118 3.81198 3.69838
# Velocity P-wave (km/s) = 5.61715 6.14224 5.88555
#
# Compressibility (1/GPa) = 0.02962125
#
# Stress axis : x y z
#
# Youngs Moduli (GPa) = 35.06773 87.48817 82.08004
#
# Poissons Ratio (x) = 0.02810 0.66153
# Poissons Ratio (y) = 0.01126 0.23585
# Poissons Ratio (z) = 0.28263 0.25139
#
# Static dielectric constant tensor:
#      x y z
#    x 4.107340 0.000000 0.000000 
#    y 0.000000 4.399390 0.000000 
#    z 0.000000 0.000000 4.430850 
# 
# 
# High freq. dielectric constant tensor:
#      x y z
#    x 1.901160 0.000000 0.000000 
#    y 0.000000 1.930300 0.000000 
#    z 0.000000 0.000000 1.942530 
# 
# From -- ./inp_files/3876.got.cif
#   From: 2010.03.12/outbox.cif.g09.slc.cpg/sg29_2_cif.got.tgz:3876.got - 2010.04.14 03:43:10.
