data_PCOD8169586
_publ_section_title
;
Structure prediction by ZEFSAII (Michael W. Deem and Ramdas Pophale) SiO2 
 PCOD8169586
Probable space group: P N C 2
;
_chemical_formula_sum "Si O2"
_cell_formula_units_Z 24
_cell_length_a 13.260466
_cell_length_b 9.509374
_cell_length_c 8.219102
_cell_angle_alpha 90.000000
_cell_angle_beta 90.000000
_cell_angle_gamma 90.000000
_cell_volume 1036.418329
_symmetry_space_group_name_H-M "P N C 2"
_symmetry_group_IT_number 30
_symmetry_cell_setting 'orthorhombic'
loop_
_space_group_symop_operation_xyz
x,y,z
-x,-y,z
-x,1/2+y,1/2+z
x,1/2-y,1/2+z
loop_
_atom_site_type_symbol
_atom_site_label
_atom_site_fract_x
_atom_site_fract_y
_atom_site_fract_z
Si Si1 0.610453 0.828016 0.400710
Si Si2 0.689907 0.573783 0.234592
Si Si3 0.887867 0.446160 0.172292
Si Si4 0.801248 0.221236 0.956092
Si Si5 0.324961 0.602448 0.723961
Si Si6 0.566666 0.136282 0.914801
O O1 0.679077 0.689412 0.377413
O O2 0.617456 0.884059 0.584450
O O3 0.493498 0.780187 0.362764
O O4 0.650550 0.944332 0.275702
O O5 0.806071 0.572626 0.174978
O O6 0.666846 0.415475 0.307447
O O7 0.875848 0.356181 0.335423
O O8 0.000000 0.500000 0.159527
O O9 0.865929 0.353483 0.014133
O O10 0.695006 0.293612 0.880334
O O11 0.773975 0.117410 0.106959
O O12 0.415481 0.653402 0.607779
O O13 0.500000 0.000000 0.877374
#
# Coordination Sequence:
#
# PCOD8169586 Si02
#       6
#     4   4   4   4   4   4
#     4  11  24  44  70 102 137 196 244 290 358 429
#     4  11  23  46  69 103 148 183 240 304 357 428
#     4  11  24  48  76 106 143 184 238 298 368 444
#     4  10  24  46  74 105 139 190 228 298 381 417
#     4  11  22  45  73  94 147 190 234 297 358 426
#     4  10  23  43  64 102 143 186 241 286 351 429
#
# _framework density 23.156672
#
# number of rings (size 3 to 8) (size 9 to 14) (size 15 to 20)
#    0.000    1.333    3.333    2.000    0.000    5.333 
#    3.000   10.833    0.000    0.000    0.000    0.000 
#    0.000    0.000    0.000    0.000    0.000    0.000 
#
# Total GULP energy -297412.331823 kJ/mol
# GULP energy per Si atom -12392.180493 kJ/mol
# Density = 2.310397 g / cm^3
# Si number density = 23.156672 Si / 1000 Ang^3
#
#
#
# Elastic Constant Matrix: (Units=GPa)
#
#
# Indices 1 2 3 4 5 6 
#
# 1 139.6048 68.9906 32.1634 0.0000 0.0000 0.0000
# 2 68.9906 151.2772 63.5855 0.0000 0.0000 0.0000
# 3 32.1634 63.5855 123.6180 0.0000 0.0000 0.0000
# 4 0.0000 0.0000 0.0000 39.4137 0.0000 0.0000
# 5 0.0000 0.0000 0.0000 0.0000 30.5236 0.0000
# 6 0.0000 0.0000 0.0000 0.0000 0.0000 39.2608
#
#
#
# Elastic Compliance Matrix: (Units=1/GPa)
#
#
# Indices 1 2 3 4 5 6 
#
# 1 0.009256 -0.004094 -0.000302 0.000000 0.000000 0.000000
# 2 -0.004094 0.010245 -0.004204 0.000000 0.000000 0.000000
# 3 -0.000302 -0.004204 0.010331 0.000000 0.000000 0.000000
# 4 0.000000 0.000000 0.000000 0.025372 0.000000 0.000000
# 5 0.000000 0.000000 0.000000 0.000000 0.032761 0.000000
# 6 0.000000 0.000000 0.000000 0.000000 0.000000 0.025471
#
#
# Mechanical properties :
#
#
# Convention : Reuss Voigt Hill
#
# Bulk Modulus (GPa) = 79.17833 82.66431 80.92132
# Shear Modulus (GPa) = 37.07903 38.49034 37.78468
#
# Velocity S-wave (km/s) = 4.00587 4.08140 4.04381
# Velocity P-wave (km/s) = 7.46074 7.61484 7.53818
#
# Compressibility (1/GPa) = 0.01262972
#
# Stress axis : x y z
#
# Youngs Moduli (GPa) = 108.03795 97.61109 96.79886
#
# Poissons Ratio (x) = 0.39964 0.02927
# Poissons Ratio (y) = 0.44232 0.40698
# Poissons Ratio (z) = 0.03266 0.41039
#
# Static dielectric constant tensor:
#      x y z
#    x 4.063210 0.000000 0.000000 
#    y 0.000000 4.382590 0.000000 
#    z 0.000000 0.000000 4.292810 
# 
# 
# High freq. dielectric constant tensor:
#      x y z
#    x 1.888640 0.000000 0.000000 
#    y 0.000000 1.932870 0.000000 
#    z 0.000000 0.000000 1.933250 
# 
# From -- ./inp_files/2632.got.cif
#   From: 2010.03.12/outbox.cif.g09.slc.cpg/sg30_2_cif.got.tgz:2632.got - 2010.04.14 01:38:02.
