data_PCOD8169004
_publ_section_title
;
Structure prediction by ZEFSAII (Michael W. Deem and Ramdas Pophale) SiO2 
 PCOD8169004
Probable space group: P C A 21
;
_chemical_formula_sum "Si O2"
_cell_formula_units_Z 32
_cell_length_a 16.994314
_cell_length_b 8.699001
_cell_length_c 9.472625
_cell_angle_alpha 90.000000
_cell_angle_beta 90.000000
_cell_angle_gamma 90.000000
_cell_volume 1400.371824
_symmetry_space_group_name_H-M "P C A 21"
_symmetry_group_IT_number 29
_symmetry_cell_setting 'orthorhombic'
loop_
_space_group_symop_operation_xyz
x,y,z
-x,-y,1/2+z
1/2-x,y,1/2+z
1/2+x,-y,z
loop_
_atom_site_type_symbol
_atom_site_label
_atom_site_fract_x
_atom_site_fract_y
_atom_site_fract_z
Si Si1 0.423106 0.888491 0.115020
Si Si2 0.261925 0.965968 0.990137
Si Si3 0.003144 0.567201 0.599557
Si Si4 0.502623 0.063934 0.340816
Si Si5 0.336069 0.823364 0.720570
Si Si6 0.923676 0.622075 0.328466
Si Si7 0.837282 0.542450 0.722887
Si Si8 0.761067 0.672432 0.455022
O O1 0.332702 0.936256 0.100879
O O2 0.436142 0.708543 0.087537
O O3 0.456758 0.923612 0.269352
O O4 0.470738 0.986578 0.996925
O O5 0.186833 0.892094 0.067982
O O6 0.276737 0.879185 0.843079
O O7 0.247104 0.144323 0.959473
O O8 0.975253 0.521908 0.441310
O O9 0.923911 0.608500 0.686911
O O10 0.052668 0.430587 0.671424
O O11 0.577254 0.115599 0.249924
O O12 0.440370 0.199989 0.350992
O O13 0.336874 0.640432 0.714834
O O14 0.831488 0.606556 0.357351
O O15 0.772882 0.610814 0.613570
O O16 0.816496 0.601065 0.880785
#
# Coordination Sequence:
#
# PCOD8169004 Si02
#       8
#     4   4   4   4   4   4   4   4
#     4  10  25  41  67  99 133 177 229 279 345 409
#     4  11  26  44  68 100 137 182 229 284 345 417
#     4  10  23  44  67  96 136 172 227 283 344 411
#     4  10  23  43  64  96 132 173 223 280 338 403
#     4  11  24  44  67  96 137 176 225 282 345 411
#     4  10  23  43  66  97 132 175 224 284 342 411
#     4  11  24  45  67  99 132 182 225 286 344 416
#     4  11  26  42  70  97 137 179 232 282 351 412
#
# _framework density 22.851075000000002
#
# number of rings (size 3 to 8) (size 9 to 14) (size 15 to 20)
#    0.000    1.500    1.250    1.500   14.000    2.000 
#    0.000    0.000    0.000    0.000    0.000    0.000 
#    0.000    0.000    0.000    0.000    0.000    0.000 
#
# Total GULP energy -396800.820001 kJ/mol
# GULP energy per Si atom -12400.025625 kJ/mol
# Density = 2.279906 g / cm^3
# Si number density = 22.851075 Si / 1000 Ang^3
#
#
#
# Elastic Constant Matrix: (Units=GPa)
#
#
# Indices 1 2 3 4 5 6 
#
# 1 35.1490 5.6403 7.8394 0.0000 0.0000 0.0000
# 2 5.6403 66.9749 8.3986 0.0000 0.0000 0.0000
# 3 7.8394 8.3986 52.3889 0.0000 0.0000 0.0000
# 4 0.0000 0.0000 0.0000 43.1935 0.0000 0.0000
# 5 0.0000 0.0000 0.0000 0.0000 43.6634 0.0000
# 6 0.0000 0.0000 0.0000 0.0000 0.0000 26.4161
#
#
#
# Elastic Compliance Matrix: (Units=1/GPa)
#
#
# Indices 1 2 3 4 5 6 
#
# 1 0.029688 -0.001983 -0.004125 0.000000 0.000000 0.000000
# 2 -0.001983 0.015370 -0.002167 0.000000 0.000000 0.000000
# 3 -0.004125 -0.002167 0.020053 0.000000 0.000000 0.000000
# 4 0.000000 0.000000 0.000000 0.023152 0.000000 0.000000
# 5 0.000000 0.000000 0.000000 0.000000 0.022902 0.000000
# 6 0.000000 0.000000 0.000000 0.000000 0.000000 0.037856
#
#
# Mechanical properties :
#
#
# Convention : Reuss Voigt Hill
#
# Bulk Modulus (GPa) = 20.59263 22.02995 21.31129
# Shear Modulus (GPa) = 27.50918 31.49688 29.50303
#
# Velocity S-wave (km/s) = 3.47341 3.71665 3.59709
# Velocity P-wave (km/s) = 5.01172 5.29901 5.15737
#
# Compressibility (1/GPa) = 0.04856106
#
# Stress axis : x y z
#
# Youngs Moduli (GPa) = 33.68316 65.06294 49.86866
#
# Poissons Ratio (x) = 0.12902 0.20569
# Poissons Ratio (y) = 0.06679 0.10808
# Poissons Ratio (z) = 0.13893 0.14101
#
# Static dielectric constant tensor:
#      x y z
#    x 4.194890 0.000000 0.000000 
#    y 0.000000 3.832680 0.000000 
#    z 0.000000 0.000000 4.343400 
# 
# 
# High freq. dielectric constant tensor:
#      x y z
#    x 1.909160 0.000000 0.000000 
#    y 0.000000 1.885600 0.000000 
#    z 0.000000 0.000000 1.911620 
# 
# From -- ./inp_files/2334.got.cif
#   From: 2010.03.12/outbox.cif.g09.slc.cpg/sg29_2_cif.got.tgz:2334.got - 2010.04.14 03:43:10.
