data_PCOD8169385
_publ_section_title
;
Structure prediction by ZEFSAII (Michael W. Deem and Ramdas Pophale) SiO2 
 PCOD8169385
Probable space group: P N C 2
;
_chemical_formula_sum "Si O2"
_cell_formula_units_Z 30
_cell_length_a 7.542417
_cell_length_b 11.199997
_cell_length_c 18.094108
_cell_angle_alpha 90.000000
_cell_angle_beta 90.000000
_cell_angle_gamma 90.000000
_cell_volume 1528.500638
_symmetry_space_group_name_H-M "P N C 2"
_symmetry_group_IT_number 30
_symmetry_cell_setting 'orthorhombic'
loop_
_space_group_symop_operation_xyz
x,y,z
-x,-y,z
-x,1/2+y,1/2+z
x,1/2-y,1/2+z
loop_
_atom_site_type_symbol
_atom_site_label
_atom_site_fract_x
_atom_site_fract_y
_atom_site_fract_z
Si Si1 0.992931 0.363066 0.459930
Si Si2 0.695133 0.144303 0.701009
Si Si3 0.306593 0.761769 0.542860
Si Si4 0.712739 0.767069 0.541357
Si Si5 0.003137 0.760223 0.799923
Si Si6 0.289809 0.368248 0.199573
Si Si7 0.297688 0.996922 0.451475
Si Si8 0.000000 0.000000 0.333187
O O1 0.814535 0.339693 0.506609
O O2 0.000000 0.500000 0.435132
O O3 0.160869 0.337199 0.512260
O O4 0.997862 0.280514 0.387641
O O5 0.736435 0.224984 0.629549
O O6 0.490731 0.156525 0.725171
O O7 0.812527 0.190770 0.768380
O O8 0.739734 0.007376 0.682115
O O9 0.510587 0.725101 0.530978
O O10 0.264126 0.888285 0.506448
O O11 0.756357 0.793096 0.626678
O O12 0.755092 0.884761 0.494949
O O13 0.837272 0.829000 0.765434
O O14 0.983405 0.618809 0.783225
O O15 0.177067 0.983428 0.380361
O O16 0.500000 0.000000 0.424006
#
# Coordination Sequence:
#
# PCOD8169385 Si02
#       8
#     4   4   4   4   4   4   4   2
#     4  12  25  39  58  88 124 161 196 235 295 359
#     4  10  21  40  65  90 117 153 199 247 293 344
#     4  10  20  39  67  92 113 146 198 254 297 340
#     4  10  20  39  67  92 113 146 198 254 297 340
#     4  12  25  39  59  87 123 160 196 238 292 358
#     4  10  21  40  65  90 117 153 199 247 293 344
#     4  10  18  36  68  94 110 137 192 258 302 339
#     4  12  24  40  58  86 122 160 194 234 298 356
#
# _framework density 19.627075000000001
#
# number of rings (size 3 to 8) (size 9 to 14) (size 15 to 20)
#    0.000    1.333    4.000    2.000    0.000    2.667 
#    4.800    0.000    0.000    0.000    0.000    0.000 
#    0.000    0.000    0.000    0.000    0.000    0.000 
#
# Total GULP energy -372134.345777 kJ/mol
# GULP energy per Si atom -12404.478193 kJ/mol
# Density = 1.958240 g / cm^3
# Si number density = 19.627075 Si / 1000 Ang^3
#
#
#
# Elastic Constant Matrix: (Units=GPa)
#
#
# Indices 1 2 3 4 5 6 
#
# 1 101.5365 26.5249 46.1424 0.0000 0.0000 0.0000
# 2 26.5249 79.9957 14.9807 0.0000 0.0000 0.0000
# 3 46.1424 14.9807 82.0751 0.0000 0.0000 0.0000
# 4 0.0000 0.0000 0.0000 29.4596 0.0000 0.0000
# 5 0.0000 0.0000 0.0000 0.0000 21.2780 0.0000
# 6 0.0000 0.0000 0.0000 0.0000 0.0000 29.3195
#
#
#
# Elastic Compliance Matrix: (Units=1/GPa)
#
#
# Indices 1 2 3 4 5 6 
#
# 1 0.014015 -0.003284 -0.007280 0.000000 0.000000 0.000000
# 2 -0.003284 0.013712 -0.000657 0.000000 0.000000 0.000000
# 3 -0.007280 -0.000657 0.016396 0.000000 0.000000 0.000000
# 4 0.000000 0.000000 0.000000 0.033945 0.000000 0.000000
# 5 0.000000 0.000000 0.000000 0.000000 0.046997 0.000000
# 6 0.000000 0.000000 0.000000 0.000000 0.000000 0.034107
#
#
# Mechanical properties :
#
#
# Convention : Reuss Voigt Hill
#
# Bulk Modulus (GPa) = 46.11841 48.76705 47.44273
# Shear Modulus (GPa) = 26.47738 27.74203 27.10971
#
# Velocity S-wave (km/s) = 3.67689 3.76368 3.72054
# Velocity P-wave (km/s) = 6.44782 6.61723 6.53308
#
# Compressibility (1/GPa) = 0.02168332
#
# Stress axis : x y z
#
# Youngs Moduli (GPa) = 71.35381 72.92626 60.98885
#
# Poissons Ratio (x) = 0.23947 0.44398
# Poissons Ratio (y) = 0.23431 0.04006
# Poissons Ratio (z) = 0.51943 0.04790
#
# Static dielectric constant tensor:
#      x y z
#    x 3.737470 0.000000 0.000000 
#    y 0.000000 3.451960 0.000000 
#    z 0.000000 0.000000 3.422020 
# 
# 
# High freq. dielectric constant tensor:
#      x y z
#    x 1.780440 0.000000 0.000000 
#    y 0.000000 1.753780 0.000000 
#    z 0.000000 0.000000 1.756450 
# 
# From -- ./inp_files/5161.got.cif
#   From: 2010.03.12/outbox.cif.g09.slc.cpg/sg30_3_cif.got.tgz:5161.got - 2010.04.14 01:38:02.
