data_PCOD8169736
_publ_section_title
;
Structure prediction by ZEFSAII (Michael W. Deem and Ramdas Pophale) SiO2 
 PCOD8169736
Probable space group: P M N 21
;
_chemical_formula_sum "Si O2"
_cell_formula_units_Z 32
_cell_length_a 8.918594
_cell_length_b 14.771643
_cell_length_c 12.260699
_cell_angle_alpha 90.000000
_cell_angle_beta 90.000000
_cell_angle_gamma 90.000000
_cell_volume 1615.252522
_symmetry_space_group_name_H-M "P M N 21"
_symmetry_group_IT_number 31
_symmetry_cell_setting 'orthorhombic'
loop_
_space_group_symop_operation_xyz
x,y,z
1/2-x,-y,1/2+z
-x,y,z
1/2+x,-y,1/2+z
loop_
_atom_site_type_symbol
_atom_site_label
_atom_site_fract_x
_atom_site_fract_y
_atom_site_fract_z
Si Si1 0.325290 0.258781 0.731600
Si Si2 0.175057 0.827672 0.003178
Si Si3 0.666518 0.655855 0.933757
Si Si4 0.678008 0.828320 0.640533
Si Si5 0.676783 0.865432 0.394252
Si Si6 0.834029 0.367820 0.186194
Si Si7 0.178424 0.558426 0.116611
Si Si8 0.678051 0.952715 0.840627
O O1 0.500000 0.253419 0.761179
O O2 0.288469 0.192246 0.629596
O O3 0.228918 0.227359 0.835774
O O4 0.277759 0.361799 0.702061
O O5 0.230122 0.744067 0.930933
O O6 0.261442 0.914679 0.956253
O O7 0.000000 0.843455 0.985242
O O8 0.500000 0.679450 0.979338
O O9 0.653445 0.618184 0.813950
O O10 0.744860 0.577648 0.002020
O O11 0.500000 0.821272 0.654119
O O12 0.724332 0.864833 0.521610
O O13 0.747930 0.726757 0.654674
O O14 0.737772 0.895045 0.736085
O O15 0.500000 0.876902 0.382543
O O16 0.760027 0.945972 0.330567
O O17 0.753633 0.460060 0.146876
O O18 0.000000 0.365087 0.133751
O O19 0.000000 0.558209 0.103714
O O20 0.500000 0.954608 0.842651
#
# Coordination Sequence:
#
# PCOD8169736 Si02
#       8
#     4   4   4   4   4   4   4   4
#     4   9  20  38  56  80 117 156 190 234 295 346
#     4  10  20  36  59  84 112 147 190 243 294 344
#     4  10  18  32  55  82 111 147 194 242 287 345
#     4   9  20  39  60  84 116 153 191 237 296 352
#     4  11  24  39  58  86 118 155 198 242 288 350
#     4   9  17  34  59  83 111 153 194 231 289 353
#     4   9  19  35  57  83 115 155 196 239 293 351
#     4  11  22  39  62  86 114 152 193 238 296 355
#
# _framework density 19.811143999999999
#
# number of rings (size 3 to 8) (size 9 to 14) (size 15 to 20)
#    0.000    2.250    1.250    2.250    1.750    3.500 
#    0.000    3.125    0.000    0.000    0.000    0.000 
#    0.000    0.000    0.000    0.000    0.000    0.000 
#
# Total GULP energy -396647.677402 kJ/mol
# GULP energy per Si atom -12395.239919 kJ/mol
# Density = 1.976605 g / cm^3
# Si number density = 19.811144 Si / 1000 Ang^3
#
#
#
# Elastic Constant Matrix: (Units=GPa)
#
#
# Indices 1 2 3 4 5 6 
#
# 1 54.0355 29.5222 31.8740 0.0000 0.0000 0.0000
# 2 29.5222 135.9188 52.6320 0.0000 0.0000 0.0000
# 3 31.8740 52.6320 77.4384 0.0000 0.0000 0.0000
# 4 0.0000 0.0000 0.0000 28.5549 0.0000 0.0000
# 5 0.0000 0.0000 0.0000 0.0000 25.5900 0.0000
# 6 0.0000 0.0000 0.0000 0.0000 0.0000 21.6986
#
#
#
# Elastic Compliance Matrix: (Units=1/GPa)
#
#
# Indices 1 2 3 4 5 6 
#
# 1 0.024814 -0.001947 -0.008890 0.000000 0.000000 0.000000
# 2 -0.001947 0.010138 -0.006089 0.000000 0.000000 0.000000
# 3 -0.008890 -0.006089 0.020711 0.000000 0.000000 0.000000
# 4 0.000000 0.000000 0.000000 0.035020 0.000000 0.000000
# 5 0.000000 0.000000 0.000000 0.000000 0.039078 0.000000
# 6 0.000000 0.000000 0.000000 0.000000 0.000000 0.046086
#
#
# Mechanical properties :
#
#
# Convention : Reuss Voigt Hill
#
# Bulk Modulus (GPa) = 45.84901 55.04990 50.44945
# Shear Modulus (GPa) = 23.04458 25.39300 24.21879
#
# Velocity S-wave (km/s) = 3.41429 3.58404 3.50020
# Velocity P-wave (km/s) = 6.22386 6.70633 6.46959
#
# Compressibility (1/GPa) = 0.02181072
#
# Stress axis : x y z
#
# Youngs Moduli (GPa) = 40.29935 98.63750 48.28302
#
# Poissons Ratio (x) = 0.19207 0.42925
# Poissons Ratio (y) = 0.07847 0.29400
# Poissons Ratio (z) = 0.35827 0.60061
#
# Static dielectric constant tensor:
#      x y z
#    x 3.426610 0.000000 0.000000 
#    y 0.000000 3.795410 0.000000 
#    z 0.000000 0.000000 3.592780 
# 
# 
# High freq. dielectric constant tensor:
#      x y z
#    x 1.747220 0.000000 0.000000 
#    y 0.000000 1.779950 0.000000 
#    z 0.000000 0.000000 1.767300 
# 
# From -- ./inp_files/3654.got.cif
#   From: 2010.03.12/outbox.cif.g09.slc.cpg/sg31_2_cif.got.tgz:3654.got - 2010.04.14 01:42:59.
