data_PCOD8169733
_publ_section_title
;
Structure prediction by ZEFSAII (Michael W. Deem and Ramdas Pophale) SiO2 
 PCOD8169733
Probable space group: P M N 21
;
_chemical_formula_sum "Si O2"
_cell_formula_units_Z 32
_cell_length_a 8.957073
_cell_length_b 10.392582
_cell_length_c 19.160973
_cell_angle_alpha 90.000000
_cell_angle_beta 90.000000
_cell_angle_gamma 90.000000
_cell_volume 1783.639709
_symmetry_space_group_name_H-M "P M N 21"
_symmetry_group_IT_number 31
_symmetry_cell_setting 'orthorhombic'
loop_
_space_group_symop_operation_xyz
x,y,z
1/2-x,-y,1/2+z
-x,y,z
1/2+x,-y,1/2+z
loop_
_atom_site_type_symbol
_atom_site_label
_atom_site_fract_x
_atom_site_fract_y
_atom_site_fract_z
Si Si1 0.825412 0.613910 0.726500
Si Si2 0.672328 0.772427 0.510238
Si Si3 0.323315 0.136175 0.142953
Si Si4 0.174877 0.370430 0.631495
Si Si5 0.825299 0.240511 0.854199
Si Si6 0.823780 0.120610 0.713262
Si Si7 0.176733 0.487806 0.357370
Si Si8 0.175558 0.523414 0.000372
O O1 0.768848 0.738667 0.684685
O O2 0.787814 0.489477 0.681014
O O3 0.731847 0.609013 0.797510
O O4 0.000000 0.622665 0.744467
O O5 0.500000 0.792629 0.527827
O O6 0.765433 0.859461 0.563526
O O7 0.709087 0.817340 0.430861
O O8 0.718371 0.623428 0.518859
O O9 0.500000 0.130273 0.139541
O O10 0.255747 0.010907 0.182084
O O11 0.234319 0.241853 0.668900
O O12 0.266831 0.382649 0.560408
O O13 0.000000 0.364698 0.613894
O O14 0.778902 0.137304 0.794888
O O15 0.734218 0.369654 0.840314
O O16 0.000000 0.278130 0.848413
O O17 0.000000 0.114896 0.707075
O O18 0.243103 0.435149 0.429562
O O19 0.000000 0.488383 0.361526
O O20 0.000000 0.539064 0.989721
#
# Coordination Sequence:
#
# PCOD8169733 Si02
#       8
#     4   4   4   4   4   4   4   4
#     4  10  19  33  53  77 106 141 176 213 260 312
#     4   9  18  31  51  76 104 136 170 218 266 311
#     4  10  20  34  54  78 105 141 181 215 253 315
#     4  10  18  32  55  79 105 138 174 215 262 310
#     4   9  17  34  55  76 103 138 177 214 266 320
#     4   9  18  34  55  77 105 141 177 216 262 315
#     4  11  21  32  52  81 109 137 176 223 270 313
#     4  10  20  34  53  78 109 140 175 220 269 316
#
# _framework density 17.940843000000001
#
# number of rings (size 3 to 8) (size 9 to 14) (size 15 to 20)
#    0.000    2.250    2.500    2.250    0.000    3.000 
#    0.000    2.500    0.000    1.500    0.000    0.000 
#    0.000    0.000    0.000    0.000    0.000    0.000 
#
# Total GULP energy -396816.028387 kJ/mol
# GULP energy per Si atom -12400.500887 kJ/mol
# Density = 1.790001 g / cm^3
# Si number density = 17.940843 Si / 1000 Ang^3
#
#
#
# Elastic Constant Matrix: (Units=GPa)
#
#
# Indices 1 2 3 4 5 6 
#
# 1 56.9282 27.5744 50.3841 0.0000 0.0000 0.0000
# 2 27.5744 106.7148 68.6281 0.0000 0.0000 0.0000
# 3 50.3841 68.6281 162.9455 0.0000 0.0000 0.0000
# 4 0.0000 0.0000 0.0000 28.0956 0.0000 0.0000
# 5 0.0000 0.0000 0.0000 0.0000 34.4150 0.0000
# 6 0.0000 0.0000 0.0000 0.0000 0.0000 13.0451
#
#
#
# Elastic Compliance Matrix: (Units=1/GPa)
#
#
# Indices 1 2 3 4 5 6 
#
# 1 0.024492 -0.002000 -0.006731 0.000000 0.000000 0.000000
# 2 -0.002000 0.013015 -0.004863 0.000000 0.000000 0.000000
# 3 -0.006731 -0.004863 0.010266 0.000000 0.000000 0.000000
# 4 0.000000 0.000000 0.000000 0.035593 0.000000 0.000000
# 5 0.000000 0.000000 0.000000 0.000000 0.029057 0.000000
# 6 0.000000 0.000000 0.000000 0.000000 0.000000 0.076657
#
#
# Mechanical properties :
#
#
# Convention : Reuss Voigt Hill
#
# Bulk Modulus (GPa) = 48.57788 68.86239 58.72014
# Shear Modulus (GPa) = 22.40846 27.11127 24.75986
#
# Velocity S-wave (km/s) = 3.53798 3.89157 3.71898
# Velocity P-wave (km/s) = 6.62006 7.65890 7.15835
#
# Compressibility (1/GPa) = 0.02058550
#
# Stress axis : x y z
#
# Youngs Moduli (GPa) = 40.83010 76.83414 97.40473
#
# Poissons Ratio (x) = 0.15367 0.65560
# Poissons Ratio (y) = 0.08166 0.47369
# Poissons Ratio (z) = 0.27482 0.37366
#
# Static dielectric constant tensor:
#      x y z
#    x 3.078700 0.000000 0.000000 
#    y 0.000000 3.287920 0.000000 
#    z 0.000000 0.000000 3.531260 
# 
# 
# High freq. dielectric constant tensor:
#      x y z
#    x 1.676360 0.000000 0.000000 
#    y 0.000000 1.665910 0.000000 
#    z 0.000000 0.000000 1.711290 
# 
# From -- ./inp_files/5840.got.cif
#   From: 2010.03.12/outbox.cif.g09.slc.cpg/sg31_3_cif.got.tgz:5840.got - 2010.04.14 01:42:59.
