data_PCOD8169266
_publ_section_title
;
Structure prediction by ZEFSAII (Michael W. Deem and Ramdas Pophale) SiO2 
 PCOD8169266
Probable space group: P C A 21
;
_chemical_formula_sum "Si O2"
_cell_formula_units_Z 24
_cell_length_a 8.588918
_cell_length_b 13.455849
_cell_length_c 8.893675
_cell_angle_alpha 90.000000
_cell_angle_beta 90.000000
_cell_angle_gamma 90.000000
_cell_volume 1027.852547
_symmetry_space_group_name_H-M "P C A 21"
_symmetry_group_IT_number 29
_symmetry_cell_setting 'orthorhombic'
loop_
_space_group_symop_operation_xyz
x,y,z
-x,-y,1/2+z
1/2-x,y,1/2+z
1/2+x,-y,z
loop_
_atom_site_type_symbol
_atom_site_label
_atom_site_fract_x
_atom_site_fract_y
_atom_site_fract_z
Si Si1 0.391113 0.189893 0.647030
Si Si2 0.029805 0.432209 0.445509
Si Si3 0.583788 0.911746 0.638441
Si Si4 0.408178 0.910383 0.925852
Si Si5 0.833025 0.583237 0.621413
Si Si6 0.602856 0.216596 0.916314
O O1 0.232618 0.142545 0.711714
O O2 0.435789 0.136110 0.493433
O O3 0.377922 0.303639 0.604663
O O4 0.528595 0.173772 0.765184
O O5 0.123442 0.454157 0.289862
O O6 0.149420 0.422937 0.585256
O O7 0.920662 0.523564 0.489699
O O8 0.916517 0.335925 0.426928
O O9 0.465624 0.953871 0.765417
O O10 0.488244 0.826901 0.556049
O O11 0.647468 0.998710 0.529943
O O12 0.279683 0.823066 0.914742
#
# Coordination Sequence:
#
# PCOD8169266 Si02
#       6
#     4   4   4   4   4   4
#     4  11  25  46  71 104 145 194 233 302 370 430
#     4  11  25  47  75 108 151 190 249 305 371 443
#     4  12  25  47  73 102 146 188 242 299 366 434
#     4  12  27  44  75 104 144 188 246 302 361 438
#     4  11  25  46  74 108 147 194 245 304 374 438
#     4  11  25  46  70 110 143 188 243 300 366 435
#
# _framework density 23.349651999999999
#
# number of rings (size 3 to 8) (size 9 to 14) (size 15 to 20)
#    0.000    0.667    1.667    5.000    4.667    5.333 
#    0.000    1.667    0.000    0.000    0.000    0.000 
#    0.000    0.000    0.000    0.000    0.000    0.000 
#
# Total GULP energy -297565.886256 kJ/mol
# GULP energy per Si atom -12398.578594 kJ/mol
# Density = 2.329651 g / cm^3
# Si number density = 23.349652 Si / 1000 Ang^3
#
#
#
# Elastic Constant Matrix: (Units=GPa)
#
#
# Indices 1 2 3 4 5 6 
#
# 1 115.4885 41.5231 46.4482 0.0000 0.0000 0.0000
# 2 41.5231 102.8811 58.1992 0.0000 0.0000 0.0000
# 3 46.4482 58.1992 96.2419 0.0000 0.0000 0.0000
# 4 0.0000 0.0000 0.0000 34.9296 0.0000 0.0000
# 5 0.0000 0.0000 0.0000 0.0000 44.8942 0.0000
# 6 0.0000 0.0000 0.0000 0.0000 0.0000 37.3411
#
#
#
# Elastic Compliance Matrix: (Units=1/GPa)
#
#
# Indices 1 2 3 4 5 6 
#
# 1 0.011061 -0.002196 -0.004011 0.000000 0.000000 0.000000
# 2 -0.002196 0.015210 -0.008138 0.000000 0.000000 0.000000
# 3 -0.004011 -0.008138 0.017247 0.000000 0.000000 0.000000
# 4 0.000000 0.000000 0.000000 0.028629 0.000000 0.000000
# 5 0.000000 0.000000 0.000000 0.000000 0.022275 0.000000
# 6 0.000000 0.000000 0.000000 0.000000 0.000000 0.026780
#
#
# Mechanical properties :
#
#
# Convention : Reuss Voigt Hill
#
# Bulk Modulus (GPa) = 67.43147 67.43915 67.43531
# Shear Modulus (GPa) = 32.29270 34.66239 33.47754
#
# Velocity S-wave (km/s) = 3.72291 3.85709 3.79060
# Velocity P-wave (km/s) = 6.88635 6.98435 6.93552
#
# Compressibility (1/GPa) = 0.01482987
#
# Stress axis : x y z
#
# Youngs Moduli (GPa) = 90.40507 65.74760 57.98007
#
# Poissons Ratio (x) = 0.14435 0.23254
# Poissons Ratio (y) = 0.19849 0.47184
# Poissons Ratio (z) = 0.36259 0.53505
#
# Static dielectric constant tensor:
#      x y z
#    x 4.238160 0.000000 0.000000 
#    y 0.000000 4.206910 0.000000 
#    z 0.000000 0.000000 4.464360 
# 
# 
# High freq. dielectric constant tensor:
#      x y z
#    x 1.928270 0.000000 0.000000 
#    y 0.000000 1.929120 0.000000 
#    z 0.000000 0.000000 1.933200 
# 
# From -- ./inp_files/1162.got.cif
#   From: 2010.03.12/outbox.cif.g09.slc.cpg/sg29_1_cif.got.tgz:1162.got - 2010.04.14 03:43:10.
