data_PCOD8169250
_publ_section_title
;
Structure prediction by ZEFSAII (Michael W. Deem and Ramdas Pophale) SiO2 
 PCOD8169250
Probable space group: P C A 21
;
_chemical_formula_sum "Si O2"
_cell_formula_units_Z 24
_cell_length_a 8.720119
_cell_length_b 11.467520
_cell_length_c 10.389897
_cell_angle_alpha 90.000000
_cell_angle_beta 90.000000
_cell_angle_gamma 90.000000
_cell_volume 1038.970365
_symmetry_space_group_name_H-M "P C A 21"
_symmetry_group_IT_number 29
_symmetry_cell_setting 'orthorhombic'
loop_
_space_group_symop_operation_xyz
x,y,z
-x,-y,1/2+z
1/2-x,y,1/2+z
1/2+x,-y,z
loop_
_atom_site_type_symbol
_atom_site_label
_atom_site_fract_x
_atom_site_fract_y
_atom_site_fract_z
Si Si1 0.444573 0.714601 0.662920
Si Si2 0.774878 0.393778 0.463221
Si Si3 0.209869 0.842175 0.803783
Si Si4 0.137003 0.076840 0.287681
Si Si5 0.561649 0.614601 0.925252
Si Si6 0.739039 0.805539 0.537595
O O1 0.378295 0.599247 0.592843
O O2 0.288335 0.791449 0.674772
O O3 0.522535 0.687251 0.798051
O O4 0.564806 0.779935 0.573995
O O5 0.798019 0.264626 0.404164
O O6 0.598032 0.420733 0.492508
O O7 0.842671 0.500845 0.379298
O O8 0.044030 0.898467 0.784034
O O9 0.330700 0.945441 0.837108
O O10 0.195760 0.102752 0.142250
O O11 0.231754 0.151978 0.390540
O O12 0.655649 0.690027 0.030623
#
# Coordination Sequence:
#
# PCOD8169250 Si02
#       6
#     4   4   4   4   4   4
#     4  11  24  49  72 112 147 196 255 312 379 450
#     4  11  25  46  74 109 156 196 257 310 385 449
#     4  11  27  46  73 110 149 199 251 312 378 461
#     4  12  27  46  77 106 153 196 253 311 384 450
#     4  11  26  46  75 111 150 201 255 315 380 455
#     4  12  25  47  77 108 147 198 249 312 382 453
#
# _framework density 23.099792999999998
#
# number of rings (size 3 to 8) (size 9 to 14) (size 15 to 20)
#    0.000    0.667    3.333    3.000    4.667    8.000 
#    0.000    0.000    0.000    0.000    0.000    0.000 
#    0.000    0.000    0.000    0.000    0.000    0.000 
#
# Total GULP energy -297363.119670 kJ/mol
# GULP energy per Si atom -12390.129986 kJ/mol
# Density = 2.304722 g / cm^3
# Si number density = 23.099793 Si / 1000 Ang^3
#
#
#
# Elastic Constant Matrix: (Units=GPa)
#
#
# Indices 1 2 3 4 5 6 
#
# 1 144.4780 59.8161 34.7008 0.0000 0.0000 0.0000
# 2 59.8161 131.1257 26.0820 0.0000 0.0000 0.0000
# 3 34.7008 26.0820 83.3362 0.0000 0.0000 0.0000
# 4 0.0000 0.0000 0.0000 30.4472 0.0000 0.0000
# 5 0.0000 0.0000 0.0000 0.0000 44.2397 0.0000
# 6 0.0000 0.0000 0.0000 0.0000 0.0000 46.2407
#
#
#
# Elastic Compliance Matrix: (Units=1/GPa)
#
#
# Indices 1 2 3 4 5 6 
#
# 1 0.009047 -0.003602 -0.002640 0.000000 0.000000 0.000000
# 2 -0.003602 0.009567 -0.001494 0.000000 0.000000 0.000000
# 3 -0.002640 -0.001494 0.013566 0.000000 0.000000 0.000000
# 4 0.000000 0.000000 0.000000 0.032844 0.000000 0.000000
# 5 0.000000 0.000000 0.000000 0.000000 0.022604 0.000000
# 6 0.000000 0.000000 0.000000 0.000000 0.000000 0.021626
#
#
# Mechanical properties :
#
#
# Convention : Reuss Voigt Hill
#
# Bulk Modulus (GPa) = 59.85151 66.68194 63.26673
# Shear Modulus (GPa) = 38.37461 40.07492 39.22477
#
# Velocity S-wave (km/s) = 4.08027 4.16968 4.12522
# Velocity P-wave (km/s) = 6.94005 7.21881 7.08081
#
# Compressibility (1/GPa) = 0.01670802
#
# Stress axis : x y z
#
# Youngs Moduli (GPa) = 110.53782 104.53103 73.71130
#
# Poissons Ratio (x) = 0.37650 0.19458
# Poissons Ratio (y) = 0.39813 0.11015
# Poissons Ratio (z) = 0.29179 0.15620
#
# Static dielectric constant tensor:
#      x y z
#    x 4.503460 0.000000 0.000000 
#    y 0.000000 4.194750 0.000000 
#    z 0.000000 0.000000 4.061920 
# 
# 
# High freq. dielectric constant tensor:
#      x y z
#    x 1.938880 0.000000 0.000000 
#    y 0.000000 1.914670 0.000000 
#    z 0.000000 0.000000 1.901720 
# 
# From -- ./inp_files/2819.got.cif
#   From: 2010.03.12/outbox.cif.g09.slc.cpg/sg29_2_cif.got.tgz:2819.got - 2010.04.14 03:43:10.
