data_PCOD8169597
_publ_section_title
;
Structure prediction by ZEFSAII (Michael W. Deem and Ramdas Pophale) SiO2 
 PCOD8169597
Probable space group: P N C 2
;
_chemical_formula_sum "Si O2"
_cell_formula_units_Z 26
_cell_length_a 8.093225
_cell_length_b 11.217749
_cell_length_c 11.742054
_cell_angle_alpha 90.000000
_cell_angle_beta 90.000000
_cell_angle_gamma 90.000000
_cell_volume 1066.034859
_symmetry_space_group_name_H-M "P N C 2"
_symmetry_group_IT_number 30
_symmetry_cell_setting 'orthorhombic'
loop_
_space_group_symop_operation_xyz
x,y,z
-x,-y,z
-x,1/2+y,1/2+z
x,1/2-y,1/2+z
loop_
_atom_site_type_symbol
_atom_site_label
_atom_site_fract_x
_atom_site_fract_y
_atom_site_fract_z
Si Si1 0.171108 0.132778 0.852080
Si Si2 0.318996 0.375992 0.887584
Si Si3 0.663118 0.441859 0.485147
Si Si4 0.588081 0.158980 0.213021
Si Si5 0.610554 0.607632 0.145570
Si Si6 0.000000 0.500000 0.894031
Si Si7 0.842633 0.234953 0.385390
O O1 0.292344 0.235202 0.897673
O O2 0.223474 0.104276 0.722058
O O3 0.981970 0.170421 0.852849
O O4 0.186664 0.022997 0.940588
O O5 0.479420 0.403053 0.812132
O O6 0.158411 0.441734 0.828499
O O7 0.339200 0.422742 0.016087
O O8 0.500000 0.500000 0.425784
O O9 0.635359 0.442163 0.620712
O O10 0.698938 0.302706 0.455538
O O11 0.487172 0.267639 0.155829
O O12 0.763093 0.196768 0.265856
O O13 0.500000 0.500000 0.192385
O O14 0.082027 0.618847 0.954632
#
# Coordination Sequence:
#
# PCOD8169597 Si02
#       7
#     4   4   4   4   4   2   4
#     4  10  23  48  68 102 151 196 248 318 384 455
#     4  10  24  47  71 103 148 190 255 309 380 467
#     4  12  25  44  74 108 145 199 255 320 386 460
#     4  11  25  43  74 108 142 197 258 317 383 458
#     4  11  23  41  72 103 142 198 252 312 374 461
#     4  10  26  46  72 104 150 194 238 318 382 460
#     4  11  25  47  71 104 150 196 256 313 387 462
#
# _framework density 24.389447000000001
#
# number of rings (size 3 to 8) (size 9 to 14) (size 15 to 20)
#    0.000    1.231    0.000    5.538    6.462    2.462 
#    8.308    0.000    0.000    0.000    0.000    0.000 
#    0.000    0.000    0.000    0.000    0.000    0.000 
#
# Total GULP energy -322111.605296 kJ/mol
# GULP energy per Si atom -12388.907896 kJ/mol
# Density = 2.433394 g / cm^3
# Si number density = 24.389447 Si / 1000 Ang^3
#
#
#
# Elastic Constant Matrix: (Units=GPa)
#
#
# Indices 1 2 3 4 5 6 
#
# 1 143.8303 60.5098 58.1441 0.0000 0.0000 0.0000
# 2 60.5098 141.6324 49.9213 0.0000 0.0000 0.0000
# 3 58.1441 49.9213 140.4302 0.0000 0.0000 0.0000
# 4 0.0000 0.0000 0.0000 37.0777 0.0000 0.0000
# 5 0.0000 0.0000 0.0000 0.0000 11.6485 0.0000
# 6 0.0000 0.0000 0.0000 0.0000 0.0000 51.0046
#
#
#
# Elastic Compliance Matrix: (Units=1/GPa)
#
#
# Indices 1 2 3 4 5 6 
#
# 1 0.009351 -0.003007 -0.002803 0.000000 0.000000 0.000000
# 2 -0.003007 0.009039 -0.001968 0.000000 0.000000 0.000000
# 3 -0.002803 -0.001968 0.008981 0.000000 0.000000 0.000000
# 4 0.000000 0.000000 0.000000 0.026970 0.000000 0.000000
# 5 0.000000 0.000000 0.000000 0.000000 0.085848 0.000000
# 6 0.000000 0.000000 0.000000 0.000000 0.000000 0.019606
#
#
# Mechanical properties :
#
#
# Convention : Reuss Voigt Hill
#
# Bulk Modulus (GPa) = 84.63842 84.78260 84.71051
# Shear Modulus (GPa) = 27.88787 37.10067 32.49427
#
# Velocity S-wave (km/s) = 3.38515 3.90446 3.65404
# Velocity P-wave (km/s) = 7.07511 7.42724 7.25331
#
# Compressibility (1/GPa) = 0.01181497
#
# Stress axis : x y z
#
# Youngs Moduli (GPa) = 106.94402 110.63202 111.34555
#
# Poissons Ratio (x) = 0.33268 0.31206
# Poissons Ratio (y) = 0.32159 0.21915
# Poissons Ratio (z) = 0.29972 0.21775
#
# Static dielectric constant tensor:
#      x y z
#    x 4.532590 0.000000 0.000000 
#    y 0.000000 4.785230 0.000000 
#    z 0.000000 0.000000 3.946850 
# 
# 
# High freq. dielectric constant tensor:
#      x y z
#    x 1.980560 0.000000 0.000000 
#    y 0.000000 2.000530 0.000000 
#    z 0.000000 0.000000 1.928170 
# 
# From -- ./inp_files/3680.got.cif
#   From: 2010.03.12/outbox.cif.g09.slc.cpg/sg30_2_cif.got.tgz:3680.got - 2010.04.14 01:38:02.
