data_PCOD8169073
_publ_section_title
;
Structure prediction by ZEFSAII (Michael W. Deem and Ramdas Pophale) SiO2 
 PCOD8169073
Probable space group: P C A 21
;
_chemical_formula_sum "Si O2"
_cell_formula_units_Z 28
_cell_length_a 9.243857
_cell_length_b 13.943036
_cell_length_c 9.360822
_cell_angle_alpha 90.000000
_cell_angle_beta 90.000000
_cell_angle_gamma 90.000000
_cell_volume 1206.492299
_symmetry_space_group_name_H-M "P C A 21"
_symmetry_group_IT_number 29
_symmetry_cell_setting 'orthorhombic'
loop_
_space_group_symop_operation_xyz
x,y,z
-x,-y,1/2+z
1/2-x,y,1/2+z
1/2+x,-y,z
loop_
_atom_site_type_symbol
_atom_site_label
_atom_site_fract_x
_atom_site_fract_y
_atom_site_fract_z
Si Si1 0.020302 0.627536 0.369350
Si Si2 0.261634 0.499440 0.467131
Si Si3 0.880123 0.819110 0.952617
Si Si4 0.131461 0.893676 0.782531
Si Si5 0.518457 0.628419 0.562778
Si Si6 0.370521 0.111204 0.278097
Si Si7 0.620731 0.179164 0.460588
O O1 0.148971 0.548332 0.355457
O O2 0.064285 0.711372 0.478967
O O3 0.865488 0.581735 0.404716
O O4 0.000672 0.678398 0.216335
O O5 0.363294 0.581400 0.531286
O O6 0.148910 0.449501 0.577703
O O7 0.724397 0.817714 0.876832
O O8 0.972431 0.887738 0.849852
O O9 0.941309 0.710319 0.949037
O O10 0.871436 0.858763 0.112953
O O11 0.223597 0.823121 0.884323
O O12 0.129599 0.862706 0.618305
O O13 0.187693 0.002599 0.788971
O O14 0.526606 0.115284 0.351988
#
# Coordination Sequence:
#
# PCOD8169073 Si02
#       7
#     4   4   4   4   4   4   4
#     4  11  23  45  68 103 139 179 234 281 352 414
#     4  10  24  43  70 101 134 188 224 292 340 420
#     4  12  26  45  72 102 142 183 233 292 349 420
#     4  12  26  45  70 104 137 187 234 287 352 419
#     4  11  23  45  68 102 138 179 234 281 353 413
#     4  12  24  46  70 103 141 183 233 290 351 418
#     4  12  26  45  72 101 143 183 232 293 349 420
#
# _framework density 23.207775000000002
#
# number of rings (size 3 to 8) (size 9 to 14) (size 15 to 20)
#    0.000    0.571    1.429    6.857    2.000    0.000 
#   10.286    0.000    0.000    0.000    0.000    0.000 
#    0.000    0.000    0.000    0.000    0.000    0.000 
#
# Total GULP energy -347112.365300 kJ/mol
# GULP energy per Si atom -12396.870189 kJ/mol
# Density = 2.315495 g / cm^3
# Si number density = 23.207775 Si / 1000 Ang^3
#
#
#
# Elastic Constant Matrix: (Units=GPa)
#
#
# Indices 1 2 3 4 5 6 
#
# 1 108.7626 23.1079 26.0574 0.0000 0.0000 0.0000
# 2 23.1079 108.1335 20.9102 0.0000 0.0000 0.0000
# 3 26.0574 20.9102 141.5175 0.0000 0.0000 0.0000
# 4 0.0000 0.0000 0.0000 34.8683 0.0000 0.0000
# 5 0.0000 0.0000 0.0000 0.0000 30.7609 0.0000
# 6 0.0000 0.0000 0.0000 0.0000 0.0000 40.8985
#
#
#
# Elastic Compliance Matrix: (Units=1/GPa)
#
#
# Indices 1 2 3 4 5 6 
#
# 1 0.009957 -0.001825 -0.001564 0.000000 0.000000 0.000000
# 2 -0.001825 0.009854 -0.001120 0.000000 0.000000 0.000000
# 3 -0.001564 -0.001120 0.007520 0.000000 0.000000 0.000000
# 4 0.000000 0.000000 0.000000 0.028679 0.000000 0.000000
# 5 0.000000 0.000000 0.000000 0.000000 0.032509 0.000000
# 6 0.000000 0.000000 0.000000 0.000000 0.000000 0.024451
#
#
# Mechanical properties :
#
#
# Convention : Reuss Voigt Hill
#
# Bulk Modulus (GPa) = 54.60607 55.39609 55.00108
# Shear Modulus (GPa) = 39.03442 40.52808 39.78125
#
# Velocity S-wave (km/s) = 4.10561 4.18343 4.14470
# Velocity P-wave (km/s) = 6.78639 6.87431 6.83049
#
# Compressibility (1/GPa) = 0.01831298
#
# Stress axis : x y z
#
# Youngs Moduli (GPa) = 100.43414 101.47670 132.98491
#
# Poissons Ratio (x) = 0.18523 0.20794
# Poissons Ratio (y) = 0.18333 0.14894
# Poissons Ratio (z) = 0.15704 0.11365
#
# Static dielectric constant tensor:
#      x y z
#    x 4.311380 0.000000 0.000000 
#    y 0.000000 4.209260 0.000000 
#    z 0.000000 0.000000 3.924900 
# 
# 
# High freq. dielectric constant tensor:
#      x y z
#    x 1.937560 0.000000 0.000000 
#    y 0.000000 1.928250 0.000000 
#    z 0.000000 0.000000 1.907590 
# 
# From -- ./inp_files/1189.got.cif
#   From: 2010.03.12/outbox.cif.g09.slc.cpg/sg29_1_cif.got.tgz:1189.got - 2010.04.14 03:43:10.
