data_PCOD8169492
_publ_section_title
;
Structure prediction by ZEFSAII (Michael W. Deem and Ramdas Pophale) SiO2 
 PCOD8169492
Probable space group: P N C 2
;
_chemical_formula_sum "Si O2"
_cell_formula_units_Z 30
_cell_length_a 11.813435
_cell_length_b 9.436299
_cell_length_c 12.895341
_cell_angle_alpha 90.000000
_cell_angle_beta 90.000000
_cell_angle_gamma 90.000000
_cell_volume 1437.509490
_symmetry_space_group_name_H-M "P N C 2"
_symmetry_group_IT_number 30
_symmetry_cell_setting 'orthorhombic'
loop_
_space_group_symop_operation_xyz
x,y,z
-x,-y,z
-x,1/2+y,1/2+z
x,1/2-y,1/2+z
loop_
_atom_site_type_symbol
_atom_site_label
_atom_site_fract_x
_atom_site_fract_y
_atom_site_fract_z
Si Si1 0.125214 0.963538 0.673260
Si Si2 0.606129 0.431195 0.964285
Si Si3 0.072692 0.879696 0.882096
Si Si4 0.278534 0.085509 0.157085
Si Si5 0.227254 0.338864 0.017816
Si Si6 0.500000 0.000000 0.267753
Si Si7 0.230902 0.715686 0.558801
Si Si8 0.920386 0.637255 0.824861
O O1 0.142379 0.970940 0.797161
O O2 0.158331 0.806756 0.637462
O O3 0.207508 0.079694 0.625245
O O4 0.000000 0.000000 0.634774
O O5 0.500000 0.500000 0.027475
O O6 0.690151 0.563811 0.949804
O O7 0.654000 0.295036 0.023930
O O8 0.567242 0.390943 0.845764
O O9 0.999398 0.774503 0.807186
O O10 0.155641 0.796987 0.956168
O O11 0.000000 0.000000 0.944398
O O12 0.273188 0.186225 0.055226
O O13 0.181928 0.127374 0.241487
O O14 0.407156 0.087418 0.200984
O O15 0.258137 0.929116 0.114607
O O16 0.118921 0.329929 0.943049
O O17 0.000000 0.500000 0.819242
#
# Coordination Sequence:
#
# PCOD8169492 Si02
#       8
#     4   4   4   4   4   2   4   4
#     4  10  21  38  59  88 128 174 207 246 322 408
#     4   9  21  44  65  82 120 169 221 263 333 389
#     4  11  23  37  58  94 136 167 206 267 330 396
#     4  12  26  41  68 103 132 168 228 281 327 379
#     4  11  22  41  63  91 128 173 214 263 329 395
#     4  10  24  44  70  90 130 176 228 272 330 398
#     4  11  24  39  67  95 128 168 222 278 323 390
#     4  12  23  39  67  95 136 179 212 263 333 402
#
# _framework density 20.869427999999999
#
# number of rings (size 3 to 8) (size 9 to 14) (size 15 to 20)
#    0.400    0.800    1.333    6.000    3.733    2.667 
#    0.000    0.000    0.000    1.600    0.000    0.000 
#    0.000    0.000    0.000    0.000    0.000    0.000 
#
# Total GULP energy -371682.359086 kJ/mol
# GULP energy per Si atom -12389.411970 kJ/mol
# Density = 2.082193 g / cm^3
# Si number density = 20.869428 Si / 1000 Ang^3
#
#
#
# Elastic Constant Matrix: (Units=GPa)
#
#
# Indices 1 2 3 4 5 6 
#
# 1 96.1595 29.7556 32.8211 0.0000 0.0000 0.0000
# 2 29.7556 112.9756 24.4655 0.0000 0.0000 0.0000
# 3 32.8211 24.4655 80.2529 0.0000 0.0000 0.0000
# 4 0.0000 0.0000 0.0000 14.3845 0.0000 0.0000
# 5 0.0000 0.0000 0.0000 0.0000 32.1021 0.0000
# 6 0.0000 0.0000 0.0000 0.0000 0.0000 22.3760
#
#
#
# Elastic Compliance Matrix: (Units=1/GPa)
#
#
# Indices 1 2 3 4 5 6 
#
# 1 0.012652 -0.002368 -0.004452 0.000000 0.000000 0.000000
# 2 -0.002368 0.009920 -0.002056 0.000000 0.000000 0.000000
# 3 -0.004452 -0.002056 0.014908 0.000000 0.000000 0.000000
# 4 0.000000 0.000000 0.000000 0.069519 0.000000 0.000000
# 5 0.000000 0.000000 0.000000 0.000000 0.031151 0.000000
# 6 0.000000 0.000000 0.000000 0.000000 0.000000 0.044691
#
#
# Mechanical properties :
#
#
# Convention : Reuss Voigt Hill
#
# Bulk Modulus (GPa) = 50.68932 51.49693 51.09312
# Shear Modulus (GPa) = 24.13484 27.26225 25.69854
#
# Velocity S-wave (km/s) = 3.40438 3.61823 3.51293
# Velocity P-wave (km/s) = 6.30829 6.49498 6.40232
#
# Compressibility (1/GPa) = 0.01972802
#
# Stress axis : x y z
#
# Youngs Moduli (GPa) = 79.03999 100.80273 67.07721
#
# Poissons Ratio (x) = 0.23871 0.29865
# Poissons Ratio (y) = 0.18717 0.13790
# Poissons Ratio (z) = 0.35191 0.20723
#
# Static dielectric constant tensor:
#      x y z
#    x 3.983770 0.000000 0.000000 
#    y 0.000000 3.849130 0.000000 
#    z 0.000000 0.000000 3.694220 
# 
# 
# High freq. dielectric constant tensor:
#      x y z
#    x 1.813300 0.000000 0.000000 
#    y 0.000000 1.820600 0.000000 
#    z 0.000000 0.000000 1.816050 
# 
# From -- ./inp_files/5491.got.cif
#   From: 2010.03.12/outbox.cif.g09.slc.cpg/sg30_3_cif.got.tgz:5491.got - 2010.04.14 01:38:02.
