data_PCOD8169975
_publ_section_title
;
Structure prediction by ZEFSAII (Michael W. Deem and Ramdas Pophale) SiO2 
 PCOD8169975
Probable space group: P M N 21
;
_chemical_formula_sum "Si O2"
_cell_formula_units_Z 24
_cell_length_a 8.469247
_cell_length_b 26.472386
_cell_length_c 5.077047
_cell_angle_alpha 90.000000
_cell_angle_beta 90.000000
_cell_angle_gamma 90.000000
_cell_volume 1138.279907
_symmetry_space_group_name_H-M "P M N 21"
_symmetry_group_IT_number 31
_symmetry_cell_setting 'orthorhombic'
loop_
_space_group_symop_operation_xyz
x,y,z
1/2-x,-y,1/2+z
-x,y,z
1/2+x,-y,1/2+z
loop_
_atom_site_type_symbol
_atom_site_label
_atom_site_fract_x
_atom_site_fract_y
_atom_site_fract_z
Si Si1 0.816025 0.139883 0.959150
Si Si2 0.812643 0.634255 0.571642
Si Si3 0.686680 0.304448 0.570542
Si Si4 0.816809 0.025315 0.059152
Si Si5 0.814665 0.807392 0.962034
Si Si6 0.682817 0.525540 0.612578
O O1 0.765546 0.083376 0.034790
O O2 0.718868 0.154634 0.700285
O O3 0.000000 0.143882 0.892713
O O4 0.775037 0.176306 0.199668
O O5 0.756657 0.672947 0.346560
O O6 0.726718 0.581593 0.521535
O O7 0.000000 0.625338 0.564791
O O8 0.751772 0.658445 0.842608
O O9 0.500000 0.301490 0.555869
O O10 0.752859 0.247880 0.537614
O O11 0.000000 0.018114 0.995125
O O12 0.717501 0.991635 0.856610
O O13 0.000000 0.806441 0.900472
O O14 0.719430 0.487775 0.373544
O O15 0.500000 0.520992 0.683776
#
# Coordination Sequence:
#
# PCOD8169975 Si02
#       6
#     4   4   4   4   4   4
#     4  11  24  41  59  87 125 160 191 242 309 359
#     4  10  19  36  60  85 116 156 195 240 296 349
#     4   9  19  35  58  86 117 152 195 242 291 344
#     4  11  24  41  62  87 119 156 199 246 299 357
#     4  11  22  39  64  92 118 156 207 248 282 348
#     4  12  25  42  63  91 123 158 201 248 297 355
#
# _framework density 21.084447000000001
#
# number of rings (size 3 to 8) (size 9 to 14) (size 15 to 20)
#    0.000    1.333    0.000    6.000    0.000   10.667 
#    0.000    5.000    0.000    0.000    0.000    0.000 
#    0.000    0.000    0.000    0.000    0.000    0.000 
#
# Total GULP energy -297771.083538 kJ/mol
# GULP energy per Si atom -12407.128481 kJ/mol
# Density = 2.103646 g / cm^3
# Si number density = 21.084447 Si / 1000 Ang^3
#
#
#
# Elastic Constant Matrix: (Units=GPa)
#
#
# Indices 1 2 3 4 5 6 
#
# 1 45.0735 34.7118 11.2121 0.0000 0.0000 0.0000
# 2 34.7118 80.8195 -5.8477 0.0000 0.0000 0.0000
# 3 11.2121 -5.8477 87.9741 0.0000 0.0000 0.0000
# 4 0.0000 0.0000 0.0000 43.5597 0.0000 0.0000
# 5 0.0000 0.0000 0.0000 0.0000 27.4860 0.0000
# 6 0.0000 0.0000 0.0000 0.0000 0.0000 54.4169
#
#
#
# Elastic Compliance Matrix: (Units=1/GPa)
#
#
# Indices 1 2 3 4 5 6 
#
# 1 0.035697 -0.015737 -0.005595 0.000000 0.000000 0.000000
# 2 -0.015737 0.019370 0.003293 0.000000 0.000000 0.000000
# 3 -0.005595 0.003293 0.012299 0.000000 0.000000 0.000000
# 4 0.000000 0.000000 0.000000 0.022957 0.000000 0.000000
# 5 0.000000 0.000000 0.000000 0.000000 0.036382 0.000000
# 6 0.000000 0.000000 0.000000 0.000000 0.000000 0.018377
#
#
# Mechanical properties :
#
#
# Convention : Reuss Voigt Hill
#
# Bulk Modulus (GPa) = 31.96076 32.66882 32.31479
# Shear Modulus (GPa) = 26.09749 36.67858 31.38804
#
# Velocity S-wave (km/s) = 3.52200 4.17538 3.86253
# Velocity P-wave (km/s) = 5.63300 6.22680 5.93732
#
# Compressibility (1/GPa) = 0.03128837
#
# Stress axis : x y z
#
# Youngs Moduli (GPa) = 28.01367 51.62529 81.30737
#
# Poissons Ratio (x) = 0.81241 0.45496
# Poissons Ratio (y) = 0.44084 -0.26776
# Poissons Ratio (z) = 0.15675 -0.17001
#
# Static dielectric constant tensor:
#      x y z
#    x 3.646940 0.000000 0.000000 
#    y 0.000000 4.002450 0.000000 
#    z 0.000000 0.000000 3.941650 
# 
# 
# High freq. dielectric constant tensor:
#      x y z
#    x 1.808330 0.000000 0.000000 
#    y 0.000000 1.842410 0.000000 
#    z 0.000000 0.000000 1.841080 
# 
# From -- ./inp_files/158.got.cif
#   From: 2010.03.12/outbox.cif.g09.slc.cpg/sg31_1_cif.got.tgz:158.got - 2010.04.14 01:42:59.
