data_PCOD8169041
_publ_section_title
;
Structure prediction by ZEFSAII (Michael W. Deem and Ramdas Pophale) SiO2 
 PCOD8169041
Probable space group: P C A 21
;
_chemical_formula_sum "Si O2"
_cell_formula_units_Z 28
_cell_length_a 5.112761
_cell_length_b 22.615630
_cell_length_c 8.668605
_cell_angle_alpha 90.000000
_cell_angle_beta 90.000000
_cell_angle_gamma 90.000000
_cell_volume 1002.336155
_symmetry_space_group_name_H-M "P C A 21"
_symmetry_group_IT_number 29
_symmetry_cell_setting 'orthorhombic'
loop_
_space_group_symop_operation_xyz
x,y,z
-x,-y,1/2+z
1/2-x,y,1/2+z
1/2+x,-y,z
loop_
_atom_site_type_symbol
_atom_site_label
_atom_site_fract_x
_atom_site_fract_y
_atom_site_fract_z
Si Si1 0.873096 0.887437 0.497520
Si Si2 0.309616 0.616826 0.747692
Si Si3 0.015450 0.539140 0.973325
Si Si4 0.395895 0.223445 0.061800
Si Si5 0.710644 0.200191 0.340024
Si Si6 0.967517 0.961495 0.787195
Si Si7 0.508469 0.689375 0.015677
O O1 0.799409 0.830289 0.603236
O O2 0.968098 0.938883 0.611038
O O3 0.616879 0.909306 0.403371
O O4 0.107613 0.866171 0.382486
O O5 0.070374 0.581403 0.827643
O O6 0.468638 0.574245 0.634513
O O7 0.504914 0.638589 0.884506
O O8 0.179971 0.671655 0.656579
O O9 0.222197 0.485378 0.966178
O O10 0.660791 0.214083 0.161149
O O11 0.485598 0.212085 0.882744
O O12 0.296160 0.292239 0.082755
O O13 0.549543 0.247973 0.438644
O O14 0.759178 0.014550 0.815786
#
# Coordination Sequence:
#
# PCOD8169041 Si02
#       7
#     4   4   4   4   4   4   4
#     4  11  26  45  75 109 146 207 251 318 399 465
#     4  10  23  48  77 112 158 209 255 340 385 474
#     4  11  24  49  77 116 157 213 273 323 391 466
#     4  11  26  47  77 106 156 200 257 327 383 503
#     4  11  25  46  74 108 153 195 261 317 385 492
#     4  12  28  48  75 113 155 200 263 330 392 469
#     4  10  24  49  71 112 151 200 258 309 411 453
#
# _framework density 27.934740999999999
#
# number of rings (size 3 to 8) (size 9 to 14) (size 15 to 20)
#    0.000    1.143    1.429    2.571    6.000    3.429 
#   25.714    2.857    0.000    0.000    0.000    0.000 
#    0.000    0.000    0.000    0.000    0.000    0.000 
#
# Total GULP energy -347061.532827 kJ/mol
# GULP energy per Si atom -12395.054744 kJ/mol
# Density = 2.787116 g / cm^3
# Si number density = 27.934741 Si / 1000 Ang^3
#
#
#
# Elastic Constant Matrix: (Units=GPa)
#
#
# Indices 1 2 3 4 5 6 
#
# 1 38.6888 4.6085 -14.7535 0.0000 0.0000 0.0000
# 2 4.6085 106.1796 8.1380 0.0000 0.0000 0.0000
# 3 -14.7535 8.1380 88.9450 0.0000 0.0000 0.0000
# 4 0.0000 0.0000 0.0000 39.4928 0.0000 0.0000
# 5 0.0000 0.0000 0.0000 0.0000 26.2224 0.0000
# 6 0.0000 0.0000 0.0000 0.0000 0.0000 38.6031
#
#
#
# Elastic Compliance Matrix: (Units=1/GPa)
#
#
# Indices 1 2 3 4 5 6 
#
# 1 0.027851 -0.001574 0.004764 0.000000 0.000000 0.000000
# 2 -0.001574 0.009573 -0.001137 0.000000 0.000000 0.000000
# 3 0.004764 -0.001137 0.012137 0.000000 0.000000 0.000000
# 4 0.000000 0.000000 0.000000 0.025321 0.000000 0.000000
# 5 0.000000 0.000000 0.000000 0.000000 0.038135 0.000000
# 6 0.000000 0.000000 0.000000 0.000000 0.000000 0.025905
#
#
# Mechanical properties :
#
#
# Convention : Reuss Voigt Hill
#
# Bulk Modulus (GPa) = 18.63324 25.53330 22.08327
# Shear Modulus (GPa) = 32.74255 36.58502 34.66378
#
# Velocity S-wave (km/s) = 3.42732 3.62285 3.52644
# Velocity P-wave (km/s) = 4.72724 5.16335 4.95010
#
# Compressibility (1/GPa) = 0.05366753
#
# Stress axis : x y z
#
# Youngs Moduli (GPa) = 35.90490 104.45544 82.39202
#
# Poissons Ratio (x) = 0.16441 -0.39250
# Poissons Ratio (y) = 0.05651 0.09368
# Poissons Ratio (z) = -0.17104 0.11877
#
# Static dielectric constant tensor:
#      x y z
#    x 4.986910 0.000000 0.000000 
#    y 0.000000 5.192700 0.000000 
#    z 0.000000 0.000000 5.135130 
# 
# 
# High freq. dielectric constant tensor:
#      x y z
#    x 2.117360 0.000000 0.000000 
#    y 0.000000 2.145180 0.000000 
#    z 0.000000 0.000000 2.134460 
# 
# From -- ./inp_files/1007.got.cif
#   From: 2010.03.12/outbox.cif.g09.slc.cpg/sg29_1_cif.got.tgz:1007.got - 2010.04.14 03:43:10.
