data_PCOD8169287
_publ_section_title
;
Structure prediction by ZEFSAII (Michael W. Deem and Ramdas Pophale) SiO2 
 PCOD8169287
Probable space group: P C A 21
;
_chemical_formula_sum "Si O2"
_cell_formula_units_Z 28
_cell_length_a 10.131956
_cell_length_b 5.116440
_cell_length_c 22.907208
_cell_angle_alpha 90.000000
_cell_angle_beta 90.000000
_cell_angle_gamma 90.000000
_cell_volume 1187.499239
_symmetry_space_group_name_H-M "P C A 21"
_symmetry_group_IT_number 29
_symmetry_cell_setting 'orthorhombic'
loop_
_space_group_symop_operation_xyz
x,y,z
-x,-y,1/2+z
1/2-x,y,1/2+z
1/2+x,-y,z
loop_
_atom_site_type_symbol
_atom_site_label
_atom_site_fract_x
_atom_site_fract_y
_atom_site_fract_z
Si Si1 0.713614 0.557955 0.111390
Si Si2 0.783834 0.064733 0.534811
Si Si3 0.969421 0.967269 0.959996
Si Si4 0.631154 0.657071 0.350985
Si Si5 0.488426 0.944474 0.262826
Si Si6 0.915987 0.730444 0.360813
Si Si7 0.963741 0.549495 0.188256
O O1 0.704989 0.775381 0.061153
O O2 0.831752 0.632293 0.154642
O O3 0.576007 0.555106 0.145247
O O4 0.744447 0.275139 0.084731
O O5 0.661774 0.078702 0.490146
O O6 0.923766 0.147194 0.505532
O O7 0.926951 0.756244 0.912360
O O8 0.047753 0.198283 0.927048
O O9 0.624204 0.861794 0.296785
O O10 0.780884 0.564655 0.361614
O O11 0.538667 0.418923 0.331558
O O12 0.427094 0.691371 0.230815
O O13 0.391682 0.024323 0.316947
O O14 0.514627 0.187113 0.219750
#
# Coordination Sequence:
#
# PCOD8169287 Si02
#       7
#     4   4   4   4   4   4   4
#     4  12  28  48  72 106 140 188 254 302 354 428
#     4  12  26  48  74 104 144 192 242 306 362 424
#     4  11  26  43  74 108 146 195 236 299 372 430
#     4  11  26  46  73 116 149 192 242 298 358 463
#     4  11  26  45  76 108 146 189 236 295 370 428
#     4  11  26  46  73 116 149 192 242 298 358 463
#     4  12  26  48  74 104 144 192 242 306 362 424
#
# _framework density 23.578963000000002
#
# number of rings (size 3 to 8) (size 9 to 14) (size 15 to 20)
#    0.000    0.571    2.857    3.429   10.000    1.143 
#    0.000    0.000    0.000    0.000    0.000    0.000 
#    0.000    0.000    0.000    0.000    0.000    0.000 
#
# Total GULP energy -347129.712464 kJ/mol
# GULP energy per Si atom -12397.489731 kJ/mol
# Density = 2.352530 g / cm^3
# Si number density = 23.578963 Si / 1000 Ang^3
#
#
#
# Elastic Constant Matrix: (Units=GPa)
#
#
# Indices 1 2 3 4 5 6 
#
# 1 71.2551 -1.9439 5.0898 0.0000 0.0000 0.0000
# 2 -1.9439 92.7482 19.9178 0.0000 0.0000 0.0000
# 3 5.0898 19.9178 93.1215 0.0000 0.0000 0.0000
# 4 0.0000 0.0000 0.0000 25.5716 0.0000 0.0000
# 5 0.0000 0.0000 0.0000 0.0000 19.0776 0.0000
# 6 0.0000 0.0000 0.0000 0.0000 0.0000 28.0893
#
#
#
# Elastic Compliance Matrix: (Units=1/GPa)
#
#
# Indices 1 2 3 4 5 6 
#
# 1 0.014110 0.000484 -0.000875 0.000000 0.000000 0.000000
# 2 0.000484 0.011318 -0.002447 0.000000 0.000000 0.000000
# 3 -0.000875 -0.002447 0.011310 0.000000 0.000000 0.000000
# 4 0.000000 0.000000 0.000000 0.039106 0.000000 0.000000
# 5 0.000000 0.000000 0.000000 0.000000 0.052418 0.000000
# 6 0.000000 0.000000 0.000000 0.000000 0.000000 0.035601
#
#
# Mechanical properties :
#
#
# Convention : Reuss Voigt Hill
#
# Bulk Modulus (GPa) = 32.19502 33.69472 32.94487
# Shear Modulus (GPa) = 27.79454 30.15176 28.97315
#
# Velocity S-wave (km/s) = 3.43707 3.57985 3.50919
# Velocity P-wave (km/s) = 5.42541 5.60431 5.51558
#
# Compressibility (1/GPa) = 0.03106071
#
# Stress axis : x y z
#
# Youngs Moduli (GPa) = 70.87295 88.35843 88.41825
#
# Poissons Ratio (x) = -0.04273 0.07733
# Poissons Ratio (y) = -0.03427 0.21637
# Poissons Ratio (z) = 0.06199 0.21623
#
# Static dielectric constant tensor:
#      x y z
#    x 4.155360 0.000000 0.000000 
#    y 0.000000 4.248570 0.000000 
#    z 0.000000 0.000000 4.490380 
# 
# 
# High freq. dielectric constant tensor:
#      x y z
#    x 1.932480 0.000000 0.000000 
#    y 0.000000 1.931320 0.000000 
#    z 0.000000 0.000000 1.952060 
# 
# From -- ./inp_files/5661.got.cif
#   From: 2010.03.12/outbox.cif.g09.slc.cpg/sg29_3_cif.got.tgz:5661.got - 2010.04.14 03:43:10.
