data_PCOD8169122
_publ_section_title
;
Structure prediction by ZEFSAII (Michael W. Deem and Ramdas Pophale) SiO2 
 PCOD8169122
Probable space group: P C A 21
;
_chemical_formula_sum "Si O2"
_cell_formula_units_Z 28
_cell_length_a 9.844013
_cell_length_b 5.516879
_cell_length_c 21.173323
_cell_angle_alpha 90.000000
_cell_angle_beta 90.000000
_cell_angle_gamma 90.000000
_cell_volume 1149.885666
_symmetry_space_group_name_H-M "P C A 21"
_symmetry_group_IT_number 29
_symmetry_cell_setting 'orthorhombic'
loop_
_space_group_symop_operation_xyz
x,y,z
-x,-y,1/2+z
1/2-x,y,1/2+z
1/2+x,-y,z
loop_
_atom_site_type_symbol
_atom_site_label
_atom_site_fract_x
_atom_site_fract_y
_atom_site_fract_z
Si Si1 0.118149 0.948695 0.071080
Si Si2 0.966918 0.563785 0.147576
Si Si3 0.113671 0.726916 0.536387
Si Si4 0.611219 0.955680 0.899454
Si Si5 0.123625 0.132717 0.332211
Si Si6 0.507578 0.550305 0.427846
Si Si7 0.696262 0.752658 0.193677
O O1 0.249493 0.884942 0.028347
O O2 0.027650 0.721557 0.090739
O O3 0.166252 0.072202 0.135841
O O4 0.025436 0.120189 0.027202
O O5 0.883494 0.358556 0.109469
O O6 0.855589 0.685631 0.192733
O O7 0.091350 0.471648 0.190286
O O8 0.112614 0.510015 0.485100
O O9 0.764639 0.993201 0.877238
O O10 0.592689 0.681157 0.925006
O O11 0.511241 0.969319 0.838304
O O12 0.570754 0.192163 0.943935
O O13 0.172104 0.123887 0.260630
O O14 0.090801 0.401672 0.362026
#
# Coordination Sequence:
#
# PCOD8169122 Si02
#       7
#     4   4   4   4   4   4   4
#     4  11  24  43  72 111 149 199 252 319 398 463
#     4  11  24  44  69 111 142 194 248 313 390 455
#     4  11  25  47  73 105 151 196 259 317 391 461
#     4  10  26  49  71 113 144 200 257 304 390 444
#     4  10  27  46  76 108 155 200 256 317 386 469
#     4  10  27  47  76 110 147 200 255 317 377 461
#     4  11  25  44  73 110 150 197 249 321 384 473
#
# _framework density 24.350245999999999
#
# number of rings (size 3 to 8) (size 9 to 14) (size 15 to 20)
#    0.857    0.571    2.857    0.000    8.000    2.286 
#    0.000    0.000    0.000    0.000    0.000    0.000 
#    0.000    0.000    0.000    0.000    0.000    0.000 
#
# Total GULP energy -346911.947124 kJ/mol
# GULP energy per Si atom -12389.712397 kJ/mol
# Density = 2.429482 g / cm^3
# Si number density = 24.350246 Si / 1000 Ang^3
#
#
#
# Elastic Constant Matrix: (Units=GPa)
#
#
# Indices 1 2 3 4 5 6 
#
# 1 119.7290 29.0010 19.4925 0.0000 0.0000 0.0000
# 2 29.0010 113.5229 18.8656 0.0000 0.0000 0.0000
# 3 19.4925 18.8656 63.6132 0.0000 0.0000 0.0000
# 4 0.0000 0.0000 0.0000 33.2804 0.0000 0.0000
# 5 0.0000 0.0000 0.0000 0.0000 31.4868 0.0000
# 6 0.0000 0.0000 0.0000 0.0000 0.0000 38.5591
#
#
#
# Elastic Compliance Matrix: (Units=1/GPa)
#
#
# Indices 1 2 3 4 5 6 
#
# 1 0.009195 -0.001978 -0.002231 0.000000 0.000000 0.000000
# 2 -0.001978 0.009691 -0.002268 0.000000 0.000000 0.000000
# 3 -0.002231 -0.002268 0.017076 0.000000 0.000000 0.000000
# 4 0.000000 0.000000 0.000000 0.030048 0.000000 0.000000
# 5 0.000000 0.000000 0.000000 0.000000 0.031759 0.000000
# 6 0.000000 0.000000 0.000000 0.000000 0.000000 0.025934
#
#
# Mechanical properties :
#
#
# Convention : Reuss Voigt Hill
#
# Bulk Modulus (GPa) = 43.46294 47.95369 45.70831
# Shear Modulus (GPa) = 34.64382 35.96567 35.30475
#
# Velocity S-wave (km/s) = 3.77600 3.84736 3.81185
# Velocity P-wave (km/s) = 6.07443 6.28270 6.17944
#
# Compressibility (1/GPa) = 0.02300811
#
# Stress axis : x y z
#
# Youngs Moduli (GPa) = 108.76034 103.18828 58.56123
#
# Poissons Ratio (x) = 0.20412 0.13064
# Poissons Ratio (y) = 0.21514 0.13281
# Poissons Ratio (z) = 0.24262 0.23402
#
# Static dielectric constant tensor:
#      x y z
#    x 4.388730 0.000000 0.000000 
#    y 0.000000 4.326670 0.000000 
#    z 0.000000 0.000000 4.050570 
# 
# 
# High freq. dielectric constant tensor:
#      x y z
#    x 1.976830 0.000000 0.000000 
#    y 0.000000 1.960770 0.000000 
#    z 0.000000 0.000000 1.959880 
# 
# From -- ./inp_files/5673.got.cif
#   From: 2010.03.12/outbox.cif.g09.slc.cpg/sg29_3_cif.got.tgz:5673.got - 2010.04.14 03:43:10.
