data_PCOD8169656
_publ_section_title
;
Structure prediction by ZEFSAII (Michael W. Deem and Ramdas Pophale) SiO2 
 PCOD8169656
Probable space group: P N C 2
;
_chemical_formula_sum "Si O2"
_cell_formula_units_Z 20
_cell_length_a 4.913856
_cell_length_b 6.494072
_cell_length_c 26.166003
_cell_angle_alpha 90.000000
_cell_angle_beta 90.000000
_cell_angle_gamma 90.000000
_cell_volume 834.981612
_symmetry_space_group_name_H-M "P N C 2"
_symmetry_group_IT_number 30
_symmetry_cell_setting 'orthorhombic'
loop_
_space_group_symop_operation_xyz
x,y,z
-x,-y,z
-x,1/2+y,1/2+z
x,1/2-y,1/2+z
loop_
_atom_site_type_symbol
_atom_site_label
_atom_site_fract_x
_atom_site_fract_y
_atom_site_fract_z
Si Si1 0.747917 0.863973 0.288370
Si Si2 0.258610 0.362961 0.991879
Si Si3 0.500000 0.000000 0.055471
Si Si4 0.239298 0.140419 0.890721
Si Si5 0.000000 0.000000 0.118912
Si Si6 0.253292 0.360341 0.187188
O O1 0.846067 0.724876 0.335435
O O2 0.638237 0.735029 0.240273
O O3 0.500000 0.000000 0.309327
O O4 0.000000 0.000000 0.269133
O O5 0.500000 0.500000 0.010822
O O6 0.271980 0.324968 0.931021
O O7 0.000000 0.500000 0.007656
O O8 0.309206 0.150132 0.021623
O O9 0.744875 0.105175 0.088474
O O10 0.500000 0.000000 0.885459
O O11 0.000000 0.000000 0.912889
O O12 0.846544 0.819163 0.149561
O O13 0.500000 0.500000 0.164031
O O14 0.000000 0.500000 0.201421
#
# Coordination Sequence:
#
# PCOD8169656 Si02
#       6
#     4   4   2   4   2   4
#     4  12  24  43  71 108 152 192 240 297 362 441
#     4  12  26  47  77 109 148 193 247 305 372 443
#     4  12  28  50  78 106 150 196 252 318 378 440
#     4  12  24  43  71 108 152 192 240 297 362 441
#     4  12  28  50  78 106 150 196 252 318 378 440
#     4  12  26  47  77 109 148 193 247 305 372 443
#
# _framework density 23.952622999999999
#
# number of rings (size 3 to 8) (size 9 to 14) (size 15 to 20)
#    0.000    0.000    2.000    8.400    2.800    3.200 
#    0.000    0.000    0.000    0.000    0.000    0.000 
#    0.000    0.000    0.000    0.000    0.000    0.000 
#
# Total GULP energy -247945.413911 kJ/mol
# GULP energy per Si atom -12397.270696 kJ/mol
# Density = 2.389811 g / cm^3
# Si number density = 23.952623 Si / 1000 Ang^3
#
#
#
# Elastic Constant Matrix: (Units=GPa)
#
#
# Indices 1 2 3 4 5 6 
#
# 1 169.0860 61.0832 38.3950 0.0000 0.0000 0.0000
# 2 61.0832 124.3221 47.1822 0.0000 0.0000 0.0000
# 3 38.3950 47.1822 118.5425 0.0000 0.0000 0.0000
# 4 0.0000 0.0000 0.0000 18.8451 0.0000 0.0000
# 5 0.0000 0.0000 0.0000 0.0000 36.4876 0.0000
# 6 0.0000 0.0000 0.0000 0.0000 0.0000 58.3553
#
#
#
# Elastic Compliance Matrix: (Units=1/GPa)
#
#
# Indices 1 2 3 4 5 6 
#
# 1 0.007311 -0.003173 -0.001105 0.000000 0.000000 0.000000
# 2 -0.003173 0.010852 -0.003292 0.000000 0.000000 0.000000
# 3 -0.001105 -0.003292 0.010104 0.000000 0.000000 0.000000
# 4 0.000000 0.000000 0.000000 0.053064 0.000000 0.000000
# 5 0.000000 0.000000 0.000000 0.000000 0.027407 0.000000
# 6 0.000000 0.000000 0.000000 0.000000 0.000000 0.017136
#
#
# Mechanical properties :
#
#
# Convention : Reuss Voigt Hill
#
# Bulk Modulus (GPa) = 76.17477 78.36350 77.26914
# Shear Modulus (GPa) = 34.39050 40.42364 37.40707
#
# Velocity S-wave (km/s) = 3.79327 4.11256 3.95614
# Velocity P-wave (km/s) = 7.14538 7.43895 7.29364
#
# Compressibility (1/GPa) = 0.01312771
#
# Stress axis : x y z
#
# Youngs Moduli (GPa) = 136.77430 92.15133 98.97200
#
# Poissons Ratio (x) = 0.29238 0.10939
# Poissons Ratio (y) = 0.43396 0.32577
# Poissons Ratio (z) = 0.15117 0.30332
#
# Static dielectric constant tensor:
#      x y z
#    x 4.428530 0.000000 0.000000 
#    y 0.000000 4.422590 0.000000 
#    z 0.000000 0.000000 4.218540 
# 
# 
# High freq. dielectric constant tensor:
#      x y z
#    x 1.971560 0.000000 0.000000 
#    y 0.000000 1.953390 0.000000 
#    z 0.000000 0.000000 1.952310 
# 
# From -- ./inp_files/7469.got.cif
#   From: 2010.03.12/outbox.cif.g09.slc.cpg/sg30_4_cif.got.tgz:7469.got - 2010.04.14 01:38:02.
