data_PCOD8169649
_publ_section_title
;
Structure prediction by ZEFSAII (Michael W. Deem and Ramdas Pophale) SiO2 
 PCOD8169649
Probable space group: P N C 2
;
_chemical_formula_sum "Si O2"
_cell_formula_units_Z 18
_cell_length_a 11.808899
_cell_length_b 5.105602
_cell_length_c 11.341504
_cell_angle_alpha 90.000000
_cell_angle_beta 90.000000
_cell_angle_gamma 90.000000
_cell_volume 683.796723
_symmetry_space_group_name_H-M "P N C 2"
_symmetry_group_IT_number 30
_symmetry_cell_setting 'orthorhombic'
loop_
_space_group_symop_operation_xyz
x,y,z
-x,-y,z
-x,1/2+y,1/2+z
x,1/2-y,1/2+z
loop_
_atom_site_type_symbol
_atom_site_label
_atom_site_fract_x
_atom_site_fract_y
_atom_site_fract_z
Si Si1 0.000000 0.000000 0.040591
Si Si2 0.085207 0.789761 0.758996
Si Si3 0.296391 0.909433 0.643410
Si Si4 0.381868 0.105325 0.243116
Si Si5 0.819160 0.632401 0.920530
O O1 0.953265 0.226614 0.125566
O O2 0.109815 0.114008 0.967303
O O3 0.206236 0.933557 0.751781
O O4 0.091701 0.533144 0.841409
O O5 0.000000 0.000000 0.817001
O O6 0.342842 0.614009 0.648473
O O7 0.393625 0.128469 0.665590
O O8 0.227337 0.952853 0.524874
O O9 0.294283 0.181945 0.344801
O O10 0.500000 0.000000 0.298352
#
# Coordination Sequence:
#
# PCOD8169649 Si02
#       5
#     2   4   4   4   4
#     4  12  26  52  74 120 170 222 258 340 414 518
#     4  11  26  49  72 114 168 213 262 329 405 508
#     4  11  25  51  72 113 155 207 269 336 405 489
#     4  11  27  51  80 113 157 208 279 355 406 480
#     4  11  26  49  81 116 159 216 273 323 426 499
#
# _framework density 26.323613999999999
#
# number of rings (size 3 to 8) (size 9 to 14) (size 15 to 20)
#    0.000    0.889    2.222    3.333    0.000   12.444 
#    6.000    0.000    0.000    0.000    0.000    0.000 
#    0.000    0.000    0.000    0.000    0.000    0.000 
#
# Total GULP energy -222999.419187 kJ/mol
# GULP energy per Si atom -12388.856622 kJ/mol
# Density = 2.626370 g / cm^3
# Si number density = 26.323614 Si / 1000 Ang^3
#
#
#
# Elastic Constant Matrix: (Units=GPa)
#
#
# Indices 1 2 3 4 5 6 
#
# 1 135.7683 41.5678 48.5336 0.0000 0.0000 0.0000
# 2 41.5678 124.8724 32.0169 0.0000 0.0000 0.0000
# 3 48.5336 32.0169 121.5077 0.0000 0.0000 0.0000
# 4 0.0000 0.0000 0.0000 74.9659 0.0000 0.0000
# 5 0.0000 0.0000 0.0000 0.0000 8.7531 0.0000
# 6 0.0000 0.0000 0.0000 0.0000 0.0000 51.1445
#
#
#
# Elastic Compliance Matrix: (Units=1/GPa)
#
#
# Indices 1 2 3 4 5 6 
#
# 1 0.009152 -0.002262 -0.003059 0.000000 0.000000 0.000000
# 2 -0.002262 0.009148 -0.001507 0.000000 0.000000 0.000000
# 3 -0.003059 -0.001507 0.009849 0.000000 0.000000 0.000000
# 4 0.000000 0.000000 0.000000 0.013339 0.000000 0.000000
# 5 0.000000 0.000000 0.000000 0.000000 0.114245 0.000000
# 6 0.000000 0.000000 0.000000 0.000000 0.000000 0.019552
#
#
# Mechanical properties :
#
#
# Convention : Reuss Voigt Hill
#
# Bulk Modulus (GPa) = 69.00509 69.59836 69.30173
# Shear Modulus (GPa) = 25.80353 44.30804 35.05579
#
# Velocity S-wave (km/s) = 3.13428 4.10714 3.65324
# Velocity P-wave (km/s) = 6.27450 6.99917 6.64672
#
# Compressibility (1/GPa) = 0.01449168
#
# Stress axis : x y z
#
# Youngs Moduli (GPa) = 109.26925 109.31946 101.53318
#
# Poissons Ratio (x) = 0.24728 0.31063
# Poissons Ratio (y) = 0.24717 0.15299
# Poissons Ratio (z) = 0.33430 0.16473
#
# Static dielectric constant tensor:
#      x y z
#    x 6.470310 0.000000 0.000000 
#    y 0.000000 4.778160 0.000000 
#    z 0.000000 0.000000 4.743870 
# 
# 
# High freq. dielectric constant tensor:
#      x y z
#    x 2.059250 0.000000 0.000000 
#    y 0.000000 2.070350 0.000000 
#    z 0.000000 0.000000 2.056000 
# 
# From -- ./inp_files/3972.got.cif
#   From: 2010.03.12/outbox.cif.g09.slc.cpg/sg30_2_cif.got.tgz:3972.got - 2010.04.14 01:38:02.
