data_PCOD8169525
_publ_section_title
;
Structure prediction by ZEFSAII (Michael W. Deem and Ramdas Pophale) SiO2 
 PCOD8169525
Probable space group: P N C 2
;
_chemical_formula_sum "Si O2"
_cell_formula_units_Z 26
_cell_length_a 12.460429
_cell_length_b 18.210299
_cell_length_c 4.986999
_cell_angle_alpha 90.000000
_cell_angle_beta 90.000000
_cell_angle_gamma 90.000000
_cell_volume 1131.590656
_symmetry_space_group_name_H-M "P N C 2"
_symmetry_group_IT_number 30
_symmetry_cell_setting 'orthorhombic'
loop_
_space_group_symop_operation_xyz
x,y,z
-x,-y,z
-x,1/2+y,1/2+z
x,1/2-y,1/2+z
loop_
_atom_site_type_symbol
_atom_site_label
_atom_site_fract_x
_atom_site_fract_y
_atom_site_fract_z
Si Si1 0.000000 0.500000 0.145491
Si Si2 0.800022 0.508118 0.390130
Si Si3 0.738013 0.913406 0.388927
Si Si4 0.868075 0.390999 0.781817
Si Si5 0.558404 0.702013 0.002289
Si Si6 0.923340 0.700821 0.776805
Si Si7 0.314197 0.702195 0.005591
O O1 0.080916 0.454306 0.342066
O O2 0.079994 0.545869 0.962030
O O3 0.725126 0.548435 0.602572
O O4 0.828742 0.424857 0.493658
O O5 0.740257 0.520367 0.106308
O O6 0.634312 0.865703 0.443776
O O7 0.847277 0.866097 0.367367
O O8 0.763325 0.364773 0.940834
O O9 0.952651 0.324788 0.759751
O O10 0.582873 0.768385 0.798431
O O11 0.436359 0.674352 0.971173
O O12 0.899674 0.733156 0.483905
O O13 0.292254 0.770480 0.806449
#
# Coordination Sequence:
#
# PCOD8169525 Si02
#       7
#     2   4   4   4   4   4   4
#     4  12  24  44  64  90 130 190 214 268 326 398
#     4  12  25  41  65  93 127 183 217 266 323 395
#     4  12  23  42  65  96 132 168 221 271 329 398
#     4  12  25  44  66  92 137 173 223 270 326 400
#     4  10  21  43  71  97 130 171 213 272 341 398
#     4  12  25  37  60  96 130 164 212 272 331 385
#     4  10  24  44  71 100 129 173 220 271 335 396
#
# _framework density 22.976505
#
# number of rings (size 3 to 8) (size 9 to 14) (size 15 to 20)
#    0.000    0.615    3.077    5.077    4.308    0.000 
#    0.000    0.769    3.385    0.000    0.000    0.000 
#    0.000    0.000    0.000    0.000    0.000    0.000 
#
# Total GULP energy -322200.958961 kJ/mol
# GULP energy per Si atom -12392.344575 kJ/mol
# Density = 2.292421 g / cm^3
# Si number density = 22.976505 Si / 1000 Ang^3
#
#
#
# Elastic Constant Matrix: (Units=GPa)
#
#
# Indices 1 2 3 4 5 6 
#
# 1 92.9127 29.8870 10.0052 0.0000 0.0000 0.0000
# 2 29.8870 65.4388 18.5349 0.0000 0.0000 0.0000
# 3 10.0052 18.5349 86.0722 0.0000 0.0000 0.0000
# 4 0.0000 0.0000 0.0000 31.8287 0.0000 0.0000
# 5 0.0000 0.0000 0.0000 0.0000 23.1277 0.0000
# 6 0.0000 0.0000 0.0000 0.0000 0.0000 45.3981
#
#
#
# Elastic Compliance Matrix: (Units=1/GPa)
#
#
# Indices 1 2 3 4 5 6 
#
# 1 0.012621 -0.005696 -0.000240 0.000000 0.000000 0.000000
# 2 -0.005696 0.018845 -0.003396 0.000000 0.000000 0.000000
# 3 -0.000240 -0.003396 0.012377 0.000000 0.000000 0.000000
# 4 0.000000 0.000000 0.000000 0.031418 0.000000 0.000000
# 5 0.000000 0.000000 0.000000 0.000000 0.043238 0.000000
# 6 0.000000 0.000000 0.000000 0.000000 0.000000 0.022027
#
#
# Mechanical properties :
#
#
# Convention : Reuss Voigt Hill
#
# Bulk Modulus (GPa) = 39.71700 40.14198 39.92949
# Shear Modulus (GPa) = 29.83567 32.47066 31.15317
#
# Velocity S-wave (km/s) = 3.60742 3.76335 3.68621
# Velocity P-wave (km/s) = 5.88853 6.03262 5.96101
#
# Compressibility (1/GPa) = 0.02517814
#
# Stress axis : x y z
#
# Youngs Moduli (GPa) = 79.23343 53.06499 80.79247
#
# Poissons Ratio (x) = 0.30226 0.01943
# Poissons Ratio (y) = 0.45132 0.27437
# Poissons Ratio (z) = 0.01905 0.18021
#
# Static dielectric constant tensor:
#      x y z
#    x 4.214480 0.000000 0.000000 
#    y 0.000000 3.965490 0.000000 
#    z 0.000000 0.000000 4.507120 
# 
# 
# High freq. dielectric constant tensor:
#      x y z
#    x 1.902580 0.000000 0.000000 
#    y 0.000000 1.888000 0.000000 
#    z 0.000000 0.000000 1.932390 
# 
# From -- ./inp_files/704.got.cif
#   From: 2010.03.12/outbox.cif.g09.slc.cpg/sg30_1_cif.got.tgz:704.got - 2010.04.14 01:38:02.
