data_PCOD8169317
_publ_section_title
;
Structure prediction by ZEFSAII (Michael W. Deem and Ramdas Pophale) SiO2 
 PCOD8169317
Probable space group: P C A 21
;
_chemical_formula_sum "Si O2"
_cell_formula_units_Z 24
_cell_length_a 9.625148
_cell_length_b 13.271394
_cell_length_c 8.330659
_cell_angle_alpha 90.000000
_cell_angle_beta 90.000000
_cell_angle_gamma 90.000000
_cell_volume 1064.151145
_symmetry_space_group_name_H-M "P C A 21"
_symmetry_group_IT_number 29
_symmetry_cell_setting 'orthorhombic'
loop_
_space_group_symop_operation_xyz
x,y,z
-x,-y,1/2+z
1/2-x,y,1/2+z
1/2+x,-y,z
loop_
_atom_site_type_symbol
_atom_site_label
_atom_site_fract_x
_atom_site_fract_y
_atom_site_fract_z
Si Si1 0.430878 0.415658 0.242850
Si Si2 0.321266 0.863657 0.448385
Si Si3 0.422623 0.191907 0.766677
Si Si4 0.869224 0.584862 0.867378
Si Si5 0.323432 0.097548 0.442684
Si Si6 0.946143 0.200603 0.775988
O O1 0.292369 0.440173 0.342406
O O2 0.542312 0.501001 0.277347
O O3 0.491720 0.310457 0.305456
O O4 0.400224 0.411185 0.054863
O O5 0.419088 0.843011 0.294943
O O6 0.169815 0.820754 0.410190
O O7 0.382791 0.804832 0.599351
O O8 0.314094 0.981343 0.489724
O O9 0.407866 0.310772 0.783331
O O10 0.378044 0.163424 0.589184
O O11 0.329566 0.134284 0.897639
O O12 0.430131 0.118200 0.295558
#
# Coordination Sequence:
#
# PCOD8169317 Si02
#       6
#     4   4   4   4   4   4
#     4  12  28  50  81 106 150 187 248 301 375 434
#     4  12  25  45  70 108 148 193 246 295 358 437
#     4  12  25  45  75 105 149 187 242 304 361 434
#     4  12  27  51  78 112 142 196 239 308 368 440
#     4  12  24  44  74 105 146 197 242 296 365 432
#     4  12  27  47  70 108 149 192 245 306 361 433
#
# _framework density 22.553190000000001
#
# number of rings (size 3 to 8) (size 9 to 14) (size 15 to 20)
#    0.000    0.000    3.333    7.000    4.667    1.333 
#    0.000    0.000    0.000    0.000    0.000    0.000 
#    0.000    0.000    0.000    0.000    0.000    0.000 
#
# Total GULP energy -297841.331327 kJ/mol
# GULP energy per Si atom -12410.055472 kJ/mol
# Density = 2.250186 g / cm^3
# Si number density = 22.553190 Si / 1000 Ang^3
#
#
#
# Elastic Constant Matrix: (Units=GPa)
#
#
# Indices 1 2 3 4 5 6 
#
# 1 135.4135 78.4218 21.3555 0.0000 0.0000 0.0000
# 2 78.4218 116.0828 20.0666 0.0000 0.0000 0.0000
# 3 21.3555 20.0666 90.3403 0.0000 0.0000 0.0000
# 4 0.0000 0.0000 0.0000 25.6342 0.0000 0.0000
# 5 0.0000 0.0000 0.0000 0.0000 40.4506 0.0000
# 6 0.0000 0.0000 0.0000 0.0000 0.0000 44.6136
#
#
#
# Elastic Compliance Matrix: (Units=1/GPa)
#
#
# Indices 1 2 3 4 5 6 
#
# 1 0.012235 -0.008076 -0.001098 0.000000 0.000000 0.000000
# 2 -0.008076 0.014289 -0.001265 0.000000 0.000000 0.000000
# 3 -0.001098 -0.001265 0.011610 0.000000 0.000000 0.000000
# 4 0.000000 0.000000 0.000000 0.039010 0.000000 0.000000
# 5 0.000000 0.000000 0.000000 0.000000 0.024722 0.000000
# 6 0.000000 0.000000 0.000000 0.000000 0.000000 0.022415
#
#
# Mechanical properties :
#
#
# Convention : Reuss Voigt Hill
#
# Bulk Modulus (GPa) = 57.95173 64.61383 61.28278
# Shear Modulus (GPa) = 33.13241 36.93918 35.03579
#
# Velocity S-wave (km/s) = 3.83701 4.05145 3.94569
# Velocity P-wave (km/s) = 6.73659 7.11318 6.92745
#
# Compressibility (1/GPa) = 0.01725574
#
# Stress axis : x y z
#
# Youngs Moduli (GPa) = 81.73409 69.98496 86.13360
#
# Poissons Ratio (x) = 0.56517 0.09461
# Poissons Ratio (y) = 0.66005 0.10895
# Poissons Ratio (z) = 0.08978 0.08852
#
# Static dielectric constant tensor:
#      x y z
#    x 4.469840 0.000000 0.000000 
#    y 0.000000 4.076170 0.000000 
#    z 0.000000 0.000000 4.133250 
# 
# 
# High freq. dielectric constant tensor:
#      x y z
#    x 1.911500 0.000000 0.000000 
#    y 0.000000 1.894670 0.000000 
#    z 0.000000 0.000000 1.901010 
# 
# From -- ./inp_files/1124.got.cif
#   From: 2010.03.12/outbox.cif.g09.slc.cpg/sg29_1_cif.got.tgz:1124.got - 2010.04.14 03:43:10.
