data_PCOD8169191
_publ_section_title
;
Structure prediction by ZEFSAII (Michael W. Deem and Ramdas Pophale) SiO2 
 PCOD8169191
Probable space group: P C A 21
;
_chemical_formula_sum "Si O2"
_cell_formula_units_Z 24
_cell_length_a 10.181760
_cell_length_b 12.307583
_cell_length_c 8.905288
_cell_angle_alpha 90.000000
_cell_angle_beta 90.000000
_cell_angle_gamma 90.000000
_cell_volume 1115.947075
_symmetry_space_group_name_H-M "P C A 21"
_symmetry_group_IT_number 29
_symmetry_cell_setting 'orthorhombic'
loop_
_space_group_symop_operation_xyz
x,y,z
-x,-y,1/2+z
1/2-x,y,1/2+z
1/2+x,-y,z
loop_
_atom_site_type_symbol
_atom_site_label
_atom_site_fract_x
_atom_site_fract_y
_atom_site_fract_z
Si Si1 0.346677 0.707581 0.107860
Si Si2 0.629172 0.957945 0.343454
Si Si3 0.893783 0.615243 0.526149
Si Si4 0.661404 0.707773 0.344597
Si Si5 0.370967 0.955600 0.172611
Si Si6 0.108164 0.632245 0.933003
O O1 0.391823 0.829875 0.135939
O O2 0.344945 0.639477 0.261450
O O3 0.456123 0.653498 0.998654
O O4 0.204260 0.706531 0.032555
O O5 0.657739 0.833664 0.301666
O O6 0.489683 0.995890 0.277626
O O7 0.631573 0.973244 0.522094
O O8 0.737785 0.032596 0.265647
O O9 0.799906 0.685045 0.420417
O O10 0.852373 0.633827 0.697696
O O11 0.879766 0.489739 0.488889
O O12 0.539622 0.677640 0.454608
#
# Coordination Sequence:
#
# PCOD8169191 Si02
#       6
#     4   4   4   4   4   4
#     4  11  25  45  65 103 137 174 236 278 343 418
#     4  12  26  46  72 101 142 181 233 294 354 419
#     4  11  23  43  69  96 138 178 226 282 340 408
#     4  11  25  45  65 103 137 174 236 278 343 418
#     4  12  26  46  72 101 142 181 233 294 354 419
#     4  11  23  43  69  96 138 178 226 282 340 408
#
# _framework density 21.506395999999999
#
# number of rings (size 3 to 8) (size 9 to 14) (size 15 to 20)
#    0.000    0.667    3.333    5.000    4.667    4.000 
#    0.000    0.000    0.000    0.000    0.000    0.000 
#    0.000    0.000    0.000    0.000    0.000    0.000 
#
# Total GULP energy -297765.286046 kJ/mol
# GULP energy per Si atom -12406.886919 kJ/mol
# Density = 2.145745 g / cm^3
# Si number density = 21.506396 Si / 1000 Ang^3
#
#
#
# Elastic Constant Matrix: (Units=GPa)
#
#
# Indices 1 2 3 4 5 6 
#
# 1 77.6320 34.4022 25.2852 0.0000 0.0000 0.0000
# 2 34.4022 76.5300 29.4561 0.0000 0.0000 0.0000
# 3 25.2852 29.4561 80.4334 0.0000 0.0000 0.0000
# 4 0.0000 0.0000 0.0000 29.6114 0.0000 0.0000
# 5 0.0000 0.0000 0.0000 0.0000 46.3193 0.0000
# 6 0.0000 0.0000 0.0000 0.0000 0.0000 26.5479
#
#
#
# Elastic Compliance Matrix: (Units=1/GPa)
#
#
# Indices 1 2 3 4 5 6 
#
# 1 0.016648 -0.006367 -0.002902 0.000000 0.000000 0.000000
# 2 -0.006367 0.017646 -0.004461 0.000000 0.000000 0.000000
# 3 -0.002902 -0.004461 0.014978 0.000000 0.000000 0.000000
# 4 0.000000 0.000000 0.000000 0.033771 0.000000 0.000000
# 5 0.000000 0.000000 0.000000 0.000000 0.021589 0.000000
# 6 0.000000 0.000000 0.000000 0.000000 0.000000 0.037668
#
#
# Mechanical properties :
#
#
# Convention : Reuss Voigt Hill
#
# Bulk Modulus (GPa) = 45.84328 45.87581 45.85954
# Shear Modulus (GPa) = 28.24388 30.19250 29.21819
#
# Velocity S-wave (km/s) = 3.62785 3.75091 3.68989
# Velocity P-wave (km/s) = 6.23785 6.33535 6.28679
#
# Compressibility (1/GPa) = 0.02181345
#
# Stress axis : x y z
#
# Youngs Moduli (GPa) = 60.06798 56.67106 66.76253
#
# Poissons Ratio (x) = 0.36081 0.19373
# Poissons Ratio (y) = 0.38244 0.29781
# Poissons Ratio (z) = 0.17431 0.25279
#
# Static dielectric constant tensor:
#      x y z
#    x 4.290560 0.000000 0.000000 
#    y 0.000000 3.767410 0.000000 
#    z 0.000000 0.000000 3.995770 
# 
# 
# High freq. dielectric constant tensor:
#      x y z
#    x 1.863700 0.000000 0.000000 
#    y 0.000000 1.850100 0.000000 
#    z 0.000000 0.000000 1.843690 
# 
# From -- ./inp_files/1121.got.cif
#   From: 2010.03.12/outbox.cif.g09.slc.cpg/sg29_1_cif.got.tgz:1121.got - 2010.04.14 03:43:10.
