data_PCOD8169097
_publ_section_title
;
Structure prediction by ZEFSAII (Michael W. Deem and Ramdas Pophale) SiO2 
 PCOD8169097
Probable space group: P C A 21
;
_chemical_formula_sum "Si O2"
_cell_formula_units_Z 28
_cell_length_a 9.262641
_cell_length_b 13.917947
_cell_length_c 9.122415
_cell_angle_alpha 90.000000
_cell_angle_beta 90.000000
_cell_angle_gamma 90.000000
_cell_volume 1176.033887
_symmetry_space_group_name_H-M "P C A 21"
_symmetry_group_IT_number 29
_symmetry_cell_setting 'orthorhombic'
loop_
_space_group_symop_operation_xyz
x,y,z
-x,-y,1/2+z
1/2-x,y,1/2+z
1/2+x,-y,z
loop_
_atom_site_type_symbol
_atom_site_label
_atom_site_fract_x
_atom_site_fract_y
_atom_site_fract_z
Si Si1 0.528214 0.378648 0.614240
Si Si2 0.141103 0.918722 0.292271
Si Si3 0.576834 0.790393 0.495138
Si Si4 0.421649 0.978249 0.470089
Si Si5 0.828848 0.288108 0.651829
Si Si6 0.979054 0.559705 0.300545
Si Si7 0.256424 0.292129 0.732061
O O1 0.666190 0.309154 0.603375
O O2 0.530547 0.449368 0.752825
O O3 0.509202 0.445189 0.472888
O O4 0.392134 0.308338 0.626200
O O5 0.282300 0.956094 0.374002
O O6 0.161170 0.806684 0.253781
O O7 0.117722 0.982443 0.143300
O O8 0.003011 0.928216 0.403103
O O9 0.545791 0.898133 0.447243
O O10 0.424302 0.732496 0.505131
O O11 0.690748 0.744811 0.387053
O O12 0.649955 0.785571 0.656935
O O13 0.887436 0.382473 0.731816
O O14 0.827553 0.608533 0.259075
#
# Coordination Sequence:
#
# PCOD8169097 Si02
#       7
#     4   4   4   4   4   4   4
#     4  12  26  44  73 102 145 192 246 312 374 447
#     4  11  25  48  75 112 151 200 248 316 382 460
#     4  10  24  46  71 103 142 191 245 307 370 450
#     4  11  25  47  75 111 151 194 252 310 377 453
#     4  10  26  46  74 106 151 194 254 306 383 453
#     4  11  27  43  69 105 139 193 245 308 375 451
#     4  11  23  46  67  99 143 188 244 301 371 446
#
# _framework density 23.808838999999999
#
# number of rings (size 3 to 8) (size 9 to 14) (size 15 to 20)
#    0.000    1.143    1.429    2.571   10.000    6.857 
#    2.571    0.000    0.000    0.000    0.000    0.000 
#    0.000    0.000    0.000    0.000    0.000    0.000 
#
# Total GULP energy -347207.773365 kJ/mol
# GULP energy per Si atom -12400.277620 kJ/mol
# Density = 2.375465 g / cm^3
# Si number density = 23.808839 Si / 1000 Ang^3
#
#
#
# Elastic Constant Matrix: (Units=GPa)
#
#
# Indices 1 2 3 4 5 6 
#
# 1 148.9411 42.0978 40.2262 0.0000 0.0000 0.0000
# 2 42.0978 60.4851 26.3426 0.0000 0.0000 0.0000
# 3 40.2262 26.3426 113.0046 0.0000 0.0000 0.0000
# 4 0.0000 0.0000 0.0000 34.8264 0.0000 0.0000
# 5 0.0000 0.0000 0.0000 0.0000 40.8090 0.0000
# 6 0.0000 0.0000 0.0000 0.0000 0.0000 36.4967
#
#
#
# Elastic Compliance Matrix: (Units=1/GPa)
#
#
# Indices 1 2 3 4 5 6 
#
# 1 0.008702 -0.005239 -0.001876 0.000000 0.000000 0.000000
# 2 -0.005239 0.021556 -0.003160 0.000000 0.000000 0.000000
# 3 -0.001876 -0.003160 0.010254 0.000000 0.000000 0.000000
# 4 0.000000 0.000000 0.000000 0.028714 0.000000 0.000000
# 5 0.000000 0.000000 0.000000 0.000000 0.024504 0.000000
# 6 0.000000 0.000000 0.000000 0.000000 0.000000 0.027400
#
#
# Mechanical properties :
#
#
# Convention : Reuss Voigt Hill
#
# Bulk Modulus (GPa) = 50.09912 59.97377 55.03645
# Shear Modulus (GPa) = 33.70792 36.67737 35.19265
#
# Velocity S-wave (km/s) = 3.76676 3.92917 3.84882
# Velocity P-wave (km/s) = 6.32502 6.76970 6.55114
#
# Compressibility (1/GPa) = 0.01996043
#
# Stress axis : x y z
#
# Youngs Moduli (GPa) = 114.92077 46.39135 97.52611
#
# Poissons Ratio (x) = 0.24306 0.18298
# Poissons Ratio (y) = 0.60210 0.30817
# Poissons Ratio (z) = 0.21561 0.14659
#
# Static dielectric constant tensor:
#      x y z
#    x 4.499320 0.000000 0.000000 
#    y 0.000000 3.975290 0.000000 
#    z 0.000000 0.000000 4.359800 
# 
# 
# High freq. dielectric constant tensor:
#      x y z
#    x 1.967240 0.000000 0.000000 
#    y 0.000000 1.928070 0.000000 
#    z 0.000000 0.000000 1.947520 
# 
# From -- ./inp_files/1187.got.cif
#   From: 2010.03.12/outbox.cif.g09.slc.cpg/sg29_1_cif.got.tgz:1187.got - 2010.04.14 03:43:10.
