data_PCOD8169344
_publ_section_title
;
Structure prediction by ZEFSAII (Michael W. Deem and Ramdas Pophale) SiO2 
 PCOD8169344
Probable space group: P C A 21
;
_chemical_formula_sum "Si O2"
_cell_formula_units_Z 24
_cell_length_a 13.090655
_cell_length_b 8.946766
_cell_length_c 8.313672
_cell_angle_alpha 90.000000
_cell_angle_beta 90.000000
_cell_angle_gamma 90.000000
_cell_volume 973.689176
_symmetry_space_group_name_H-M "P C A 21"
_symmetry_group_IT_number 29
_symmetry_cell_setting 'orthorhombic'
loop_
_space_group_symop_operation_xyz
x,y,z
-x,-y,1/2+z
1/2-x,y,1/2+z
1/2+x,-y,z
loop_
_atom_site_type_symbol
_atom_site_label
_atom_site_fract_x
_atom_site_fract_y
_atom_site_fract_z
Si Si1 0.459580 0.153428 0.046760
Si Si2 0.515396 0.417774 0.810076
Si Si3 0.690137 0.596467 0.988314
Si Si4 0.754544 0.810156 0.724103
Si Si5 0.628001 0.385895 0.479097
Si Si6 0.614198 0.084461 0.322571
O O1 0.349627 0.188044 0.122009
O O2 0.545054 0.149539 0.181768
O O3 0.491384 0.272789 0.913469
O O4 0.457386 0.997794 0.951631
O O5 0.545897 0.380209 0.626395
O O6 0.603702 0.512707 0.894740
O O7 0.419652 0.531421 0.822117
O O8 0.661117 0.692046 0.149134
O O9 0.774425 0.475334 0.041664
O O10 0.733414 0.740234 0.895089
O O11 0.798741 0.976789 0.748707
O O12 0.664413 0.222641 0.419752
#
# Coordination Sequence:
#
# PCOD8169344 Si02
#       6
#     4   4   4   4   4   4
#     4  12  28  51  74 115 151 209 252 318 397 462
#     4  12  26  48  80 108 157 198 271 319 385 463
#     4  12  26  48  77 106 147 203 259 316 387 461
#     4  12  26  52  73 109 155 203 251 319 397 465
#     4  12  27  47  75 119 147 205 262 326 378 471
#     4  12  29  46  77 109 161 198 259 316 396 460
#
# _framework density 24.648523999999998
#
# number of rings (size 3 to 8) (size 9 to 14) (size 15 to 20)
#    0.000    0.000    5.000    3.000   11.667    4.000 
#    0.000    0.000    0.000    0.000    0.000    0.000 
#    0.000    0.000    0.000    0.000    0.000    0.000 
#
# Total GULP energy -297483.688049 kJ/mol
# GULP energy per Si atom -12395.153669 kJ/mol
# Density = 2.459242 g / cm^3
# Si number density = 24.648524 Si / 1000 Ang^3
#
#
#
# Elastic Constant Matrix: (Units=GPa)
#
#
# Indices 1 2 3 4 5 6 
#
# 1 40.5176 29.4496 13.3119 0.0000 0.0000 0.0000
# 2 29.4496 180.0006 49.7642 0.0000 0.0000 0.0000
# 3 13.3119 49.7642 97.3534 0.0000 0.0000 0.0000
# 4 0.0000 0.0000 0.0000 58.0505 0.0000 0.0000
# 5 0.0000 0.0000 0.0000 0.0000 15.4021 0.0000
# 6 0.0000 0.0000 0.0000 0.0000 0.0000 26.3197
#
#
#
# Elastic Compliance Matrix: (Units=1/GPa)
#
#
# Indices 1 2 3 4 5 6 
#
# 1 0.028265 -0.004141 -0.001748 0.000000 0.000000 0.000000
# 2 -0.004141 0.007077 -0.003051 0.000000 0.000000 0.000000
# 3 -0.001748 -0.003051 0.012071 0.000000 0.000000 0.000000
# 4 0.000000 0.000000 0.000000 0.017226 0.000000 0.000000
# 5 0.000000 0.000000 0.000000 0.000000 0.064926 0.000000
# 6 0.000000 0.000000 0.000000 0.000000 0.000000 0.037994
#
#
# Mechanical properties :
#
#
# Convention : Reuss Voigt Hill
#
# Bulk Modulus (GPa) = 33.86221 55.88032 44.87127
# Shear Modulus (GPa) = 25.60383 34.97751 30.29067
#
# Velocity S-wave (km/s) = 3.22647 3.77112 3.50938
# Velocity P-wave (km/s) = 5.25814 6.45615 5.88769
#
# Compressibility (1/GPa) = 0.02953144
#
# Stress axis : x y z
#
# Youngs Moduli (GPa) = 35.37963 141.31120 82.84651
#
# Poissons Ratio (x) = 0.58518 0.14482
# Poissons Ratio (y) = 0.14651 0.25277
# Poissons Ratio (z) = 0.06185 0.43115
#
# Static dielectric constant tensor:
#      x y z
#    x 4.610210 0.000000 0.000000 
#    y 0.000000 4.607420 0.000000 
#    z 0.000000 0.000000 4.830400 
# 
# 
# High freq. dielectric constant tensor:
#      x y z
#    x 1.976910 0.000000 0.000000 
#    y 0.000000 1.997780 0.000000 
#    z 0.000000 0.000000 2.006990 
# 
# From -- ./inp_files/1735.got.cif
#   From: 2010.03.12/outbox.cif.g09.slc.cpg/sg29_1_cif.got.tgz:1735.got - 2010.04.14 03:43:10.
