data_PCOD8169761
_publ_section_title
;
Structure prediction by ZEFSAII (Michael W. Deem and Ramdas Pophale) SiO2 
 PCOD8169761
Probable space group: P M N 21
;
_chemical_formula_sum "Si O2"
_cell_formula_units_Z 32
_cell_length_a 8.907983
_cell_length_b 14.616961
_cell_length_c 12.486050
_cell_angle_alpha 90.000000
_cell_angle_beta 90.000000
_cell_angle_gamma 90.000000
_cell_volume 1625.779105
_symmetry_space_group_name_H-M "P M N 21"
_symmetry_group_IT_number 31
_symmetry_cell_setting 'orthorhombic'
loop_
_space_group_symop_operation_xyz
x,y,z
1/2-x,-y,1/2+z
-x,y,z
1/2+x,-y,1/2+z
loop_
_atom_site_type_symbol
_atom_site_label
_atom_site_fract_x
_atom_site_fract_y
_atom_site_fract_z
Si Si1 0.321608 0.254053 0.727380
Si Si2 0.165709 0.836993 0.011516
Si Si3 0.835035 0.641043 0.908066
Si Si4 0.678174 0.828271 0.632314
Si Si5 0.677802 0.868351 0.393269
Si Si6 0.824786 0.367089 0.196181
Si Si7 0.177284 0.559634 0.125757
Si Si8 0.677204 0.947086 0.834234
O O1 0.500000 0.254441 0.743793
O O2 0.278748 0.182077 0.632625
O O3 0.239429 0.223027 0.835905
O O4 0.260998 0.356049 0.698025
O O5 0.000000 0.884533 0.012864
O O6 0.150482 0.741442 0.953573
O O7 0.281328 0.899797 0.946920
O O8 0.704573 0.637729 0.821888
O O9 0.000000 0.612466 0.862634
O O10 0.782820 0.573321 0.001792
O O11 0.500000 0.823968 0.641255
O O12 0.729387 0.868781 0.517979
O O13 0.743748 0.724587 0.641883
O O14 0.738505 0.890292 0.731067
O O15 0.500000 0.870274 0.384444
O O16 0.746987 0.954106 0.331057
O O17 0.749413 0.461564 0.155236
O O18 0.000000 0.370214 0.173222
O O19 0.000000 0.558255 0.142966
O O20 0.500000 0.959127 0.828182
#
# Coordination Sequence:
#
# PCOD8169761 Si02
#       8
#     4   4   4   4   4   4   4   4
#     4   9  19  38  58  81 114 151 187 231 284 336
#     4   9  18  34  57  80 108 143 181 234 289 332
#     4   9  17  32  52  79 109 142 184 232 279 329
#     4   9  21  39  57  80 115 149 183 230 287 337
#     4  11  24  40  57  83 116 154 191 232 286 342
#     4  10  18  34  58  82 109 149 190 230 278 336
#     4   8  17  33  56  81 111 151 191 224 279 343
#     4  11  22  38  59  84 110 145 191 235 282 341
#
# _framework density 19.682870000000001
#
# number of rings (size 3 to 8) (size 9 to 14) (size 15 to 20)
#    0.000    2.500    1.250    2.250    1.750    1.500 
#    0.000    7.500    0.000    0.000    0.000    0.000 
#    0.000    0.000    0.000    0.000    0.000    0.000 
#
# Total GULP energy -396627.885986 kJ/mol
# GULP energy per Si atom -12394.621437 kJ/mol
# Density = 1.963807 g / cm^3
# Si number density = 19.682870 Si / 1000 Ang^3
#
#
#
# Elastic Constant Matrix: (Units=GPa)
#
#
# Indices 1 2 3 4 5 6 
#
# 1 36.9928 26.5345 23.1801 0.0000 0.0000 0.0000
# 2 26.5345 115.1452 56.8990 0.0000 0.0000 0.0000
# 3 23.1801 56.8990 96.8916 0.0000 0.0000 0.0000
# 4 0.0000 0.0000 0.0000 18.5708 0.0000 0.0000
# 5 0.0000 0.0000 0.0000 0.0000 11.2814 0.0000
# 6 0.0000 0.0000 0.0000 0.0000 0.0000 20.3204
#
#
#
# Elastic Compliance Matrix: (Units=1/GPa)
#
#
# Indices 1 2 3 4 5 6 
#
# 1 0.034009 -0.005377 -0.004979 0.000000 0.000000 0.000000
# 2 -0.005377 0.013085 -0.006398 0.000000 0.000000 0.000000
# 3 -0.004979 -0.006398 0.015269 0.000000 0.000000 0.000000
# 4 0.000000 0.000000 0.000000 0.053848 0.000000 0.000000
# 5 0.000000 0.000000 0.000000 0.000000 0.088642 0.000000
# 6 0.000000 0.000000 0.000000 0.000000 0.000000 0.049212
#
#
# Mechanical properties :
#
#
# Convention : Reuss Voigt Hill
#
# Bulk Modulus (GPa) = 34.65460 51.36186 43.00823
# Shear Modulus (GPa) = 16.82426 19.52891 18.17658
#
# Velocity S-wave (km/s) = 2.92681 3.15330 3.04217
# Velocity P-wave (km/s) = 5.39132 6.27767 5.85130
#
# Compressibility (1/GPa) = 0.02885619
#
# Stress axis : x y z
#
# Youngs Moduli (GPa) = 29.40423 76.42173 65.49213
#
# Poissons Ratio (x) = 0.41091 0.32606
# Poissons Ratio (y) = 0.15810 0.41901
# Poissons Ratio (z) = 0.14639 0.48894
#
# Static dielectric constant tensor:
#      x y z
#    x 5.220810 0.000000 0.000000 
#    y 0.000000 3.950210 0.000000 
#    z 0.000000 0.000000 3.918470 
# 
# 
# High freq. dielectric constant tensor:
#      x y z
#    x 1.730640 0.000000 0.000000 
#    y 0.000000 1.774720 0.000000 
#    z 0.000000 0.000000 1.766460 
# 
# From -- ./inp_files/3653.got.cif
#   From: 2010.03.12/outbox.cif.g09.slc.cpg/sg31_2_cif.got.tgz:3653.got - 2010.04.14 01:42:59.
