data_PCOD8169093
_publ_section_title
;
Structure prediction by ZEFSAII (Michael W. Deem and Ramdas Pophale) SiO2 
 PCOD8169093
Probable space group: P C A 21
;
_chemical_formula_sum "Si O2"
_cell_formula_units_Z 16
_cell_length_a 15.535956
_cell_length_b 5.249865
_cell_length_c 7.704131
_cell_angle_alpha 90.000000
_cell_angle_beta 90.000000
_cell_angle_gamma 90.000000
_cell_volume 628.361803
_symmetry_space_group_name_H-M "P C A 21"
_symmetry_group_IT_number 29
_symmetry_cell_setting 'orthorhombic'
loop_
_space_group_symop_operation_xyz
x,y,z
-x,-y,1/2+z
1/2-x,y,1/2+z
1/2+x,-y,z
loop_
_atom_site_type_symbol
_atom_site_label
_atom_site_fract_x
_atom_site_fract_y
_atom_site_fract_z
Si Si1 0.845404 0.749293 0.439330
Si Si2 0.919136 0.482268 0.749017
Si Si3 0.338678 0.255829 0.047372
Si Si4 0.990623 0.974508 0.873179
O O1 0.871242 0.513911 0.564705
O O2 0.754483 0.865951 0.502898
O O3 0.839252 0.644447 0.243770
O O4 0.915758 0.975880 0.456264
O O5 0.968160 0.215061 0.748488
O O6 0.990245 0.711561 0.762920
O O7 0.853947 0.508955 0.912926
O O8 0.414625 0.045844 0.019769
#
# Coordination Sequence:
#
# PCOD8169093 Si02
#       4
#     4   4   4   4
#     4  12  22  48  74 105 147 193 235 306 354 436
#     4  10  25  48  64 109 136 189 238 291 354 428
#     4  10  24  46  68 110 140 188 239 294 358 427
#     4  10  25  48  72 102 147 182 244 289 364 419
#
# _framework density 25.463039999999999
#
# number of rings (size 3 to 8) (size 9 to 14) (size 15 to 20)
#    1.500    0.000    2.500    1.500    3.500    0.000 
#   18.000    0.000    0.000    0.000    0.000    0.000 
#    0.000    0.000    0.000    0.000    0.000    0.000 
#
# Total GULP energy -198253.235872 kJ/mol
# GULP energy per Si atom -12390.827242 kJ/mol
# Density = 2.540508 g / cm^3
# Si number density = 25.463040 Si / 1000 Ang^3
#
#
#
# Elastic Constant Matrix: (Units=GPa)
#
#
# Indices 1 2 3 4 5 6 
#
# 1 187.0368 27.8351 47.2886 0.0000 0.0000 0.0000
# 2 27.8351 104.1383 30.1390 0.0000 0.0000 0.0000
# 3 47.2886 30.1390 197.5074 0.0000 0.0000 0.0000
# 4 0.0000 0.0000 0.0000 28.3839 0.0000 0.0000
# 5 0.0000 0.0000 0.0000 0.0000 24.1232 0.0000
# 6 0.0000 0.0000 0.0000 0.0000 0.0000 16.4273
#
#
#
# Elastic Compliance Matrix: (Units=1/GPa)
#
#
# Indices 1 2 3 4 5 6 
#
# 1 0.005833 -0.001208 -0.001212 0.000000 0.000000 0.000000
# 2 -0.001208 0.010297 -0.001282 0.000000 0.000000 0.000000
# 3 -0.001212 -0.001282 0.005549 0.000000 0.000000 0.000000
# 4 0.000000 0.000000 0.000000 0.035231 0.000000 0.000000
# 5 0.000000 0.000000 0.000000 0.000000 0.041454 0.000000
# 6 0.000000 0.000000 0.000000 0.000000 0.000000 0.060874
#
#
# Mechanical properties :
#
#
# Convention : Reuss Voigt Hill
#
# Bulk Modulus (GPa) = 70.05909 77.68977 73.87443
# Shear Modulus (GPa) = 29.17151 39.34821 34.25986
#
# Velocity S-wave (km/s) = 3.38840 3.93530 3.67205
# Velocity P-wave (km/s) = 6.54845 7.15722 6.85959
#
# Compressibility (1/GPa) = 0.01427367
#
# Stress axis : x y z
#
# Youngs Moduli (GPa) = 171.44357 97.11963 180.21442
#
# Poissons Ratio (x) = 0.11734 0.21845
# Poissons Ratio (y) = 0.20714 0.23102
# Poissons Ratio (z) = 0.20782 0.12450
#
# Static dielectric constant tensor:
#      x y z
#    x 4.840120 0.000000 0.000000 
#    y 0.000000 3.820430 0.000000 
#    z 0.000000 0.000000 4.629810 
# 
# 
# High freq. dielectric constant tensor:
#      x y z
#    x 2.021300 0.000000 0.000000 
#    y 0.000000 1.961780 0.000000 
#    z 0.000000 0.000000 2.037360 
# 
# From -- ./inp_files/1934.got.cif
#   From: 2010.03.12/outbox.cif.g09.slc.cpg/sg29_1_cif.got.tgz:1934.got - 2010.04.14 03:43:10.
