data_PCOD8169501
_publ_section_title
;
Structure prediction by ZEFSAII (Michael W. Deem and Ramdas Pophale) SiO2 
 PCOD8169501
Probable space group: P N C 2
;
_chemical_formula_sum "Si O2"
_cell_formula_units_Z 32
_cell_length_a 8.028019
_cell_length_b 14.578911
_cell_length_c 12.807795
_cell_angle_alpha 90.000000
_cell_angle_beta 90.000000
_cell_angle_gamma 90.000000
_cell_volume 1499.021439
_symmetry_space_group_name_H-M "P N C 2"
_symmetry_group_IT_number 30
_symmetry_cell_setting 'orthorhombic'
loop_
_space_group_symop_operation_xyz
x,y,z
-x,-y,z
-x,1/2+y,1/2+z
x,1/2-y,1/2+z
loop_
_atom_site_type_symbol
_atom_site_label
_atom_site_fract_x
_atom_site_fract_y
_atom_site_fract_z
Si Si1 0.064865 0.215763 0.261520
Si Si2 0.935843 0.398218 0.334933
Si Si3 0.434971 0.216219 0.326063
Si Si4 0.371812 0.835274 0.524836
Si Si5 0.861173 0.430587 0.881687
Si Si6 0.361597 0.929671 0.201960
Si Si7 0.435067 0.601595 0.251612
Si Si8 0.873314 0.167340 0.060175
O O1 0.249959 0.185224 0.294105
O O2 0.046777 0.325522 0.270912
O O3 0.936101 0.165998 0.340386
O O4 0.022259 0.187767 0.142317
O O5 0.749794 0.388412 0.294251
O O6 0.955808 0.371824 0.456081
O O7 0.000000 0.500000 0.312637
O O8 0.477568 0.191410 0.446259
O O9 0.564342 0.165034 0.248947
O O10 0.452210 0.325727 0.314137
O O11 0.262547 0.917522 0.477827
O O12 0.452264 0.872464 0.630253
O O13 0.241575 0.754498 0.541729
O O14 0.754971 0.477763 0.788954
O O15 0.000000 0.500000 0.920971
O O16 0.249577 0.911217 0.101703
O O17 0.500000 0.000000 0.164775
O O18 0.500000 0.500000 0.273591
#
# Coordination Sequence:
#
# PCOD8169501 Si02
#       8
#     4   4   4   4   4   4   4   4
#     4  11  23  42  69  96 132 175 226 286 346 416
#     4  12  25  44  67  99 138 181 228 286 350 416
#     4  11  23  42  69  96 132 175 226 286 346 416
#     4  11  22  45  68  91 136 183 223 279 350 412
#     4  10  21  39  66  94 128 165 217 281 339 407
#     4  10  21  39  66  94 128 165 217 281 339 407
#     4  12  25  44  67  99 138 181 228 286 350 416
#     4  11  22  45  68  91 136 183 223 279 350 412
#
# _framework density 21.347259000000001
#
# number of rings (size 3 to 8) (size 9 to 14) (size 15 to 20)
#    0.000    1.000    5.000    2.250    0.000    8.000 
#    4.500    0.000    0.000    0.000    0.000    0.000 
#    0.000    0.000    0.000    0.000    0.000    0.000 
#
# Total GULP energy -396875.534586 kJ/mol
# GULP energy per Si atom -12402.360456 kJ/mol
# Density = 2.129867 g / cm^3
# Si number density = 21.347259 Si / 1000 Ang^3
#
#
#
# Elastic Constant Matrix: (Units=GPa)
#
#
# Indices 1 2 3 4 5 6 
#
# 1 108.6348 17.1596 40.9856 0.0000 0.0000 0.0000
# 2 17.1596 100.6178 29.4228 0.0000 0.0000 0.0000
# 3 40.9856 29.4228 115.1466 0.0000 0.0000 0.0000
# 4 0.0000 0.0000 0.0000 16.2009 0.0000 0.0000
# 5 0.0000 0.0000 0.0000 0.0000 34.6485 0.0000
# 6 0.0000 0.0000 0.0000 0.0000 0.0000 39.0254
#
#
#
# Elastic Compliance Matrix: (Units=1/GPa)
#
#
# Indices 1 2 3 4 5 6 
#
# 1 0.010688 -0.000768 -0.003608 0.000000 0.000000 0.000000
# 2 -0.000768 0.010796 -0.002485 0.000000 0.000000 0.000000
# 3 -0.003608 -0.002485 0.010604 0.000000 0.000000 0.000000
# 4 0.000000 0.000000 0.000000 0.061725 0.000000 0.000000
# 5 0.000000 0.000000 0.000000 0.000000 0.028861 0.000000
# 6 0.000000 0.000000 0.000000 0.000000 0.000000 0.025624
#
#
# Mechanical properties :
#
#
# Convention : Reuss Voigt Hill
#
# Bulk Modulus (GPa) = 54.44967 55.50390 54.97679
# Shear Modulus (GPa) = 29.73666 33.76370 31.75018
#
# Velocity S-wave (km/s) = 3.73634 3.98130 3.86076
# Velocity P-wave (km/s) = 6.64647 6.86959 6.75895
#
# Compressibility (1/GPa) = 0.01836558
#
# Stress axis : x y z
#
# Youngs Moduli (GPa) = 93.56596 92.62414 94.30451
#
# Poissons Ratio (x) = 0.07110 0.34026
# Poissons Ratio (y) = 0.07182 0.23439
# Poissons Ratio (z) = 0.33759 0.23022
#
# Static dielectric constant tensor:
#      x y z
#    x 3.925640 0.000000 0.000000 
#    y 0.000000 3.888070 0.000000 
#    z 0.000000 0.000000 4.371560 
# 
# 
# High freq. dielectric constant tensor:
#      x y z
#    x 1.837870 0.000000 0.000000 
#    y 0.000000 1.842700 0.000000 
#    z 0.000000 0.000000 1.833600 
# 
# From -- ./inp_files/3788.got.cif
#   From: 2010.03.12/outbox.cif.g09.slc.cpg/sg30_2_cif.got.tgz:3788.got - 2010.04.14 01:38:02.
