data_PCOD8169767
_publ_section_title
;
Structure prediction by ZEFSAII (Michael W. Deem and Ramdas Pophale) SiO2 
 PCOD8169767
Probable space group: P M N 21
;
_chemical_formula_sum "Si O2"
_cell_formula_units_Z 32
_cell_length_a 8.797034
_cell_length_b 14.654261
_cell_length_c 12.517763
_cell_angle_alpha 90.000000
_cell_angle_beta 90.000000
_cell_angle_gamma 90.000000
_cell_volume 1613.715303
_symmetry_space_group_name_H-M "P M N 21"
_symmetry_group_IT_number 31
_symmetry_cell_setting 'orthorhombic'
loop_
_space_group_symop_operation_xyz
x,y,z
1/2-x,-y,1/2+z
-x,y,z
1/2+x,-y,1/2+z
loop_
_atom_site_type_symbol
_atom_site_label
_atom_site_fract_x
_atom_site_fract_y
_atom_site_fract_z
Si Si1 0.819989 0.636222 0.808740
Si Si2 0.319112 0.129856 0.612347
Si Si3 0.829322 0.060530 0.038332
Si Si4 0.327969 0.840548 0.327276
Si Si5 0.819899 0.671256 0.047167
Si Si6 0.680748 0.753539 0.635753
Si Si7 0.678928 0.452420 0.744617
Si Si8 0.324347 0.322915 0.933764
O O1 0.753146 0.724879 0.748460
O O2 0.763193 0.548790 0.742989
O O3 0.000000 0.641485 0.804822
O O4 0.761599 0.635123 0.931875
O O5 0.500000 0.132998 0.626318
O O6 0.233991 0.113756 0.722214
O O7 0.262070 0.224316 0.559159
O O8 0.258230 0.040416 0.549524
O O9 0.754280 0.145558 0.104028
O O10 0.000000 0.055104 0.081989
O O11 0.822963 0.079577 0.913466
O O12 0.500000 0.802090 0.315994
O O13 0.212049 0.761120 0.357001
O O14 0.757720 0.609104 0.145534
O O15 0.000000 0.669022 0.051040
O O16 0.500000 0.752900 0.643277
O O17 0.726137 0.681404 0.542151
O O18 0.500000 0.467691 0.730098
O O19 0.715659 0.410347 0.861135
O O20 0.500000 0.321475 0.966539
#
# Coordination Sequence:
#
# PCOD8169767 Si02
#       8
#     4   4   4   4   4   4   4   4
#     4  11  24  39  58  87 118 157 200 239 292 360
#     4  10  18  36  61  82 110 155 199 243 291 350
#     4   8  18  34  56  82 111 152 197 234 290 350
#     4  10  19  33  52  83 118 149 189 243 299 349
#     4   9  20  39  60  84 115 149 192 242 295 347
#     4  10  21  39  58  83 122 158 191 243 301 348
#     4  10  21  39  60  85 113 148 192 243 300 350
#     4  10  19  35  61  86 109 146 198 245 290 352
#
# _framework density 19.830016000000001
#
# number of rings (size 3 to 8) (size 9 to 14) (size 15 to 20)
#    0.000    2.250    1.250    2.250    1.750    2.000 
#    0.000    6.875    0.000    0.000    0.000    0.000 
#    0.000    0.000    0.000    0.000    0.000    0.000 
#
# Total GULP energy -396604.573651 kJ/mol
# GULP energy per Si atom -12393.892927 kJ/mol
# Density = 1.978488 g / cm^3
# Si number density = 19.830016 Si / 1000 Ang^3
#
#
#
# Elastic Constant Matrix: (Units=GPa)
#
#
# Indices 1 2 3 4 5 6 
#
# 1 34.5021 25.2462 32.6274 0.0000 0.0000 0.0000
# 2 25.2462 126.1191 55.5635 0.0000 0.0000 0.0000
# 3 32.6274 55.5635 108.1187 0.0000 0.0000 0.0000
# 4 0.0000 0.0000 0.0000 22.6358 0.0000 0.0000
# 5 0.0000 0.0000 0.0000 0.0000 27.8923 0.0000
# 6 0.0000 0.0000 0.0000 0.0000 0.0000 21.7225
#
#
#
# Elastic Compliance Matrix: (Units=1/GPa)
#
#
# Indices 1 2 3 4 5 6 
#
# 1 0.041807 -0.003633 -0.010749 0.000000 0.000000 0.000000
# 2 -0.003633 0.010565 -0.004333 0.000000 0.000000 0.000000
# 3 -0.010749 -0.004333 0.014720 0.000000 0.000000 0.000000
# 4 0.000000 0.000000 0.000000 0.044178 0.000000 0.000000
# 5 0.000000 0.000000 0.000000 0.000000 0.035852 0.000000
# 6 0.000000 0.000000 0.000000 0.000000 0.000000 0.046035
#
#
# Mechanical properties :
#
#
# Convention : Reuss Voigt Hill
#
# Bulk Modulus (GPa) = 33.71405 55.06823 44.39114
# Shear Modulus (GPa) = 20.79208 24.80365 22.79786
#
# Velocity S-wave (km/s) = 3.24159 3.54052 3.39435
# Velocity P-wave (km/s) = 5.57216 6.67414 6.14789
#
# Compressibility (1/GPa) = 0.02966123
#
# Stress axis : x y z
#
# Youngs Moduli (GPa) = 23.91923 94.64880 67.93542
#
# Poissons Ratio (x) = 0.34387 0.73026
# Poissons Ratio (y) = 0.08690 0.29438
# Poissons Ratio (z) = 0.25711 0.41014
#
# Static dielectric constant tensor:
#      x y z
#    x 3.349200 0.000000 0.000000 
#    y 0.000000 3.754950 0.000000 
#    z 0.000000 0.000000 3.756300 
# 
# 
# High freq. dielectric constant tensor:
#      x y z
#    x 1.747900 0.000000 0.000000 
#    y 0.000000 1.774270 0.000000 
#    z 0.000000 0.000000 1.776760 
# 
# From -- ./inp_files/3576.got.cif
#   From: 2010.03.12/outbox.cif.g09.slc.cpg/sg31_2_cif.got.tgz:3576.got - 2010.04.14 01:42:59.
