data_PCOD8169189
_publ_section_title
;
Structure prediction by ZEFSAII (Michael W. Deem and Ramdas Pophale) SiO2 
 PCOD8169189
Probable space group: P C A 21
;
_chemical_formula_sum "Si O2"
_cell_formula_units_Z 32
_cell_length_a 12.461514
_cell_length_b 5.251847
_cell_length_c 21.683574
_cell_angle_alpha 90.000000
_cell_angle_beta 90.000000
_cell_angle_gamma 90.000000
_cell_volume 1419.102423
_symmetry_space_group_name_H-M "P C A 21"
_symmetry_group_IT_number 29
_symmetry_cell_setting 'orthorhombic'
loop_
_space_group_symop_operation_xyz
x,y,z
-x,-y,1/2+z
1/2-x,y,1/2+z
1/2+x,-y,z
loop_
_atom_site_type_symbol
_atom_site_label
_atom_site_fract_x
_atom_site_fract_y
_atom_site_fract_z
Si Si1 0.013027 0.827682 0.322710
Si Si2 0.956012 0.754841 0.095920
Si Si3 0.732156 0.298387 0.274671
Si Si4 0.090008 0.656735 0.869749
Si Si5 0.594999 0.612386 0.180916
Si Si6 0.082282 0.972748 0.712314
Si Si7 0.638025 0.226158 0.008402
Si Si8 0.277566 0.265295 0.567390
O O1 0.984960 0.595443 0.369300
O O2 0.140443 0.846621 0.313129
O O3 0.974892 0.098846 0.347337
O O4 0.955332 0.787499 0.255276
O O5 0.844545 0.632423 0.073733
O O6 0.030754 0.588240 0.139747
O O7 0.021408 0.851012 0.036258
O O8 0.916999 0.987613 0.138902
O O9 0.811368 0.418329 0.325338
O O10 0.680675 0.502951 0.229058
O O11 0.798442 0.105252 0.231768
O O12 0.134464 0.735935 0.935829
O O13 0.510149 0.761480 0.223357
O O14 0.664503 0.786827 0.133407
O O15 0.665767 0.501930 0.034061
O O16 0.718215 0.995699 0.027069
#
# Coordination Sequence:
#
# PCOD8169189 Si02
#       8
#     4   4   4   4   4   4   4   4
#     4  11  25  44  67 102 134 185 225 292 350 413
#     4  11  25  41  67 102 142 183 229 292 360 420
#     4  11  24  41  70 101 142 187 230 289 359 426
#     4  11  27  48  71  98 141 185 247 289 341 418
#     4  11  23  43  63 105 145 186 224 295 357 436
#     4  11  24  40  66 103 146 177 231 281 361 429
#     4  11  26  50  68 102 137 187 244 292 339 422
#     4  11  26  41  74  99 135 186 232 288 359 412
#
# _framework density 22.549464
#
# number of rings (size 3 to 8) (size 9 to 14) (size 15 to 20)
#    0.000    1.000    2.500    3.000    8.750    5.000 
#    0.000    0.000    0.000    0.000    0.000    0.000 
#    0.000    0.000    0.000    0.000    0.000    0.000 
#
# Total GULP energy -396634.518678 kJ/mol
# GULP energy per Si atom -12394.828709 kJ/mol
# Density = 2.249814 g / cm^3
# Si number density = 22.549464 Si / 1000 Ang^3
#
#
#
# Elastic Constant Matrix: (Units=GPa)
#
#
# Indices 1 2 3 4 5 6 
#
# 1 127.1280 28.3429 49.5422 0.0000 0.0000 0.0000
# 2 28.3429 98.4710 36.7304 0.0000 0.0000 0.0000
# 3 49.5422 36.7304 125.2767 0.0000 0.0000 0.0000
# 4 0.0000 0.0000 0.0000 32.6241 0.0000 0.0000
# 5 0.0000 0.0000 0.0000 0.0000 29.5218 0.0000
# 6 0.0000 0.0000 0.0000 0.0000 0.0000 19.3993
#
#
#
# Elastic Compliance Matrix: (Units=1/GPa)
#
#
# Indices 1 2 3 4 5 6 
#
# 1 0.009491 -0.001495 -0.003315 0.000000 0.000000 0.000000
# 2 -0.001495 0.011638 -0.002821 0.000000 0.000000 0.000000
# 3 -0.003315 -0.002821 0.010120 0.000000 0.000000 0.000000
# 4 0.000000 0.000000 0.000000 0.030652 0.000000 0.000000
# 5 0.000000 0.000000 0.000000 0.000000 0.033873 0.000000
# 6 0.000000 0.000000 0.000000 0.000000 0.000000 0.051548
#
#
# Mechanical properties :
#
#
# Convention : Reuss Voigt Hill
#
# Bulk Modulus (GPa) = 62.55017 64.45630 63.50323
# Shear Modulus (GPa) = 29.77704 32.05973 30.91839
#
# Velocity S-wave (km/s) = 3.63784 3.77470 3.70690
# Velocity P-wave (km/s) = 6.74125 6.90248 6.82234
#
# Compressibility (1/GPa) = 0.01598717
#
# Stress axis : x y z
#
# Youngs Moduli (GPa) = 105.35898 85.92646 98.81086
#
# Poissons Ratio (x) = 0.12849 0.32756
# Poissons Ratio (y) = 0.15755 0.27873
# Poissons Ratio (z) = 0.34927 0.24238
#
# Static dielectric constant tensor:
#      x y z
#    x 4.373880 0.000000 0.000000 
#    y 0.000000 3.862760 0.000000 
#    z 0.000000 0.000000 4.436860 
# 
# 
# High freq. dielectric constant tensor:
#      x y z
#    x 1.901150 0.000000 0.000000 
#    y 0.000000 1.879790 0.000000 
#    z 0.000000 0.000000 1.888390 
# 
# From -- ./inp_files/5528.got.cif
#   From: 2010.03.12/outbox.cif.g09.slc.cpg/sg29_3_cif.got.tgz:5528.got - 2010.04.14 03:43:10.
