data_PCOD8169660
_publ_section_title
;
Structure prediction by ZEFSAII (Michael W. Deem and Ramdas Pophale) SiO2 
 PCOD8169660
Probable space group: P N C 2
;
_chemical_formula_sum "Si O2"
_cell_formula_units_Z 24
_cell_length_a 12.691852
_cell_length_b 8.382538
_cell_length_c 9.438917
_cell_angle_alpha 90.000000
_cell_angle_beta 90.000000
_cell_angle_gamma 90.000000
_cell_volume 1004.205735
_symmetry_space_group_name_H-M "P N C 2"
_symmetry_group_IT_number 30
_symmetry_cell_setting 'orthorhombic'
loop_
_space_group_symop_operation_xyz
x,y,z
-x,-y,z
-x,1/2+y,1/2+z
x,1/2-y,1/2+z
loop_
_atom_site_type_symbol
_atom_site_label
_atom_site_fract_x
_atom_site_fract_y
_atom_site_fract_z
Si Si1 0.114156 0.346186 0.547300
Si Si2 0.987198 0.322479 0.267799
Si Si3 0.338851 0.870206 0.398027
Si Si4 0.208195 0.671579 0.630287
Si Si5 0.662293 0.786885 0.522993
Si Si6 0.537037 0.671524 0.293083
O O1 0.021717 0.316785 0.432315
O O2 0.064180 0.305611 0.697346
O O3 0.149045 0.530716 0.545249
O O4 0.212210 0.226729 0.532760
O O5 0.000000 0.500000 0.205470
O O6 0.867850 0.275994 0.231454
O O7 0.267407 0.777167 0.513041
O O8 0.286312 0.903971 0.245682
O O9 0.444097 0.773819 0.362265
O O10 0.368572 0.038377 0.466746
O O11 0.625294 0.650495 0.413841
O O12 0.597432 0.744710 0.663980
O O13 0.500000 0.500000 0.240627
#
# Coordination Sequence:
#
# PCOD8169660 Si02
#       6
#     4   4   4   4   4   4
#     4  12  26  45  68 100 137 180 229 285 347 415
#     4  12  25  44  68  98 136 179 228 284 345 413
#     4  12  25  45  72 104 141 185 236 293 354 422
#     4  12  25  45  72 104 141 185 236 293 354 422
#     4  12  26  45  68 100 137 180 229 285 347 415
#     4  12  25  44  68  98 136 179 228 284 345 413
#
# _framework density 23.899484000000001
#
# number of rings (size 3 to 8) (size 9 to 14) (size 15 to 20)
#    0.000    0.000    0.000   12.000    0.000    2.667 
#    0.000    0.000    0.000    0.000    0.000    0.000 
#    0.000    0.000    0.000    0.000    0.000    0.000 
#
# Total GULP energy -297569.451784 kJ/mol
# GULP energy per Si atom -12398.727158 kJ/mol
# Density = 2.384509 g / cm^3
# Si number density = 23.899484 Si / 1000 Ang^3
#
#
#
# Elastic Constant Matrix: (Units=GPa)
#
#
# Indices 1 2 3 4 5 6 
#
# 1 97.4500 26.3445 41.3358 0.0000 0.0000 0.0000
# 2 26.3445 78.8697 10.7929 0.0000 0.0000 0.0000
# 3 41.3358 10.7929 143.8997 0.0000 0.0000 0.0000
# 4 0.0000 0.0000 0.0000 31.7244 0.0000 0.0000
# 5 0.0000 0.0000 0.0000 0.0000 57.7970 0.0000
# 6 0.0000 0.0000 0.0000 0.0000 0.0000 45.0417
#
#
#
# Elastic Compliance Matrix: (Units=1/GPa)
#
#
# Indices 1 2 3 4 5 6 
#
# 1 0.012714 -0.003786 -0.003368 0.000000 0.000000 0.000000
# 2 -0.003786 0.013938 0.000042 0.000000 0.000000 0.000000
# 3 -0.003368 0.000042 0.007914 0.000000 0.000000 0.000000
# 4 0.000000 0.000000 0.000000 0.031521 0.000000 0.000000
# 5 0.000000 0.000000 0.000000 0.000000 0.017302 0.000000
# 6 0.000000 0.000000 0.000000 0.000000 0.000000 0.022202
#
#
# Mechanical properties :
#
#
# Convention : Reuss Voigt Hill
#
# Bulk Modulus (GPa) = 49.16020 53.01841 51.08931
# Shear Modulus (GPa) = 39.49611 43.02903 41.26257
#
# Velocity S-wave (km/s) = 4.06962 4.24774 4.15963
# Velocity P-wave (km/s) = 6.53427 6.80366 6.67032
#
# Compressibility (1/GPa) = 0.02034166
#
# Stress axis : x y z
#
# Youngs Moduli (GPa) = 78.65463 71.74663 126.36408
#
# Poissons Ratio (x) = 0.27162 0.42561
# Poissons Ratio (y) = 0.29777 -0.00532
# Poissons Ratio (z) = 0.26492 -0.00302
#
# Static dielectric constant tensor:
#      x y z
#    x 4.570400 0.000000 0.000000 
#    y 0.000000 5.319610 0.000000 
#    z 0.000000 0.000000 4.394100 
# 
# 
# High freq. dielectric constant tensor:
#      x y z
#    x 1.969110 0.000000 0.000000 
#    y 0.000000 1.946010 0.000000 
#    z 0.000000 0.000000 1.964870 
# 
# From -- ./inp_files/2621.got.cif
#   From: 2010.03.12/outbox.cif.g09.slc.cpg/sg30_2_cif.got.tgz:2621.got - 2010.04.14 01:38:02.
