data_PCOD8169050
_publ_section_title
;
Structure prediction by ZEFSAII (Michael W. Deem and Ramdas Pophale) SiO2 
 PCOD8169050
Probable space group: P C A 21
;
_chemical_formula_sum "Si O2"
_cell_formula_units_Z 28
_cell_length_a 8.979963
_cell_length_b 15.865990
_cell_length_c 9.343124
_cell_angle_alpha 90.000000
_cell_angle_beta 90.000000
_cell_angle_gamma 90.000000
_cell_volume 1331.170965
_symmetry_space_group_name_H-M "P C A 21"
_symmetry_group_IT_number 29
_symmetry_cell_setting 'orthorhombic'
loop_
_space_group_symop_operation_xyz
x,y,z
-x,-y,1/2+z
1/2-x,y,1/2+z
1/2+x,-y,z
loop_
_atom_site_type_symbol
_atom_site_label
_atom_site_fract_x
_atom_site_fract_y
_atom_site_fract_z
Si Si1 0.014597 0.883624 0.743640
Si Si2 0.514416 0.116509 0.049584
Si Si3 0.903330 0.568143 0.229962
Si Si4 0.749943 0.989486 0.646644
Si Si5 0.603290 0.269421 0.560089
Si Si6 0.102789 0.730324 0.232806
Si Si7 0.404144 0.431547 0.564456
O O1 0.032682 0.817292 0.616223
O O2 0.855891 0.929612 0.739463
O O3 0.146453 0.952172 0.745089
O O4 0.023018 0.836062 0.896548
O O5 0.356087 0.070060 0.053215
O O6 0.531292 0.183173 0.176688
O O7 0.646942 0.048402 0.048885
O O8 0.749221 0.575634 0.147889
O O9 0.880897 0.542758 0.397327
O O10 0.982252 0.657680 0.217297
O O11 0.998721 0.499555 0.146964
O O12 0.750334 0.295533 0.646204
O O13 0.649253 0.255151 0.396346
O O14 0.482056 0.341668 0.576033
#
# Coordination Sequence:
#
# PCOD8169050 Si02
#       7
#     4   4   4   4   4   4   4
#     4  11  23  41  65  92 128 172 218 272 327 386
#     4  11  23  41  65  92 128 172 218 272 327 386
#     4  11  25  45  71 103 136 174 215 266 321 389
#     4  10  24  40  62  96 126 166 222 272 330 384
#     4  11  25  43  65  96 132 171 218 268 325 386
#     4  11  25  43  65  96 132 171 218 268 325 386
#     4  11  25  45  71 103 136 174 215 266 321 389
#
# _framework density 21.034113000000001
#
# number of rings (size 3 to 8) (size 9 to 14) (size 15 to 20)
#    0.000    1.143    1.429    3.429    2.000   12.571 
#    0.000    0.000    0.000    0.000    0.000    0.000 
#    0.000    0.000    0.000    0.000    0.000    0.000 
#
# Total GULP energy -347204.811918 kJ/mol
# GULP energy per Si atom -12400.171854 kJ/mol
# Density = 2.098624 g / cm^3
# Si number density = 21.034113 Si / 1000 Ang^3
#
#
#
# Elastic Constant Matrix: (Units=GPa)
#
#
# Indices 1 2 3 4 5 6 
#
# 1 154.4536 58.5970 79.8805 0.0000 0.0000 0.0000
# 2 58.5970 93.6242 64.1767 0.0000 0.0000 0.0000
# 3 79.8805 64.1767 194.9761 0.0000 0.0000 0.0000
# 4 0.0000 0.0000 0.0000 30.1012 0.0000 0.0000
# 5 0.0000 0.0000 0.0000 0.0000 26.4711 0.0000
# 6 0.0000 0.0000 0.0000 0.0000 0.0000 25.7643
#
#
#
# Elastic Compliance Matrix: (Units=1/GPa)
#
#
# Indices 1 2 3 4 5 6 
#
# 1 0.009317 -0.004151 -0.002451 0.000000 0.000000 0.000000
# 2 -0.004151 0.015643 -0.003448 0.000000 0.000000 0.000000
# 3 -0.002451 -0.003448 0.007268 0.000000 0.000000 0.000000
# 4 0.000000 0.000000 0.000000 0.033221 0.000000 0.000000
# 5 0.000000 0.000000 0.000000 0.000000 0.037777 0.000000
# 6 0.000000 0.000000 0.000000 0.000000 0.000000 0.038813
#
#
# Mechanical properties :
#
#
# Convention : Reuss Voigt Hill
#
# Bulk Modulus (GPa) = 82.45851 94.26246 88.36049
# Shear Modulus (GPa) = 30.08761 32.49397 31.29079
#
# Velocity S-wave (km/s) = 3.78619 3.93469 3.86115
# Velocity P-wave (km/s) = 7.64206 8.09653 7.87257
#
# Compressibility (1/GPa) = 0.01212731
#
# Stress axis : x y z
#
# Youngs Moduli (GPa) = 107.33317 63.92743 137.59368
#
# Poissons Ratio (x) = 0.26538 0.33719
# Poissons Ratio (y) = 0.44557 0.47443
# Poissons Ratio (z) = 0.26303 0.22043
#
# Static dielectric constant tensor:
#      x y z
#    x 4.497430 0.000000 0.000000 
#    y 0.000000 3.805720 0.000000 
#    z 0.000000 0.000000 4.524170 
# 
# 
# High freq. dielectric constant tensor:
#      x y z
#    x 1.841120 0.000000 0.000000 
#    y 0.000000 1.824720 0.000000 
#    z 0.000000 0.000000 1.837150 
# 
# From -- ./inp_files/1188.got.cif
#   From: 2010.03.12/outbox.cif.g09.slc.cpg/sg29_1_cif.got.tgz:1188.got - 2010.04.14 03:43:10.
