data_PCOD8169498
_publ_section_title
;
Structure prediction by ZEFSAII (Michael W. Deem and Ramdas Pophale) SiO2 
 PCOD8169498
Probable space group: P N C 2
;
_chemical_formula_sum "Si O2"
_cell_formula_units_Z 32
_cell_length_a 12.043620
_cell_length_b 9.974683
_cell_length_c 12.798864
_cell_angle_alpha 90.000000
_cell_angle_beta 90.000000
_cell_angle_gamma 90.000000
_cell_volume 1537.544064
_symmetry_space_group_name_H-M "P N C 2"
_symmetry_group_IT_number 30
_symmetry_cell_setting 'orthorhombic'
loop_
_space_group_symop_operation_xyz
x,y,z
-x,-y,z
-x,1/2+y,1/2+z
x,1/2-y,1/2+z
loop_
_atom_site_type_symbol
_atom_site_label
_atom_site_fract_x
_atom_site_fract_y
_atom_site_fract_z
Si Si1 0.374300 0.484847 0.208490
Si Si2 0.615481 0.704046 0.793517
Si Si3 0.987494 0.154528 0.229809
Si Si4 0.826538 0.347687 0.904410
Si Si5 0.736370 0.602988 0.995735
Si Si6 0.640818 0.220501 0.251083
Si Si7 0.795476 0.147187 0.083655
Si Si8 0.206882 0.154804 0.126698
O O1 0.500000 0.500000 0.174843
O O2 0.357676 0.363508 0.290795
O O3 0.317050 0.461493 0.097925
O O4 0.335554 0.620715 0.265380
O O5 0.484882 0.677276 0.775462
O O6 0.681366 0.640716 0.695307
O O7 0.649411 0.637808 0.903325
O O8 0.109919 0.211876 0.204941
O O9 0.945423 0.177285 0.348441
O O10 0.893143 0.214534 0.153565
O O11 0.000000 0.000000 0.205720
O O12 0.723883 0.362110 0.824573
O O13 0.828362 0.493670 0.959889
O O14 0.801927 0.218097 0.972883
O O15 0.790601 0.743004 0.029910
O O16 0.674236 0.179268 0.132771
O O17 0.815742 0.988352 0.073314
#
# Coordination Sequence:
#
# PCOD8169498 Si02
#       8
#     4   4   4   4   4   4   4   4
#     4   9  20  38  57  86 132 162 199 265 306 354
#     4  10  22  37  61  91 122 171 206 248 313 370
#     4   9  20  41  62  84 121 157 202 263 311 360
#     4  11  23  36  68  92 118 161 214 252 311 377
#     4  11  22  37  63  94 120 169 212 252 306 386
#     4  10  21  39  61  90 130 160 208 263 306 359
#     4  10  21  39  63  90 119 164 201 255 313 367
#     4  10  23  42  61  86 133 158 202 264 313 364
#
# _framework density 20.812411999999998
#
# number of rings (size 3 to 8) (size 9 to 14) (size 15 to 20)
#    0.000    2.000    1.250    2.250    3.500    4.500 
#    0.000    0.000    0.000    1.500    0.000    0.000 
#    0.000    0.000    0.000    0.000    0.000    0.000 
#
# Total GULP energy -396573.649401 kJ/mol
# GULP energy per Si atom -12392.926544 kJ/mol
# Density = 2.076504 g / cm^3
# Si number density = 20.812412 Si / 1000 Ang^3
#
#
#
# Elastic Constant Matrix: (Units=GPa)
#
#
# Indices 1 2 3 4 5 6 
#
# 1 95.2853 23.7840 34.0056 0.0000 0.0000 0.0000
# 2 23.7840 86.6845 22.5032 0.0000 0.0000 0.0000
# 3 34.0056 22.5032 75.4360 0.0000 0.0000 0.0000
# 4 0.0000 0.0000 0.0000 29.2766 0.0000 0.0000
# 5 0.0000 0.0000 0.0000 0.0000 28.6242 0.0000
# 6 0.0000 0.0000 0.0000 0.0000 0.0000 22.9563
#
#
#
# Elastic Compliance Matrix: (Units=1/GPa)
#
#
# Indices 1 2 3 4 5 6 
#
# 1 0.012882 -0.002197 -0.005151 0.000000 0.000000 0.000000
# 2 -0.002197 0.012879 -0.002852 0.000000 0.000000 0.000000
# 3 -0.005151 -0.002852 0.016429 0.000000 0.000000 0.000000
# 4 0.000000 0.000000 0.000000 0.034157 0.000000 0.000000
# 5 0.000000 0.000000 0.000000 0.000000 0.034936 0.000000
# 6 0.000000 0.000000 0.000000 0.000000 0.000000 0.043561
#
#
# Mechanical properties :
#
#
# Convention : Reuss Voigt Hill
#
# Bulk Modulus (GPa) = 45.89314 46.44349 46.16831
# Shear Modulus (GPa) = 27.39622 27.97896 27.68759
#
# Velocity S-wave (km/s) = 3.63208 3.67050 3.65134
# Velocity P-wave (km/s) = 6.29984 6.35037 6.32516
#
# Compressibility (1/GPa) = 0.02178975
#
# Stress axis : x y z
#
# Youngs Moduli (GPa) = 77.62967 77.64479 60.86747
#
# Poissons Ratio (x) = 0.17059 0.31356
# Poissons Ratio (y) = 0.17056 0.17357
# Poissons Ratio (z) = 0.39991 0.22141
#
# Static dielectric constant tensor:
#      x y z
#    x 4.045800 0.000000 0.000000 
#    y 0.000000 3.953890 0.000000 
#    z 0.000000 0.000000 3.641440 
# 
# 
# High freq. dielectric constant tensor:
#      x y z
#    x 1.810400 0.000000 0.000000 
#    y 0.000000 1.818880 0.000000 
#    z 0.000000 0.000000 1.804070 
# 
# From -- ./inp_files/4152.got.cif
#   From: 2010.03.12/outbox.cif.g09.slc.cpg/sg30_3_cif.got.tgz:4152.got - 2010.04.14 01:38:02.
