data_PCOD8169245
_publ_section_title
;
Structure prediction by ZEFSAII (Michael W. Deem and Ramdas Pophale) SiO2 
 PCOD8169245
Probable space group: P C A 21
;
_chemical_formula_sum "Si O2"
_cell_formula_units_Z 32
_cell_length_a 10.771167
_cell_length_b 15.258039
_cell_length_c 8.926952
_cell_angle_alpha 90.000000
_cell_angle_beta 90.000000
_cell_angle_gamma 90.000000
_cell_volume 1467.116764
_symmetry_space_group_name_H-M "P C A 21"
_symmetry_group_IT_number 29
_symmetry_cell_setting 'orthorhombic'
loop_
_space_group_symop_operation_xyz
x,y,z
-x,-y,1/2+z
1/2-x,y,1/2+z
1/2+x,-y,z
loop_
_atom_site_type_symbol
_atom_site_label
_atom_site_fract_x
_atom_site_fract_y
_atom_site_fract_z
Si Si1 0.624839 0.032585 0.193890
Si Si2 0.250812 0.344158 0.806784
Si Si3 0.865539 0.476005 0.413816
Si Si4 0.354295 0.768087 0.651973
Si Si5 0.365531 0.039604 0.026976
Si Si6 0.675738 0.325745 0.453944
Si Si7 0.877715 0.758535 0.068521
Si Si8 0.021397 0.411382 0.141126
O O1 0.638801 0.135884 0.223458
O O2 0.494593 0.011938 0.108792
O O3 0.622768 0.983768 0.352275
O O4 0.744770 0.006372 0.096848
O O5 0.180169 0.432129 0.849513
O O6 0.159250 0.271542 0.736262
O O7 0.349439 0.366180 0.678611
O O8 0.316445 0.305145 0.950354
O O9 0.753500 0.415510 0.469500
O O10 0.942310 0.425189 0.289331
O O11 0.953898 0.496105 0.556491
O O12 0.239580 0.755819 0.539065
O O13 0.474725 0.748945 0.551542
O O14 0.343337 0.696595 0.781798
O O15 0.337476 0.142070 0.041273
O O16 0.543965 0.342840 0.530121
#
# Coordination Sequence:
#
# PCOD8169245 Si02
#       8
#     4   4   4   4   4   4   4   4
#     4  11  24  47  74 105 142 184 232 289 357 430
#     4  12  25  46  65 100 135 179 230 279 342 398
#     4  12  26  44  68  94 136 180 228 282 340 406
#     4  11  26  45  70 101 138 176 228 285 338 413
#     4  11  24  47  74 105 142 184 232 289 357 430
#     4  12  25  46  65 100 135 179 230 279 342 398
#     4  11  26  45  70 101 138 176 228 285 338 413
#     4  12  26  42  68  94 130 182 224 284 336 402
#
# _framework density 21.811485999999999
#
# number of rings (size 3 to 8) (size 9 to 14) (size 15 to 20)
#    0.000    0.500    2.500    5.250    5.250    2.000 
#    4.500    0.000    0.000    0.000    0.000    0.000 
#    0.000    0.000    0.000    0.000    0.000    0.000 
#
# Total GULP energy -396962.718034 kJ/mol
# GULP energy per Si atom -12405.084939 kJ/mol
# Density = 2.176184 g / cm^3
# Si number density = 21.811486 Si / 1000 Ang^3
#
#
#
# Elastic Constant Matrix: (Units=GPa)
#
#
# Indices 1 2 3 4 5 6 
#
# 1 76.5688 13.9220 16.3642 0.0000 0.0000 0.0000
# 2 13.9220 78.3183 11.7458 0.0000 0.0000 0.0000
# 3 16.3642 11.7458 86.1852 0.0000 0.0000 0.0000
# 4 0.0000 0.0000 0.0000 35.4739 0.0000 0.0000
# 5 0.0000 0.0000 0.0000 0.0000 35.7458 0.0000
# 6 0.0000 0.0000 0.0000 0.0000 0.0000 31.8974
#
#
#
# Elastic Compliance Matrix: (Units=1/GPa)
#
#
# Indices 1 2 3 4 5 6 
#
# 1 0.013951 -0.002126 -0.002359 0.000000 0.000000 0.000000
# 2 -0.002126 0.013359 -0.001417 0.000000 0.000000 0.000000
# 3 -0.002359 -0.001417 0.012244 0.000000 0.000000 0.000000
# 4 0.000000 0.000000 0.000000 0.028190 0.000000 0.000000
# 5 0.000000 0.000000 0.000000 0.000000 0.027975 0.000000
# 6 0.000000 0.000000 0.000000 0.000000 0.000000 0.031351
#
#
# Mechanical properties :
#
#
# Convention : Reuss Voigt Hill
#
# Bulk Modulus (GPa) = 36.03687 36.12626 36.08156
# Shear Modulus (GPa) = 33.75561 33.89277 33.82419
#
# Velocity S-wave (km/s) = 3.93823 3.94622 3.94223
# Velocity P-wave (km/s) = 6.10225 6.11249 6.10737
#
# Compressibility (1/GPa) = 0.02774936
#
# Stress axis : x y z
#
# Youngs Moduli (GPa) = 71.67984 74.85666 81.67295
#
# Poissons Ratio (x) = 0.15916 0.19268
# Poissons Ratio (y) = 0.15240 0.11572
# Poissons Ratio (z) = 0.16910 0.10607
#
# Static dielectric constant tensor:
#      x y z
#    x 4.186430 0.000000 0.000000 
#    y 0.000000 3.994580 0.000000 
#    z 0.000000 0.000000 4.018300 
# 
# 
# High freq. dielectric constant tensor:
#      x y z
#    x 1.873990 0.000000 0.000000 
#    y 0.000000 1.857690 0.000000 
#    z 0.000000 0.000000 1.871920 
# 
# From -- ./inp_files/1550.got.cif
#   From: 2010.03.12/outbox.cif.g09.slc.cpg/sg29_1_cif.got.tgz:1550.got - 2010.04.14 03:43:10.
