data_PCOD8169259
_publ_section_title
;
Structure prediction by ZEFSAII (Michael W. Deem and Ramdas Pophale) SiO2 
 PCOD8169259
Probable space group: P C A 21
;
_chemical_formula_sum "Si O2"
_cell_formula_units_Z 32
_cell_length_a 12.121020
_cell_length_b 10.988929
_cell_length_c 10.401220
_cell_angle_alpha 90.000000
_cell_angle_beta 90.000000
_cell_angle_gamma 90.000000
_cell_volume 1385.411594
_symmetry_space_group_name_H-M "P C A 21"
_symmetry_group_IT_number 29
_symmetry_cell_setting 'orthorhombic'
loop_
_space_group_symop_operation_xyz
x,y,z
-x,-y,1/2+z
1/2-x,y,1/2+z
1/2+x,-y,z
loop_
_atom_site_type_symbol
_atom_site_label
_atom_site_fract_x
_atom_site_fract_y
_atom_site_fract_z
Si Si1 0.184187 0.367875 0.901430
Si Si2 0.727126 0.004254 0.776837
Si Si3 0.667061 0.875654 0.035018
Si Si4 0.424872 0.357037 0.789740
Si Si5 0.389679 0.628491 0.482824
Si Si6 0.312005 0.773530 0.910518
Si Si7 0.033771 0.620113 0.250302
Si Si8 0.449674 0.855470 0.141491
O O1 0.297522 0.343442 0.826508
O O2 0.174446 0.499178 0.969929
O O3 0.091919 0.350839 0.789362
O O4 0.170647 0.271217 0.018090
O O5 0.812640 0.113654 0.810283
O O6 0.604638 0.052372 0.742502
O O7 0.767738 0.919103 0.661269
O O8 0.720325 0.928325 0.906957
O O9 0.539566 0.920438 0.048630
O O10 0.491048 0.379292 0.920476
O O11 0.447186 0.479677 0.710468
O O12 0.474812 0.243383 0.714133
O O13 0.313951 0.728872 0.414085
O O14 0.418420 0.683002 0.622845
O O15 0.391147 0.664801 0.867584
O O16 0.349278 0.805157 0.055434
#
# Coordination Sequence:
#
# PCOD8169259 Si02
#       8
#     4   4   4   4   4   4   4   4
#     4  11  25  49  69 115 154 199 248 317 395 464
#     4  12  28  50  75 105 146 204 262 319 380 462
#     4  12  28  48  74 107 150 201 258 324 384 458
#     4  11  25  45  72 112 154 193 246 312 395 465
#     4  11  25  43  77 109 148 199 249 311 389 474
#     4  12  24  51  74 110 142 197 255 310 385 464
#     4  11  25  43  75 111 149 195 244 312 392 464
#     4  12  26  47  76 105 151 190 256 321 386 459
#
# _framework density 23.097829000000001
#
# number of rings (size 3 to 8) (size 9 to 14) (size 15 to 20)
#    0.000    0.500    5.000    2.250    3.500    4.000 
#    0.000    0.000    0.000    0.000    0.000    0.000 
#    0.000    0.000    0.000    0.000    0.000    0.000 
#
# Total GULP energy -396703.956996 kJ/mol
# GULP energy per Si atom -12396.998656 kJ/mol
# Density = 2.304526 g / cm^3
# Si number density = 23.097829 Si / 1000 Ang^3
#
#
#
# Elastic Constant Matrix: (Units=GPa)
#
#
# Indices 1 2 3 4 5 6 
#
# 1 141.6959 35.5185 32.6605 0.0000 0.0000 0.0000
# 2 35.5185 89.4573 42.5369 0.0000 0.0000 0.0000
# 3 32.6605 42.5369 108.6733 0.0000 0.0000 0.0000
# 4 0.0000 0.0000 0.0000 33.4181 0.0000 0.0000
# 5 0.0000 0.0000 0.0000 0.0000 41.9404 0.0000
# 6 0.0000 0.0000 0.0000 0.0000 0.0000 34.9854
#
#
#
# Elastic Compliance Matrix: (Units=1/GPa)
#
#
# Indices 1 2 3 4 5 6 
#
# 1 0.008014 -0.002502 -0.001429 0.000000 0.000000 0.000000
# 2 -0.002502 0.014516 -0.004930 0.000000 0.000000 0.000000
# 3 -0.001429 -0.004930 0.011561 0.000000 0.000000 0.000000
# 4 0.000000 0.000000 0.000000 0.029924 0.000000 0.000000
# 5 0.000000 0.000000 0.000000 0.000000 0.023843 0.000000
# 6 0.000000 0.000000 0.000000 0.000000 0.000000 0.028583
#
#
# Mechanical properties :
#
#
# Convention : Reuss Voigt Hill
#
# Bulk Modulus (GPa) = 61.09238 62.36202 61.72720
# Shear Modulus (GPa) = 35.81129 37.34282 36.57706
#
# Velocity S-wave (km/s) = 3.94181 4.02521 3.98373
# Velocity P-wave (km/s) = 6.87197 6.97573 6.92404
#
# Compressibility (1/GPa) = 0.01636865
#
# Stress axis : x y z
#
# Youngs Moduli (GPa) = 124.78122 68.88841 86.49763
#
# Poissons Ratio (x) = 0.17239 0.12361
# Poissons Ratio (y) = 0.31225 0.42642
# Poissons Ratio (z) = 0.17832 0.33961
#
# Static dielectric constant tensor:
#      x y z
#    x 4.256890 0.000000 0.000000 
#    y 0.000000 4.290210 0.000000 
#    z 0.000000 0.000000 4.104330 
# 
# 
# High freq. dielectric constant tensor:
#      x y z
#    x 1.921870 0.000000 0.000000 
#    y 0.000000 1.910900 0.000000 
#    z 0.000000 0.000000 1.921920 
# 
# From -- ./inp_files/3267.got.cif
#   From: 2010.03.12/outbox.cif.g09.slc.cpg/sg29_2_cif.got.tgz:3267.got - 2010.04.14 03:43:10.
