data_PCOD8169112
_publ_section_title
;
Structure prediction by ZEFSAII (Michael W. Deem and Ramdas Pophale) SiO2 
 PCOD8169112
Probable space group: P C A 21
;
_chemical_formula_sum "Si O2"
_cell_formula_units_Z 28
_cell_length_a 8.909537
_cell_length_b 5.061222
_cell_length_c 25.455043
_cell_angle_alpha 90.000000
_cell_angle_beta 90.000000
_cell_angle_gamma 90.000000
_cell_volume 1147.847937
_symmetry_space_group_name_H-M "P C A 21"
_symmetry_group_IT_number 29
_symmetry_cell_setting 'orthorhombic'
loop_
_space_group_symop_operation_xyz
x,y,z
-x,-y,1/2+z
1/2-x,y,1/2+z
1/2+x,-y,z
loop_
_atom_site_type_symbol
_atom_site_label
_atom_site_fract_x
_atom_site_fract_y
_atom_site_fract_z
Si Si1 0.085318 0.844362 0.513930
Si Si2 0.414074 0.218657 0.107881
Si Si3 0.628817 0.770746 0.303599
Si Si4 0.083854 0.194998 0.424654
Si Si5 0.247233 0.713465 0.146440
Si Si6 0.295667 0.718480 0.265263
Si Si7 0.160188 0.505245 0.983164
O O1 0.249206 0.711984 0.520166
O O2 0.946965 0.645195 0.525768
O O3 0.073479 0.113550 0.547804
O O4 0.064196 0.909472 0.451998
O O5 0.326034 0.497129 0.108466
O O6 0.573475 0.261572 0.134093
O O7 0.326080 0.996169 0.140348
O O8 0.601022 0.853178 0.363385
O O9 0.472725 0.733026 0.273929
O O10 0.722263 0.499252 0.303330
O O11 0.722690 0.997313 0.274920
O O12 0.229701 0.314967 0.452054
O O13 0.935354 0.360747 0.436955
O O14 0.265830 0.620432 0.206190
#
# Coordination Sequence:
#
# PCOD8169112 Si02
#       7
#     4   4   4   4   4   4   4
#     4  11  27  44  72 105 152 197 253 306 377 459
#     4  12  29  48  80 110 150 200 255 311 390 453
#     4  12  27  44  79 112 153 201 252 309 391 450
#     4  11  25  42  71 103 151 193 250 303 376 456
#     4  12  27  52  79 112 151 199 260 322 380 449
#     4  12  26  50  77 113 153 198 258 322 379 449
#     4  10  25  46  68  99 158 194 248 309 369 442
#
# _framework density 24.393476
#
# number of rings (size 3 to 8) (size 9 to 14) (size 15 to 20)
#    0.000    0.571    0.000    6.000   16.000    0.000 
#    0.000    0.000    0.000    0.000    0.000    0.000 
#    0.000    0.000    0.000    0.000    0.000    0.000 
#
# Total GULP energy -347386.647163 kJ/mol
# GULP energy per Si atom -12406.665970 kJ/mol
# Density = 2.433796 g / cm^3
# Si number density = 24.393476 Si / 1000 Ang^3
#
#
#
# Elastic Constant Matrix: (Units=GPa)
#
#
# Indices 1 2 3 4 5 6 
#
# 1 140.0129 44.2410 -4.4176 0.0000 0.0000 0.0000
# 2 44.2410 81.5586 -10.0454 0.0000 0.0000 0.0000
# 3 -4.4176 -10.0454 86.7623 0.0000 0.0000 0.0000
# 4 0.0000 0.0000 0.0000 73.6865 0.0000 0.0000
# 5 0.0000 0.0000 0.0000 0.0000 24.1827 0.0000
# 6 0.0000 0.0000 0.0000 0.0000 0.0000 30.4474
#
#
#
# Elastic Compliance Matrix: (Units=1/GPa)
#
#
# Indices 1 2 3 4 5 6 
#
# 1 0.008621 -0.004689 -0.000104 0.000000 0.000000 0.000000
# 2 -0.004689 0.014989 0.001497 0.000000 0.000000 0.000000
# 3 -0.000104 0.001497 0.011694 0.000000 0.000000 0.000000
# 4 0.000000 0.000000 0.000000 0.013571 0.000000 0.000000
# 5 0.000000 0.000000 0.000000 0.000000 0.041352 0.000000
# 6 0.000000 0.000000 0.000000 0.000000 0.000000 0.032844
#
#
# Mechanical properties :
#
#
# Convention : Reuss Voigt Hill
#
# Bulk Modulus (GPa) = 34.83016 40.87664 37.85340
# Shear Modulus (GPa) = 35.91118 44.23369 40.07244
#
# Velocity S-wave (km/s) = 3.84104 4.26295 4.05748
# Velocity P-wave (km/s) = 5.82932 6.40499 6.12392
#
# Compressibility (1/GPa) = 0.02871075
#
# Stress axis : x y z
#
# Youngs Moduli (GPa) = 116.00225 66.71576 85.51586
#
# Poissons Ratio (x) = 0.31283 0.00889
# Poissons Ratio (y) = 0.54393 -0.12799
# Poissons Ratio (z) = 0.01206 -0.09985
#
# Static dielectric constant tensor:
#      x y z
#    x 4.636470 0.000000 0.000000 
#    y 0.000000 4.647480 0.000000 
#    z 0.000000 0.000000 4.345450 
# 
# 
# High freq. dielectric constant tensor:
#      x y z
#    x 1.994720 0.000000 0.000000 
#    y 0.000000 1.984490 0.000000 
#    z 0.000000 0.000000 1.968090 
# 
# From -- ./inp_files/5769.got.cif
#   From: 2010.03.12/outbox.cif.g09.slc.cpg/sg29_3_cif.got.tgz:5769.got - 2010.04.14 03:43:10.
