data_PCOD8169156
_publ_section_title
;
Structure prediction by ZEFSAII (Michael W. Deem and Ramdas Pophale) SiO2 
 PCOD8169156
Probable space group: P C A 21
;
_chemical_formula_sum "Si O2"
_cell_formula_units_Z 32
_cell_length_a 12.101376
_cell_length_b 10.579496
_cell_length_c 11.489998
_cell_angle_alpha 90.000000
_cell_angle_beta 90.000000
_cell_angle_gamma 90.000000
_cell_volume 1471.023758
_symmetry_space_group_name_H-M "P C A 21"
_symmetry_group_IT_number 29
_symmetry_cell_setting 'orthorhombic'
loop_
_space_group_symop_operation_xyz
x,y,z
-x,-y,1/2+z
1/2-x,y,1/2+z
1/2+x,-y,z
loop_
_atom_site_type_symbol
_atom_site_label
_atom_site_fract_x
_atom_site_fract_y
_atom_site_fract_z
Si Si1 0.281213 0.332408 0.330610
Si Si2 0.939742 0.749073 0.719187
Si Si3 0.565021 0.499749 0.687043
Si Si4 0.288520 0.542296 0.981181
Si Si5 0.085755 0.876425 0.902109
Si Si6 0.896675 0.307518 0.603800
Si Si7 0.544681 0.840499 0.955184
Si Si8 0.179770 0.778422 0.335377
O O1 0.189179 0.260348 0.254087
O O2 0.331853 0.453992 0.263695
O O3 0.225114 0.396274 0.443638
O O4 0.374545 0.234117 0.368352
O O5 0.947794 0.784814 0.584425
O O6 0.999366 0.615075 0.747699
O O7 0.001348 0.856640 0.794796
O O8 0.603738 0.449066 0.561901
O O9 0.492305 0.624384 0.674609
O O10 0.307542 0.632157 0.871050
O O11 0.181855 0.584599 0.053163
O O12 0.211736 0.858006 0.863423
O O13 0.079469 0.014470 0.956327
O O14 0.052303 0.777857 0.002434
O O15 0.834384 0.216821 0.695974
O O16 0.420571 0.837441 0.907400
#
# Coordination Sequence:
#
# PCOD8169156 Si02
#       8
#     4   4   4   4   4   4   4   4
#     4  12  26  42  70 109 145 190 240 301 374 434
#     4  12  27  49  73 109 149 188 243 310 371 432
#     4  12  21  41  70 104 145 185 231 302 371 438
#     4  11  22  39  68 104 141 184 234 298 368 437
#     4  11  29  46  75 102 141 199 247 298 362 438
#     4  11  23  42  70 103 140 186 241 293 369 433
#     4  12  28  49  71 106 146 196 249 303 363 444
#     4  11  24  48  71 103 141 190 243 295 368 436
#
# _framework density 21.753558000000002
#
# number of rings (size 3 to 8) (size 9 to 14) (size 15 to 20)
#    0.000    0.500    2.500    6.750    5.250    0.000 
#    0.000    0.000    0.000    0.000    0.000    0.000 
#    0.000    0.000    0.000    0.000    0.000    0.000 
#
# Total GULP energy -396990.190400 kJ/mol
# GULP energy per Si atom -12405.943450 kJ/mol
# Density = 2.170405 g / cm^3
# Si number density = 21.753558 Si / 1000 Ang^3
#
#
#
# Elastic Constant Matrix: (Units=GPa)
#
#
# Indices 1 2 3 4 5 6 
#
# 1 112.0395 36.8420 37.2412 0.0000 0.0000 0.0000
# 2 36.8420 97.7421 22.6830 0.0000 0.0000 0.0000
# 3 37.2412 22.6830 104.9171 0.0000 0.0000 0.0000
# 4 0.0000 0.0000 0.0000 26.4316 0.0000 0.0000
# 5 0.0000 0.0000 0.0000 0.0000 32.6402 0.0000
# 6 0.0000 0.0000 0.0000 0.0000 0.0000 28.4910
#
#
#
# Elastic Compliance Matrix: (Units=1/GPa)
#
#
# Indices 1 2 3 4 5 6 
#
# 1 0.011124 -0.003450 -0.003203 0.000000 0.000000 0.000000
# 2 -0.003450 0.011841 -0.001336 0.000000 0.000000 0.000000
# 3 -0.003203 -0.001336 0.010957 0.000000 0.000000 0.000000
# 4 0.000000 0.000000 0.000000 0.037834 0.000000 0.000000
# 5 0.000000 0.000000 0.000000 0.000000 0.030637 0.000000
# 6 0.000000 0.000000 0.000000 0.000000 0.000000 0.035099
#
#
# Mechanical properties :
#
#
# Convention : Reuss Voigt Hill
#
# Bulk Modulus (GPa) = 55.72204 56.47012 56.09608
# Shear Modulus (GPa) = 31.35768 32.04141 31.69954
#
# Velocity S-wave (km/s) = 3.80082 3.84204 3.82149
# Velocity P-wave (km/s) = 6.70317 6.75996 6.73162
#
# Compressibility (1/GPa) = 0.01794622
#
# Stress axis : x y z
#
# Youngs Moduli (GPa) = 89.89199 84.45020 91.26621
#
# Poissons Ratio (x) = 0.29134 0.29231
# Poissons Ratio (y) = 0.31012 0.12189
# Poissons Ratio (z) = 0.28791 0.11278
#
# Static dielectric constant tensor:
#      x y z
#    x 4.214140 0.000000 0.000000 
#    y 0.000000 3.716130 0.000000 
#    z 0.000000 0.000000 3.977070 
# 
# 
# High freq. dielectric constant tensor:
#      x y z
#    x 1.865820 0.000000 0.000000 
#    y 0.000000 1.843520 0.000000 
#    z 0.000000 0.000000 1.866650 
# 
# From -- ./inp_files/3258.got.cif
#   From: 2010.03.12/outbox.cif.g09.slc.cpg/sg29_2_cif.got.tgz:3258.got - 2010.04.14 03:43:10.
