data_PCOD8169254
_publ_section_title
;
Structure prediction by ZEFSAII (Michael W. Deem and Ramdas Pophale) SiO2 
 PCOD8169254
Probable space group: P C A 21
;
_chemical_formula_sum "Si O2"
_cell_formula_units_Z 28
_cell_length_a 8.276559
_cell_length_b 11.600576
_cell_length_c 12.587661
_cell_angle_alpha 90.000000
_cell_angle_beta 90.000000
_cell_angle_gamma 90.000000
_cell_volume 1208.577229
_symmetry_space_group_name_H-M "P C A 21"
_symmetry_group_IT_number 29
_symmetry_cell_setting 'orthorhombic'
loop_
_space_group_symop_operation_xyz
x,y,z
-x,-y,1/2+z
1/2-x,y,1/2+z
1/2+x,-y,z
loop_
_atom_site_type_symbol
_atom_site_label
_atom_site_fract_x
_atom_site_fract_y
_atom_site_fract_z
Si Si1 0.228202 0.633590 0.870870
Si Si2 0.752180 0.095909 0.144433
Si Si3 0.442615 0.070502 0.267220
Si Si4 0.710529 0.744116 0.358083
Si Si5 0.559855 0.569702 0.961195
Si Si6 0.418994 0.865314 0.432128
Si Si7 0.041812 0.680373 0.679007
O O1 0.412409 0.596384 0.882609
O O2 0.172198 0.608704 0.749144
O O3 0.110153 0.564566 0.952879
O O4 0.208254 0.769372 0.892542
O O5 0.623632 0.111679 0.240241
O O6 0.874507 0.203279 0.135159
O O7 0.850026 0.976650 0.162044
O O8 0.648552 0.078699 0.038348
O O9 0.357917 0.176988 0.322488
O O10 0.444557 0.962023 0.344692
O O11 0.595481 0.807101 0.444222
O O12 0.610286 0.709865 0.253255
O O13 0.781569 0.634838 0.419078
O O14 0.515208 0.601901 0.081499
#
# Coordination Sequence:
#
# PCOD8169254 Si02
#       7
#     4   4   4   4   4   4   4
#     4  11  24  50  72 111 143 190 248 309 372 448
#     4  12  24  44  73 105 148 199 249 295 377 438
#     4  12  25  44  70 109 149 197 239 307 363 439
#     4  11  26  46  68 110 149 187 255 300 371 446
#     4  12  27  48  81 106 147 198 243 314 382 447
#     4  11  25  45  70 103 151 192 244 305 360 447
#     4  11  25  51  72 110 151 193 250 306 375 451
#
# _framework density 23.167736999999999
#
# number of rings (size 3 to 8) (size 9 to 14) (size 15 to 20)
#    0.000    0.571    5.714    2.571    4.000    3.429 
#    2.571    0.000    0.000    0.000    0.000    0.000 
#    0.000    0.000    0.000    0.000    0.000    0.000 
#
# Total GULP energy -347214.553533 kJ/mol
# GULP energy per Si atom -12400.519769 kJ/mol
# Density = 2.311501 g / cm^3
# Si number density = 23.167737 Si / 1000 Ang^3
#
#
#
# Elastic Constant Matrix: (Units=GPa)
#
#
# Indices 1 2 3 4 5 6 
#
# 1 94.8645 -0.4288 24.2219 0.0000 0.0000 0.0000
# 2 -0.4288 51.9604 32.5624 0.0000 0.0000 0.0000
# 3 24.2219 32.5624 104.3004 0.0000 0.0000 0.0000
# 4 0.0000 0.0000 0.0000 31.6735 0.0000 0.0000
# 5 0.0000 0.0000 0.0000 0.0000 32.4022 0.0000
# 6 0.0000 0.0000 0.0000 0.0000 0.0000 33.0043
#
#
#
# Elastic Compliance Matrix: (Units=1/GPa)
#
#
# Indices 1 2 3 4 5 6 
#
# 1 0.011401 0.002180 -0.003328 0.000000 0.000000 0.000000
# 2 0.002180 0.024343 -0.008106 0.000000 0.000000 0.000000
# 3 -0.003328 -0.008106 0.012891 0.000000 0.000000 0.000000
# 4 0.000000 0.000000 0.000000 0.031572 0.000000 0.000000
# 5 0.000000 0.000000 0.000000 0.000000 0.030862 0.000000
# 6 0.000000 0.000000 0.000000 0.000000 0.000000 0.030299
#
#
# Mechanical properties :
#
#
# Convention : Reuss Voigt Hill
#
# Bulk Modulus (GPa) = 33.19333 40.42625 36.80979
# Shear Modulus (GPa) = 29.42555 32.40066 30.91310
#
# Velocity S-wave (km/s) = 3.56773 3.74374 3.65679
# Velocity P-wave (km/s) = 5.59732 6.01454 5.80968
#
# Compressibility (1/GPa) = 0.03012654
#
# Stress axis : x y z
#
# Youngs Moduli (GPa) = 87.71163 41.07899 77.57148
#
# Poissons Ratio (x) = -0.08954 0.25817
# Poissons Ratio (y) = -0.19119 0.62881
# Poissons Ratio (z) = 0.29192 0.33299
#
# Static dielectric constant tensor:
#      x y z
#    x 4.461200 0.000000 0.000000 
#    y 0.000000 4.194810 0.000000 
#    z 0.000000 0.000000 4.164210 
# 
# 
# High freq. dielectric constant tensor:
#      x y z
#    x 1.934980 0.000000 0.000000 
#    y 0.000000 1.915230 0.000000 
#    z 0.000000 0.000000 1.905890 
# 
# From -- ./inp_files/2866.got.cif
#   From: 2010.03.12/outbox.cif.g09.slc.cpg/sg29_2_cif.got.tgz:2866.got - 2010.04.14 03:43:10.
