data_PCOD8169104
_publ_section_title
;
Structure prediction by ZEFSAII (Michael W. Deem and Ramdas Pophale) SiO2 
 PCOD8169104
Probable space group: P C A 21
;
_chemical_formula_sum "Si O2"
_cell_formula_units_Z 20
_cell_length_a 8.382620
_cell_length_b 11.454925
_cell_length_c 8.145778
_cell_angle_alpha 90.000000
_cell_angle_beta 90.000000
_cell_angle_gamma 90.000000
_cell_volume 782.176204
_symmetry_space_group_name_H-M "P C A 21"
_symmetry_group_IT_number 29
_symmetry_cell_setting 'orthorhombic'
loop_
_space_group_symop_operation_xyz
x,y,z
-x,-y,1/2+z
1/2-x,y,1/2+z
1/2+x,-y,z
loop_
_atom_site_type_symbol
_atom_site_label
_atom_site_fract_x
_atom_site_fract_y
_atom_site_fract_z
Si Si1 0.820250 0.596466 0.727270
Si Si2 0.415040 0.957923 0.899627
Si Si3 0.168940 0.831661 0.096223
Si Si4 0.490777 0.402488 0.061916
Si Si5 0.990476 0.831442 0.698402
O O1 0.627540 0.601714 0.719463
O O2 0.877118 0.723054 0.671496
O O3 0.878108 0.500095 0.596422
O O4 0.881573 0.563759 0.907098
O O5 0.449787 0.893077 0.726555
O O6 0.441595 0.096979 0.865956
O O7 0.233020 0.924780 0.957902
O O8 0.537898 0.915313 0.039550
O O9 0.325332 0.787467 0.198640
O O10 0.078406 0.720077 0.019801
#
# Coordination Sequence:
#
# PCOD8169104 Si02
#       5
#     4   4   4   4   4
#     4  12  28  48  83 110 166 206 274 332 410 489
#     4  10  25  42  79 107 160 204 267 329 392 483
#     4  10  25  46  77 110 161 204 269 327 399 473
#     4  12  28  50  78 120 155 217 265 344 401 487
#     4  10  26  46  77 115 154 215 263 330 398 486
#
# _framework density 25.569685
#
# number of rings (size 3 to 8) (size 9 to 14) (size 15 to 20)
#    1.200    0.000    0.000    3.600   11.200    3.200 
#    0.000    0.000    0.000    0.000    0.000    0.000 
#    0.000    0.000    0.000    0.000    0.000    0.000 
#
# Total GULP energy -247878.927198 kJ/mol
# GULP energy per Si atom -12393.946360 kJ/mol
# Density = 2.551149 g / cm^3
# Si number density = 25.569685 Si / 1000 Ang^3
#
#
#
# Elastic Constant Matrix: (Units=GPa)
#
#
# Indices 1 2 3 4 5 6 
#
# 1 99.3337 45.7052 6.9949 0.0000 0.0000 0.0000
# 2 45.7052 142.8154 22.2726 0.0000 0.0000 0.0000
# 3 6.9949 22.2726 85.8552 0.0000 0.0000 0.0000
# 4 0.0000 0.0000 0.0000 39.2593 0.0000 0.0000
# 5 0.0000 0.0000 0.0000 0.0000 44.8339 0.0000
# 6 0.0000 0.0000 0.0000 0.0000 0.0000 44.0804
#
#
#
# Elastic Compliance Matrix: (Units=1/GPa)
#
#
# Indices 1 2 3 4 5 6 
#
# 1 0.011805 -0.003781 0.000019 0.000000 0.000000 0.000000
# 2 -0.003781 0.008508 -0.001899 0.000000 0.000000 0.000000
# 3 0.000019 -0.001899 0.012139 0.000000 0.000000 0.000000
# 4 0.000000 0.000000 0.000000 0.025472 0.000000 0.000000
# 5 0.000000 0.000000 0.000000 0.000000 0.022305 0.000000
# 6 0.000000 0.000000 0.000000 0.000000 0.000000 0.022686
#
#
# Mechanical properties :
#
#
# Convention : Reuss Voigt Hill
#
# Bulk Modulus (GPa) = 47.32599 53.10553 50.21576
# Shear Modulus (GPa) = 41.22685 42.50349 41.86517
#
# Velocity S-wave (km/s) = 4.01974 4.08151 4.05074
# Velocity P-wave (km/s) = 6.33192 6.55939 6.44666
#
# Compressibility (1/GPa) = 0.02113004
#
# Stress axis : x y z
#
# Youngs Moduli (GPa) = 84.70641 117.53246 82.38153
#
# Poissons Ratio (x) = 0.44440 -0.00157
# Poissons Ratio (y) = 0.32028 0.15646
# Poissons Ratio (z) = -0.00161 0.22321
#
# Static dielectric constant tensor:
#      x y z
#    x 4.399710 0.000000 0.000000 
#    y 0.000000 4.306410 0.000000 
#    z 0.000000 0.000000 4.542500 
# 
# 
# High freq. dielectric constant tensor:
#      x y z
#    x 2.013410 0.000000 0.000000 
#    y 0.000000 2.014090 0.000000 
#    z 0.000000 0.000000 2.034090 
# 
# From -- ./inp_files/1101.got.cif
#   From: 2010.03.12/outbox.cif.g09.slc.cpg/sg29_1_cif.got.tgz:1101.got - 2010.04.14 03:43:10.
