data_PCOD8169511
_publ_section_title
;
Structure prediction by ZEFSAII (Michael W. Deem and Ramdas Pophale) SiO2 
 PCOD8169511
Probable space group: P N C 2
;
_chemical_formula_sum "Si O2"
_cell_formula_units_Z 26
_cell_length_a 8.742588
_cell_length_b 14.590591
_cell_length_c 9.743829
_cell_angle_alpha 90.000000
_cell_angle_beta 90.000000
_cell_angle_gamma 90.000000
_cell_volume 1242.918207
_symmetry_space_group_name_H-M "P N C 2"
_symmetry_group_IT_number 30
_symmetry_cell_setting 'orthorhombic'
loop_
_space_group_symop_operation_xyz
x,y,z
-x,-y,z
-x,1/2+y,1/2+z
x,1/2-y,1/2+z
loop_
_atom_site_type_symbol
_atom_site_label
_atom_site_fract_x
_atom_site_fract_y
_atom_site_fract_z
Si Si1 0.500000 0.000000 0.147630
Si Si2 0.500000 0.500000 0.194167
Si Si3 0.000000 0.000000 0.783327
Si Si4 0.009966 0.184341 0.625371
Si Si5 0.279865 0.563160 0.416100
Si Si6 0.635383 0.821430 0.584467
Si Si7 0.500132 0.816349 0.295762
Si Si8 0.830969 0.237560 0.365383
O O1 0.552759 0.915233 0.240652
O O2 0.356953 0.968165 0.056509
O O3 0.397008 0.564705 0.289518
O O4 0.399631 0.430208 0.102239
O O5 0.023726 0.914471 0.686053
O O6 0.147039 0.010433 0.882227
O O7 0.932194 0.185046 0.477006
O O8 0.932317 0.257558 0.727443
O O9 0.189799 0.203402 0.614991
O O10 0.211505 0.664282 0.430557
O O11 0.599293 0.792085 0.429427
O O12 0.528112 0.761866 0.683463
O O13 0.321102 0.820233 0.334052
#
# Coordination Sequence:
#
# PCOD8169511 Si02
#       8
#     2   2   2   4   4   4   4   4
#     4  11  25  42  64  96 134 170 228 286 332 400
#     4  11  21  40  70  96 130 172 230 276 330 402
#     4  10  22  38  66  96 128 178 216 272 338 416
#     4  11  24  41  65  95 135 169 228 272 346 398
#     4  10  21  40  67  95 130 176 219 274 341 407
#     4  12  25  43  68 102 133 178 225 287 336 408
#     4  12  26  42  68  96 134 177 230 280 345 401
#     4  11  23  43  66  97 130 182 219 282 337 421
#
# _framework density 20.918513000000001
#
# number of rings (size 3 to 8) (size 9 to 14) (size 15 to 20)
#    0.000    0.923    3.077    4.154    4.308    3.692 
#    0.000    1.538    0.000    0.923    0.000    0.000 
#    0.000    0.000    0.000    0.000    0.000    0.000 
#
# Total GULP energy -322540.352232 kJ/mol
# GULP energy per Si atom -12405.398163 kJ/mol
# Density = 2.087090 g / cm^3
# Si number density = 20.918513 Si / 1000 Ang^3
#
#
#
# Elastic Constant Matrix: (Units=GPa)
#
#
# Indices 1 2 3 4 5 6 
#
# 1 126.0587 11.6179 38.2258 0.0000 0.0000 0.0000
# 2 11.6179 77.5010 26.4328 0.0000 0.0000 0.0000
# 3 38.2258 26.4328 124.8024 0.0000 0.0000 0.0000
# 4 0.0000 0.0000 0.0000 28.0689 0.0000 0.0000
# 5 0.0000 0.0000 0.0000 0.0000 36.5476 0.0000
# 6 0.0000 0.0000 0.0000 0.0000 0.0000 32.7775
#
#
#
# Elastic Compliance Matrix: (Units=1/GPa)
#
#
# Indices 1 2 3 4 5 6 
#
# 1 0.008758 -0.000429 -0.002592 0.000000 0.000000 0.000000
# 2 -0.000429 0.013929 -0.002819 0.000000 0.000000 0.000000
# 3 -0.002592 -0.002819 0.009403 0.000000 0.000000 0.000000
# 4 0.000000 0.000000 0.000000 0.035627 0.000000 0.000000
# 5 0.000000 0.000000 0.000000 0.000000 0.027362 0.000000
# 6 0.000000 0.000000 0.000000 0.000000 0.000000 0.030509
#
#
# Mechanical properties :
#
#
# Convention : Reuss Voigt Hill
#
# Bulk Modulus (GPa) = 48.99151 53.43503 51.21327
# Shear Modulus (GPa) = 34.70536 36.28452 35.49494
#
# Velocity S-wave (km/s) = 4.07759 4.16933 4.12372
# Velocity P-wave (km/s) = 6.75574 6.98409 6.87087
#
# Compressibility (1/GPa) = 0.02041170
#
# Stress axis : x y z
#
# Youngs Moduli (GPa) = 114.17800 71.79416 106.34369
#
# Poissons Ratio (x) = 0.03080 0.27561
# Poissons Ratio (y) = 0.04898 0.29975
# Poissons Ratio (z) = 0.29592 0.20236
#
# Static dielectric constant tensor:
#      x y z
#    x 4.038150 0.000000 0.000000 
#    y 0.000000 3.612000 0.000000 
#    z 0.000000 0.000000 3.831950 
# 
# 
# High freq. dielectric constant tensor:
#      x y z
#    x 1.828950 0.000000 0.000000 
#    y 0.000000 1.811810 0.000000 
#    z 0.000000 0.000000 1.825430 
# 
# From -- ./inp_files/1977.got.cif
#   From: 2010.03.12/outbox.cif.g09.slc.cpg/sg30_1_cif.got.tgz:1977.got - 2010.04.14 01:38:02.
