data_PCOD8169983
_publ_section_title
;
Structure prediction by ZEFSAII (Michael W. Deem and Ramdas Pophale) SiO2 
 PCOD8169983
Probable space group: P M N 21
;
_chemical_formula_sum "Si O2"
_cell_formula_units_Z 32
_cell_length_a 8.910939
_cell_length_b 15.983180
_cell_length_c 10.829209
_cell_angle_alpha 90.000000
_cell_angle_beta 90.000000
_cell_angle_gamma 90.000000
_cell_volume 1542.351630
_symmetry_space_group_name_H-M "P M N 21"
_symmetry_group_IT_number 31
_symmetry_cell_setting 'orthorhombic'
loop_
_space_group_symop_operation_xyz
x,y,z
1/2-x,-y,1/2+z
-x,y,z
1/2+x,-y,1/2+z
loop_
_atom_site_type_symbol
_atom_site_label
_atom_site_fract_x
_atom_site_fract_y
_atom_site_fract_z
Si Si1 0.322199 0.564727 0.807650
Si Si2 0.666817 0.852611 0.665332
Si Si3 0.671857 0.157922 0.787374
Si Si4 0.327680 0.842388 0.036991
Si Si5 0.675259 0.260392 0.348779
Si Si6 0.329441 0.027521 0.999166
Si Si7 0.666925 0.719718 0.449428
Si Si8 0.823588 0.463319 0.030861
O O1 0.500000 0.566948 0.818841
O O2 0.263636 0.659090 0.801684
O O3 0.277118 0.520289 0.675777
O O4 0.257695 0.522214 0.931295
O O5 0.500000 0.866489 0.721739
O O6 0.780617 0.820593 0.768840
O O7 0.723225 0.940339 0.609718
O O8 0.661418 0.782370 0.562198
O O9 0.500000 0.162724 0.743270
O O10 0.785657 0.142243 0.677581
O O11 0.701766 0.080232 0.876834
O O12 0.714358 0.246490 0.850004
O O13 0.500000 0.815018 0.025171
O O14 0.225378 0.766493 0.986247
O O15 0.296876 0.930697 0.967708
O O16 0.500000 0.279432 0.343198
O O17 0.500000 0.040077 0.044005
O O18 0.500000 0.711873 0.390810
O O19 0.724174 0.630666 0.497616
O O20 0.000000 0.478376 0.015890
#
# Coordination Sequence:
#
# PCOD8169983 Si02
#       8
#     4   4   4   4   4   4   4   4
#     4  11  24  44  68  97 133 171 216 269 329 394
#     4  10  19  36  63  90 119 157 200 249 301 360
#     4  10  21  38  58  87 123 157 203 260 315 371
#     4  11  24  41  60  86 123 166 210 257 317 378
#     4  12  25  41  63  91 124 164 210 259 317 377
#     4   9  21  39  59  88 121 159 205 255 306 367
#     4   9  18  37  63  87 117 159 202 247 304 370
#     4  10  22  42  66  96 132 169 214 266 321 391
#
# _framework density 20.747539
#
# number of rings (size 3 to 8) (size 9 to 14) (size 15 to 20)
#    0.000    1.750    1.250    2.625    1.750    4.500 
#    0.000    2.500    0.000    0.000    0.000    0.000 
#    0.000    0.000    0.000    0.000    0.000    0.000 
#
# Total GULP energy -396745.879230 kJ/mol
# GULP energy per Si atom -12398.308726 kJ/mol
# Density = 2.070032 g / cm^3
# Si number density = 20.747539 Si / 1000 Ang^3
#
#
#
# Elastic Constant Matrix: (Units=GPa)
#
#
# Indices 1 2 3 4 5 6 
#
# 1 78.3064 36.0350 51.0105 0.0000 0.0000 0.0000
# 2 36.0350 63.0961 38.4767 0.0000 0.0000 0.0000
# 3 51.0105 38.4767 108.6479 0.0000 0.0000 0.0000
# 4 0.0000 0.0000 0.0000 24.7872 0.0000 0.0000
# 5 0.0000 0.0000 0.0000 0.0000 36.5760 0.0000
# 6 0.0000 0.0000 0.0000 0.0000 0.0000 32.2614
#
#
#
# Elastic Compliance Matrix: (Units=1/GPa)
#
#
# Indices 1 2 3 4 5 6 
#
# 1 0.020908 -0.007595 -0.007127 0.000000 0.000000 0.000000
# 2 -0.007595 0.022973 -0.004570 0.000000 0.000000 0.000000
# 3 -0.007127 -0.004570 0.014168 0.000000 0.000000 0.000000
# 4 0.000000 0.000000 0.000000 0.040343 0.000000 0.000000
# 5 0.000000 0.000000 0.000000 0.000000 0.027340 0.000000
# 6 0.000000 0.000000 0.000000 0.000000 0.000000 0.030997
#
#
# Mechanical properties :
#
#
# Convention : Reuss Voigt Hill
#
# Bulk Modulus (GPa) = 51.37015 55.67721 53.52368
# Shear Modulus (GPa) = 24.77683 27.02680 25.90181
#
# Velocity S-wave (km/s) = 3.45948 3.61314 3.53714
# Velocity P-wave (km/s) = 6.38519 6.65584 6.52192
#
# Compressibility (1/GPa) = 0.01946656
#
# Stress axis : x y z
#
# Youngs Moduli (GPa) = 47.82912 43.52910 70.57947
#
# Poissons Ratio (x) = 0.33060 0.50299
# Poissons Ratio (y) = 0.36325 0.32255
# Poissons Ratio (z) = 0.34086 0.19893
#
# Static dielectric constant tensor:
#      x y z
#    x 3.770230 0.000000 0.000000 
#    y 0.000000 3.743750 0.000000 
#    z 0.000000 0.000000 3.831450 
# 
# 
# High freq. dielectric constant tensor:
#      x y z
#    x 1.811840 0.000000 0.000000 
#    y 0.000000 1.806870 0.000000 
#    z 0.000000 0.000000 1.814650 
# 
# From -- ./inp_files/3560.got.cif
#   From: 2010.03.12/outbox.cif.g09.slc.cpg/sg31_2_cif.got.tgz:3560.got - 2010.04.14 01:42:59.
