data_PCOD8169612
_publ_section_title
;
Structure prediction by ZEFSAII (Michael W. Deem and Ramdas Pophale) SiO2 
 PCOD8169612
Probable space group: P N C 2
;
_chemical_formula_sum "Si O2"
_cell_formula_units_Z 18
_cell_length_a 8.980893
_cell_length_b 8.140480
_cell_length_c 10.550015
_cell_angle_alpha 90.000000
_cell_angle_beta 90.000000
_cell_angle_gamma 90.000000
_cell_volume 771.298724
_symmetry_space_group_name_H-M "P N C 2"
_symmetry_group_IT_number 30
_symmetry_cell_setting 'orthorhombic'
loop_
_space_group_symop_operation_xyz
x,y,z
-x,-y,z
-x,1/2+y,1/2+z
x,1/2-y,1/2+z
loop_
_atom_site_type_symbol
_atom_site_label
_atom_site_fract_x
_atom_site_fract_y
_atom_site_fract_z
Si Si1 0.845430 0.332656 0.844530
Si Si2 0.500000 0.500000 0.578151
Si Si3 0.512507 0.307636 0.906877
Si Si4 0.739787 0.868064 0.229793
Si Si5 0.002086 0.190497 0.604442
O O1 0.678790 0.267209 0.863669
O O2 0.846932 0.534920 0.831551
O O3 0.897033 0.265103 0.710518
O O4 0.945363 0.268244 0.962477
O O5 0.524557 0.674307 0.512365
O O6 0.350177 0.517345 0.661886
O O7 0.500000 0.500000 0.951743
O O8 0.388341 0.263516 0.800294
O O9 0.831452 0.759999 0.128745
O O10 0.000000 0.000000 0.628362
#
# Coordination Sequence:
#
# PCOD8169612 Si02
#       5
#     4   2   4   4   4
#     4  11  25  50  68 110 151 199 246 335 380 462
#     4  12  24  46  82 104 150 212 254 326 392 454
#     4  10  25  46  74 108 154 195 266 318 386 462
#     4  11  25  50  71 112 150 202 261 332 376 474
#     4  12  28  43  76 107 152 199 257 312 405 465
#
# _framework density 23.337261000000002
#
# number of rings (size 3 to 8) (size 9 to 14) (size 15 to 20)
#    0.000    0.889    3.333    3.333   12.444    1.778 
#    2.000    0.000    0.000    0.000    0.000    0.000 
#    0.000    0.000    0.000    0.000    0.000    0.000 
#
# Total GULP energy -223017.059006 kJ/mol
# GULP energy per Si atom -12389.836611 kJ/mol
# Density = 2.328414 g / cm^3
# Si number density = 23.337261 Si / 1000 Ang^3
#
#
#
# Elastic Constant Matrix: (Units=GPa)
#
#
# Indices 1 2 3 4 5 6 
#
# 1 136.5361 44.1904 54.6227 0.0000 0.0000 0.0000
# 2 44.1904 83.1948 39.7454 0.0000 0.0000 0.0000
# 3 54.6227 39.7454 130.0550 0.0000 0.0000 0.0000
# 4 0.0000 0.0000 0.0000 -0.1808 0.0000 0.0000
# 5 0.0000 0.0000 0.0000 0.0000 28.9420 0.0000
# 6 0.0000 0.0000 0.0000 0.0000 0.0000 36.2017
#
#
#
# Elastic Compliance Matrix: (Units=1/GPa)
#
#
# Indices 1 2 3 4 5 6 
#
# 1 0.009713 -0.003759 -0.002931 0.000000 0.000000 0.000000
# 2 -0.003759 0.015530 -0.003167 0.000000 0.000000 0.000000
# 3 -0.002931 -0.003167 0.009888 0.000000 0.000000 0.000000
# 4 0.000000 0.000000 0.000000 -5.531548 0.000000 0.000000
# 5 0.000000 0.000000 0.000000 0.000000 0.034552 0.000000
# 6 0.000000 0.000000 0.000000 0.000000 0.000000 0.027623
#
#
# Mechanical properties :
#
#
# Convention : Reuss Voigt Hill
#
# Bulk Modulus (GPa) = 64.86441 69.65588 67.26014
# Shear Modulus (GPa) = -0.92432 27.07440 13.07504
#
# Velocity S-wave (km/s) = -0.63002 3.40977 2.36956
# Velocity P-wave (km/s) = 5.22738 6.73902 6.03075
#
# Compressibility (1/GPa) = 0.01541677
#
# Stress axis : x y z
#
# Youngs Moduli (GPa) = 102.95254 64.39225 101.13458
#
# Poissons Ratio (x) = 0.24207 0.29639
# Poissons Ratio (y) = 0.38702 0.32030
# Poissons Ratio (z) = 0.30172 0.20394
#
# Static dielectric constant tensor:
#      x y z
#    x 4.861050 0.000000 0.000000 
#    y 0.000000 4.089280 0.000000 
#    z 0.000000 0.000000 4.415030 
# 
# 
# High freq. dielectric constant tensor:
#      x y z
#    x 1.957660 0.000000 0.000000 
#    y 0.000000 1.903710 0.000000 
#    z 0.000000 0.000000 1.926080 
# 
# From -- ./inp_files/3472.got.cif
#   From: 2010.03.12/outbox.cif.g09.slc.cpg/sg30_2_cif.got.tgz:3472.got - 2010.04.14 01:38:02.
