data_PCOD8169728
_publ_section_title
;
Structure prediction by ZEFSAII (Michael W. Deem and Ramdas Pophale) SiO2 
 PCOD8169728
Probable space group: P M N 21
;
_chemical_formula_sum "Si O2"
_cell_formula_units_Z 32
_cell_length_a 8.733070
_cell_length_b 11.341233
_cell_length_c 16.178921
_cell_angle_alpha 90.000000
_cell_angle_beta 90.000000
_cell_angle_gamma 90.000000
_cell_volume 1602.421519
_symmetry_space_group_name_H-M "P M N 21"
_symmetry_group_IT_number 31
_symmetry_cell_setting 'orthorhombic'
loop_
_space_group_symop_operation_xyz
x,y,z
1/2-x,-y,1/2+z
-x,y,z
1/2+x,-y,1/2+z
loop_
_atom_site_type_symbol
_atom_site_label
_atom_site_fract_x
_atom_site_fract_y
_atom_site_fract_z
Si Si1 0.331040 0.741591 0.332680
Si Si2 0.179021 0.934693 0.432227
Si Si3 0.820269 0.814556 0.910372
Si Si4 0.820574 0.780098 0.588458
Si Si5 0.330982 0.584092 0.490542
Si Si6 0.181186 0.448179 0.704339
Si Si7 0.319032 0.701409 0.747536
Si Si8 0.320606 0.637677 0.023022
O O1 0.500000 0.791977 0.307951
O O2 0.215238 0.846364 0.356388
O O3 0.353267 0.659446 0.410345
O O4 0.261120 0.661063 0.260381
O O5 0.228219 0.878927 0.521130
O O6 0.000000 0.964759 0.431429
O O7 0.278577 0.048971 0.415362
O O8 0.738630 0.749011 0.834940
O O9 0.000000 0.799799 0.899839
O O10 0.763163 0.757904 0.996747
O O11 0.774701 0.650505 0.557051
O O12 0.737099 0.794424 0.676826
O O13 0.000000 0.783619 0.603888
O O14 0.500000 0.558418 0.528727
O O15 0.243187 0.465151 0.463208
O O16 0.260127 0.569560 0.730498
O O17 0.228857 0.406043 0.613434
O O18 0.000000 0.466327 0.713773
O O19 0.500000 0.700119 0.748836
O O20 0.500000 0.656754 0.013319
#
# Coordination Sequence:
#
# PCOD8169728 Si02
#       8
#     4   4   4   4   4   4   4   4
#     4   9  19  36  59  87 118 158 199 241 297 359
#     4  10  22  42  65  89 119 157 207 256 302 362
#     4  12  26  44  64  86 121 166 212 258 312 371
#     4  10  20  37  62  90 122 161 202 250 306 364
#     4  10  18  31  56  88 121 157 200 246 297 358
#     4  10  21  38  61  92 129 164 200 246 307 372
#     4  12  24  39  64  95 127 159 206 260 310 371
#     4  11  22  37  59  87 125 164 202 251 307 365
#
# _framework density 19.969777000000001
#
# number of rings (size 3 to 8) (size 9 to 14) (size 15 to 20)
#    0.000    1.500    1.250    4.500    0.000    4.000 
#    2.250    0.000    0.000    0.000    0.000    0.000 
#    0.000    0.000    0.000    0.000    0.000    0.000 
#
# Total GULP energy -396745.345848 kJ/mol
# GULP energy per Si atom -12398.292058 kJ/mol
# Density = 1.992432 g / cm^3
# Si number density = 19.969777 Si / 1000 Ang^3
#
#
#
# Elastic Constant Matrix: (Units=GPa)
#
#
# Indices 1 2 3 4 5 6 
#
# 1 102.3697 46.7999 46.4576 0.0000 0.0000 0.0000
# 2 46.7999 113.1039 55.1999 0.0000 0.0000 0.0000
# 3 46.4576 55.1999 90.3402 0.0000 0.0000 0.0000
# 4 0.0000 0.0000 0.0000 22.4805 0.0000 0.0000
# 5 0.0000 0.0000 0.0000 0.0000 28.2269 0.0000
# 6 0.0000 0.0000 0.0000 0.0000 0.0000 34.0244
#
#
#
# Elastic Compliance Matrix: (Units=1/GPa)
#
#
# Indices 1 2 3 4 5 6 
#
# 1 0.013476 -0.003126 -0.005020 0.000000 0.000000 0.000000
# 2 -0.003126 0.013324 -0.006533 0.000000 0.000000 0.000000
# 3 -0.005020 -0.006533 0.017643 0.000000 0.000000 0.000000
# 4 0.000000 0.000000 0.000000 0.044483 0.000000 0.000000
# 5 0.000000 0.000000 0.000000 0.000000 0.035427 0.000000
# 6 0.000000 0.000000 0.000000 0.000000 0.000000 0.029391
#
#
# Mechanical properties :
#
#
# Convention : Reuss Voigt Hill
#
# Bulk Modulus (GPa) = 66.29769 66.96984 66.63377
# Shear Modulus (GPa) = 26.57748 27.43680 27.00714
#
# Velocity S-wave (km/s) = 3.65209 3.71066 3.68149
# Velocity P-wave (km/s) = 7.14526 7.20882 7.17711
#
# Compressibility (1/GPa) = 0.01508348
#
# Stress axis : x y z
#
# Youngs Moduli (GPa) = 74.20734 75.05532 56.68052
#
# Poissons Ratio (x) = 0.23463 0.28453
# Poissons Ratio (y) = 0.23198 0.37031
# Poissons Ratio (z) = 0.37251 0.49036
#
# Static dielectric constant tensor:
#      x y z
#    x 3.738830 0.000000 0.000000 
#    y 0.000000 3.705810 0.000000 
#    z 0.000000 0.000000 3.937770 
# 
# 
# High freq. dielectric constant tensor:
#      x y z
#    x 1.786860 0.000000 0.000000 
#    y 0.000000 1.770720 0.000000 
#    z 0.000000 0.000000 1.780360 
# 
# From -- ./inp_files/5100.got.cif
#   From: 2010.03.12/outbox.cif.g09.slc.cpg/sg31_3_cif.got.tgz:5100.got - 2010.04.14 01:42:59.
