data_PCOD8169837
_publ_section_title
;
Structure prediction by ZEFSAII (Michael W. Deem and Ramdas Pophale) SiO2 
 PCOD8169837
Probable space group: P M N 21
;
_chemical_formula_sum "Si O2"
_cell_formula_units_Z 32
_cell_length_a 8.622337
_cell_length_b 12.462192
_cell_length_c 14.529295
_cell_angle_alpha 90.000000
_cell_angle_beta 90.000000
_cell_angle_gamma 90.000000
_cell_volume 1561.219520
_symmetry_space_group_name_H-M "P M N 21"
_symmetry_group_IT_number 31
_symmetry_cell_setting 'orthorhombic'
loop_
_space_group_symop_operation_xyz
x,y,z
1/2-x,-y,1/2+z
-x,y,z
1/2+x,-y,1/2+z
loop_
_atom_site_type_symbol
_atom_site_label
_atom_site_fract_x
_atom_site_fract_y
_atom_site_fract_z
Si Si1 0.674533 0.728946 0.949220
Si Si2 0.321285 0.692831 0.571940
Si Si3 0.679840 0.098048 0.571830
Si Si4 0.814431 0.107743 0.961773
Si Si5 0.681564 0.583471 0.229552
Si Si6 0.676165 0.459050 0.536212
Si Si7 0.182013 0.173132 0.762897
Si Si8 0.681918 0.627265 0.767808
O O1 0.500000 0.766585 0.972168
O O2 0.707788 0.724674 0.840265
O O3 0.793620 0.800639 0.005780
O O4 0.697998 0.605639 0.978118
O O5 0.500000 0.721822 0.586871
O O6 0.243455 0.790363 0.516511
O O7 0.301990 0.584494 0.512473
O O8 0.247607 0.674981 0.672960
O O9 0.500000 0.080695 0.587905
O O10 0.751576 0.115154 0.672366
O O11 0.749693 0.996497 0.515867
O O12 0.755216 0.113823 0.855509
O O13 0.000000 0.109979 0.960216
O O14 0.500000 0.580623 0.204024
O O15 0.791318 0.563535 0.142769
O O16 0.725407 0.700417 0.270330
O O17 0.725079 0.482636 0.296259
O O18 0.500000 0.423004 0.514220
O O19 0.000000 0.160008 0.755376
O O20 0.500000 0.598635 0.759471
#
# Coordination Sequence:
#
# PCOD8169837 Si02
#       8
#     4   4   4   4   4   4   4   4
#     4  11  22  36  55  82 119 159 195 240 297 345
#     4   8  16  34  57  81 112 147 187 236 290 342
#     4  11  23  39  61  86 115 153 202 249 286 345
#     4   9  20  38  60  86 113 150 198 241 288 348
#     4  10  19  32  55  84 117 154 190 232 292 353
#     4  10  19  32  56  84 114 150 193 240 287 346
#     4  10  21  38  60  84 115 151 189 240 297 351
#     4   9  20  35  54  83 119 158 194 238 289 346
#
# _framework density 20.496797000000001
#
# number of rings (size 3 to 8) (size 9 to 14) (size 15 to 20)
#    0.000    2.250    1.250    2.250    1.750    2.500 
#    0.000    2.500    0.000    8.250    0.000    0.000 
#    0.000    0.000    0.000    0.000    0.000    0.000 
#
# Total GULP energy -396568.309678 kJ/mol
# GULP energy per Si atom -12392.759677 kJ/mol
# Density = 2.045015 g / cm^3
# Si number density = 20.496797 Si / 1000 Ang^3
#
#
#
# Elastic Constant Matrix: (Units=GPa)
#
#
# Indices 1 2 3 4 5 6 
#
# 1 29.3627 23.4795 19.7086 0.0000 0.0000 0.0000
# 2 23.4795 121.2174 79.4492 0.0000 0.0000 0.0000
# 3 19.7086 79.4492 128.0370 0.0000 0.0000 0.0000
# 4 0.0000 0.0000 0.0000 31.6195 0.0000 0.0000
# 5 0.0000 0.0000 0.0000 0.0000 19.8751 0.0000
# 6 0.0000 0.0000 0.0000 0.0000 0.0000 18.4222
#
#
#
# Elastic Compliance Matrix: (Units=1/GPa)
#
#
# Indices 1 2 3 4 5 6 
#
# 1 0.040701 -0.006367 -0.002314 0.000000 0.000000 0.000000
# 2 -0.006367 0.014901 -0.008266 0.000000 0.000000 0.000000
# 3 -0.002314 -0.008266 0.013296 0.000000 0.000000 0.000000
# 4 0.000000 0.000000 0.000000 0.031626 0.000000 0.000000
# 5 0.000000 0.000000 0.000000 0.000000 0.050314 0.000000
# 6 0.000000 0.000000 0.000000 0.000000 0.000000 0.054282
#
#
# Mechanical properties :
#
#
# Convention : Reuss Voigt Hill
#
# Bulk Modulus (GPa) = 28.56880 58.21019 43.38950
# Shear Modulus (GPa) = 19.94552 24.38203 22.16377
#
# Velocity S-wave (km/s) = 3.12285 3.45273 3.29192
# Velocity P-wave (km/s) = 5.19339 6.66006 5.97192
#
# Compressibility (1/GPa) = 0.03500322
#
# Stress axis : x y z
#
# Youngs Moduli (GPa) = 24.56916 67.11080 75.21189
#
# Poissons Ratio (x) = 0.42729 0.17407
# Poissons Ratio (y) = 0.15643 0.62171
# Poissons Ratio (z) = 0.05686 0.55475
#
# Static dielectric constant tensor:
#      x y z
#    x 3.382320 0.000000 0.000000 
#    y 0.000000 3.924060 0.000000 
#    z 0.000000 0.000000 3.979260 
# 
# 
# High freq. dielectric constant tensor:
#      x y z
#    x 1.769760 0.000000 0.000000 
#    y 0.000000 1.797000 0.000000 
#    z 0.000000 0.000000 1.807190 
# 
# From -- ./inp_files/5027.got.cif
#   From: 2010.03.12/outbox.cif.g09.slc.cpg/sg31_3_cif.got.tgz:5027.got - 2010.04.14 01:42:59.
