data_PCOD8169473
_publ_section_title
;
Structure prediction by ZEFSAII (Michael W. Deem and Ramdas Pophale) SiO2 
 PCOD8169473
Probable space group: P N C 2
;
_chemical_formula_sum "Si O2"
_cell_formula_units_Z 18
_cell_length_a 12.140573
_cell_length_b 6.080035
_cell_length_c 10.297843
_cell_angle_alpha 90.000000
_cell_angle_beta 90.000000
_cell_angle_gamma 90.000000
_cell_volume 760.136401
_symmetry_space_group_name_H-M "P N C 2"
_symmetry_group_IT_number 30
_symmetry_cell_setting 'orthorhombic'
loop_
_space_group_symop_operation_xyz
x,y,z
-x,-y,z
-x,1/2+y,1/2+z
x,1/2-y,1/2+z
loop_
_atom_site_type_symbol
_atom_site_label
_atom_site_fract_x
_atom_site_fract_y
_atom_site_fract_z
Si Si1 0.714212 0.154056 0.342680
Si Si2 0.376130 0.571877 0.568474
Si Si3 0.197414 0.218392 0.494913
Si Si4 0.000000 0.000000 0.043410
Si Si5 0.892574 0.380755 0.200778
O O1 0.645162 0.231379 0.467065
O O2 0.638771 0.160035 0.214657
O O3 0.815860 0.324244 0.323877
O O4 0.761574 0.907991 0.365757
O O5 0.500000 0.500000 0.546781
O O6 0.294548 0.370548 0.545959
O O7 0.083922 0.347635 0.460158
O O8 0.172838 0.034856 0.602518
O O9 0.921568 0.151513 0.131546
O O10 0.000000 0.500000 0.256855
#
# Coordination Sequence:
#
# PCOD8169473 Si02
#       5
#     4   4   4   2   4
#     4  12  26  53  73 119 155 197 258 316 387 451
#     4  12  31  51  80 111 151 205 259 321 382 448
#     4  11  24  47  75 109 158 200 254 310 378 461
#     4  10  20  48  68 112 152 208 246 304 376 460
#     4  10  23  47  74 110 155 204 249 306 378 460
#
# _framework density 23.679960999999999
#
# number of rings (size 3 to 8) (size 9 to 14) (size 15 to 20)
#    0.000    0.889    4.444    0.000    6.222    0.000 
#   26.000    0.000    0.000    0.000    0.000    0.000 
#    0.000    0.000    0.000    0.000    0.000    0.000 
#
# Total GULP energy -223274.866864 kJ/mol
# GULP energy per Si atom -12404.159270 kJ/mol
# Density = 2.362606 g / cm^3
# Si number density = 23.679961 Si / 1000 Ang^3
#
#
#
# Elastic Constant Matrix: (Units=GPa)
#
#
# Indices 1 2 3 4 5 6 
#
# 1 156.7541 55.7997 53.5240 0.0000 0.0000 0.0000
# 2 55.7997 117.3229 47.5085 0.0000 0.0000 0.0000
# 3 53.5240 47.5085 132.7734 0.0000 0.0000 0.0000
# 4 0.0000 0.0000 0.0000 32.1870 0.0000 0.0000
# 5 0.0000 0.0000 0.0000 0.0000 21.2017 0.0000
# 6 0.0000 0.0000 0.0000 0.0000 0.0000 39.1550
#
#
#
# Elastic Compliance Matrix: (Units=1/GPa)
#
#
# Indices 1 2 3 4 5 6 
#
# 1 0.008211 -0.002999 -0.002237 0.000000 0.000000 0.000000
# 2 -0.002999 0.011063 -0.002750 0.000000 0.000000 0.000000
# 3 -0.002237 -0.002750 0.009417 0.000000 0.000000 0.000000
# 4 0.000000 0.000000 0.000000 0.031068 0.000000 0.000000
# 5 0.000000 0.000000 0.000000 0.000000 0.047166 0.000000
# 6 0.000000 0.000000 0.000000 0.000000 0.000000 0.025540
#
#
# Mechanical properties :
#
#
# Convention : Reuss Voigt Hill
#
# Bulk Modulus (GPa) = 78.61615 80.05718 79.33667
# Shear Modulus (GPa) = 32.74890 35.17662 33.96276
#
# Velocity S-wave (km/s) = 3.72288 3.85840 3.79125
# Velocity P-wave (km/s) = 7.19384 7.33015 7.26231
#
# Compressibility (1/GPa) = 0.01272003
#
# Stress axis : x y z
#
# Youngs Moduli (GPa) = 121.78993 90.38799 106.18927
#
# Poissons Ratio (x) = 0.27111 0.23752
# Poissons Ratio (y) = 0.36530 0.29197
# Poissons Ratio (z) = 0.27241 0.24853
#
# Static dielectric constant tensor:
#      x y z
#    x 4.381150 0.000000 0.000000 
#    y 0.000000 4.632330 0.000000 
#    z 0.000000 0.000000 4.126500 
# 
# 
# High freq. dielectric constant tensor:
#      x y z
#    x 1.937540 0.000000 0.000000 
#    y 0.000000 1.955100 0.000000 
#    z 0.000000 0.000000 1.942590 
# 
# From -- ./inp_files/3960.got.cif
#   From: 2010.03.12/outbox.cif.g09.slc.cpg/sg30_2_cif.got.tgz:3960.got - 2010.04.14 01:38:02.
