data_PCOD8169792
_publ_section_title
;
Structure prediction by ZEFSAII (Michael W. Deem and Ramdas Pophale) SiO2 
 PCOD8169792
Probable space group: P M N 21
;
_chemical_formula_sum "Si O2"
_cell_formula_units_Z 32
_cell_length_a 11.907789
_cell_length_b 25.778240
_cell_length_c 5.317008
_cell_angle_alpha 90.000000
_cell_angle_beta 90.000000
_cell_angle_gamma 90.000000
_cell_volume 1632.118573
_symmetry_space_group_name_H-M "P M N 21"
_symmetry_group_IT_number 31
_symmetry_cell_setting 'orthorhombic'
loop_
_space_group_symop_operation_xyz
x,y,z
1/2-x,-y,1/2+z
-x,y,z
1/2+x,-y,1/2+z
loop_
_atom_site_type_symbol
_atom_site_label
_atom_site_fract_x
_atom_site_fract_y
_atom_site_fract_z
Si Si1 0.628382 0.465317 0.513610
Si Si2 0.824210 0.030119 0.018584
Si Si3 0.338873 0.940640 0.018542
Si Si4 0.128454 0.327473 0.010078
Si Si5 0.870545 0.882615 0.518653
Si Si6 0.722116 0.161264 0.518635
Si Si7 0.629932 0.737361 0.010226
Si Si8 0.729890 0.430908 0.013625
O O1 0.500000 0.480032 0.522994
O O2 0.658124 0.431024 0.757724
O O3 0.689734 0.519956 0.514868
O O4 0.652836 0.432616 0.261734
O O5 0.901275 0.041350 0.263521
O O6 0.715033 0.068634 0.018756
O O7 0.783162 0.970509 0.018564
O O8 0.901244 0.041386 0.773650
O O9 0.324801 0.879482 0.018341
O O10 0.155559 0.297662 0.752479
O O11 0.201489 0.378496 0.023538
O O12 0.000000 0.345400 0.014205
O O13 0.155244 0.292617 0.252477
O O14 0.851315 0.847133 0.270521
O O15 0.000000 0.902077 0.519067
O O16 0.851067 0.846977 0.766234
O O17 0.781453 0.216413 0.520803
O O18 0.500000 0.756707 0.015642
#
# Coordination Sequence:
#
# PCOD8169792 Si02
#       8
#     4   4   4   4   4   4   4   4
#     4  10  20  34  54  83 117 147 179 216 253 304
#     4   8  14  25  41  64  90 118 155 192 234 292
#     4   8  14  25  43  64  89 121 151 190 245 295
#     4  10  20  36  58  81 105 132 171 220 261 307
#     4  10  19  31  50  73  98 132 169 203 246 303
#     4  10  19  33  52  72 100 131 163 212 260 303
#     4  10  21  36  56  79 100 129 171 220 270 309
#     4  10  20  34  56  82 110 148 182 213 259 305
#
# _framework density 19.606418999999999
#
# number of rings (size 3 to 8) (size 9 to 14) (size 15 to 20)
#    0.000    2.500    0.000    2.625    0.000    0.000 
#    0.000    4.375    0.000   15.000    0.000   14.000 
#    0.000    0.000    0.000    0.000    0.000    0.000 
#
# Total GULP energy -396429.704854 kJ/mol
# GULP energy per Si atom -12388.428277 kJ/mol
# Density = 1.956179 g / cm^3
# Si number density = 19.606419 Si / 1000 Ang^3
#
#
#
# Elastic Constant Matrix: (Units=GPa)
#
#
# Indices 1 2 3 4 5 6 
#
# 1 56.6146 14.4279 25.4508 0.0000 0.0000 0.0000
# 2 14.4279 59.9853 11.3740 0.0000 0.0000 0.0000
# 3 25.4508 11.3740 165.4209 0.0000 0.0000 0.0000
# 4 0.0000 0.0000 0.0000 8.6163 0.0000 0.0000
# 5 0.0000 0.0000 0.0000 0.0000 4.0864 0.0000
# 6 0.0000 0.0000 0.0000 0.0000 0.0000 -466.4277
#
#
#
# Elastic Compliance Matrix: (Units=1/GPa)
#
#
# Indices 1 2 3 4 5 6 
#
# 1 0.020006 -0.004284 -0.002784 0.000000 0.000000 0.000000
# 2 -0.004284 0.017808 -0.000565 0.000000 0.000000 0.000000
# 3 -0.002784 -0.000565 0.006512 0.000000 0.000000 0.000000
# 4 0.000000 0.000000 0.000000 0.116059 0.000000 0.000000
# 5 0.000000 0.000000 0.000000 0.000000 0.244716 0.000000
# 6 0.000000 0.000000 0.000000 0.000000 0.000000 -0.002144
#
#
# Mechanical properties :
#
#
# Convention : Reuss Voigt Hill
#
# Bulk Modulus (GPa) = 34.41038 42.72513 38.56775
# Shear Modulus (GPa) = 11.68466 -75.36046 -31.83790
#
# Velocity S-wave (km/s) = 2.44388 -6.20645 -4.03408
# Velocity P-wave (km/s) = 5.05490 5.43336 1.40878
#
# Compressibility (1/GPa) = 0.02906100
#
# Stress axis : x y z
#
# Youngs Moduli (GPa) = 49.98398 56.15322 153.55533
#
# Poissons Ratio (x) = 0.24057 0.42742
# Poissons Ratio (y) = 0.21414 0.08681
# Poissons Ratio (z) = 0.13913 0.03174
#
# Static dielectric constant tensor:
#      x y z
#    x 3.108220 0.000000 0.000000 
#    y 0.000000 3.291470 0.000000 
#    z 0.000000 0.000000 5.473580 
# 
# 
# High freq. dielectric constant tensor:
#      x y z
#    x 1.734350 0.000000 0.000000 
#    y 0.000000 1.744570 0.000000 
#    z 0.000000 0.000000 1.807580 
# 
# From -- ./inp_files/469.got.cif
#   From: 2010.03.12/outbox.cif.g09.slc.cpg/sg31_1_cif.got.tgz:469.got - 2010.04.14 01:42:59.
