data_PCOD8169703
_publ_section_title
;
Structure prediction by ZEFSAII (Michael W. Deem and Ramdas Pophale) SiO2 
 PCOD8169703
Probable space group: P M N 21
;
_chemical_formula_sum "Si O2"
_cell_formula_units_Z 32
_cell_length_a 8.911561
_cell_length_b 20.552345
_cell_length_c 9.099821
_cell_angle_alpha 90.000000
_cell_angle_beta 90.000000
_cell_angle_gamma 90.000000
_cell_volume 1666.663849
_symmetry_space_group_name_H-M "P M N 21"
_symmetry_group_IT_number 31
_symmetry_cell_setting 'orthorhombic'
loop_
_space_group_symop_operation_xyz
x,y,z
1/2-x,-y,1/2+z
-x,y,z
1/2+x,-y,1/2+z
loop_
_atom_site_type_symbol
_atom_site_label
_atom_site_fract_x
_atom_site_fract_y
_atom_site_fract_z
Si Si1 0.169179 0.439621 0.106770
Si Si2 0.172393 0.161612 0.200577
Si Si3 0.826018 0.925182 0.193473
Si Si4 0.328845 0.696766 0.682879
Si Si5 0.327726 0.552316 0.951231
Si Si6 0.321735 0.811066 0.027951
Si Si7 0.824925 0.048797 0.996698
Si Si8 0.824736 0.680861 0.983316
O O1 0.193839 0.362493 0.067373
O O2 0.204058 0.448338 0.278377
O O3 0.000000 0.461213 0.069098
O O4 0.281653 0.482147 0.012202
O O5 0.193228 0.231052 0.114951
O O6 0.238905 0.166997 0.365976
O O7 0.000000 0.142402 0.218099
O O8 0.246303 0.104819 0.102891
O O9 0.766580 0.952292 0.346911
O O10 0.000000 0.907706 0.208551
O O11 0.735529 0.860931 0.149853
O O12 0.798601 0.979475 0.070709
O O13 0.500000 0.691693 0.748327
O O14 0.209091 0.688427 0.811393
O O15 0.500000 0.564304 0.987338
O O16 0.236649 0.610040 0.033242
O O17 0.500000 0.807338 0.031461
O O18 0.256500 0.739952 0.068992
O O19 0.000000 0.062091 0.964243
O O20 0.000000 0.684373 0.015633
#
# Coordination Sequence:
#
# PCOD8169703 Si02
#       8
#     4   4   4   4   4   4   4   4
#     4   9  18  32  50  74 103 136 177 225 268 310
#     4   8  15  31  56  80 101 133 176 216 256 311
#     4  11  23  37  54  80 110 140 179 222 262 309
#     4   8  15  30  51  75 104 137 175 216 260 314
#     4  10  20  34  52  75 104 140 180 219 265 319
#     4  10  19  35  58  80 105 139 176 215 264 317
#     4  10  21  37  56  78 107 142 177 215 263 315
#     4  10  18  30  51  78 106 135 172 218 264 313
#
# _framework density 19.200033000000001
#
# number of rings (size 3 to 8) (size 9 to 14) (size 15 to 20)
#    0.000    2.500    0.000    4.500    0.000    4.500 
#    0.000    4.375    0.000    4.500    0.000    0.000 
#    0.000    0.000    0.000    0.000    0.000    0.000 
#
# Total GULP energy -396645.240815 kJ/mol
# GULP energy per Si atom -12395.163775 kJ/mol
# Density = 1.915633 g / cm^3
# Si number density = 19.200033 Si / 1000 Ang^3
#
#
#
# Elastic Constant Matrix: (Units=GPa)
#
#
# Indices 1 2 3 4 5 6 
#
# 1 75.9497 17.2443 14.4824 0.0000 0.0000 0.0000
# 2 17.2443 64.2266 -4.5768 0.0000 0.0000 0.0000
# 3 14.4824 -4.5768 34.3567 0.0000 0.0000 0.0000
# 4 0.0000 0.0000 0.0000 31.7343 0.0000 0.0000
# 5 0.0000 0.0000 0.0000 0.0000 23.9998 0.0000
# 6 0.0000 0.0000 0.0000 0.0000 0.0000 29.5719
#
#
#
# Elastic Compliance Matrix: (Units=1/GPa)
#
#
# Indices 1 2 3 4 5 6 
#
# 1 0.015609 -0.004704 -0.007206 0.000000 0.000000 0.000000
# 2 -0.004704 0.017137 0.004266 0.000000 0.000000 0.000000
# 3 -0.007206 0.004266 0.032712 0.000000 0.000000 0.000000
# 4 0.000000 0.000000 0.000000 0.031512 0.000000 0.000000
# 5 0.000000 0.000000 0.000000 0.000000 0.041667 0.000000
# 6 0.000000 0.000000 0.000000 0.000000 0.000000 0.033816
#
#
# Mechanical properties :
#
#
# Convention : Reuss Voigt Hill
#
# Bulk Modulus (GPa) = 19.93273 25.42584 22.67929
# Shear Modulus (GPa) = 24.45405 26.88673 25.67039
#
# Velocity S-wave (km/s) = 3.57269 3.74618 3.66046
# Velocity P-wave (km/s) = 5.23669 5.65537 5.45005
#
# Compressibility (1/GPa) = 0.05016874
#
# Stress axis : x y z
#
# Youngs Moduli (GPa) = 64.06622 58.35348 30.56946
#
# Poissons Ratio (x) = 0.27452 0.22029
# Poissons Ratio (y) = 0.30139 -0.13041
# Poissons Ratio (z) = 0.46168 -0.24893
#
# Static dielectric constant tensor:
#      x y z
#    x 3.329970 0.000000 0.000000 
#    y 0.000000 3.926770 0.000000 
#    z 0.000000 0.000000 3.153250 
# 
# 
# High freq. dielectric constant tensor:
#      x y z
#    x 1.734970 0.000000 0.000000 
#    y 0.000000 1.771200 0.000000 
#    z 0.000000 0.000000 1.702700 
# 
# From -- ./inp_files/1857.got.cif
#   From: 2010.03.12/outbox.cif.g09.slc.cpg/sg31_1_cif.got.tgz:1857.got - 2010.04.14 01:42:59.
