data_PCOD8169510
_publ_section_title
;
Structure prediction by ZEFSAII (Michael W. Deem and Ramdas Pophale) SiO2 
 PCOD8169510
Probable space group: P N C 2
;
_chemical_formula_sum "Si O2"
_cell_formula_units_Z 22
_cell_length_a 11.151995
_cell_length_b 4.988717
_cell_length_c 17.720739
_cell_angle_alpha 90.000000
_cell_angle_beta 90.000000
_cell_angle_gamma 90.000000
_cell_volume 985.878199
_symmetry_space_group_name_H-M "P N C 2"
_symmetry_group_IT_number 30
_symmetry_cell_setting 'orthorhombic'
loop_
_space_group_symop_operation_xyz
x,y,z
-x,-y,z
-x,1/2+y,1/2+z
x,1/2-y,1/2+z
loop_
_atom_site_type_symbol
_atom_site_label
_atom_site_fract_x
_atom_site_fract_y
_atom_site_fract_z
Si Si1 0.500000 0.500000 0.851600
Si Si2 0.132460 0.049512 0.928936
Si Si3 0.872448 0.050032 0.329728
Si Si4 0.618452 0.676290 0.480948
Si Si5 0.331247 0.848764 0.227344
Si Si6 0.623587 0.631252 0.140281
O O1 0.405886 0.336579 0.903309
O O2 0.574744 0.300857 0.796692
O O3 0.141290 0.355755 0.901761
O O4 0.255744 0.006665 0.977320
O O5 0.140099 0.854675 0.857631
O O6 0.000000 0.000000 0.969496
O O7 0.781335 0.998861 0.262691
O O8 0.000000 0.000000 0.291325
O O9 0.500000 0.500000 0.498211
O O10 0.638245 0.883596 0.549958
O O11 0.288404 0.573054 0.185730
O O12 0.377328 0.060380 0.165189
O O13 0.500000 0.500000 0.166668
#
# Coordination Sequence:
#
# PCOD8169510 Si02
#       6
#     2   4   4   4   4   4
#     4  12  24  36  72 100 132 162 238 284 338 406
#     4  10  22  41  68  99 136 174 224 283 343 399
#     4  10  21  40  66  98 131 170 225 287 335 391
#     4  12  26  42  67 104 140 180 226 288 344 419
#     4  12  24  41  65  97 131 175 221 277 337 412
#     4  12  25  43  59  92 142 176 211 270 357 402
#
# _framework density 22.315128000000001
#
# number of rings (size 3 to 8) (size 9 to 14) (size 15 to 20)
#    0.000    0.727    4.545    3.273    2.545    0.000 
#    0.000    0.909    0.000    2.182    0.000    0.000 
#    0.000    0.000    0.000    0.000    0.000    0.000 
#
# Total GULP energy -272570.322155 kJ/mol
# GULP energy per Si atom -12389.560098 kJ/mol
# Density = 2.226434 g / cm^3
# Si number density = 22.315128 Si / 1000 Ang^3
#
#
#
# Elastic Constant Matrix: (Units=GPa)
#
#
# Indices 1 2 3 4 5 6 
#
# 1 168.3297 19.6000 45.7287 0.0000 0.0000 0.0000
# 2 19.6000 89.6268 41.3017 0.0000 0.0000 0.0000
# 3 45.7287 41.3017 128.3032 0.0000 0.0000 0.0000
# 4 0.0000 0.0000 0.0000 24.3893 0.0000 0.0000
# 5 0.0000 0.0000 0.0000 0.0000 16.1746 0.0000
# 6 0.0000 0.0000 0.0000 0.0000 0.0000 28.0182
#
#
#
# Elastic Compliance Matrix: (Units=1/GPa)
#
#
# Indices 1 2 3 4 5 6 
#
# 1 0.006591 -0.000421 -0.002214 0.000000 0.000000 0.000000
# 2 -0.000421 0.013128 -0.004076 0.000000 0.000000 0.000000
# 3 -0.002214 -0.004076 0.009895 0.000000 0.000000 0.000000
# 4 0.000000 0.000000 0.000000 0.041002 0.000000 0.000000
# 5 0.000000 0.000000 0.000000 0.000000 0.061825 0.000000
# 6 0.000000 0.000000 0.000000 0.000000 0.000000 0.035691
#
#
# Mechanical properties :
#
#
# Convention : Reuss Voigt Hill
#
# Bulk Modulus (GPa) = 61.75662 66.61340 64.18501
# Shear Modulus (GPa) = 26.74508 32.35837 29.55172
#
# Velocity S-wave (km/s) = 3.46572 3.81210 3.64303
# Velocity P-wave (km/s) = 6.61436 7.02084 6.82063
#
# Compressibility (1/GPa) = 0.01619260
#
# Stress axis : x y z
#
# Youngs Moduli (GPa) = 151.71946 76.17486 101.06151
#
# Poissons Ratio (x) = 0.03210 0.22370
# Poissons Ratio (y) = 0.06393 0.41190
# Poissons Ratio (z) = 0.33583 0.31047
#
# Static dielectric constant tensor:
#      x y z
#    x 4.468340 0.000000 0.000000 
#    y 0.000000 4.345470 0.000000 
#    z 0.000000 0.000000 3.735810 
# 
# 
# High freq. dielectric constant tensor:
#      x y z
#    x 1.881040 0.000000 0.000000 
#    y 0.000000 1.882130 0.000000 
#    z 0.000000 0.000000 1.853420 
# 
# From -- ./inp_files/5398.got.cif
#   From: 2010.03.12/outbox.cif.g09.slc.cpg/sg30_3_cif.got.tgz:5398.got - 2010.04.14 01:38:02.
