data_PCOD8169758
_publ_section_title
;
Structure prediction by ZEFSAII (Michael W. Deem and Ramdas Pophale) SiO2 
 PCOD8169758
Probable space group: P M N 21
;
_chemical_formula_sum "Si O2"
_cell_formula_units_Z 32
_cell_length_a 8.927739
_cell_length_b 11.923948
_cell_length_c 15.461617
_cell_angle_alpha 90.000000
_cell_angle_beta 90.000000
_cell_angle_gamma 90.000000
_cell_volume 1645.949362
_symmetry_space_group_name_H-M "P M N 21"
_symmetry_group_IT_number 31
_symmetry_cell_setting 'orthorhombic'
loop_
_space_group_symop_operation_xyz
x,y,z
1/2-x,-y,1/2+z
-x,y,z
1/2+x,-y,1/2+z
loop_
_atom_site_type_symbol
_atom_site_label
_atom_site_fract_x
_atom_site_fract_y
_atom_site_fract_z
Si Si1 0.675220 0.106078 0.283290
Si Si2 0.322052 0.502333 0.188727
Si Si3 0.177515 0.868636 0.279929
Si Si4 0.177301 0.260281 0.622895
Si Si5 0.826014 0.739415 0.947424
Si Si6 0.677245 0.501817 0.383459
Si Si7 0.175035 0.720587 0.440341
Si Si8 0.324359 0.263859 0.131660
O O1 0.500000 0.076592 0.272953
O O2 0.705664 0.178608 0.368187
O O3 0.738725 0.173798 0.199984
O O4 0.771850 0.995241 0.292327
O O5 0.500000 0.498219 0.188899
O O6 0.266979 0.611398 0.135958
O O7 0.261031 0.513137 0.286123
O O8 0.255390 0.388255 0.147365
O O9 0.252244 0.818624 0.195116
O O10 0.234689 0.800764 0.364392
O O11 0.000000 0.862516 0.270963
O O12 0.232760 0.217669 0.529788
O O13 0.000000 0.248977 0.629489
O O14 0.768556 0.616054 0.921995
O O15 0.000000 0.738055 0.972096
O O16 0.500000 0.510909 0.384907
O O17 0.745543 0.600697 0.440154
O O18 0.211549 0.776089 0.533872
O O19 0.000000 0.698502 0.430381
O O20 0.500000 0.272821 0.149385
#
# Coordination Sequence:
#
# PCOD8169758 Si02
#       8
#     4   4   4   4   4   4   4   4
#     4  10  21  39  62  83 108 152 199 235 279 344
#     4   9  16  30  56  86 113 144 184 228 274 336
#     4  11  24  40  56  81 118 153 191 246 296 332
#     4  11  22  37  61  87 114 152 196 237 282 348
#     4  10  21  37  59  88 121 152 185 234 292 344
#     4  10  18  33  58  86 118 152 185 225 279 344
#     4  10  21  36  57  84 115 149 185 233 285 334
#     4   9  17  34  59  85 111 144 189 230 275 338
#
# _framework density 19.441666000000001
#
# number of rings (size 3 to 8) (size 9 to 14) (size 15 to 20)
#    0.000    2.000    2.500    1.500    0.000    3.500 
#    0.000    1.875    0.000    1.500    0.000    0.000 
#    0.000    0.000    0.000    0.000    0.000    0.000 
#
# Total GULP energy -396830.503263 kJ/mol
# GULP energy per Si atom -12400.953227 kJ/mol
# Density = 1.939742 g / cm^3
# Si number density = 19.441666 Si / 1000 Ang^3
#
#
#
# Elastic Constant Matrix: (Units=GPa)
#
#
# Indices 1 2 3 4 5 6 
#
# 1 43.9003 35.9798 38.6717 0.0000 0.0000 0.0000
# 2 35.9798 125.9690 54.1874 0.0000 0.0000 0.0000
# 3 38.6717 54.1874 144.9898 0.0000 0.0000 0.0000
# 4 0.0000 0.0000 0.0000 13.2004 0.0000 0.0000
# 5 0.0000 0.0000 0.0000 0.0000 20.6105 0.0000
# 6 0.0000 0.0000 0.0000 0.0000 0.0000 27.4373
#
#
#
# Elastic Compliance Matrix: (Units=1/GPa)
#
#
# Indices 1 2 3 4 5 6 
#
# 1 0.034244 -0.006973 -0.006528 0.000000 0.000000 0.000000
# 2 -0.006973 0.010879 -0.002206 0.000000 0.000000 0.000000
# 3 -0.006528 -0.002206 0.009463 0.000000 0.000000 0.000000
# 4 0.000000 0.000000 0.000000 0.075755 0.000000 0.000000
# 5 0.000000 0.000000 0.000000 0.000000 0.048519 0.000000
# 6 0.000000 0.000000 0.000000 0.000000 0.000000 0.036447
#
#
# Mechanical properties :
#
#
# Convention : Reuss Voigt Hill
#
# Bulk Modulus (GPa) = 43.15470 63.61521 53.38496
# Shear Modulus (GPa) = 19.65073 24.65099 22.15086
#
# Velocity S-wave (km/s) = 3.18268 3.56469 3.37909
# Velocity P-wave (km/s) = 5.97923 7.05229 6.53781
#
# Compressibility (1/GPa) = 0.02317245
#
# Stress axis : x y z
#
# Youngs Moduli (GPa) = 29.20232 91.91971 105.68008
#
# Poissons Ratio (x) = 0.64095 0.68983
# Poissons Ratio (y) = 0.20363 0.23313
# Poissons Ratio (z) = 0.19062 0.20278
#
# Static dielectric constant tensor:
#      x y z
#    x 3.195450 0.000000 0.000000 
#    y 0.000000 3.588210 0.000000 
#    z 0.000000 0.000000 3.717840 
# 
# 
# High freq. dielectric constant tensor:
#      x y z
#    x 1.724320 0.000000 0.000000 
#    y 0.000000 1.757030 0.000000 
#    z 0.000000 0.000000 1.774330 
# 
# From -- ./inp_files/4963.got.cif
#   From: 2010.03.12/outbox.cif.g09.slc.cpg/sg31_3_cif.got.tgz:4963.got - 2010.04.14 01:42:59.
