data_PCOD8169637
_publ_section_title
;
Structure prediction by ZEFSAII (Michael W. Deem and Ramdas Pophale) SiO2 
 PCOD8169637
Probable space group: P N C 2
;
_chemical_formula_sum "Si O2"
_cell_formula_units_Z 30
_cell_length_a 12.785200
_cell_length_b 5.036403
_cell_length_c 21.821772
_cell_angle_alpha 90.000000
_cell_angle_beta 90.000000
_cell_angle_gamma 90.000000
_cell_volume 1405.134878
_symmetry_space_group_name_H-M "P N C 2"
_symmetry_group_IT_number 30
_symmetry_cell_setting 'orthorhombic'
loop_
_space_group_symop_operation_xyz
x,y,z
-x,-y,z
-x,1/2+y,1/2+z
x,1/2-y,1/2+z
loop_
_atom_site_type_symbol
_atom_site_label
_atom_site_fract_x
_atom_site_fract_y
_atom_site_fract_z
Si Si1 0.714192 0.642685 0.919210
Si Si2 0.066858 0.240398 0.872344
Si Si3 0.762950 0.405946 0.708122
Si Si4 0.604010 0.621476 0.799095
Si Si5 0.888346 0.903526 0.737595
Si Si6 0.500000 0.500000 0.203041
Si Si7 0.614208 0.383961 0.473711
Si Si8 0.606021 0.156706 0.113641
O O1 0.840048 0.644451 0.915188
O O2 0.667191 0.754194 0.855039
O O3 0.661350 0.354138 0.932185
O O4 0.687871 0.857972 0.971281
O O5 0.112435 0.103055 0.811396
O O6 0.000000 0.500000 0.855105
O O7 0.000000 0.000000 0.904931
O O8 0.680596 0.416575 0.764672
O O9 0.859009 0.609987 0.714665
O O10 0.710066 0.477433 0.641977
O O11 0.804004 0.107222 0.711528
O O12 0.500000 0.500000 0.829598
O O13 0.564659 0.808279 0.745811
O O14 0.000000 0.000000 0.712171
O O15 0.592782 0.407612 0.158008
O O16 0.500000 0.500000 0.454044
O O17 0.616515 0.269719 0.542533
O O18 0.500000 0.000000 0.125302
#
# Coordination Sequence:
#
# PCOD8169637 Si02
#       8
#     4   4   4   4   4   2   4   4
#     4  12  27  43  69  98 138 174 221 279 343 398
#     4  11  23  42  68  97 130 173 221 279 341 413
#     4  12  22  40  65  98 129 176 212 275 328 391
#     4  12  25  36  62 101 140 170 208 265 340 400
#     4  11  24  39  64  97 136 167 216 273 341 404
#     4  12  22  42  60  98 140 178 216 272 308 398
#     4  11  27  46  66  96 134 189 224 272 317 402
#     4  11  25  41  68  93 136 182 236 261 315 394
#
# _framework density 21.350263000000002
#
# number of rings (size 3 to 8) (size 9 to 14) (size 15 to 20)
#    0.000    0.533    4.000    4.800    8.400    0.000 
#    0.000    0.000    0.000    8.000    0.000    0.000 
#    0.000    0.000    0.000    0.000    0.000    0.000 
#
# Total GULP energy -371725.688286 kJ/mol
# GULP energy per Si atom -12390.856276 kJ/mol
# Density = 2.130167 g / cm^3
# Si number density = 21.350263 Si / 1000 Ang^3
#
#
#
# Elastic Constant Matrix: (Units=GPa)
#
#
# Indices 1 2 3 4 5 6 
#
# 1 132.1254 39.5351 40.8832 0.0000 0.0000 0.0000
# 2 39.5351 102.6804 24.1454 0.0000 0.0000 0.0000
# 3 40.8832 24.1454 79.3273 0.0000 0.0000 0.0000
# 4 0.0000 0.0000 0.0000 1.1659 0.0000 0.0000
# 5 0.0000 0.0000 0.0000 0.0000 24.9374 0.0000
# 6 0.0000 0.0000 0.0000 0.0000 0.0000 44.0142
#
#
#
# Elastic Compliance Matrix: (Units=1/GPa)
#
#
# Indices 1 2 3 4 5 6 
#
# 1 0.009675 -0.002750 -0.004149 0.000000 0.000000 0.000000
# 2 -0.002750 0.011271 -0.002014 0.000000 0.000000 0.000000
# 3 -0.004149 -0.002014 0.015357 0.000000 0.000000 0.000000
# 4 0.000000 0.000000 0.000000 0.857717 0.000000 0.000000
# 5 0.000000 0.000000 0.000000 0.000000 0.040100 0.000000
# 6 0.000000 0.000000 0.000000 0.000000 0.000000 0.022720
#
#
# Mechanical properties :
#
#
# Convention : Reuss Voigt Hill
#
# Bulk Modulus (GPa) = 54.11682 58.14004 56.12843
# Shear Modulus (GPa) = 5.09774 27.99479 16.54627
#
# Velocity S-wave (km/s) = 1.54689 3.62500 2.78689
# Velocity P-wave (km/s) = 5.34721 6.69414 6.05822
#
# Compressibility (1/GPa) = 0.01847854
#
# Stress axis : x y z
#
# Youngs Moduli (GPa) = 103.35653 88.72240 65.11505
#
# Poissons Ratio (x) = 0.24394 0.27019
# Poissons Ratio (y) = 0.28418 0.13112
# Poissons Ratio (z) = 0.42888 0.17865
#
# Static dielectric constant tensor:
#      x y z
#    x 0.960220 0.000000 0.000000 
#    y 0.000000 3.890390 0.000000 
#    z 0.000000 0.000000 3.685900 
# 
# 
# High freq. dielectric constant tensor:
#      x y z
#    x 1.849990 0.000000 0.000000 
#    y 0.000000 1.843270 0.000000 
#    z 0.000000 0.000000 1.808360 
# 
# From -- ./inp_files/7080.got.cif
#   From: 2010.03.12/outbox.cif.g09.slc.cpg/sg30_4_cif.got.tgz:7080.got - 2010.04.14 01:38:02.
