data_PCOD8169335
_publ_section_title
;
Structure prediction by ZEFSAII (Michael W. Deem and Ramdas Pophale) SiO2 
 PCOD8169335
Probable space group: P C A 21
;
_chemical_formula_sum "Si O2"
_cell_formula_units_Z 20
_cell_length_a 8.525776
_cell_length_b 9.794595
_cell_length_c 8.370375
_cell_angle_alpha 90.000000
_cell_angle_beta 90.000000
_cell_angle_gamma 90.000000
_cell_volume 698.980912
_symmetry_space_group_name_H-M "P C A 21"
_symmetry_group_IT_number 29
_symmetry_cell_setting 'orthorhombic'
loop_
_space_group_symop_operation_xyz
x,y,z
-x,-y,1/2+z
1/2-x,y,1/2+z
1/2+x,-y,z
loop_
_atom_site_type_symbol
_atom_site_label
_atom_site_fract_x
_atom_site_fract_y
_atom_site_fract_z
Si Si1 0.250001 0.249999 0.594760
Si Si2 0.205701 0.532877 0.425568
Si Si3 0.480024 0.618467 0.226475
Si Si4 0.794300 0.032880 0.425568
Si Si5 0.480025 0.881533 0.726475
O O1 0.261286 0.384935 0.487426
O O2 0.407075 0.248056 0.707477
O O3 0.092928 0.251943 0.707479
O O4 0.238716 0.115063 0.487426
O O5 0.353183 0.627809 0.370724
O O6 0.108313 0.607325 0.560112
O O7 0.097930 0.507913 0.267776
O O8 0.646816 0.127810 0.370724
O O9 0.891687 0.107329 0.560113
O O10 0.902072 0.007916 0.267777
#
# Coordination Sequence:
#
# PCOD8169335 Si02
#       5
#     4   4   4   4   4
#     4  12  26  48  88 114 170 220 272 354 434 486
#     4  12  25  49  81 123 170 220 281 356 418 516
#     4  12  25  50  83 121 173 217 285 351 422 510
#     4  12  25  49  81 123 170 220 281 356 418 516
#     4  12  25  50  83 121 173 217 285 351 422 510
#
# _framework density 28.613085999999999
#
# number of rings (size 3 to 8) (size 9 to 14) (size 15 to 20)
#    0.000    0.000    8.000    1.200    0.000    0.000 
#    0.000   16.000    0.000    0.000    0.000    0.000 
#    0.000    0.000    0.000    0.000    0.000    0.000 
#
# Total GULP energy -247785.799361 kJ/mol
# GULP energy per Si atom -12389.289968 kJ/mol
# Density = 2.854796 g / cm^3
# Si number density = 28.613086 Si / 1000 Ang^3
#
#
#
# Elastic Constant Matrix: (Units=GPa)
#
#
# Indices 1 2 3 4 5 6 
#
# 1 249.3572 64.3263 113.4090 0.0000 0.0000 0.0000
# 2 64.3263 54.6044 58.8846 0.0000 0.0000 0.0000
# 3 113.4090 58.8846 151.3572 0.0000 0.0000 0.0000
# 4 0.0000 0.0000 0.0000 30.8883 0.0000 0.0000
# 5 0.0000 0.0000 0.0000 0.0000 82.3775 0.0000
# 6 0.0000 0.0000 0.0000 0.0000 0.0000 70.0677
#
#
#
# Elastic Compliance Matrix: (Units=1/GPa)
#
#
# Indices 1 2 3 4 5 6 
#
# 1 0.006601 -0.004208 -0.003309 0.000000 0.000000 0.000000
# 2 -0.004208 0.034232 -0.010165 0.000000 0.000000 0.000000
# 3 -0.003309 -0.010165 0.013041 0.000000 0.000000 0.000000
# 4 0.000000 0.000000 0.000000 0.032375 0.000000 0.000000
# 5 0.000000 0.000000 0.000000 0.000000 0.012139 0.000000
# 6 0.000000 0.000000 0.000000 0.000000 0.000000 0.014272
#
#
# Mechanical properties :
#
#
# Convention : Reuss Voigt Hill
#
# Bulk Modulus (GPa) = 54.02319 103.17318 78.59819
# Shear Modulus (GPa) = 32.42690 51.24661 41.83676
#
# Velocity S-wave (km/s) = 3.37009 4.23664 3.82796
# Velocity P-wave (km/s) = 5.83651 7.75038 6.86052
#
# Compressibility (1/GPa) = 0.01851057
#
# Stress axis : x y z
#
# Youngs Moduli (GPa) = 151.50164 29.21209 76.68280
#
# Poissons Ratio (x) = 0.12292 0.25372
# Poissons Ratio (y) = 0.63748 0.77949
# Poissons Ratio (z) = 0.50127 0.29695
#
# Static dielectric constant tensor:
#      x y z
#    x 6.230210 0.000000 0.000000 
#    y 0.000000 4.755380 0.000000 
#    z 0.000000 0.000000 5.514420 
# 
# 
# High freq. dielectric constant tensor:
#      x y z
#    x 2.194390 0.000000 0.000000 
#    y 0.000000 2.112750 0.000000 
#    z 0.000000 0.000000 2.175070 
# 
# From -- ./inp_files/1119.got.cif
#   From: 2010.03.12/outbox.cif.g09.slc.cpg/sg29_1_cif.got.tgz:1119.got - 2010.04.14 03:43:10.
