data_PCOD8169602
_publ_section_title
;
Structure prediction by ZEFSAII (Michael W. Deem and Ramdas Pophale) SiO2 
 PCOD8169602
Probable space group: P N C 2
;
_chemical_formula_sum "Si O2"
_cell_formula_units_Z 24
_cell_length_a 10.931792
_cell_length_b 8.684910
_cell_length_c 12.123355
_cell_angle_alpha 90.000000
_cell_angle_beta 90.000000
_cell_angle_gamma 90.000000
_cell_volume 1151.011081
_symmetry_space_group_name_H-M "P N C 2"
_symmetry_group_IT_number 30
_symmetry_cell_setting 'orthorhombic'
loop_
_space_group_symop_operation_xyz
x,y,z
-x,-y,z
-x,1/2+y,1/2+z
x,1/2-y,1/2+z
loop_
_atom_site_type_symbol
_atom_site_label
_atom_site_fract_x
_atom_site_fract_y
_atom_site_fract_z
Si Si1 0.733854 0.665193 0.319450
Si Si2 0.140755 0.038770 0.387603
Si Si3 0.143708 0.976808 0.635859
Si Si4 0.259892 0.665051 0.699246
Si Si5 0.480683 0.823786 0.337658
Si Si6 0.372908 0.924715 0.984716
O O1 0.833601 0.778183 0.376501
O O2 0.786121 0.610167 0.202172
O O3 0.609811 0.757236 0.300740
O O4 0.702051 0.517663 0.392807
O O5 0.185740 0.984397 0.508344
O O6 0.212491 0.950158 0.292376
O O7 0.000000 0.000000 0.371237
O O8 0.172788 0.811620 0.688477
O O9 0.000000 0.000000 0.647196
O O10 0.398200 0.709018 0.730679
O O11 0.273066 0.582653 0.581548
O O12 0.412458 0.742560 0.440017
O O13 0.500000 0.000000 0.371393
O O14 0.500000 0.000000 0.023830
#
# Coordination Sequence:
#
# PCOD8169602 Si02
#       6
#     4   4   4   4   4   4
#     4  11  24  44  70  98 139 174 231 278 352 408
#     4  11  26  45  69 100 136 183 237 281 340 409
#     4  11  26  46  70  97 137 182 231 283 339 406
#     4  12  23  44  70  98 140 173 232 277 349 407
#     4  11  22  42  67 101 136 177 223 283 347 412
#     4  10  24  42  65 102 136 177 222 282 349 419
#
# _framework density 20.851232
#
# number of rings (size 3 to 8) (size 9 to 14) (size 15 to 20)
#    0.000    1.000    3.333    2.500    2.333    1.333 
#    0.000    0.000    0.000    0.000    0.000    0.000 
#    0.000    0.000    0.000    0.000    0.000    0.000 
#
# Total GULP energy -297603.821212 kJ/mol
# GULP energy per Si atom -12400.159217 kJ/mol
# Density = 2.080377 g / cm^3
# Si number density = 20.851232 Si / 1000 Ang^3
#
#
#
# Elastic Constant Matrix: (Units=GPa)
#
#
# Indices 1 2 3 4 5 6 
#
# 1 118.8244 57.3182 64.2001 0.0000 0.0000 0.0000
# 2 57.3182 144.4191 67.2726 0.0000 0.0000 0.0000
# 3 64.2001 67.2726 132.3265 0.0000 0.0000 0.0000
# 4 0.0000 0.0000 0.0000 42.1265 0.0000 0.0000
# 5 0.0000 0.0000 0.0000 0.0000 -23.1150 0.0000
# 6 0.0000 0.0000 0.0000 0.0000 0.0000 39.5741
#
#
#
# Elastic Compliance Matrix: (Units=1/GPa)
#
#
# Indices 1 2 3 4 5 6 
#
# 1 0.012173 -0.002726 -0.004520 0.000000 0.000000 0.000000
# 2 -0.002726 0.009683 -0.003600 0.000000 0.000000 0.000000
# 3 -0.004520 -0.003600 0.011580 0.000000 0.000000 0.000000
# 4 0.000000 0.000000 0.000000 0.023738 0.000000 0.000000
# 5 0.000000 0.000000 0.000000 0.000000 -0.043262 0.000000
# 6 0.000000 0.000000 0.000000 0.000000 0.000000 0.025269
#
#
# Mechanical properties :
#
#
# Convention : Reuss Voigt Hill
#
# Bulk Modulus (GPa) = 85.14935 85.90576 85.52755
# Shear Modulus (GPa) = 77.17424 25.50241 51.33833
#
# Velocity S-wave (km/s) = 6.09034 3.50103 4.96736
# Velocity P-wave (km/s) = 9.50692 7.59156 8.60271
#
# Compressibility (1/GPa) = 0.01174407
#
# Stress axis : x y z
#
# Youngs Moduli (GPa) = 82.15055 103.27177 86.35268
#
# Poissons Ratio (x) = 0.28149 0.39032
# Poissons Ratio (y) = 0.22392 0.31090
# Poissons Ratio (z) = 0.37133 0.37182
#
# Static dielectric constant tensor:
#      x y z
#    x 4.009650 0.000000 0.000000 
#    y 0.000000 3.531030 0.000000 
#    z 0.000000 0.000000 3.787150 
# 
# 
# High freq. dielectric constant tensor:
#      x y z
#    x 1.824920 0.000000 0.000000 
#    y 0.000000 1.825060 0.000000 
#    z 0.000000 0.000000 1.819900 
# 
# From -- ./inp_files/4028.got.cif
#   From: 2010.03.12/outbox.cif.g09.slc.cpg/sg30_3_cif.got.tgz:4028.got - 2010.04.14 01:38:02.
