data_PCOD8169134
_publ_section_title
;
Structure prediction by ZEFSAII (Michael W. Deem and Ramdas Pophale) SiO2 
 PCOD8169134
Probable space group: P C A 21
;
_chemical_formula_sum "Si O2"
_cell_formula_units_Z 32
_cell_length_a 19.140445
_cell_length_b 10.269728
_cell_length_c 9.007818
_cell_angle_alpha 90.000000
_cell_angle_beta 90.000000
_cell_angle_gamma 90.000000
_cell_volume 1770.641238
_symmetry_space_group_name_H-M "P C A 21"
_symmetry_group_IT_number 29
_symmetry_cell_setting 'orthorhombic'
loop_
_space_group_symop_operation_xyz
x,y,z
-x,-y,1/2+z
1/2-x,y,1/2+z
1/2+x,-y,z
loop_
_atom_site_type_symbol
_atom_site_label
_atom_site_fract_x
_atom_site_fract_y
_atom_site_fract_z
Si Si1 0.965012 0.623244 0.498680
Si Si2 0.320057 0.776402 0.149153
Si Si3 0.534131 0.623109 0.650691
Si Si4 0.819247 0.223639 0.496937
Si Si5 0.316942 0.482125 0.493323
Si Si6 0.968979 0.127801 0.500848
Si Si7 0.682210 0.517800 0.652625
Si Si8 0.969787 0.127715 0.148160
O O1 0.985044 0.627029 0.324901
O O2 0.881901 0.612454 0.521110
O O3 0.999315 0.500124 0.575344
O O4 0.988533 0.751887 0.581448
O O5 0.307123 0.781043 0.322921
O O6 0.334055 0.628416 0.093216
O O7 0.387833 0.861470 0.106182
O O8 0.250574 0.834717 0.072341
O O9 0.510237 0.751705 0.568413
O O10 0.617113 0.612329 0.626264
O O11 0.832868 0.371662 0.553194
O O12 0.886851 0.138608 0.541198
O O13 0.297897 0.492464 0.322767
O O14 0.249349 0.420859 0.572159
O O15 0.980359 0.125450 0.324618
O O16 0.999427 0.000094 0.574937
#
# Coordination Sequence:
#
# PCOD8169134 Si02
#       8
#     4   4   4   4   4   4   4   4
#     4  11  21  36  58  85 115 148 187 233 282 334
#     4   9  18  34  55  81 112 143 184 233 277 333
#     4  11  21  36  58  85 115 148 187 233 282 334
#     4   9  18  34  55  81 112 143 184 233 277 333
#     4   9  18  33  53  82 114 144 183 232 282 331
#     4  11  23  40  58  84 117 151 192 236 284 339
#     4   9  18  33  53  82 114 144 183 232 282 331
#     4  11  23  40  58  84 117 151 192 236 284 339
#
# _framework density 18.072548999999999
#
# number of rings (size 3 to 8) (size 9 to 14) (size 15 to 20)
#    0.000    2.000    2.500    1.500    0.000    4.000 
#    0.000    1.250    0.000    0.000    0.000    0.000 
#    0.000    0.000    0.000    0.000    0.000    0.000 
#
# Total GULP energy -396783.679623 kJ/mol
# GULP energy per Si atom -12399.489988 kJ/mol
# Density = 1.803142 g / cm^3
# Si number density = 18.072549 Si / 1000 Ang^3
#
#
#
# Elastic Constant Matrix: (Units=GPa)
#
#
# Indices 1 2 3 4 5 6 
#
# 1 147.3499 66.9785 72.1071 0.0000 0.0000 0.0000
# 2 66.9785 118.7121 54.9891 0.0000 0.0000 0.0000
# 3 72.1071 54.9891 88.5392 0.0000 0.0000 0.0000
# 4 0.0000 0.0000 0.0000 31.5728 0.0000 0.0000
# 5 0.0000 0.0000 0.0000 0.0000 38.5056 0.0000
# 6 0.0000 0.0000 0.0000 0.0000 0.0000 22.7384
#
#
#
# Elastic Compliance Matrix: (Units=1/GPa)
#
#
# Indices 1 2 3 4 5 6 
#
# 1 0.012077 -0.003170 -0.007867 0.000000 0.000000 0.000000
# 2 -0.003170 0.012658 -0.005280 0.000000 0.000000 0.000000
# 3 -0.007867 -0.005280 0.020981 0.000000 0.000000 0.000000
# 4 0.000000 0.000000 0.000000 0.031673 0.000000 0.000000
# 5 0.000000 0.000000 0.000000 0.000000 0.025970 0.000000
# 6 0.000000 0.000000 0.000000 0.000000 0.000000 0.043978
#
#
# Mechanical properties :
#
#
# Convention : Reuss Voigt Hill
#
# Bulk Modulus (GPa) = 76.44039 82.52783 79.48411
# Shear Modulus (GPa) = 27.12498 29.26513 28.19506
#
# Velocity S-wave (km/s) = 3.87834 4.02844 3.95410
# Velocity P-wave (km/s) = 7.90213 8.20985 8.05746
#
# Compressibility (1/GPa) = 0.01308209
#
# Stress axis : x y z
#
# Youngs Moduli (GPa) = 82.79961 79.00165 47.66305
#
# Poissons Ratio (x) = 0.25044 0.37497
# Poissons Ratio (y) = 0.26248 0.25165
# Poissons Ratio (z) = 0.65139 0.41711
#
# Static dielectric constant tensor:
#      x y z
#    x 3.519690 0.000000 0.000000 
#    y 0.000000 6.544760 0.000000 
#    z 0.000000 0.000000 3.641170 
# 
# 
# High freq. dielectric constant tensor:
#      x y z
#    x 1.714440 0.000000 0.000000 
#    y 0.000000 1.672080 0.000000 
#    z 0.000000 0.000000 1.707810 
# 
# From -- ./inp_files/2187.got.cif
#   From: 2010.03.12/outbox.cif.g09.slc.cpg/sg29_2_cif.got.tgz:2187.got - 2010.04.14 03:43:10.
