data_PCOD8169395
_publ_section_title
;
Structure prediction by ZEFSAII (Michael W. Deem and Ramdas Pophale) SiO2 
 PCOD8169395
Probable space group: P N C 2
;
_chemical_formula_sum "Si O2"
_cell_formula_units_Z 32
_cell_length_a 14.329513
_cell_length_b 8.854832
_cell_length_c 14.276466
_cell_angle_alpha 90.000000
_cell_angle_beta 90.000000
_cell_angle_gamma 90.000000
_cell_volume 1811.475531
_symmetry_space_group_name_H-M "P N C 2"
_symmetry_group_IT_number 30
_symmetry_cell_setting 'orthorhombic'
loop_
_space_group_symop_operation_xyz
x,y,z
-x,-y,z
-x,1/2+y,1/2+z
x,1/2-y,1/2+z
loop_
_atom_site_type_symbol
_atom_site_label
_atom_site_fract_x
_atom_site_fract_y
_atom_site_fract_z
Si Si1 0.500000 0.822497 0.734970
Si Si2 0.643303 0.320205 0.388493
Si Si3 0.853098 0.321010 0.382792
Si Si4 0.000000 0.321890 0.533001
Si Si5 1.000000 0.820985 0.734801
Si Si6 0.356697 0.320205 0.388493
Si Si7 0.146902 0.321010 0.382792
Si Si8 0.500000 0.680186 0.024778
O O1 0.408129 0.771186 0.792424
O O2 0.591871 0.771186 0.792424
O O3 0.500000 0.754138 0.630808
O O4 0.500000 0.000000 0.724664
O O5 0.748434 0.255921 0.383780
O O6 0.639047 0.500000 0.402540
O O7 0.593030 0.242831 0.476204
O O8 0.908108 0.269130 0.476003
O O9 0.849654 0.500000 0.379773
O O10 0.908149 0.263460 0.290635
O O11 0.000000 0.500000 0.547129
O O12 0.000000 0.244177 0.632214
O O13 0.091892 0.269130 0.476003
O O14 0.908149 0.763460 0.790635
O O15 0.000000 0.000000 0.728983
O O16 0.251566 0.255921 0.383780
O O17 0.406970 0.242831 0.476204
O O18 0.500000 0.500000 0.020710
#
# Coordination Sequence:
#
# PCOD8169395 Si02
#       8
#     4   4   4   4   4   4   4   4
#     4   8  16  29  46  65  88 117 151 188 230 272
#     4   9  17  33  52  67  87 126 167 190 217 277
#     4   8  16  31  50  68  92 125 161 192 224 271
#     4   9  17  31  48  70  98 125 151 191 238 274
#     4   9  17  31  50  72  94 123 159 193 226 272
#     4   9  17  33  52  67  87 126 167 190 217 277
#     4   8  16  31  50  68  92 125 161 192 224 271
#     4  10  19  31  46  71 100 119 143 196 250 276
#
# _framework density 17.665157000000001
#
# number of rings (size 3 to 8) (size 9 to 14) (size 15 to 20)
#    0.000    3.250    0.000    2.625    0.000    2.000 
#    0.000   12.500    0.000    0.000    0.000    0.000 
#    0.000    0.000    0.000    0.000    0.000    0.000 
#
# Total GULP energy -396626.202072 kJ/mol
# GULP energy per Si atom -12394.568815 kJ/mol
# Density = 1.762495 g / cm^3
# Si number density = 17.665157 Si / 1000 Ang^3
#
#
#
# Elastic Constant Matrix: (Units=GPa)
#
#
# Indices 1 2 3 4 5 6 
#
# 1 194.4535 24.6694 94.7993 0.0000 0.0000 0.0000
# 2 24.6694 25.7945 26.0396 0.0000 0.0000 0.0000
# 3 94.7993 26.0396 177.6862 0.0000 0.0000 0.0000
# 4 0.0000 0.0000 0.0000 30.0266 0.0000 0.0000
# 5 0.0000 0.0000 0.0000 0.0000 13.7148 0.0000
# 6 0.0000 0.0000 0.0000 0.0000 0.0000 17.0329
#
#
#
# Elastic Compliance Matrix: (Units=1/GPa)
#
#
# Indices 1 2 3 4 5 6 
#
# 1 0.007215 -0.003538 -0.003331 0.000000 0.000000 0.000000
# 2 -0.003538 0.047234 -0.005034 0.000000 0.000000 0.000000
# 3 -0.003331 -0.005034 0.008143 0.000000 0.000000 0.000000
# 4 0.000000 0.000000 0.000000 0.033304 0.000000 0.000000
# 5 0.000000 0.000000 0.000000 0.000000 0.072914 0.000000
# 6 0.000000 0.000000 0.000000 0.000000 0.000000 0.058710
#
#
# Mechanical properties :
#
#
# Convention : Reuss Voigt Hill
#
# Bulk Modulus (GPa) = 25.78305 76.55009 51.16657
# Shear Modulus (GPa) = 18.92110 28.98327 23.95218
#
# Velocity S-wave (km/s) = 3.27631 4.05495 3.68625
# Velocity P-wave (km/s) = 5.37954 8.08403 6.86626
#
# Compressibility (1/GPa) = 0.03878518
#
# Stress axis : x y z
#
# Youngs Moduli (GPa) = 138.59198 21.17125 122.80633
#
# Poissons Ratio (x) = 0.07490 0.40908
# Poissons Ratio (y) = 0.49033 0.61827
# Poissons Ratio (z) = 0.46166 0.10659
#
# Static dielectric constant tensor:
#      x y z
#    x 3.715670 0.000000 0.000000 
#    y 0.000000 2.859120 0.000000 
#    z 0.000000 0.000000 3.586640 
# 
# 
# High freq. dielectric constant tensor:
#      x y z
#    x 1.691300 0.000000 0.000000 
#    y 0.000000 1.643490 0.000000 
#    z 0.000000 0.000000 1.688120 
# 
# From -- ./inp_files/5632.got.cif
#   From: 2010.03.12/outbox.cif.g09.slc.cpg/sg30_3_cif.got.tgz:5632.got - 2010.04.14 01:38:02.
