data_PCOD8169939
_publ_section_title
;
Structure prediction by ZEFSAII (Michael W. Deem and Ramdas Pophale) SiO2 
 PCOD8169939
Probable space group: P M N 21
;
_chemical_formula_sum "Si O2"
_cell_formula_units_Z 32
_cell_length_a 8.572579
_cell_length_b 12.593744
_cell_length_c 14.156417
_cell_angle_alpha 90.000000
_cell_angle_beta 90.000000
_cell_angle_gamma 90.000000
_cell_volume 1528.339030
_symmetry_space_group_name_H-M "P M N 21"
_symmetry_group_IT_number 31
_symmetry_cell_setting 'orthorhombic'
loop_
_space_group_symop_operation_xyz
x,y,z
1/2-x,-y,1/2+z
-x,y,z
1/2+x,-y,1/2+z
loop_
_atom_site_type_symbol
_atom_site_label
_atom_site_fract_x
_atom_site_fract_y
_atom_site_fract_z
Si Si1 0.176719 0.907480 0.618770
Si Si2 0.682106 0.171864 0.420845
Si Si3 0.817346 0.875680 0.124784
Si Si4 0.314093 0.425217 0.932738
Si Si5 0.182253 0.758702 0.303032
Si Si6 0.815642 0.326093 0.126193
Si Si7 0.185314 0.619014 0.821943
Si Si8 0.823151 0.961427 0.400200
O O1 0.265854 0.797078 0.637976
O O2 0.185270 0.936943 0.509958
O O3 0.000000 0.890207 0.654309
O O4 0.249270 0.013351 0.667734
O O5 0.500000 0.188491 0.430159
O O6 0.757832 0.160876 0.525459
O O7 0.750434 0.269853 0.362768
O O8 0.724837 0.063733 0.366818
O O9 0.783770 0.773703 0.191997
O O10 0.000000 0.896790 0.113394
O O11 0.500000 0.435329 0.934795
O O12 0.250004 0.347421 0.849436
O O13 0.239028 0.535758 0.901590
O O14 0.259059 0.382405 0.034415
O O15 0.258609 0.861284 0.351596
O O16 0.000000 0.759920 0.326752
O O17 0.762129 0.393901 0.218252
O O18 0.000000 0.332917 0.116062
O O19 0.000000 0.615015 0.810358
O O20 0.000000 0.979235 0.365709
#
# Coordination Sequence:
#
# PCOD8169939 Si02
#       8
#     4   4   4   4   4   4   4   4
#     4  10  19  35  57  86 124 162 201 254 312 366
#     4   9  20  37  56  84 124 162 200 254 309 359
#     4   9  18  34  57  88 122 162 206 248 303 375
#     4  11  23  44  68  93 126 165 210 261 319 378
#     4   9  18  34  58  88 122 162 201 246 304 369
#     4  12  25  42  65  92 120 162 212 261 314 373
#     4  11  25  44  64  92 127 166 213 263 316 374
#     4   9  17  32  55  83 119 161 201 245 303 368
#
# _framework density 20.937764000000001
#
# number of rings (size 3 to 8) (size 9 to 14) (size 15 to 20)
#    0.000    2.000    1.250    2.250    1.750    2.500 
#    0.000    3.750    0.000    0.000    0.000    0.000 
#    0.000    0.000    0.000    0.000    0.000    0.000 
#
# Total GULP energy -396556.070875 kJ/mol
# GULP energy per Si atom -12392.377215 kJ/mol
# Density = 2.089011 g / cm^3
# Si number density = 20.937764 Si / 1000 Ang^3
#
#
#
# Elastic Constant Matrix: (Units=GPa)
#
#
# Indices 1 2 3 4 5 6 
#
# 1 65.7634 24.0583 20.5238 0.0000 0.0000 0.0000
# 2 24.0583 99.6059 35.6243 0.0000 0.0000 0.0000
# 3 20.5238 35.6243 74.4133 0.0000 0.0000 0.0000
# 4 0.0000 0.0000 0.0000 32.3011 0.0000 0.0000
# 5 0.0000 0.0000 0.0000 0.0000 21.6391 0.0000
# 6 0.0000 0.0000 0.0000 0.0000 0.0000 29.1790
#
#
#
# Elastic Compliance Matrix: (Units=1/GPa)
#
#
# Indices 1 2 3 4 5 6 
#
# 1 0.017346 -0.002991 -0.003353 0.000000 0.000000 0.000000
# 2 -0.002991 0.012629 -0.005221 0.000000 0.000000 0.000000
# 3 -0.003353 -0.005221 0.016863 0.000000 0.000000 0.000000
# 4 0.000000 0.000000 0.000000 0.030959 0.000000 0.000000
# 5 0.000000 0.000000 0.000000 0.000000 0.046213 0.000000
# 6 0.000000 0.000000 0.000000 0.000000 0.000000 0.034271
#
#
# Mechanical properties :
#
#
# Convention : Reuss Voigt Hill
#
# Bulk Modulus (GPa) = 42.17724 44.46615 43.32169
# Shear Modulus (GPa) = 26.41127 27.26225 26.83676
#
# Velocity S-wave (km/s) = 3.55550 3.61232 3.58402
# Velocity P-wave (km/s) = 6.08632 6.21948 6.15326
#
# Compressibility (1/GPa) = 0.02370947
#
# Stress axis : x y z
#
# Youngs Moduli (GPa) = 57.64883 79.18084 59.30245
#
# Poissons Ratio (x) = 0.23681 0.19881
# Poissons Ratio (y) = 0.17241 0.30963
# Poissons Ratio (z) = 0.19327 0.41342
#
# Static dielectric constant tensor:
#      x y z
#    x 3.638980 0.000000 0.000000 
#    y 0.000000 3.959720 0.000000 
#    z 0.000000 0.000000 3.974690 
# 
# 
# High freq. dielectric constant tensor:
#      x y z
#    x 1.799690 0.000000 0.000000 
#    y 0.000000 1.819980 0.000000 
#    z 0.000000 0.000000 1.831020 
# 
# From -- ./inp_files/5072.got.cif
#   From: 2010.03.12/outbox.cif.g09.slc.cpg/sg31_3_cif.got.tgz:5072.got - 2010.04.14 01:42:59.
