data_PCOD8169406
_publ_section_title
;
Structure prediction by ZEFSAII (Michael W. Deem and Ramdas Pophale) SiO2 
 PCOD8169406
Probable space group: P N C 2
;
_chemical_formula_sum "Si O2"
_cell_formula_units_Z 24
_cell_length_a 8.426024
_cell_length_b 15.631424
_cell_length_c 8.964043
_cell_angle_alpha 90.000000
_cell_angle_beta 90.000000
_cell_angle_gamma 90.000000
_cell_volume 1180.660860
_symmetry_space_group_name_H-M "P N C 2"
_symmetry_group_IT_number 30
_symmetry_cell_setting 'orthorhombic'
loop_
_space_group_symop_operation_xyz
x,y,z
-x,-y,z
-x,1/2+y,1/2+z
x,1/2-y,1/2+z
loop_
_atom_site_type_symbol
_atom_site_label
_atom_site_fract_x
_atom_site_fract_y
_atom_site_fract_z
Si Si1 0.311842 0.333170 0.214800
Si Si2 0.686290 0.999999 0.552197
Si Si3 0.688542 0.161632 0.056281
Si Si4 0.311460 0.161631 0.056282
Si Si5 0.311841 0.833171 0.714799
Si Si6 0.816467 0.500000 0.726401
O O1 0.239523 0.415473 0.129348
O O2 0.249219 0.247418 0.136002
O O3 0.256010 0.334253 0.385313
O O4 0.500000 0.334433 0.203835
O O5 0.500000 0.000000 0.580839
O O6 0.760477 0.084525 0.629349
O O7 0.716499 0.999999 0.377246
O O8 0.500001 0.149943 0.071254
O O9 0.750783 0.247420 0.135998
O O10 0.774848 0.082613 0.131070
O O11 0.743991 0.165747 0.885312
O O12 0.225154 0.082610 0.131065
O O13 0.000000 0.500000 0.768606
#
# Coordination Sequence:
#
# PCOD8169406 Si02
#       6
#     4   4   4   4   4   4
#     4   9  18  33  61  92 112 135 178 227 277 330
#     4  10  19  36  60  86 112 142 179 226 276 328
#     4  10  19  36  60  86 112 142 179 226 276 328
#     4  10  19  36  60  86 112 142 179 226 276 328
#     4   9  18  33  61  92 112 135 178 227 277 330
#     4  12  25  38  52  78 112 152 193 228 268 320
#
# _framework density 20.327598999999999
#
# number of rings (size 3 to 8) (size 9 to 14) (size 15 to 20)
#    0.000    2.000    0.000    4.500    0.000    8.000 
#    0.000   10.000    0.000    0.000    0.000    0.000 
#    0.000    0.000    0.000    0.000    0.000    0.000 
#
# Total GULP energy -297663.284095 kJ/mol
# GULP energy per Si atom -12402.636837 kJ/mol
# Density = 2.028133 g / cm^3
# Si number density = 20.327599 Si / 1000 Ang^3
#
#
#
# Elastic Constant Matrix: (Units=GPa)
#
#
# Indices 1 2 3 4 5 6 
#
# 1 20.1541 14.5321 -1.0205 0.0000 0.0000 0.0000
# 2 14.5321 212.5462 92.5815 0.0000 0.0000 0.0000
# 3 -1.0205 92.5815 161.7791 0.0000 0.0000 0.0000
# 4 0.0000 0.0000 0.0000 48.3643 0.0000 0.0000
# 5 0.0000 0.0000 0.0000 0.0000 4.1796 0.0000
# 6 0.0000 0.0000 0.0000 0.0000 0.0000 3.7010
#
#
#
# Elastic Compliance Matrix: (Units=1/GPa)
#
#
# Indices 1 2 3 4 5 6 
#
# 1 0.053431 -0.005062 0.003234 0.000000 0.000000 0.000000
# 2 -0.005062 0.006747 -0.003893 0.000000 0.000000 0.000000
# 3 0.003234 -0.003893 0.008429 0.000000 0.000000 0.000000
# 4 0.000000 0.000000 0.000000 0.020676 0.000000 0.000000
# 5 0.000000 0.000000 0.000000 0.000000 0.239260 0.000000
# 6 0.000000 0.000000 0.000000 0.000000 0.000000 0.270198
#
#
# Mechanical properties :
#
#
# Convention : Reuss Voigt Hill
#
# Bulk Modulus (GPa) = 17.49304 67.40728 42.45016
# Shear Modulus (GPa) = 7.94612 30.47471 19.21041
#
# Velocity S-wave (km/s) = 1.97927 3.87612 3.07749
# Velocity P-wave (km/s) = 3.72124 7.29828 5.79278
#
# Compressibility (1/GPa) = 0.05716560
#
# Stress axis : x y z
#
# Youngs Moduli (GPa) = 18.71564 148.22333 118.63239
#
# Poissons Ratio (x) = 0.75027 -0.38363
# Poissons Ratio (y) = 0.09473 0.46181
# Poissons Ratio (z) = -0.06052 0.57700
#
# Static dielectric constant tensor:
#      x y z
#    x 3.115550 0.000000 0.000000 
#    y 0.000000 4.117890 0.000000 
#    z 0.000000 0.000000 3.827760 
# 
# 
# High freq. dielectric constant tensor:
#      x y z
#    x 1.740780 0.000000 0.000000 
#    y 0.000000 1.818630 0.000000 
#    z 0.000000 0.000000 1.812430 
# 
# From -- ./inp_files/1828.got.cif
#   From: 2010.03.12/outbox.cif.g09.slc.cpg/sg30_1_cif.got.tgz:1828.got - 2010.04.14 01:38:02.
