data_PCOD8169488
_publ_section_title
;
Structure prediction by ZEFSAII (Michael W. Deem and Ramdas Pophale) SiO2 
 PCOD8169488
Probable space group: P N C 2
;
_chemical_formula_sum "Si O2"
_cell_formula_units_Z 32
_cell_length_a 9.194294
_cell_length_b 10.298795
_cell_length_c 18.090468
_cell_angle_alpha 90.000000
_cell_angle_beta 90.000000
_cell_angle_gamma 90.000000
_cell_volume 1712.989112
_symmetry_space_group_name_H-M "P N C 2"
_symmetry_group_IT_number 30
_symmetry_cell_setting 'orthorhombic'
loop_
_space_group_symop_operation_xyz
x,y,z
-x,-y,z
-x,1/2+y,1/2+z
x,1/2-y,1/2+z
loop_
_atom_site_type_symbol
_atom_site_label
_atom_site_fract_x
_atom_site_fract_y
_atom_site_fract_z
Si Si1 0.168493 0.976196 0.196910
Si Si2 0.362462 0.280156 0.869127
Si Si3 0.327375 0.999099 0.863382
Si Si4 0.332170 0.745427 0.619238
Si Si5 0.168493 0.976196 0.367438
Si Si6 0.362462 0.280156 0.695221
Si Si7 0.667830 0.245427 0.445110
Si Si8 0.327375 0.999098 0.700966
O O1 0.213334 0.858072 0.144761
O O2 0.201949 0.941586 0.282174
O O3 0.255877 0.104338 0.172437
O O4 0.000000 0.000000 0.183754
O O5 0.282402 0.143928 0.890603
O O6 0.255877 0.395663 0.891911
O O7 0.399056 0.280334 0.782174
O O8 0.513414 0.297071 0.911863
O O9 0.500000 0.000000 0.858395
O O10 0.276013 0.887151 0.918933
O O11 0.260765 0.970098 0.782174
O O12 0.486587 0.702930 0.652485
O O13 0.345746 0.750001 0.532174
O O14 0.276012 0.887150 0.645416
O O15 0.213333 0.858071 0.419586
O O16 0.000000 0.000000 0.380594
O O17 0.282402 0.143927 0.673746
O O18 0.500000 0.000000 0.705953
#
# Coordination Sequence:
#
# PCOD8169488 Si02
#       8
#     4   4   4   4   4   4   4   4
#     4  10  21  38  58  80 109 147 190 230 268 318
#     4   9  18  34  57  81 104 136 181 230 274 318
#     4   8  15  30  51  74 100 131 171 220 269 315
#     4  11  21  33  52  82 111 140 178 223 279 331
#     4  10  21  38  58  80 109 147 190 230 268 318
#     4   9  18  34  57  81 104 136 181 230 274 318
#     4  11  21  33  52  82 111 140 178 223 279 331
#     4   8  15  30  51  74 100 131 171 220 269 315
#
# _framework density 18.680796000000001
#
# number of rings (size 3 to 8) (size 9 to 14) (size 15 to 20)
#    0.000    2.500    0.000    4.500    0.000    8.000 
#    0.000    5.000    0.000    6.000    0.000    0.000 
#    0.000    0.000    0.000    0.000    0.000    0.000 
#
# Total GULP energy -396728.883280 kJ/mol
# GULP energy per Si atom -12397.777602 kJ/mol
# Density = 1.863828 g / cm^3
# Si number density = 18.680796 Si / 1000 Ang^3
#
#
#
# Elastic Constant Matrix: (Units=GPa)
#
#
# Indices 1 2 3 4 5 6 
#
# 1 69.0269 45.3524 37.3183 0.0000 0.0000 0.0000
# 2 45.3524 144.8882 58.1875 0.0000 0.0000 0.0000
# 3 37.3183 58.1875 93.3774 0.0000 0.0000 0.0000
# 4 0.0000 0.0000 0.0000 7.1617 0.0000 0.0000
# 5 0.0000 0.0000 0.0000 0.0000 8.0856 0.0000
# 6 0.0000 0.0000 0.0000 0.0000 0.0000 12.1596
#
#
#
# Elastic Compliance Matrix: (Units=1/GPa)
#
#
# Indices 1 2 3 4 5 6 
#
# 1 0.020154 -0.004100 -0.005500 0.000000 0.000000 0.000000
# 2 -0.004100 0.010040 -0.004618 0.000000 0.000000 0.000000
# 3 -0.005500 -0.004618 0.015785 0.000000 0.000000 0.000000
# 4 0.000000 0.000000 0.000000 0.139632 0.000000 0.000000
# 5 0.000000 0.000000 0.000000 0.000000 0.123677 0.000000
# 6 0.000000 0.000000 0.000000 0.000000 0.000000 0.082240
#
#
# Mechanical properties :
#
#
# Convention : Reuss Voigt Hill
#
# Bulk Modulus (GPa) = 56.99987 65.44543 61.22265
# Shear Modulus (GPa) = 11.74234 16.57700 14.15967
#
# Velocity S-wave (km/s) = 2.50987 2.98213 2.75613
# Velocity P-wave (km/s) = 6.24324 6.85325 6.55534
#
# Compressibility (1/GPa) = 0.01754390
#
# Stress axis : x y z
#
# Youngs Moduli (GPa) = 49.61745 99.60506 63.35259
#
# Poissons Ratio (x) = 0.40837 0.34843
# Poissons Ratio (y) = 0.20342 0.29254
# Poissons Ratio (z) = 0.27289 0.45994
#
# Static dielectric constant tensor:
#      x y z
#    x 3.039160 0.000000 0.000000 
#    y 0.000000 4.100720 0.000000 
#    z 0.000000 0.000000 3.323380 
# 
# 
# High freq. dielectric constant tensor:
#      x y z
#    x 1.685770 0.000000 0.000000 
#    y 0.000000 1.749760 0.000000 
#    z 0.000000 0.000000 1.708190 
# 
# From -- ./inp_files/5230.got.cif
#   From: 2010.03.12/outbox.cif.g09.slc.cpg/sg30_3_cif.got.tgz:5230.got - 2010.04.14 01:38:02.
