data_PCOD8169969
_publ_section_title
;
Structure prediction by ZEFSAII (Michael W. Deem and Ramdas Pophale) SiO2 
 PCOD8169969
Probable space group: P M N 21
;
_chemical_formula_sum "Si O2"
_cell_formula_units_Z 32
_cell_length_a 9.078330
_cell_length_b 12.127733
_cell_length_c 14.625439
_cell_angle_alpha 90.000000
_cell_angle_beta 90.000000
_cell_angle_gamma 90.000000
_cell_volume 1610.254433
_symmetry_space_group_name_H-M "P M N 21"
_symmetry_group_IT_number 31
_symmetry_cell_setting 'orthorhombic'
loop_
_space_group_symop_operation_xyz
x,y,z
1/2-x,-y,1/2+z
-x,y,z
1/2+x,-y,1/2+z
loop_
_atom_site_type_symbol
_atom_site_label
_atom_site_fract_x
_atom_site_fract_y
_atom_site_fract_z
Si Si1 0.826787 0.662405 0.004630
Si Si2 0.665554 0.274927 0.971514
Si Si3 0.173728 0.498427 0.377539
Si Si4 0.174296 0.607858 0.199975
Si Si5 0.174604 0.117150 0.098356
Si Si6 0.325977 0.051268 0.274399
Si Si7 0.326268 0.089958 0.479122
Si Si8 0.166750 0.832362 0.281410
O O1 0.778109 0.591094 0.094439
O O2 0.000000 0.655218 0.988506
O O3 0.749843 0.610566 0.916345
O O4 0.779462 0.790073 0.017819
O O5 0.500000 0.283531 0.011593
O O6 0.719609 0.394656 0.936907
O O7 0.666364 0.187690 0.889322
O O8 0.777072 0.229148 0.047294
O O9 0.229571 0.514697 0.271811
O O10 0.000000 0.481206 0.380885
O O11 0.233219 0.726453 0.230736
O O12 0.000000 0.613774 0.209817
O O13 0.246430 0.126150 0.198590
O O14 0.000000 0.116135 0.107548
O O15 0.234656 0.008120 0.044150
O O16 0.500000 0.066059 0.265601
O O17 0.266111 0.082184 0.375317
O O18 0.279429 0.926714 0.253617
O O19 0.500000 0.076240 0.475521
O O20 0.000000 0.861683 0.247821
#
# Coordination Sequence:
#
# PCOD8169969 Si02
#       8
#     4   4   4   4   4   4   4   4
#     4  10  19  36  59  80 105 145 190 226 266 326
#     4   9  18  34  56  79 106 139 176 224 280 328
#     4   9  19  37  57  80 110 142 176 227 284 326
#     4   8  16  33  58  81 105 141 184 226 275 326
#     4  11  21  36  57  82 110 146 189 227 269 330
#     4  11  21  34  51  79 116 150 178 220 281 333
#     4   9  20  37  56  79 113 148 179 223 279 329
#     4   9  16  31  56  80 103 139 184 225 266 324
#
# _framework density 19.872637000000001
#
# number of rings (size 3 to 8) (size 9 to 14) (size 15 to 20)
#    0.000    2.500    1.250    3.000    0.000    2.500 
#    2.250    6.875    0.000    0.000    0.000    0.000 
#    0.000    0.000    0.000    0.000    0.000    0.000 
#
# Total GULP energy -396625.402444 kJ/mol
# GULP energy per Si atom -12394.543826 kJ/mol
# Density = 1.982741 g / cm^3
# Si number density = 19.872637 Si / 1000 Ang^3
#
#
#
# Elastic Constant Matrix: (Units=GPa)
#
#
# Indices 1 2 3 4 5 6 
#
# 1 45.5858 8.8764 22.1588 0.0000 0.0000 0.0000
# 2 8.8764 38.7304 7.1924 0.0000 0.0000 0.0000
# 3 22.1588 7.1924 96.4329 0.0000 0.0000 0.0000
# 4 0.0000 0.0000 0.0000 26.2654 0.0000 0.0000
# 5 0.0000 0.0000 0.0000 0.0000 26.9352 0.0000
# 6 0.0000 0.0000 0.0000 0.0000 0.0000 28.6347
#
#
#
# Elastic Compliance Matrix: (Units=1/GPa)
#
#
# Indices 1 2 3 4 5 6 
#
# 1 0.025557 -0.004834 -0.005512 0.000000 0.000000 0.000000
# 2 -0.004834 0.027096 -0.000910 0.000000 0.000000 0.000000
# 3 -0.005512 -0.000910 0.011704 0.000000 0.000000 0.000000
# 4 0.000000 0.000000 0.000000 0.038073 0.000000 0.000000
# 5 0.000000 0.000000 0.000000 0.000000 0.037126 0.000000
# 6 0.000000 0.000000 0.000000 0.000000 0.000000 0.034923
#
#
# Mechanical properties :
#
#
# Convention : Reuss Voigt Hill
#
# Bulk Modulus (GPa) = 23.89724 28.57824 26.23774
# Shear Modulus (GPa) = 23.70335 25.86849 24.78592
#
# Velocity S-wave (km/s) = 3.45739 3.61184 3.53546
# Velocity P-wave (km/s) = 5.29049 5.63966 5.46787
#
# Compressibility (1/GPa) = 0.04184584
#
# Stress axis : x y z
#
# Youngs Moduli (GPa) = 39.12779 36.90528 85.43787
#
# Poissons Ratio (x) = 0.17839 0.47095
# Poissons Ratio (y) = 0.18913 0.07777
# Poissons Ratio (z) = 0.21568 0.03359
#
# Static dielectric constant tensor:
#      x y z
#    x 3.230730 0.000000 0.000000 
#    y 0.000000 3.451760 0.000000 
#    z 0.000000 0.000000 3.857280 
# 
# 
# High freq. dielectric constant tensor:
#      x y z
#    x 1.739230 0.000000 0.000000 
#    y 0.000000 1.760190 0.000000 
#    z 0.000000 0.000000 1.784170 
# 
# From -- ./inp_files/5086.got.cif
#   From: 2010.03.12/outbox.cif.g09.slc.cpg/sg31_3_cif.got.tgz:5086.got - 2010.04.14 01:42:59.
