data_PCOD8169558
_publ_section_title
;
Structure prediction by ZEFSAII (Michael W. Deem and Ramdas Pophale) SiO2 
 PCOD8169558
Probable space group: P N C 2
;
_chemical_formula_sum "Si O2"
_cell_formula_units_Z 22
_cell_length_a 8.695995
_cell_length_b 7.518764
_cell_length_c 15.630633
_cell_angle_alpha 90.000000
_cell_angle_beta 90.000000
_cell_angle_gamma 90.000000
_cell_volume 1021.979774
_symmetry_space_group_name_H-M "P N C 2"
_symmetry_group_IT_number 30
_symmetry_cell_setting 'orthorhombic'
loop_
_space_group_symop_operation_xyz
x,y,z
-x,-y,z
-x,1/2+y,1/2+z
x,1/2-y,1/2+z
loop_
_atom_site_type_symbol
_atom_site_label
_atom_site_fract_x
_atom_site_fract_y
_atom_site_fract_z
Si Si1 0.000000 0.000000 0.441200
Si Si2 0.832124 0.683389 0.519637
Si Si3 0.505523 0.798765 0.567859
Si Si4 0.779220 0.380371 0.802671
Si Si5 0.000000 0.000000 0.168544
Si Si6 0.500000 0.500000 0.706979
Si Si7 0.341301 0.897440 0.923053
O O1 0.968226 0.820114 0.494738
O O2 0.152060 0.976092 0.385382
O O3 0.671858 0.782220 0.526427
O O4 0.802102 0.522661 0.452260
O O5 0.877032 0.603724 0.611374
O O6 0.483696 0.674748 0.649705
O O7 0.375199 0.747742 0.497960
O O8 0.500000 0.000000 0.599560
O O9 0.647498 0.511540 0.768077
O O10 0.710087 0.191826 0.833609
O O11 0.909077 0.358497 0.728978
O O12 0.500000 0.000000 0.905904
#
# Coordination Sequence:
#
# PCOD8169558 Si02
#       7
#     2   4   4   4   2   2   4
#     4  11  26  42  68  99 134 190 234 277 358 420
#     4  11  22  45  70  98 136 191 240 283 337 444
#     4  11  22  43  74 103 133 186 240 286 342 418
#     4  11  25  42  64 102 141 183 215 301 352 395
#     4  11  22  44  70  95 150 172 220 295 360 404
#     4  12  24  46  66 106 146 174 238 294 348 404
#     4  10  22  42  72 103 134 184 243 288 339 410
#
# _framework density 21.526844000000001
#
# number of rings (size 3 to 8) (size 9 to 14) (size 15 to 20)
#    0.000    1.091    4.545    2.182    6.364    2.182 
#    0.000    5.455    0.000    0.000    0.000    0.000 
#    0.000    0.000    0.000    0.000    0.000    0.000 
#
# Total GULP energy -272765.133185 kJ/mol
# GULP energy per Si atom -12398.415145 kJ/mol
# Density = 2.147785 g / cm^3
# Si number density = 21.526844 Si / 1000 Ang^3
#
#
#
# Elastic Constant Matrix: (Units=GPa)
#
#
# Indices 1 2 3 4 5 6 
#
# 1 94.6327 43.2781 53.6608 0.0000 0.0000 0.0000
# 2 43.2781 144.5045 62.9400 0.0000 0.0000 0.0000
# 3 53.6608 62.9400 122.5528 0.0000 0.0000 0.0000
# 4 0.0000 0.0000 0.0000 27.8443 0.0000 0.0000
# 5 0.0000 0.0000 0.0000 0.0000 44.5868 0.0000
# 6 0.0000 0.0000 0.0000 0.0000 0.0000 32.3628
#
#
#
# Elastic Compliance Matrix: (Units=1/GPa)
#
#
# Indices 1 2 3 4 5 6 
#
# 1 0.014507 -0.002033 -0.005308 0.000000 0.000000 0.000000
# 2 -0.002033 0.009199 -0.003834 0.000000 0.000000 0.000000
# 3 -0.005308 -0.003834 0.012453 0.000000 0.000000 0.000000
# 4 0.000000 0.000000 0.000000 0.035914 0.000000 0.000000
# 5 0.000000 0.000000 0.000000 0.000000 0.022428 0.000000
# 6 0.000000 0.000000 0.000000 0.000000 0.000000 0.030900
#
#
# Mechanical properties :
#
#
# Convention : Reuss Voigt Hill
#
# Bulk Modulus (GPa) = 72.41761 75.71643 74.06702
# Shear Modulus (GPa) = 32.81843 34.41286 33.61564
#
# Velocity S-wave (km/s) = 3.90877 4.00259 3.95596
# Velocity P-wave (km/s) = 7.35424 7.52399 7.43960
#
# Compressibility (1/GPa) = 0.01380880
#
# Stress axis : x y z
#
# Youngs Moduli (GPa) = 68.93418 108.70664 80.30146
#
# Poissons Ratio (x) = 0.22097 0.42623
# Poissons Ratio (y) = 0.14013 0.30790
# Poissons Ratio (z) = 0.36589 0.41682
#
# Static dielectric constant tensor:
#      x y z
#    x 4.024880 0.000000 0.000000 
#    y 0.000000 3.819140 0.000000 
#    z 0.000000 0.000000 3.862750 
# 
# 
# High freq. dielectric constant tensor:
#      x y z
#    x 1.863620 0.000000 0.000000 
#    y 0.000000 1.829630 0.000000 
#    z 0.000000 0.000000 1.842430 
# 
# From -- ./inp_files/4978.got.cif
#   From: 2010.03.12/outbox.cif.g09.slc.cpg/sg30_3_cif.got.tgz:4978.got - 2010.04.14 01:38:02.
