data_PCOD8169160
_publ_section_title
;
Structure prediction by ZEFSAII (Michael W. Deem and Ramdas Pophale) SiO2 
 PCOD8169160
Probable space group: P C A 21
;
_chemical_formula_sum "Si O2"
_cell_formula_units_Z 32
_cell_length_a 18.126907
_cell_length_b 5.255914
_cell_length_c 15.015418
_cell_angle_alpha 90.000000
_cell_angle_beta 90.000000
_cell_angle_gamma 90.000000
_cell_volume 1430.570890
_symmetry_space_group_name_H-M "P C A 21"
_symmetry_group_IT_number 29
_symmetry_cell_setting 'orthorhombic'
loop_
_space_group_symop_operation_xyz
x,y,z
-x,-y,1/2+z
1/2-x,y,1/2+z
1/2+x,-y,z
loop_
_atom_site_type_symbol
_atom_site_label
_atom_site_fract_x
_atom_site_fract_y
_atom_site_fract_z
Si Si1 0.546809 0.827920 0.011670
Si Si2 0.259087 0.641767 0.451748
Si Si3 0.265684 0.347955 0.280425
Si Si4 0.605346 0.348304 0.696286
Si Si5 0.667802 0.000439 0.546845
Si Si6 0.375396 0.954337 0.352919
Si Si7 0.804233 0.713577 0.606447
Si Si8 0.539365 0.662929 0.557397
O O1 0.612920 0.777159 0.079708
O O2 0.492463 0.584572 0.006560
O O3 0.512081 0.091292 0.046732
O O4 0.574890 0.852045 0.909843
O O5 0.237025 0.436154 0.376945
O O6 0.189586 0.835080 0.459538
O O7 0.335920 0.771743 0.423931
O O8 0.274043 0.520846 0.548184
O O9 0.316585 0.550705 0.230093
O O10 0.196138 0.324236 0.213570
O O11 0.312629 0.092182 0.294224
O O12 0.615748 0.158665 0.613283
O O13 0.572503 0.198576 0.782479
O O14 0.551399 0.574983 0.661413
O O15 0.746800 0.941795 0.590609
O O16 0.621034 0.746074 0.520409
#
# Coordination Sequence:
#
# PCOD8169160 Si02
#       8
#     4   4   4   4   4   4   4   4
#     4  12  27  45  73 110 154 192 251 316 383 447
#     4  11  22  40  71 113 147 178 253 322 361 445
#     4  11  22  40  75 111 145 187 251 313 376 441
#     4  11  22  42  77 104 142 192 255 295 364 466
#     4  12  21  44  76 105 141 198 253 302 370 458
#     4  11  23  42  73 112 143 188 257 311 373 449
#     4  12  23  42  77 107 143 195 249 315 380 436
#     4  12  26  47  72 104 149 210 247 294 383 468
#
# _framework density 22.368691999999999
#
# number of rings (size 3 to 8) (size 9 to 14) (size 15 to 20)
#    0.000    0.500    7.500    0.750    1.750    0.000 
#    0.000    0.000   13.750    0.000    0.000    0.000 
#    0.000    0.000    0.000    0.000    0.000    0.000 
#
# Total GULP energy -396539.026042 kJ/mol
# GULP energy per Si atom -12391.844564 kJ/mol
# Density = 2.231778 g / cm^3
# Si number density = 22.368692 Si / 1000 Ang^3
#
#
#
# Elastic Constant Matrix: (Units=GPa)
#
#
# Indices 1 2 3 4 5 6 
#
# 1 60.8864 31.5565 36.2768 0.0000 0.0000 0.0000
# 2 31.5565 126.2471 48.4225 0.0000 0.0000 0.0000
# 3 36.2768 48.4225 115.0251 0.0000 0.0000 0.0000
# 4 0.0000 0.0000 0.0000 34.5194 0.0000 0.0000
# 5 0.0000 0.0000 0.0000 0.0000 24.8016 0.0000
# 6 0.0000 0.0000 0.0000 0.0000 0.0000 44.0787
#
#
#
# Elastic Compliance Matrix: (Units=1/GPa)
#
#
# Indices 1 2 3 4 5 6 
#
# 1 0.021304 -0.003277 -0.005339 0.000000 0.000000 0.000000
# 2 -0.003277 0.009950 -0.003155 0.000000 0.000000 0.000000
# 3 -0.005339 -0.003155 0.011706 0.000000 0.000000 0.000000
# 4 0.000000 0.000000 0.000000 0.028969 0.000000 0.000000
# 5 0.000000 0.000000 0.000000 0.000000 0.040320 0.000000
# 6 0.000000 0.000000 0.000000 0.000000 0.000000 0.022687
#
#
# Mechanical properties :
#
#
# Convention : Reuss Voigt Hill
#
# Bulk Modulus (GPa) = 51.50207 59.40779 55.45493
# Shear Modulus (GPa) = 30.31199 33.07348 31.69273
#
# Velocity S-wave (km/s) = 3.68517 3.84938 3.76817
# Velocity P-wave (km/s) = 6.41728 6.80978 6.61644
#
# Compressibility (1/GPa) = 0.01941670
#
# Stress axis : x y z
#
# Youngs Moduli (GPa) = 46.94024 100.49910 85.42691
#
# Poissons Ratio (x) = 0.32935 0.45611
# Poissons Ratio (y) = 0.15383 0.26954
# Poissons Ratio (z) = 0.25062 0.31710
#
# Static dielectric constant tensor:
#      x y z
#    x 3.968490 0.000000 0.000000 
#    y 0.000000 4.417500 0.000000 
#    z 0.000000 0.000000 4.288370 
# 
# 
# High freq. dielectric constant tensor:
#      x y z
#    x 1.848570 0.000000 0.000000 
#    y 0.000000 1.905400 0.000000 
#    z 0.000000 0.000000 1.874010 
# 
# From -- ./inp_files/4782.got.cif
#   From: 2010.03.12/outbox.cif.g09.slc.cpg/sg29_3_cif.got.tgz:4782.got - 2010.04.14 03:43:10.
