data_PCOD8169864
_publ_section_title
;
Structure prediction by ZEFSAII (Michael W. Deem and Ramdas Pophale) SiO2 
 PCOD8169864
Probable space group: P M N 21
;
_chemical_formula_sum "Si O2"
_cell_formula_units_Z 32
_cell_length_a 9.072422
_cell_length_b 12.481113
_cell_length_c 14.340596
_cell_angle_alpha 90.000000
_cell_angle_beta 90.000000
_cell_angle_gamma 90.000000
_cell_volume 1623.841960
_symmetry_space_group_name_H-M "P M N 21"
_symmetry_group_IT_number 31
_symmetry_cell_setting 'orthorhombic'
loop_
_space_group_symop_operation_xyz
x,y,z
1/2-x,-y,1/2+z
-x,y,z
1/2+x,-y,1/2+z
loop_
_atom_site_type_symbol
_atom_site_label
_atom_site_fract_x
_atom_site_fract_y
_atom_site_fract_z
Si Si1 0.830681 0.319716 0.016670
Si Si2 0.172461 0.711158 0.140540
Si Si3 0.333473 0.579915 0.833099
Si Si4 0.166207 0.474465 0.548129
Si Si5 0.324674 0.824577 0.815917
Si Si6 0.826078 0.104328 0.113398
Si Si7 0.824445 0.897219 0.003353
Si Si8 0.668342 0.632031 0.303353
O O1 0.722649 0.405339 0.062897
O O2 0.775297 0.206027 0.053549
O O3 0.000000 0.342387 0.045881
O O4 0.811751 0.323837 0.906441
O O5 0.219548 0.595254 0.105506
O O6 0.227940 0.798802 0.067263
O O7 0.250385 0.722329 0.240985
O O8 0.000000 0.719908 0.155538
O O9 0.500000 0.565668 0.795828
O O10 0.274822 0.699571 0.809599
O O11 0.233971 0.487491 0.786939
O O12 0.326450 0.564767 0.942987
O O13 0.000000 0.464603 0.586864
O O14 0.500000 0.829939 0.829898
O O15 0.271998 0.884098 0.720816
O O16 0.248912 0.886069 0.901940
O O17 0.000000 0.094847 0.115555
O O18 0.763285 0.000984 0.058968
O O19 0.000000 0.900218 0.989627
O O20 0.500000 0.624896 0.273082
#
# Coordination Sequence:
#
# PCOD8169864 Si02
#       8
#     4   4   4   4   4   4   4   4
#     4   9  19  37  58  82 115 153 189 230 290 352
#     4  11  22  35  54  80 113 156 197 234 286 343
#     4   9  18  33  54  82 115 150 188 232 288 349
#     4  10  19  33  54  82 116 147 185 238 287 338
#     4  10  20  37  61  86 113 150 193 237 290 349
#     4   9  20  39  62  86 113 151 195 237 286 347
#     4  10  22  40  60  84 116 153 197 244 286 338
#     4  10  21  34  53  84 119 154 192 238 287 344
#
# _framework density 19.706353
#
# number of rings (size 3 to 8) (size 9 to 14) (size 15 to 20)
#    0.000    2.250    1.250    1.125    1.750    3.000 
#    0.000    1.875    0.000    0.000    0.000    0.000 
#    0.000    0.000    0.000    0.000    0.000    0.000 
#
# Total GULP energy -396716.622817 kJ/mol
# GULP energy per Si atom -12397.394463 kJ/mol
# Density = 1.966150 g / cm^3
# Si number density = 19.706353 Si / 1000 Ang^3
#
#
#
# Elastic Constant Matrix: (Units=GPa)
#
#
# Indices 1 2 3 4 5 6 
#
# 1 54.8728 43.2196 35.0771 0.0000 0.0000 0.0000
# 2 43.2196 113.8467 83.4826 0.0000 0.0000 0.0000
# 3 35.0771 83.4826 113.9396 0.0000 0.0000 0.0000
# 4 0.0000 0.0000 0.0000 28.2913 0.0000 0.0000
# 5 0.0000 0.0000 0.0000 0.0000 32.3722 0.0000
# 6 0.0000 0.0000 0.0000 0.0000 0.0000 20.5544
#
#
#
# Elastic Compliance Matrix: (Units=1/GPa)
#
#
# Indices 1 2 3 4 5 6 
#
# 1 0.026145 -0.008695 -0.001678 0.000000 0.000000 0.000000
# 2 -0.008695 0.021874 -0.013350 0.000000 0.000000 0.000000
# 3 -0.001678 -0.013350 0.019075 0.000000 0.000000 0.000000
# 4 0.000000 0.000000 0.000000 0.035347 0.000000 0.000000
# 5 0.000000 0.000000 0.000000 0.000000 0.030891 0.000000
# 6 0.000000 0.000000 0.000000 0.000000 0.000000 0.048651
#
#
# Mechanical properties :
#
#
# Convention : Reuss Voigt Hill
#
# Bulk Modulus (GPa) = 50.89735 67.35753 59.12744
# Shear Modulus (GPa) = 21.18835 24.30223 22.74529
#
# Velocity S-wave (km/s) = 3.28259 3.51553 3.40105
# Velocity P-wave (km/s) = 6.34438 7.12274 6.74480
#
# Compressibility (1/GPa) = 0.01964739
#
# Stress axis : x y z
#
# Youngs Moduli (GPa) = 38.24801 45.71615 52.42490
#
# Poissons Ratio (x) = 0.39749 0.08799
# Poissons Ratio (y) = 0.33256 0.69989
# Poissons Ratio (z) = 0.06420 0.61032
#
# Static dielectric constant tensor:
#      x y z
#    x 3.466820 0.000000 0.000000 
#    y 0.000000 3.683850 0.000000 
#    z 0.000000 0.000000 3.857940 
# 
# 
# High freq. dielectric constant tensor:
#      x y z
#    x 1.749470 0.000000 0.000000 
#    y 0.000000 1.761070 0.000000 
#    z 0.000000 0.000000 1.783090 
# 
# From -- ./inp_files/5029.got.cif
#   From: 2010.03.12/outbox.cif.g09.slc.cpg/sg31_3_cif.got.tgz:5029.got - 2010.04.14 01:42:59.
