data_PCOD8169618
_publ_section_title
;
Structure prediction by ZEFSAII (Michael W. Deem and Ramdas Pophale) SiO2 
 PCOD8169618
Probable space group: P N C 2
;
_chemical_formula_sum "Si O2"
_cell_formula_units_Z 12
_cell_length_a 5.227477
_cell_length_b 5.245076
_cell_length_c 17.239345
_cell_angle_alpha 90.000000
_cell_angle_beta 90.000000
_cell_angle_gamma 90.000000
_cell_volume 472.677225
_symmetry_space_group_name_H-M "P N C 2"
_symmetry_group_IT_number 30
_symmetry_cell_setting 'orthorhombic'
loop_
_space_group_symop_operation_xyz
x,y,z
-x,-y,z
-x,1/2+y,1/2+z
x,1/2-y,1/2+z
loop_
_atom_site_type_symbol
_atom_site_label
_atom_site_fract_x
_atom_site_fract_y
_atom_site_fract_z
Si Si1 0.000000 0.000000 0.289940
Si Si2 0.500000 0.000000 0.041190
Si Si3 0.146300 0.262751 0.937865
Si Si4 0.244310 0.669239 0.161669
O O1 0.187558 0.821952 0.240597
O O2 0.818430 0.824430 0.345822
O O3 0.278811 0.881395 0.095060
O O4 0.590941 0.769836 0.984963
O O5 0.000000 0.500000 0.977900
O O6 0.000000 0.000000 0.949192
O O7 0.500000 0.500000 0.172471
O O8 0.000000 0.500000 0.139349
#
# Coordination Sequence:
#
# PCOD8169618 Si02
#       4
#     2   2   4   4
#     4  10  26  60  78 126 172 226 290 350 430 512
#     4  12  30  50  86 128 170 222 292 350 438 504
#     4  10  27  53  83 123 171 218 289 354 431 508
#     4  12  29  53  87 123 175 230 287 355 427 519
#
# _framework density 25.387301000000001
#
# number of rings (size 3 to 8) (size 9 to 14) (size 15 to 20)
#    1.000    0.000    0.000    3.000   11.667    0.000 
#   30.000    3.333    0.000    0.000    0.000    0.000 
#    0.000    0.000    0.000    0.000    0.000    0.000 
#
# Total GULP energy -148740.424660 kJ/mol
# GULP energy per Si atom -12395.035388 kJ/mol
# Density = 2.532952 g / cm^3
# Si number density = 25.387301 Si / 1000 Ang^3
#
#
#
# Elastic Constant Matrix: (Units=GPa)
#
#
# Indices 1 2 3 4 5 6 
#
# 1 147.5736 70.4645 76.3618 0.0000 0.0000 0.0000
# 2 70.4645 178.6403 78.4182 0.0000 0.0000 0.0000
# 3 76.3618 78.4182 203.3080 0.0000 0.0000 0.0000
# 4 0.0000 0.0000 0.0000 23.8957 0.0000 0.0000
# 5 0.0000 0.0000 0.0000 0.0000 31.7079 0.0000
# 6 0.0000 0.0000 0.0000 0.0000 0.0000 56.0889
#
#
#
# Elastic Compliance Matrix: (Units=1/GPa)
#
#
# Indices 1 2 3 4 5 6 
#
# 1 0.009297 -0.002569 -0.002501 0.000000 0.000000 0.000000
# 2 -0.002569 0.007449 -0.001908 0.000000 0.000000 0.000000
# 3 -0.002501 -0.001908 0.006594 0.000000 0.000000 0.000000
# 4 0.000000 0.000000 0.000000 0.041849 0.000000 0.000000
# 5 0.000000 0.000000 0.000000 0.000000 0.031538 0.000000
# 6 0.000000 0.000000 0.000000 0.000000 0.000000 0.017829
#
#
# Mechanical properties :
#
#
# Convention : Reuss Voigt Hill
#
# Bulk Modulus (GPa) = 106.57310 108.89012 107.73161
# Shear Modulus (GPa) = 37.98235 42.62367 40.30301
#
# Velocity S-wave (km/s) = 3.87216 4.10193 3.98870
# Velocity P-wave (km/s) = 7.87792 8.08821 7.98375
#
# Compressibility (1/GPa) = 0.00938323
#
# Stress axis : x y z
#
# Youngs Moduli (GPa) = 107.55834 134.24715 151.65386
#
# Poissons Ratio (x) = 0.34494 0.37928
# Poissons Ratio (y) = 0.27637 0.28937
# Poissons Ratio (z) = 0.26900 0.25615
#
# Static dielectric constant tensor:
#      x y z
#    x 4.549960 0.000000 0.000000 
#    y 0.000000 4.912420 0.000000 
#    z 0.000000 0.000000 4.671810 
# 
# 
# High freq. dielectric constant tensor:
#      x y z
#    x 1.991320 0.000000 0.000000 
#    y 0.000000 2.035870 0.000000 
#    z 0.000000 0.000000 2.029600 
# 
# From -- ./inp_files/5712.got.cif
#   From: 2010.03.12/outbox.cif.g09.slc.cpg/sg30_3_cif.got.tgz:5712.got - 2010.04.14 01:38:02.
