data_PCOD8169753
_publ_section_title
;
Structure prediction by ZEFSAII (Michael W. Deem and Ramdas Pophale) SiO2 
 PCOD8169753
Probable space group: P M N 21
;
_chemical_formula_sum "Si O2"
_cell_formula_units_Z 32
_cell_length_a 8.975459
_cell_length_b 14.689945
_cell_length_c 12.587034
_cell_angle_alpha 90.000000
_cell_angle_beta 90.000000
_cell_angle_gamma 90.000000
_cell_volume 1659.587834
_symmetry_space_group_name_H-M "P M N 21"
_symmetry_group_IT_number 31
_symmetry_cell_setting 'orthorhombic'
loop_
_space_group_symop_operation_xyz
x,y,z
1/2-x,-y,1/2+z
-x,y,z
1/2+x,-y,1/2+z
loop_
_atom_site_type_symbol
_atom_site_label
_atom_site_fract_x
_atom_site_fract_y
_atom_site_fract_z
Si Si1 0.825963 0.862359 0.740740
Si Si2 0.675916 0.830523 0.963482
Si Si3 0.325014 0.943766 0.165145
Si Si4 0.331099 0.343470 0.749060
Si Si5 0.176058 0.743758 0.548043
Si Si6 0.174529 0.180111 0.851902
Si Si7 0.666970 0.442554 0.957782
Si Si8 0.176270 0.368521 0.537045
O O1 0.740733 0.862916 0.851539
O O2 0.784310 0.774645 0.668052
O O3 0.000000 0.864491 0.767576
O O4 0.781592 0.950090 0.669084
O O5 0.500000 0.841365 0.956573
O O6 0.742184 0.892513 0.060609
O O7 0.723196 0.725411 0.980248
O O8 0.500000 0.927264 0.158522
O O9 0.269046 0.903082 0.278041
O O10 0.500000 0.304784 0.739565
O O11 0.213741 0.268006 0.783276
O O12 0.326602 0.425215 0.832870
O O13 0.272338 0.384134 0.641137
O O14 0.242283 0.817330 0.464992
O O15 0.242458 0.642267 0.523423
O O16 0.000000 0.744674 0.527535
O O17 0.000000 0.175755 0.874819
O O18 0.500000 0.446741 0.001942
O O19 0.733690 0.543588 0.971133
O O20 0.000000 0.367225 0.560248
#
# Coordination Sequence:
#
# PCOD8169753 Si02
#       8
#     4   4   4   4   4   4   4   4
#     4  10  22  38  56  79 114 151 179 223 283 332
#     4  10  21  38  57  80 110 142 183 227 272 328
#     4   9  19  36  55  78 108 141 179 225 273 325
#     4  10  19  33  52  79 110 138 179 232 276 322
#     4   9  19  36  55  79 112 145 180 227 280 325
#     4  10  18  33  57  79 103 139 184 228 270 324
#     4   8  17  33  53  77 105 142 183 219 268 326
#     4  10  19  35  57  77 106 148 183 223 276 326
#
# _framework density 19.281897000000001
#
# number of rings (size 3 to 8) (size 9 to 14) (size 15 to 20)
#    0.000    2.500    1.250    1.500    1.750    2.000 
#    0.000    4.375    0.000    0.000    0.000    0.000 
#    0.000    0.000    0.000    0.000    0.000    0.000 
#
# Total GULP energy -396515.378444 kJ/mol
# GULP energy per Si atom -12391.105576 kJ/mol
# Density = 1.923801 g / cm^3
# Si number density = 19.281897 Si / 1000 Ang^3
#
#
#
# Elastic Constant Matrix: (Units=GPa)
#
#
# Indices 1 2 3 4 5 6 
#
# 1 29.4214 20.0355 28.0615 0.0000 0.0000 0.0000
# 2 20.0355 115.2324 57.4535 0.0000 0.0000 0.0000
# 3 28.0615 57.4535 115.5438 0.0000 0.0000 0.0000
# 4 0.0000 0.0000 0.0000 25.2014 0.0000 0.0000
# 5 0.0000 0.0000 0.0000 0.0000 34.5705 0.0000
# 6 0.0000 0.0000 0.0000 0.0000 0.0000 16.4772
#
#
#
# Elastic Compliance Matrix: (Units=1/GPa)
#
#
# Indices 1 2 3 4 5 6 
#
# 1 0.045087 -0.003164 -0.009377 0.000000 0.000000 0.000000
# 2 -0.003164 0.011761 -0.005080 0.000000 0.000000 0.000000
# 3 -0.009377 -0.005080 0.013458 0.000000 0.000000 0.000000
# 4 0.000000 0.000000 0.000000 0.039680 0.000000 0.000000
# 5 0.000000 0.000000 0.000000 0.000000 0.028926 0.000000
# 6 0.000000 0.000000 0.000000 0.000000 0.000000 0.060690
#
#
# Mechanical properties :
#
#
# Convention : Reuss Voigt Hill
#
# Bulk Modulus (GPa) = 28.51869 52.36652 40.44261
# Shear Modulus (GPa) = 20.28141 25.55962 22.92052
#
# Velocity S-wave (km/s) = 3.24672 3.64480 3.45150
# Velocity P-wave (km/s) = 5.37377 6.70299 6.07485
#
# Compressibility (1/GPa) = 0.03506472
#
# Stress axis : x y z
#
# Youngs Moduli (GPa) = 22.17943 85.02756 74.30664
#
# Poissons Ratio (x) = 0.26905 0.69674
# Poissons Ratio (y) = 0.07018 0.37745
# Poissons Ratio (z) = 0.20797 0.43190
#
# Static dielectric constant tensor:
#      x y z
#    x 3.248450 0.000000 0.000000 
#    y 0.000000 3.755280 0.000000 
#    z 0.000000 0.000000 3.582010 
# 
# 
# High freq. dielectric constant tensor:
#      x y z
#    x 1.718450 0.000000 0.000000 
#    y 0.000000 1.752990 0.000000 
#    z 0.000000 0.000000 1.752660 
# 
# From -- ./inp_files/3575.got.cif
#   From: 2010.03.12/outbox.cif.g09.slc.cpg/sg31_2_cif.got.tgz:3575.got - 2010.04.14 01:42:59.
