data_PCOD8169963
_publ_section_title
;
Structure prediction by ZEFSAII (Michael W. Deem and Ramdas Pophale) SiO2 
 PCOD8169963
Probable space group: P M N 21
;
_chemical_formula_sum "Si O2"
_cell_formula_units_Z 28
_cell_length_a 21.362947
_cell_length_b 8.912168
_cell_length_c 7.685331
_cell_angle_alpha 90.000000
_cell_angle_beta 90.000000
_cell_angle_gamma 90.000000
_cell_volume 1463.211496
_symmetry_space_group_name_H-M "P M N 21"
_symmetry_group_IT_number 31
_symmetry_cell_setting 'orthorhombic'
loop_
_space_group_symop_operation_xyz
x,y,z
1/2-x,-y,1/2+z
-x,y,z
1/2+x,-y,1/2+z
loop_
_atom_site_type_symbol
_atom_site_label
_atom_site_fract_x
_atom_site_fract_y
_atom_site_fract_z
Si Si1 0.071188 0.137186 0.108290
Si Si2 0.193683 0.875501 0.605651
Si Si3 0.571758 0.667082 0.280237
Si Si4 0.250183 0.316300 0.539642
Si Si5 0.811318 0.970351 0.004502
Si Si6 0.322321 0.440796 0.229258
Si Si7 0.627550 0.844607 0.971371
O O1 0.082172 0.184554 0.308062
O O2 0.000000 0.079881 0.085641
O O3 0.083889 0.275571 0.976971
O O4 0.118180 0.002237 0.063739
O O5 0.189287 0.930125 0.803187
O O6 0.174198 0.699661 0.594356
O O7 0.265776 0.887927 0.540887
O O8 0.148131 0.980440 0.488746
O O9 0.500000 0.625560 0.250016
O O10 0.609675 0.515279 0.242559
O O11 0.592224 0.798030 0.147753
O O12 0.283518 0.168210 0.620950
O O13 0.302085 0.386368 0.416707
O O14 0.230481 0.437383 0.681136
O O15 0.188352 0.259045 0.437503
#
# Coordination Sequence:
#
# PCOD8169963 Si02
#       7
#     4   4   4   4   4   4   4
#     4  11  22  36  62  86 111 156 199 240 285 345
#     4  10  20  35  61  90 118 153 187 258 299 350
#     4  10  22  40  59  81 116 159 197 236 289 356
#     4   9  21  33  55  87 115 151 184 242 301 348
#     4  10  19  36  55  87 118 145 197 238 296 347
#     4  10  21  35  56  87 119 152 191 235 306 352
#     4  10  20  39  60  88 112 148 201 245 294 342
#
# _framework density 19.135988999999999
#
# number of rings (size 3 to 8) (size 9 to 14) (size 15 to 20)
#    0.000    2.000    1.429    3.000    4.000    1.143 
#    0.000    4.286    0.000    0.000    0.000    0.000 
#    0.000    0.000    0.000    0.000    0.000    0.000 
#
# Total GULP energy -347093.726366 kJ/mol
# GULP energy per Si atom -12396.204513 kJ/mol
# Density = 1.909243 g / cm^3
# Si number density = 19.135989 Si / 1000 Ang^3
#
#
#
# Elastic Constant Matrix: (Units=GPa)
#
#
# Indices 1 2 3 4 5 6 
#
# 1 133.5697 63.5841 31.6559 0.0000 0.0000 0.0000
# 2 63.5841 116.2380 27.3378 0.0000 0.0000 0.0000
# 3 31.6559 27.3378 65.4485 0.0000 0.0000 0.0000
# 4 0.0000 0.0000 0.0000 27.0487 0.0000 0.0000
# 5 0.0000 0.0000 0.0000 0.0000 27.9465 0.0000
# 6 0.0000 0.0000 0.0000 0.0000 0.0000 22.2626
#
#
#
# Elastic Compliance Matrix: (Units=1/GPa)
#
#
# Indices 1 2 3 4 5 6 
#
# 1 0.010631 -0.005108 -0.003009 0.000000 0.000000 0.000000
# 2 -0.005108 0.011994 -0.002539 0.000000 0.000000 0.000000
# 3 -0.003009 -0.002539 0.017795 0.000000 0.000000 0.000000
# 4 0.000000 0.000000 0.000000 0.036970 0.000000 0.000000
# 5 0.000000 0.000000 0.000000 0.000000 0.035783 0.000000
# 6 0.000000 0.000000 0.000000 0.000000 0.000000 0.044918
#
#
# Mechanical properties :
#
#
# Convention : Reuss Voigt Hill
#
# Bulk Modulus (GPa) = 52.33155 62.26797 57.29976
# Shear Modulus (GPa) = 26.91446 28.29678 27.60562
#
# Velocity S-wave (km/s) = 3.75438 3.84959 3.80228
# Velocity P-wave (km/s) = 6.79709 7.23667 7.02032
#
# Compressibility (1/GPa) = 0.01910893
#
# Stress axis : x y z
#
# Youngs Moduli (GPa) = 94.06178 83.37211 56.19528
#
# Poissons Ratio (x) = 0.42586 0.16907
# Poissons Ratio (y) = 0.48046 0.14271
# Poissons Ratio (z) = 0.28299 0.21172
#
# Static dielectric constant tensor:
#      x y z
#    x 3.486080 0.000000 0.000000 
#    y 0.000000 3.830830 0.000000 
#    z 0.000000 0.000000 3.464210 
# 
# 
# High freq. dielectric constant tensor:
#      x y z
#    x 1.737120 0.000000 0.000000 
#    y 0.000000 1.736080 0.000000 
#    z 0.000000 0.000000 1.743230 
# 
# From -- ./inp_files/2951.got.cif
#   From: 2010.03.12/outbox.cif.g09.slc.cpg/sg31_2_cif.got.tgz:2951.got - 2010.04.14 01:42:59.
