data_PCOD8169253
_publ_section_title
;
Structure prediction by ZEFSAII (Michael W. Deem and Ramdas Pophale) SiO2 
 PCOD8169253
Probable space group: P C A 21
;
_chemical_formula_sum "Si O2"
_cell_formula_units_Z 20
_cell_length_a 11.122909
_cell_length_b 7.243289
_cell_length_c 9.838403
_cell_angle_alpha 90.000000
_cell_angle_beta 90.000000
_cell_angle_gamma 90.000000
_cell_volume 792.645148
_symmetry_space_group_name_H-M "P C A 21"
_symmetry_group_IT_number 29
_symmetry_cell_setting 'orthorhombic'
loop_
_space_group_symop_operation_xyz
x,y,z
-x,-y,1/2+z
1/2-x,y,1/2+z
1/2+x,-y,z
loop_
_atom_site_type_symbol
_atom_site_label
_atom_site_fract_x
_atom_site_fract_y
_atom_site_fract_z
Si Si1 0.887425 0.939709 0.631780
Si Si2 0.722992 0.819441 0.396683
Si Si3 0.609948 0.332763 0.625445
Si Si4 0.217455 0.604934 0.893889
Si Si5 0.994206 0.709393 0.058346
O O1 0.825559 0.924812 0.482979
O O2 0.786395 0.906475 0.746546
O O3 0.993007 0.790513 0.642096
O O4 0.938345 0.145525 0.656136
O O5 0.747652 0.605489 0.377136
O O6 0.595577 0.838126 0.471975
O O7 0.680249 0.291671 0.484109
O O8 0.705740 0.296674 0.746998
O O9 0.574005 0.549552 0.641518
O O10 0.087247 0.605193 0.961964
#
# Coordination Sequence:
#
# PCOD8169253 Si02
#       5
#     4   4   4   4   4
#     4  12  27  50  75 114 156 196 261 316 378 457
#     4  11  25  50  74 113 156 200 257 316 376 465
#     4  11  26  51  74 115 149 203 255 316 379 463
#     4  11  24  49  79 104 155 203 252 314 392 447
#     4  11  26  46  78 112 150 206 253 318 381 448
#
# _framework density 25.231971999999999
#
# number of rings (size 3 to 8) (size 9 to 14) (size 15 to 20)
#    0.000    0.800    4.000    2.400    2.800    4.800 
#    3.600    0.000    0.000    0.000    0.000    0.000 
#    0.000    0.000    0.000    0.000    0.000    0.000 
#
# Total GULP energy -248079.921720 kJ/mol
# GULP energy per Si atom -12403.996086 kJ/mol
# Density = 2.517454 g / cm^3
# Si number density = 25.231972 Si / 1000 Ang^3
#
#
#
# Elastic Constant Matrix: (Units=GPa)
#
#
# Indices 1 2 3 4 5 6 
#
# 1 113.5939 34.2491 58.8060 0.0000 0.0000 0.0000
# 2 34.2491 62.6564 44.3693 0.0000 0.0000 0.0000
# 3 58.8060 44.3693 165.0460 0.0000 0.0000 0.0000
# 4 0.0000 0.0000 0.0000 19.4576 0.0000 0.0000
# 5 0.0000 0.0000 0.0000 0.0000 45.9206 0.0000
# 6 0.0000 0.0000 0.0000 0.0000 0.0000 36.1352
#
#
#
# Elastic Compliance Matrix: (Units=1/GPa)
#
#
# Indices 1 2 3 4 5 6 
#
# 1 0.011636 -0.004230 -0.003009 0.000000 0.000000 0.000000
# 2 -0.004230 0.021250 -0.004206 0.000000 0.000000 0.000000
# 3 -0.003009 -0.004206 0.008262 0.000000 0.000000 0.000000
# 4 0.000000 0.000000 0.000000 0.051394 0.000000 0.000000
# 5 0.000000 0.000000 0.000000 0.000000 0.021777 0.000000
# 6 0.000000 0.000000 0.000000 0.000000 0.000000 0.027674
#
#
# Mechanical properties :
#
#
# Convention : Reuss Voigt Hill
#
# Bulk Modulus (GPa) = 54.76626 68.46055 61.61341
# Shear Modulus (GPa) = 29.24525 33.89412 31.56969
#
# Velocity S-wave (km/s) = 3.40818 3.66908 3.54104
# Velocity P-wave (km/s) = 6.10245 6.71870 6.41797
#
# Compressibility (1/GPa) = 0.01825942
#
# Stress axis : x y z
#
# Youngs Moduli (GPa) = 85.93807 47.05803 121.04210
#
# Poissons Ratio (x) = 0.19905 0.36420
# Poissons Ratio (y) = 0.36351 0.50906
# Poissons Ratio (z) = 0.25858 0.19791
#
# Static dielectric constant tensor:
#      x y z
#    x 4.797860 0.000000 0.000000 
#    y 0.000000 4.399210 0.000000 
#    z 0.000000 0.000000 4.566980 
# 
# 
# High freq. dielectric constant tensor:
#      x y z
#    x 2.020740 0.000000 0.000000 
#    y 0.000000 2.011780 0.000000 
#    z 0.000000 0.000000 1.998320 
# 
# From -- ./inp_files/1385.got.cif
#   From: 2010.03.12/outbox.cif.g09.slc.cpg/sg29_1_cif.got.tgz:1385.got - 2010.04.14 03:43:10.
