data_PCOD8169212
_publ_section_title
;
Structure prediction by ZEFSAII (Michael W. Deem and Ramdas Pophale) SiO2 
 PCOD8169212
Probable space group: P C A 21
;
_chemical_formula_sum "Si O2"
_cell_formula_units_Z 32
_cell_length_a 18.460977
_cell_length_b 6.816808
_cell_length_c 11.575248
_cell_angle_alpha 90.000000
_cell_angle_beta 90.000000
_cell_angle_gamma 90.000000
_cell_volume 1456.686340
_symmetry_space_group_name_H-M "P C A 21"
_symmetry_group_IT_number 29
_symmetry_cell_setting 'orthorhombic'
loop_
_space_group_symop_operation_xyz
x,y,z
-x,-y,1/2+z
1/2-x,y,1/2+z
1/2+x,-y,z
loop_
_atom_site_type_symbol
_atom_site_label
_atom_site_fract_x
_atom_site_fract_y
_atom_site_fract_z
Si Si1 0.334395 0.177186 0.110540
Si Si2 0.428674 0.178732 0.541438
Si Si3 0.693836 0.947803 0.205497
Si Si4 0.785076 0.612555 0.895619
Si Si5 0.375192 0.417552 0.327970
Si Si6 0.108602 0.704964 0.309450
Si Si7 0.992167 0.634002 0.753942
Si Si8 0.042936 0.052746 0.442266
O O1 0.275339 0.021048 0.158350
O O2 0.372924 0.276325 0.218472
O O3 0.289560 0.328159 0.029894
O O4 0.397358 0.076584 0.039846
O O5 0.352780 0.151316 0.604670
O O6 0.416887 0.319802 0.433795
O O7 0.488737 0.266925 0.628777
O O8 0.462892 0.971230 0.498211
O O9 0.695060 0.802683 0.316591
O O10 0.660186 0.160389 0.230143
O O11 0.706048 0.525258 0.865263
O O12 0.840352 0.434908 0.883511
O O13 0.423906 0.603798 0.289650
O O14 0.052342 0.569091 0.239370
O O15 0.058900 0.842879 0.386431
O O16 0.953972 0.771820 0.850191
#
# Coordination Sequence:
#
# PCOD8169212 Si02
#       8
#     4   4   4   4   4   4   4   4
#     4  11  24  48  74 102 152 183 240 309 348 438
#     4  12  25  46  71 101 150 184 237 300 359 425
#     4  11  24  47  72 103 142 192 235 299 365 427
#     4  11  23  50  71 101 146 187 247 300 357 434
#     4  11  28  44  75 109 139 193 240 299 365 430
#     4  12  22  46  75 101 133 197 241 281 376 433
#     4  12  27  49  71 108 146 188 246 301 361 439
#     4  12  27  46  73 105 142 192 236 301 365 430
#
# _framework density 21.967666000000001
#
# number of rings (size 3 to 8) (size 9 to 14) (size 15 to 20)
#    0.000    0.500    7.500    0.000    7.000    1.000 
#    9.000    0.000    0.000    0.000    0.000    0.000 
#    0.000    0.000    0.000    0.000    0.000    0.000 
#
# Total GULP energy -396734.787383 kJ/mol
# GULP energy per Si atom -12397.962106 kJ/mol
# Density = 2.191767 g / cm^3
# Si number density = 21.967666 Si / 1000 Ang^3
#
#
#
# Elastic Constant Matrix: (Units=GPa)
#
#
# Indices 1 2 3 4 5 6 
#
# 1 103.9048 26.0639 26.8151 0.0000 0.0000 0.0000
# 2 26.0639 84.4629 22.8505 0.0000 0.0000 0.0000
# 3 26.8151 22.8505 117.6553 0.0000 0.0000 0.0000
# 4 0.0000 0.0000 0.0000 25.7024 0.0000 0.0000
# 5 0.0000 0.0000 0.0000 0.0000 27.9777 0.0000
# 6 0.0000 0.0000 0.0000 0.0000 0.0000 38.4406
#
#
#
# Elastic Compliance Matrix: (Units=1/GPa)
#
#
# Indices 1 2 3 4 5 6 
#
# 1 0.010827 -0.002822 -0.001920 0.000000 0.000000 0.000000
# 2 -0.002822 0.013232 -0.001927 0.000000 0.000000 0.000000
# 3 -0.001920 -0.001927 0.009311 0.000000 0.000000 0.000000
# 4 0.000000 0.000000 0.000000 0.038907 0.000000 0.000000
# 5 0.000000 0.000000 0.000000 0.000000 0.035743 0.000000
# 6 0.000000 0.000000 0.000000 0.000000 0.000000 0.026014
#
#
# Mechanical properties :
#
#
# Convention : Reuss Voigt Hill
#
# Bulk Modulus (GPa) = 49.91564 50.83132 50.37348
# Shear Modulus (GPa) = 32.45741 33.77705 33.11723
#
# Velocity S-wave (km/s) = 3.84801 3.92545 3.88692
# Velocity P-wave (km/s) = 6.52032 6.61324 6.56694
#
# Compressibility (1/GPa) = 0.02003380
#
# Stress axis : x y z
#
# Youngs Moduli (GPa) = 92.35781 75.57707 107.39864
#
# Poissons Ratio (x) = 0.21327 0.20617
# Poissons Ratio (y) = 0.26062 0.20692
# Poissons Ratio (z) = 0.17730 0.14561
#
# Static dielectric constant tensor:
#      x y z
#    x 4.277630 0.000000 0.000000 
#    y 0.000000 3.765270 0.000000 
#    z 0.000000 0.000000 4.091240 
# 
# 
# High freq. dielectric constant tensor:
#      x y z
#    x 1.888200 0.000000 0.000000 
#    y 0.000000 1.841840 0.000000 
#    z 0.000000 0.000000 1.872800 
# 
# From -- ./inp_files/3903.got.cif
#   From: 2010.03.12/outbox.cif.g09.slc.cpg/sg29_2_cif.got.tgz:3903.got - 2010.04.14 03:43:10.
