data_PCOD8169825
_publ_section_title
;
Structure prediction by ZEFSAII (Michael W. Deem and Ramdas Pophale) SiO2 
 PCOD8169825
Probable space group: P M N 21
;
_chemical_formula_sum "Si O2"
_cell_formula_units_Z 32
_cell_length_a 8.779367
_cell_length_b 11.607427
_cell_length_c 17.622876
_cell_angle_alpha 90.000000
_cell_angle_beta 90.000000
_cell_angle_gamma 90.000000
_cell_volume 1795.874362
_symmetry_space_group_name_H-M "P M N 21"
_symmetry_group_IT_number 31
_symmetry_cell_setting 'orthorhombic'
loop_
_space_group_symop_operation_xyz
x,y,z
1/2-x,-y,1/2+z
-x,y,z
1/2+x,-y,1/2+z
loop_
_atom_site_type_symbol
_atom_site_label
_atom_site_fract_x
_atom_site_fract_y
_atom_site_fract_z
Si Si1 0.325011 0.687601 0.325620
Si Si2 0.321616 0.328299 0.976384
Si Si3 0.320889 0.848131 0.582464
Si Si4 0.818706 0.082098 0.535957
Si Si5 0.323707 0.098592 0.237276
Si Si6 0.819835 0.789912 0.894107
Si Si7 0.324436 0.842914 0.195798
Si Si8 0.326338 0.469838 0.406623
O O1 0.500000 0.729874 0.334172
O O2 0.230680 0.735634 0.398204
O O3 0.253905 0.739759 0.247623
O O4 0.316324 0.547026 0.328592
O O5 0.500000 0.316986 0.988593
O O6 0.272368 0.463799 0.971229
O O7 0.235447 0.271513 0.046897
O O8 0.500000 0.860277 0.574223
O O9 0.275251 0.846085 0.670537
O O10 0.242791 0.952335 0.536683
O O11 0.763499 0.147881 0.462455
O O12 0.753292 0.148327 0.611192
O O13 0.000000 0.075384 0.537903
O O14 0.500000 0.128298 0.221674
O O15 0.266753 0.151339 0.316298
O O16 0.298117 0.961711 0.240885
O O17 0.763468 0.657522 0.891563
O O18 0.000000 0.800399 0.905177
O O19 0.500000 0.815327 0.184016
O O20 0.500000 0.463844 0.435362
#
# Coordination Sequence:
#
# PCOD8169825 Si02
#       8
#     4   4   4   4   4   4   4   4
#     4   8  15  30  53  75  98 136 178 218 261 313
#     4  10  19  32  53  79 104 134 174 226 270 307
#     4  11  21  36  55  78 107 141 176 218 273 321
#     4  10  21  35  53  80 111 141 176 222 264 315
#     4   9  19  34  53  78 108 140 175 218 263 319
#     4  10  20  35  55  79 109 147 181 213 264 320
#     4   8  15  31  52  75 103 134 173 216 261 309
#     4   8  17  33  52  76 106 141 183 221 254 314
#
# _framework density 17.818618000000001
#
# number of rings (size 3 to 8) (size 9 to 14) (size 15 to 20)
#    0.750    2.000    0.000    3.000    1.750    1.000 
#    0.000    4.375    0.000    3.000    0.000    0.000 
#    0.000    0.000    0.000    0.000    0.000    0.000 
#
# Total GULP energy -396512.535470 kJ/mol
# GULP energy per Si atom -12391.016733 kJ/mol
# Density = 1.777806 g / cm^3
# Si number density = 17.818618 Si / 1000 Ang^3
#
#
#
# Elastic Constant Matrix: (Units=GPa)
#
#
# Indices 1 2 3 4 5 6 
#
# 1 68.0086 35.1063 46.2009 0.0000 0.0000 0.0000
# 2 35.1063 96.8565 66.3595 0.0000 0.0000 0.0000
# 3 46.2009 66.3595 111.3674 0.0000 0.0000 0.0000
# 4 0.0000 0.0000 0.0000 5.2747 0.0000 0.0000
# 5 0.0000 0.0000 0.0000 0.0000 26.7819 0.0000
# 6 0.0000 0.0000 0.0000 0.0000 0.0000 21.0387
#
#
#
# Elastic Compliance Matrix: (Units=1/GPa)
#
#
# Indices 1 2 3 4 5 6 
#
# 1 0.020903 -0.002763 -0.007025 0.000000 0.000000 0.000000
# 2 -0.002763 0.017813 -0.009467 0.000000 0.000000 0.000000
# 3 -0.007025 -0.009467 0.017535 0.000000 0.000000 0.000000
# 4 0.000000 0.000000 0.000000 0.189584 0.000000 0.000000
# 5 0.000000 0.000000 0.000000 0.000000 0.037339 0.000000
# 6 0.000000 0.000000 0.000000 0.000000 0.000000 0.047532
#
#
# Mechanical properties :
#
#
# Convention : Reuss Voigt Hill
#
# Bulk Modulus (GPa) = 56.37376 63.50732 59.94054
# Shear Modulus (GPa) = 13.32874 19.19012 16.25943
#
# Velocity S-wave (km/s) = 2.73797 3.28528 3.02403
# Velocity P-wave (km/s) = 6.45767 7.07878 6.77535
#
# Compressibility (1/GPa) = 0.01773875
#
# Stress axis : x y z
#
# Youngs Moduli (GPa) = 47.84048 56.14001 57.02910
#
# Poissons Ratio (x) = 0.15513 0.40063
# Poissons Ratio (y) = 0.13220 0.53992
# Poissons Ratio (z) = 0.33608 0.53150
#
# Static dielectric constant tensor:
#      x y z
#    x 3.104910 0.000000 0.000000 
#    y 0.000000 3.319780 0.000000 
#    z 0.000000 0.000000 3.381640 
# 
# 
# High freq. dielectric constant tensor:
#      x y z
#    x 1.675170 0.000000 0.000000 
#    y 0.000000 1.678850 0.000000 
#    z 0.000000 0.000000 1.680870 
# 
# From -- ./inp_files/5916.got.cif
#   From: 2010.03.12/outbox.cif.g09.slc.cpg/sg31_3_cif.got.tgz:5916.got - 2010.04.14 01:42:59.
