data_PCOD8169048
_publ_section_title
;
Structure prediction by ZEFSAII (Michael W. Deem and Ramdas Pophale) SiO2 
 PCOD8169048
Probable space group: P C A 21
;
_chemical_formula_sum "Si O2"
_cell_formula_units_Z 28
_cell_length_a 4.765445
_cell_length_b 24.841968
_cell_length_c 8.604884
_cell_angle_alpha 90.000000
_cell_angle_beta 90.000000
_cell_angle_gamma 90.000000
_cell_volume 1018.672260
_symmetry_space_group_name_H-M "P C A 21"
_symmetry_group_IT_number 29
_symmetry_cell_setting 'orthorhombic'
loop_
_space_group_symop_operation_xyz
x,y,z
-x,-y,1/2+z
1/2-x,y,1/2+z
1/2+x,-y,z
loop_
_atom_site_type_symbol
_atom_site_label
_atom_site_fract_x
_atom_site_fract_y
_atom_site_fract_z
Si Si1 0.350818 0.900383 0.657260
Si Si2 0.228410 0.386785 0.374186
Si Si3 0.481577 0.683772 0.631416
Si Si4 0.916718 0.537947 0.616154
Si Si5 0.462175 0.035836 0.436299
Si Si6 0.141038 0.822099 0.916543
Si Si7 0.476467 0.244084 0.643942
O O1 0.511502 0.946376 0.754758
O O2 0.075009 0.922875 0.566045
O O3 0.274660 0.857062 0.783155
O O4 0.530266 0.864560 0.529567
O O5 0.413333 0.340897 0.293206
O O6 0.015530 0.359796 0.496254
O O7 0.032630 0.420642 0.257108
O O8 0.444397 0.427830 0.458044
O O9 0.157714 0.700476 0.649626
O O10 0.659110 0.739109 0.597761
O O11 0.603092 0.514810 0.622925
O O12 0.134017 0.021133 0.459168
O O13 0.956482 0.779127 0.820671
O O14 0.394340 0.795225 0.014617
#
# Coordination Sequence:
#
# PCOD8169048 Si02
#       7
#     4   4   4   4   4   4   4
#     4   9  20  40  60  90 120 154 200 244 292 349
#     4  10  24  40  62  90 120 154 196 244 292 344
#     4  11  24  40  62  90 120 154 196 244 292 349
#     4  11  24  41  62  87 120 157 196 239 292 349
#     4  11  22  40  62  87 120 157 196 244 296 349
#     4   9  20  40  62  87 120 157 196 244 292 349
#     4  11  22  41  62  87 118 157 196 239 296 349
#
# _framework density 27.486758999999999
#
# number of rings (size 3 to 8) (size 9 to 14) (size 15 to 20)
#    0.000    1.714    0.000    3.429    0.000    6.857 
#    0.000   28.571    0.000    0.000    0.000    0.000 
#    0.000    0.000    0.000    0.000    0.000    0.000 
#
# Total GULP energy -347089.123993 kJ/mol
# GULP energy per Si atom -12396.040143 kJ/mol
# Density = 2.742420 g / cm^3
# Si number density = 27.486759 Si / 1000 Ang^3
#
#
#
# Elastic Constant Matrix: (Units=GPa)
#
#
# Indices 1 2 3 4 5 6 
#
# 1 47.8841 -5.1482 4.2859 0.0000 0.0000 0.0000
# 2 -5.1482 100.9414 34.0070 0.0000 0.0000 0.0000
# 3 4.2859 34.0070 140.4879 0.0000 0.0000 0.0000
# 4 0.0000 0.0000 0.0000 55.3404 0.0000 0.0000
# 5 0.0000 0.0000 0.0000 0.0000 17.9166 0.0000
# 6 0.0000 0.0000 0.0000 0.0000 0.0000 0.3422
#
#
#
# Elastic Compliance Matrix: (Units=1/GPa)
#
#
# Indices 1 2 3 4 5 6 
#
# 1 0.021123 0.001409 -0.000986 0.000000 0.000000 0.000000
# 2 0.001409 0.010880 -0.002677 0.000000 0.000000 0.000000
# 3 -0.000986 -0.002677 0.007796 0.000000 0.000000 0.000000
# 4 0.000000 0.000000 0.000000 0.018070 0.000000 0.000000
# 5 0.000000 0.000000 0.000000 0.000000 0.055814 0.000000
# 6 0.000000 0.000000 0.000000 0.000000 0.000000 2.922649
#
#
# Mechanical properties :
#
#
# Convention : Reuss Voigt Hill
#
# Bulk Modulus (GPa) = 28.33337 39.51143 33.92240
# Shear Modulus (GPa) = 1.63795 31.79775 16.71785
#
# Velocity S-wave (km/s) = 0.77279 3.40492 2.46888
# Velocity P-wave (km/s) = 3.33566 5.46479 4.52717
#
# Compressibility (1/GPa) = 0.03529408
#
# Stress axis : x y z
#
# Youngs Moduli (GPa) = 47.34066 91.90826 128.26992
#
# Poissons Ratio (x) = -0.12953 0.12642
# Poissons Ratio (y) = -0.06672 0.34335
# Poissons Ratio (z) = 0.04666 0.24602
#
# Static dielectric constant tensor:
#      x y z
#    x 4.249630 0.000000 0.000000 
#    y 0.000000 5.576250 0.000000 
#    z 0.000000 0.000000 5.847320 
# 
# 
# High freq. dielectric constant tensor:
#      x y z
#    x 2.061040 0.000000 0.000000 
#    y 0.000000 2.134770 0.000000 
#    z 0.000000 0.000000 2.138260 
# 
# From -- ./inp_files/1004.got.cif
#   From: 2010.03.12/outbox.cif.g09.slc.cpg/sg29_1_cif.got.tgz:1004.got - 2010.04.14 03:43:10.
