data_PCOD8169400
_publ_section_title
;
Structure prediction by ZEFSAII (Michael W. Deem and Ramdas Pophale) SiO2 
 PCOD8169400
Probable space group: P N C 2
;
_chemical_formula_sum "Si O2"
_cell_formula_units_Z 20
_cell_length_a 26.148738
_cell_length_b 7.404102
_cell_length_c 4.961543
_cell_angle_alpha 90.000000
_cell_angle_beta 90.000000
_cell_angle_gamma 90.000000
_cell_volume 960.594037
_symmetry_space_group_name_H-M "P N C 2"
_symmetry_group_IT_number 30
_symmetry_cell_setting 'orthorhombic'
loop_
_space_group_symop_operation_xyz
x,y,z
-x,-y,z
-x,1/2+y,1/2+z
x,1/2-y,1/2+z
loop_
_atom_site_type_symbol
_atom_site_label
_atom_site_fract_x
_atom_site_fract_y
_atom_site_fract_z
Si Si1 0.858172 0.627691 0.837440
Si Si2 0.235933 0.875651 0.340330
Si Si3 0.453751 0.870224 0.360837
Si Si4 0.952689 0.371291 0.748214
Si Si5 0.345985 0.633449 0.736921
O O1 0.864481 0.795684 0.637055
O O2 0.803273 0.537134 0.793350
O O3 0.900377 0.476477 0.791455
O O4 0.228145 0.789880 0.633947
O O5 0.292563 0.966968 0.306553
O O6 0.457077 0.804741 0.667967
O O7 0.398835 0.972475 0.309337
O O8 0.500000 0.000000 0.288951
O O9 0.955170 0.301313 0.443173
O O10 0.000000 0.500000 0.810411
O O11 0.346501 0.684587 0.421926
#
# Coordination Sequence:
#
# PCOD8169400 Si02
#       5
#     4   4   4   4   4
#     4  12  24  39  57  85 118 147 178 223 273 321
#     4  10  19  36  58  79 102 141 186 223 262 318
#     4  10  19  33  51  75 103 137 175 219 267 321
#     4  12  24  42  64  88 115 149 187 226 268 318
#     4   8  16  30  51  73  99 134 177 217 261 318
#
# _framework density 20.820449
#
# number of rings (size 3 to 8) (size 9 to 14) (size 15 to 20)
#    0.000    1.600    0.000    6.000    0.000    0.000 
#    0.000    2.000    0.000    0.000    0.000    0.000 
#    0.000    0.000    0.000    0.000    0.000    0.000 
#
# Total GULP energy -247964.239178 kJ/mol
# GULP energy per Si atom -12398.211959 kJ/mol
# Density = 2.077306 g / cm^3
# Si number density = 20.820449 Si / 1000 Ang^3
#
#
#
# Elastic Constant Matrix: (Units=GPa)
#
#
# Indices 1 2 3 4 5 6 
#
# 1 176.1261 48.1010 16.6618 0.0000 0.0000 0.0000
# 2 48.1010 53.5380 7.9053 0.0000 0.0000 0.0000
# 3 16.6618 7.9053 77.5203 0.0000 0.0000 0.0000
# 4 0.0000 0.0000 0.0000 36.8057 0.0000 0.0000
# 5 0.0000 0.0000 0.0000 0.0000 28.7598 0.0000
# 6 0.0000 0.0000 0.0000 0.0000 0.0000 40.1631
#
#
#
# Elastic Compliance Matrix: (Units=1/GPa)
#
#
# Indices 1 2 3 4 5 6 
#
# 1 0.007592 -0.006681 -0.000951 0.000000 0.000000 0.000000
# 2 -0.006681 0.024843 -0.001097 0.000000 0.000000 0.000000
# 3 -0.000951 -0.001097 0.013216 0.000000 0.000000 0.000000
# 4 0.000000 0.000000 0.000000 0.027170 0.000000 0.000000
# 5 0.000000 0.000000 0.000000 0.000000 0.034771 0.000000
# 6 0.000000 0.000000 0.000000 0.000000 0.000000 0.024898
#
#
# Mechanical properties :
#
#
# Convention : Reuss Voigt Hill
#
# Bulk Modulus (GPa) = 35.46934 50.28006 42.87470
# Shear Modulus (GPa) = 31.37837 36.78016 34.07926
#
# Velocity S-wave (km/s) = 3.88634 4.20758 4.05015
# Velocity P-wave (km/s) = 6.10008 6.91425 6.51988
#
# Compressibility (1/GPa) = 0.02819336
#
# Stress axis : x y z
#
# Youngs Moduli (GPa) = 131.71317 40.25316 75.66552
#
# Poissons Ratio (x) = 0.26893 0.07192
# Poissons Ratio (y) = 0.87996 0.08304
# Poissons Ratio (z) = 0.12520 0.04418
#
# Static dielectric constant tensor:
#      x y z
#    x 4.309650 0.000000 0.000000 
#    y 0.000000 3.177370 0.000000 
#    z 0.000000 0.000000 3.922890 
# 
# 
# High freq. dielectric constant tensor:
#      x y z
#    x 1.848110 0.000000 0.000000 
#    y 0.000000 1.755650 0.000000 
#    z 0.000000 0.000000 1.837940 
# 
# From -- ./inp_files/1070.got.cif
#   From: 2010.03.12/outbox.cif.g09.slc.cpg/sg30_1_cif.got.tgz:1070.got - 2010.04.14 01:38:02.
