data_PCOD8169382
_publ_section_title
;
Structure prediction by ZEFSAII (Michael W. Deem and Ramdas Pophale) SiO2 
 PCOD8169382
Probable space group: P N C 2
;
_chemical_formula_sum "Si O2"
_cell_formula_units_Z 32
_cell_length_a 12.021914
_cell_length_b 14.495915
_cell_length_c 8.713603
_cell_angle_alpha 90.000000
_cell_angle_beta 90.000000
_cell_angle_gamma 90.000000
_cell_volume 1518.507775
_symmetry_space_group_name_H-M "P N C 2"
_symmetry_group_IT_number 30
_symmetry_cell_setting 'orthorhombic'
loop_
_space_group_symop_operation_xyz
x,y,z
-x,-y,z
-x,1/2+y,1/2+z
x,1/2-y,1/2+z
loop_
_atom_site_type_symbol
_atom_site_label
_atom_site_fract_x
_atom_site_fract_y
_atom_site_fract_z
Si Si1 0.905214 0.068340 0.442000
Si Si2 0.285382 0.044402 0.764806
Si Si3 0.474849 0.145501 0.320695
Si Si4 0.986160 0.736177 0.834329
Si Si5 0.086071 0.575148 0.301299
Si Si6 0.658298 0.484030 0.948891
Si Si7 0.607358 0.819334 0.999529
Si Si8 0.823921 0.786483 0.591343
O O1 0.921255 0.092639 0.619681
O O2 0.785603 0.027643 0.405637
O O3 0.917450 0.160592 0.342335
O O4 0.000000 0.000000 0.383912
O O5 0.204181 0.117646 0.677751
O O6 0.209375 0.964381 0.842456
O O7 0.361035 0.996202 0.632987
O O8 0.360456 0.092899 0.894158
O O9 0.589139 0.102954 0.385793
O O10 0.477094 0.150541 0.134945
O O11 0.455398 0.246038 0.392396
O O12 0.374422 0.079230 0.368392
O O13 0.933234 0.741718 0.666886
O O14 0.050210 0.830283 0.884478
O O15 0.873812 0.702559 0.922774
O O16 0.000000 0.500000 0.360423
O O17 0.715281 0.777640 0.084238
#
# Coordination Sequence:
#
# PCOD8169382 Si02
#       8
#     4   4   4   4   4   4   4   4
#     4  10  22  39  65  93 131 186 221 265 347 414
#     4  11  21  40  69  95 130 178 227 291 340 415
#     4  11  23  43  69  97 131 173 224 292 340 409
#     4  12  21  36  58  96 135 181 221 277 337 411
#     4  10  18  36  58  89 133 176 222 267 336 408
#     4  10  23  45  67  96 133 176 230 277 347 410
#     4  12  22  40  70 103 128 171 235 289 345 402
#     4  12  20  34  63  98 131 165 235 278 331 402
#
# _framework density 21.073319000000001
#
# number of rings (size 3 to 8) (size 9 to 14) (size 15 to 20)
#    0.000    1.000    6.250    1.500    1.750    0.000 
#    6.750    5.625    0.000    0.000    0.000    0.000 
#    0.000    0.000    0.000    0.000    0.000    0.000 
#
# Total GULP energy -396647.139356 kJ/mol
# GULP energy per Si atom -12395.223105 kJ/mol
# Density = 2.102535 g / cm^3
# Si number density = 21.073319 Si / 1000 Ang^3
#
#
#
# Elastic Constant Matrix: (Units=GPa)
#
#
# Indices 1 2 3 4 5 6 
#
# 1 109.9194 52.1651 43.4754 0.0000 0.0000 0.0000
# 2 52.1651 103.5203 41.6340 0.0000 0.0000 0.0000
# 3 43.4754 41.6340 83.6920 0.0000 0.0000 0.0000
# 4 0.0000 0.0000 0.0000 34.9084 0.0000 0.0000
# 5 0.0000 0.0000 0.0000 0.0000 32.4170 0.0000
# 6 0.0000 0.0000 0.0000 0.0000 0.0000 41.4192
#
#
#
# Elastic Compliance Matrix: (Units=1/GPa)
#
#
# Indices 1 2 3 4 5 6 
#
# 1 0.013145 -0.004848 -0.004417 0.000000 0.000000 0.000000
# 2 -0.004848 0.013864 -0.004379 0.000000 0.000000 0.000000
# 3 -0.004417 -0.004379 0.016421 0.000000 0.000000 0.000000
# 4 0.000000 0.000000 0.000000 0.028646 0.000000 0.000000
# 5 0.000000 0.000000 0.000000 0.000000 0.030848 0.000000
# 6 0.000000 0.000000 0.000000 0.000000 0.000000 0.024143
#
#
# Mechanical properties :
#
#
# Convention : Reuss Voigt Hill
#
# Bulk Modulus (GPa) = 61.94317 63.52010 62.73164
# Shear Modulus (GPa) = 31.30178 32.40606 31.85392
#
# Velocity S-wave (km/s) = 3.85824 3.92570 3.89212
# Velocity P-wave (km/s) = 7.02182 7.12433 7.07326
#
# Compressibility (1/GPa) = 0.01614383
#
# Stress axis : x y z
#
# Youngs Moduli (GPa) = 76.07389 72.13104 60.89673
#
# Poissons Ratio (x) = 0.34966 0.26898
# Poissons Ratio (y) = 0.36877 0.26664
# Poissons Ratio (z) = 0.33602 0.31583
#
# Static dielectric constant tensor:
#      x y z
#    x 3.705250 0.000000 0.000000 
#    y 0.000000 3.895060 0.000000 
#    z 0.000000 0.000000 3.783790 
# 
# 
# High freq. dielectric constant tensor:
#      x y z
#    x 1.815380 0.000000 0.000000 
#    y 0.000000 1.826990 0.000000 
#    z 0.000000 0.000000 1.812160 
# 
# From -- ./inp_files/2491.got.cif
#   From: 2010.03.12/outbox.cif.g09.slc.cpg/sg30_2_cif.got.tgz:2491.got - 2010.04.14 01:38:02.
