data_PCOD8169015
_publ_section_title
;
Structure prediction by ZEFSAII (Michael W. Deem and Ramdas Pophale) SiO2 
 PCOD8169015
Probable space group: P C A 21
;
_chemical_formula_sum "Si O2"
_cell_formula_units_Z 20
_cell_length_a 10.962769
_cell_length_b 7.252670
_cell_length_c 11.597532
_cell_angle_alpha 90.000000
_cell_angle_beta 90.000000
_cell_angle_gamma 90.000000
_cell_volume 922.112183
_symmetry_space_group_name_H-M "P C A 21"
_symmetry_group_IT_number 29
_symmetry_cell_setting 'orthorhombic'
loop_
_space_group_symop_operation_xyz
x,y,z
-x,-y,1/2+z
1/2-x,y,1/2+z
1/2+x,-y,z
loop_
_atom_site_type_symbol
_atom_site_label
_atom_site_fract_x
_atom_site_fract_y
_atom_site_fract_z
Si Si1 0.719148 0.984928 0.073590
Si Si2 0.918197 0.142810 0.380039
Si Si3 0.328618 0.710569 0.941613
Si Si4 0.103718 0.320630 0.533796
Si Si5 0.536860 0.142111 0.234635
O O1 0.662809 0.041675 0.196827
O O2 0.772013 0.780162 0.071353
O O3 0.827927 0.124759 0.035605
O O4 0.608820 0.994664 0.981384
O O5 0.938922 0.021768 0.263405
O O6 0.804380 0.288397 0.375070
O O7 0.043557 0.247881 0.414565
O O8 0.435118 0.741475 0.849136
O O9 0.356638 0.529660 0.015401
O O10 0.008964 0.288255 0.639108
#
# Coordination Sequence:
#
# PCOD8169015 Si02
#       5
#     4   4   4   4   4
#     4   9  22  43  65  96 137 169 227 273 326 420
#     4   9  20  43  66  94 135 179 215 277 336 399
#     4  10  23  44  62 102 137 165 236 283 321 414
#     4  11  22  43  68  97 132 182 222 278 339 398
#     4  11  21  45  71  97 135 191 212 279 360 391
#
# _framework density 21.689333999999999
#
# number of rings (size 3 to 8) (size 9 to 14) (size 15 to 20)
#    1.200    0.800    2.000    1.200    0.000    1.600 
#   14.400    0.000    0.000    0.000    0.000    0.000 
#    0.000    0.000    0.000    0.000    0.000    0.000 
#
# Total GULP energy -247804.427734 kJ/mol
# GULP energy per Si atom -12390.221387 kJ/mol
# Density = 2.163997 g / cm^3
# Si number density = 21.689334 Si / 1000 Ang^3
#
#
#
# Elastic Constant Matrix: (Units=GPa)
#
#
# Indices 1 2 3 4 5 6 
#
# 1 80.5989 40.5577 24.0002 0.0000 0.0000 0.0000
# 2 40.5577 110.3242 54.6157 0.0000 0.0000 0.0000
# 3 24.0002 54.6157 77.1616 0.0000 0.0000 0.0000
# 4 0.0000 0.0000 0.0000 35.3002 0.0000 0.0000
# 5 0.0000 0.0000 0.0000 0.0000 35.6021 0.0000
# 6 0.0000 0.0000 0.0000 0.0000 0.0000 26.8226
#
#
#
# Elastic Compliance Matrix: (Units=1/GPa)
#
#
# Indices 1 2 3 4 5 6 
#
# 1 0.015295 -0.005030 -0.001197 0.000000 0.000000 0.000000
# 2 -0.005030 0.015608 -0.009483 0.000000 0.000000 0.000000
# 3 -0.001197 -0.009483 0.020044 0.000000 0.000000 0.000000
# 4 0.000000 0.000000 0.000000 0.028328 0.000000 0.000000
# 5 0.000000 0.000000 0.000000 0.000000 0.028088 0.000000
# 6 0.000000 0.000000 0.000000 0.000000 0.000000 0.037282
#
#
# Mechanical properties :
#
#
# Convention : Reuss Voigt Hill
#
# Bulk Modulus (GPa) = 51.21112 56.27023 53.74067
# Shear Modulus (GPa) = 27.38615 29.47237 28.42926
#
# Velocity S-wave (km/s) = 3.55724 3.69025 3.62435
# Velocity P-wave (km/s) = 6.36666 6.64509 6.50737
#
# Compressibility (1/GPa) = 0.01952701
#
# Stress axis : x y z
#
# Youngs Moduli (GPa) = 65.38201 64.07035 49.89005
#
# Poissons Ratio (x) = 0.32229 0.05971
# Poissons Ratio (y) = 0.32889 0.47310
# Poissons Ratio (z) = 0.07825 0.60757
#
# Static dielectric constant tensor:
#      x y z
#    x 3.800680 0.000000 0.000000 
#    y 0.000000 3.462250 0.000000 
#    z 0.000000 0.000000 3.701380 
# 
# 
# High freq. dielectric constant tensor:
#      x y z
#    x 1.854940 0.000000 0.000000 
#    y 0.000000 1.818720 0.000000 
#    z 0.000000 0.000000 1.845470 
# 
# From -- ./inp_files/4373.got.cif
#   From: 2010.03.12/outbox.cif.g09.slc.cpg/sg29_3_cif.got.tgz:4373.got - 2010.04.14 03:43:10.
