data_PCOD8169816
_publ_section_title
;
Structure prediction by ZEFSAII (Michael W. Deem and Ramdas Pophale) SiO2 
 PCOD8169816
Probable space group: P M N 21
;
_chemical_formula_sum "Si O2"
_cell_formula_units_Z 32
_cell_length_a 9.041380
_cell_length_b 11.439964
_cell_length_c 16.118490
_cell_angle_alpha 90.000000
_cell_angle_beta 90.000000
_cell_angle_gamma 90.000000
_cell_volume 1667.184771
_symmetry_space_group_name_H-M "P M N 21"
_symmetry_group_IT_number 31
_symmetry_cell_setting 'orthorhombic'
loop_
_space_group_symop_operation_xyz
x,y,z
1/2-x,-y,1/2+z
-x,y,z
1/2+x,-y,1/2+z
loop_
_atom_site_type_symbol
_atom_site_label
_atom_site_fract_x
_atom_site_fract_y
_atom_site_fract_z
Si Si1 0.326254 0.847465 0.812470
Si Si2 0.675522 0.061877 0.151113
Si Si3 0.162078 0.175993 0.697006
Si Si4 0.822788 0.433512 0.696047
Si Si5 0.824928 0.526176 0.517774
Si Si6 0.174152 0.420308 0.343713
Si Si7 0.336886 0.940850 0.373274
Si Si8 0.672917 0.213336 0.995101
O O1 0.500000 0.870707 0.812727
O O2 0.262392 0.868857 0.721622
O O3 0.286928 0.716071 0.838657
O O4 0.252580 0.937118 0.878201
O O5 0.500000 0.066936 0.170238
O O6 0.730463 0.925750 0.137705
O O7 0.717009 0.126699 0.067791
O O8 0.243474 0.300680 0.705363
O O9 0.149836 0.101272 0.779954
O O10 0.000000 0.210203 0.663031
O O11 0.767052 0.472578 0.604644
O O12 0.754166 0.511398 0.769092
O O13 0.000000 0.441541 0.705781
O O14 0.767240 0.461176 0.434540
O O15 0.765961 0.658363 0.515114
O O16 0.000000 0.520529 0.519027
O O17 0.000000 0.443788 0.334473
O O18 0.500000 0.959931 0.411784
O O19 0.252848 0.833876 0.414631
O O20 0.500000 0.217667 0.977188
#
# Coordination Sequence:
#
# PCOD8169816 Si02
#       8
#     4   4   4   4   4   4   4   4
#     4  10  20  34  53  76 101 134 175 214 261 317
#     4   9  18  33  53  77 105 135 169 214 263 312
#     4   8  16  31  51  75 100 129 167 210 258 308
#     4  10  19  34  57  79 102 139 182 217 256 315
#     4   9  19  34  53  79 108 139 177 219 264 319
#     4  10  21  36  53  76 109 143 174 218 272 317
#     4  10  20  34  52  75 104 135 169 216 267 311
#     4  10  19  32  52  77 103 134 173 212 257 313
#
# _framework density 19.194033000000001
#
# number of rings (size 3 to 8) (size 9 to 14) (size 15 to 20)
#    0.000    2.500    0.000    3.000    0.000    3.500 
#    0.000    7.500    0.000    1.500    0.000    0.000 
#    0.000    0.000    0.000    0.000    0.000    0.000 
#
# Total GULP energy -396518.667773 kJ/mol
# GULP energy per Si atom -12391.208368 kJ/mol
# Density = 1.915035 g / cm^3
# Si number density = 19.194033 Si / 1000 Ang^3
#
#
#
# Elastic Constant Matrix: (Units=GPa)
#
#
# Indices 1 2 3 4 5 6 
#
# 1 39.4204 38.0784 20.5942 0.0000 0.0000 0.0000
# 2 38.0784 166.3291 52.6554 0.0000 0.0000 0.0000
# 3 20.5942 52.6554 87.6351 0.0000 0.0000 0.0000
# 4 0.0000 0.0000 0.0000 35.0174 0.0000 0.0000
# 5 0.0000 0.0000 0.0000 0.0000 24.6670 0.0000
# 6 0.0000 0.0000 0.0000 0.0000 0.0000 23.9593
#
#
#
# Elastic Compliance Matrix: (Units=1/GPa)
#
#
# Indices 1 2 3 4 5 6 
#
# 1 0.033698 -0.006431 -0.004055 0.000000 0.000000 0.000000
# 2 -0.006431 0.008652 -0.003687 0.000000 0.000000 0.000000
# 3 -0.004055 -0.003687 0.014579 0.000000 0.000000 0.000000
# 4 0.000000 0.000000 0.000000 0.028557 0.000000 0.000000
# 5 0.000000 0.000000 0.000000 0.000000 0.040540 0.000000
# 6 0.000000 0.000000 0.000000 0.000000 0.000000 0.041737
#
#
# Mechanical properties :
#
#
# Convention : Reuss Voigt Hill
#
# Bulk Modulus (GPa) = 34.98592 57.33784 46.16188
# Shear Modulus (GPa) = 24.31465 28.86584 26.59024
#
# Velocity S-wave (km/s) = 3.56305 3.88222 3.72605
# Velocity P-wave (km/s) = 5.93247 7.07341 6.52791
#
# Compressibility (1/GPa) = 0.02858292
#
# Stress axis : x y z
#
# Youngs Moduli (GPa) = 29.67531 115.58474 68.59065
#
# Poissons Ratio (x) = 0.74332 0.27814
# Poissons Ratio (y) = 0.19084 0.25290
# Poissons Ratio (z) = 0.12033 0.42617
#
# Static dielectric constant tensor:
#      x y z
#    x 3.305020 0.000000 0.000000 
#    y 0.000000 3.854440 0.000000 
#    z 0.000000 0.000000 3.502450 
# 
# 
# High freq. dielectric constant tensor:
#      x y z
#    x 1.714530 0.000000 0.000000 
#    y 0.000000 1.769680 0.000000 
#    z 0.000000 0.000000 1.742400 
# 
# From -- ./inp_files/5930.got.cif
#   From: 2010.03.12/outbox.cif.g09.slc.cpg/sg31_3_cif.got.tgz:5930.got - 2010.04.14 01:42:59.
