data_PCOD8169130
_publ_section_title
;
Structure prediction by ZEFSAII (Michael W. Deem and Ramdas Pophale) SiO2 
 PCOD8169130
Probable space group: P C A 21
;
_chemical_formula_sum "Si O2"
_cell_formula_units_Z 32
_cell_length_a 14.595756
_cell_length_b 8.922865
_cell_length_c 11.334987
_cell_angle_alpha 90.000000
_cell_angle_beta 90.000000
_cell_angle_gamma 90.000000
_cell_volume 1476.222918
_symmetry_space_group_name_H-M "P C A 21"
_symmetry_group_IT_number 29
_symmetry_cell_setting 'orthorhombic'
loop_
_space_group_symop_operation_xyz
x,y,z
-x,-y,1/2+z
1/2-x,y,1/2+z
1/2+x,-y,z
loop_
_atom_site_type_symbol
_atom_site_label
_atom_site_fract_x
_atom_site_fract_y
_atom_site_fract_z
Si Si1 0.380820 0.316613 0.191370
Si Si2 0.131820 0.772684 0.494739
Si Si3 0.684894 0.627217 0.209106
Si Si4 0.084914 0.598082 0.842499
Si Si5 0.100069 0.443487 0.451021
Si Si6 0.942530 0.148095 0.744854
Si Si7 0.486312 0.181372 0.679931
Si Si8 0.314559 0.682390 0.571464
O O1 0.274446 0.264793 0.199504
O O2 0.378573 0.483384 0.245569
O O3 0.452661 0.208523 0.258446
O O4 0.406738 0.318564 0.052977
O O5 0.136316 0.594196 0.508391
O O6 0.120586 0.821089 0.359041
O O7 0.230509 0.803080 0.557150
O O8 0.047967 0.848415 0.564695
O O9 0.666745 0.610888 0.347985
O O10 0.597088 0.705992 0.148083
O O11 0.704455 0.468076 0.146744
O O12 0.999915 0.516688 0.903918
O O13 0.051277 0.750931 0.781091
O O14 0.161745 0.636010 0.937759
O O15 0.897653 0.230369 0.633271
O O16 0.943527 0.971614 0.726245
#
# Coordination Sequence:
#
# PCOD8169130 Si02
#       8
#     4   4   4   4   4   4   4   4
#     4  12  23  42  70  98 130 175 229 283 338 396
#     4  12  24  43  73  98 134 175 230 282 335 400
#     4  11  24  41  68 102 133 174 228 291 336 399
#     4  11  22  40  68  98 129 172 220 292 332 393
#     4  11  20  40  67 102 131 166 223 287 341 384
#     4  12  28  45  66 100 140 187 224 270 343 419
#     4  11  27  45  64  97 143 179 224 267 341 407
#     4  12  24  42  72 101 132 170 234 288 342 388
#
# _framework density 21.676942
#
# number of rings (size 3 to 8) (size 9 to 14) (size 15 to 20)
#    0.000    0.500    6.250    2.250    3.500    1.000 
#    0.000    0.000    0.000    0.000    0.000    0.000 
#    0.000    0.000    0.000    0.000    0.000    0.000 
#
# Total GULP energy -396758.888479 kJ/mol
# GULP energy per Si atom -12398.715265 kJ/mol
# Density = 2.162760 g / cm^3
# Si number density = 21.676942 Si / 1000 Ang^3
#
#
#
# Elastic Constant Matrix: (Units=GPa)
#
#
# Indices 1 2 3 4 5 6 
#
# 1 117.3862 13.9084 39.8104 0.0000 0.0000 0.0000
# 2 13.9084 69.8052 20.9053 0.0000 0.0000 0.0000
# 3 39.8104 20.9053 116.1240 0.0000 0.0000 0.0000
# 4 0.0000 0.0000 0.0000 16.9970 0.0000 0.0000
# 5 0.0000 0.0000 0.0000 0.0000 38.3049 0.0000
# 6 0.0000 0.0000 0.0000 0.0000 0.0000 16.8729
#
#
#
# Elastic Compliance Matrix: (Units=1/GPa)
#
#
# Indices 1 2 3 4 5 6 
#
# 1 0.009704 -0.000991 -0.003148 0.000000 0.000000 0.000000
# 2 -0.000991 0.015243 -0.002405 0.000000 0.000000 0.000000
# 3 -0.003148 -0.002405 0.010124 0.000000 0.000000 0.000000
# 4 0.000000 0.000000 0.000000 0.058834 0.000000 0.000000
# 5 0.000000 0.000000 0.000000 0.000000 0.026106 0.000000
# 6 0.000000 0.000000 0.000000 0.000000 0.000000 0.059267
#
#
# Mechanical properties :
#
#
# Convention : Reuss Voigt Hill
#
# Bulk Modulus (GPa) = 45.48836 50.28483 47.88659
# Shear Modulus (GPa) = 25.03846 29.68105 27.35976
#
# Velocity S-wave (km/s) = 3.40232 3.70435 3.55654
# Velocity P-wave (km/s) = 6.03860 6.44546 6.24534
#
# Compressibility (1/GPa) = 0.02198365
#
# Stress axis : x y z
#
# Youngs Moduli (GPa) = 103.05004 65.60363 98.77770
#
# Poissons Ratio (x) = 0.06499 0.31100
# Poissons Ratio (y) = 0.10208 0.23752
# Poissons Ratio (z) = 0.32445 0.15775
#
# Static dielectric constant tensor:
#      x y z
#    x 4.196290 0.000000 0.000000 
#    y 0.000000 3.533350 0.000000 
#    z 0.000000 0.000000 3.968490 
# 
# 
# High freq. dielectric constant tensor:
#      x y z
#    x 1.872140 0.000000 0.000000 
#    y 0.000000 1.809540 0.000000 
#    z 0.000000 0.000000 1.863070 
# 
# From -- ./inp_files/3485.got.cif
#   From: 2010.03.12/outbox.cif.g09.slc.cpg/sg29_2_cif.got.tgz:3485.got - 2010.04.14 03:43:10.
