data_PCOD8169399
_publ_section_title
;
Structure prediction by ZEFSAII (Michael W. Deem and Ramdas Pophale) SiO2 
 PCOD8169399
Probable space group: P N C 2
;
_chemical_formula_sum "Si O2"
_cell_formula_units_Z 20
_cell_length_a 25.560595
_cell_length_b 8.346804
_cell_length_c 5.003993
_cell_angle_alpha 90.000000
_cell_angle_beta 90.000000
_cell_angle_gamma 90.000000
_cell_volume 1067.598287
_symmetry_space_group_name_H-M "P N C 2"
_symmetry_group_IT_number 30
_symmetry_cell_setting 'orthorhombic'
loop_
_space_group_symop_operation_xyz
x,y,z
-x,-y,z
-x,1/2+y,1/2+z
x,1/2-y,1/2+z
loop_
_atom_site_type_symbol
_atom_site_label
_atom_site_fract_x
_atom_site_fract_y
_atom_site_fract_z
Si Si1 0.963040 0.646930 0.907380
Si Si2 0.765072 0.359393 0.007261
Si Si3 0.653435 0.148536 0.398149
Si Si4 0.459138 0.860295 0.499359
Si Si5 0.156927 0.354895 0.913044
O O1 0.974982 0.708754 0.610819
O O2 0.903200 0.590066 0.938463
O O3 0.000000 0.500000 0.977267
O O4 0.771169 0.288341 0.302914
O O5 0.707552 0.443942 0.969509
O O6 0.809227 0.489075 0.962222
O O7 0.653745 0.191322 0.084394
O O8 0.598930 0.058699 0.467886
O O9 0.466729 0.715314 0.290941
O O10 0.500000 0.000000 0.447959
O O11 0.169998 0.284477 0.623494
#
# Coordination Sequence:
#
# PCOD8169399 Si02
#       5
#     4   4   4   4   4
#     4  10  21  36  54  75 102 133 166 202 245 292
#     4  10  19  33  54  76  95 128 174 205 231 290
#     4   8  16  30  48  69  96 127 160 200 244 284
#     4  10  19  33  51  72  99 130 163 203 247 292
#     4  10  21  36  51  74 107 134 155 200 261 294
#
# _framework density 18.733636000000001
#
# number of rings (size 3 to 8) (size 9 to 14) (size 15 to 20)
#    0.000    2.400    0.000    2.400    0.000    1.600 
#    0.000    2.000    0.000    0.000    0.000    0.000 
#    0.000    0.000    0.000    0.000    0.000    0.000 
#
# Total GULP energy -247911.057588 kJ/mol
# GULP energy per Si atom -12395.552879 kJ/mol
# Density = 1.869100 g / cm^3
# Si number density = 18.733636 Si / 1000 Ang^3
#
#
#
# Elastic Constant Matrix: (Units=GPa)
#
#
# Indices 1 2 3 4 5 6 
#
# 1 133.7778 62.1556 16.7599 0.0000 0.0000 0.0000
# 2 62.1556 56.1876 2.0818 0.0000 0.0000 0.0000
# 3 16.7599 2.0818 72.2594 0.0000 0.0000 0.0000
# 4 0.0000 0.0000 0.0000 15.2621 0.0000 0.0000
# 5 0.0000 0.0000 0.0000 0.0000 24.3761 0.0000
# 6 0.0000 0.0000 0.0000 0.0000 0.0000 35.7203
#
#
#
# Elastic Compliance Matrix: (Units=1/GPa)
#
#
# Indices 1 2 3 4 5 6 
#
# 1 0.016097 -0.017687 -0.003224 0.000000 0.000000 0.000000
# 2 -0.017687 0.037251 0.003029 0.000000 0.000000 0.000000
# 3 -0.003224 0.003029 0.014500 0.000000 0.000000 0.000000
# 4 0.000000 0.000000 0.000000 0.065522 0.000000 0.000000
# 5 0.000000 0.000000 0.000000 0.000000 0.041024 0.000000
# 6 0.000000 0.000000 0.000000 0.000000 0.000000 0.027995
#
#
# Mechanical properties :
#
#
# Convention : Reuss Voigt Hill
#
# Bulk Modulus (GPa) = 31.16858 47.13548 39.15203
# Shear Modulus (GPa) = 20.09278 27.15354 23.62316
#
# Velocity S-wave (km/s) = 3.27854 3.81130 3.55491
# Velocity P-wave (km/s) = 5.56827 6.67709 6.14773
#
# Compressibility (1/GPa) = 0.03208359
#
# Stress axis : x y z
#
# Youngs Moduli (GPa) = 62.12480 26.84506 68.96778
#
# Poissons Ratio (x) = 0.47481 0.22235
# Poissons Ratio (y) = 1.09879 -0.20891
# Poissons Ratio (z) = 0.20028 -0.08132
#
# Static dielectric constant tensor:
#      x y z
#    x 3.803350 0.000000 0.000000 
#    y 0.000000 2.811280 0.000000 
#    z 0.000000 0.000000 3.680240 
# 
# 
# High freq. dielectric constant tensor:
#      x y z
#    x 1.747200 0.000000 0.000000 
#    y 0.000000 1.669900 0.000000 
#    z 0.000000 0.000000 1.753530 
# 
# From -- ./inp_files/1046.got.cif
#   From: 2010.03.12/outbox.cif.g09.slc.cpg/sg30_1_cif.got.tgz:1046.got - 2010.04.14 01:38:02.
