data_PCOD8169033
_publ_section_title
;
Structure prediction by ZEFSAII (Michael W. Deem and Ramdas Pophale) SiO2 
 PCOD8169033
Probable space group: P C A 21
;
_chemical_formula_sum "Si O2"
_cell_formula_units_Z 32
_cell_length_a 21.160389
_cell_length_b 8.164541
_cell_length_c 8.697301
_cell_angle_alpha 90.000000
_cell_angle_beta 90.000000
_cell_angle_gamma 90.000000
_cell_volume 1502.588021
_symmetry_space_group_name_H-M "P C A 21"
_symmetry_group_IT_number 29
_symmetry_cell_setting 'orthorhombic'
loop_
_space_group_symop_operation_xyz
x,y,z
-x,-y,1/2+z
1/2-x,y,1/2+z
1/2+x,-y,z
loop_
_atom_site_type_symbol
_atom_site_label
_atom_site_fract_x
_atom_site_fract_y
_atom_site_fract_z
Si Si1 0.178220 0.139412 0.066050
Si Si2 0.011441 0.203599 0.661944
Si Si3 0.886327 0.537876 0.176550
Si Si4 0.454979 0.048293 0.461172
Si Si5 0.690619 0.384787 0.450293
Si Si6 0.411068 0.704181 0.439050
Si Si7 0.241068 0.323061 0.806852
Si Si8 0.295726 0.771828 0.626647
O O1 0.203039 0.269153 0.191179
O O2 0.197990 0.964851 0.128961
O O3 0.101661 0.149179 0.046076
O O4 0.211781 0.171349 0.902176
O O5 0.076800 0.297230 0.631668
O O6 0.007909 0.167596 0.844487
O O7 0.956043 0.319213 0.591080
O O8 0.006926 0.024061 0.580535
O O9 0.922559 0.434797 0.310176
O O10 0.815371 0.586262 0.220093
O O11 0.878334 0.426102 0.023472
O O12 0.423191 0.889430 0.374764
O O13 0.728159 0.552656 0.426088
O O14 0.682816 0.285703 0.294128
O O15 0.724996 0.276794 0.582066
O O16 0.339529 0.687868 0.497012
#
# Coordination Sequence:
#
# PCOD8169033 Si02
#       8
#     4   4   4   4   4   4   4   4
#     4  11  23  41  66  98 137 176 225 282 330 418
#     4  10  23  46  68  94 130 181 223 279 337 386
#     4  12  23  43  68 101 136 172 224 284 337 412
#     4   9  22  46  66  93 132 174 229 278 331 395
#     4  12  23  39  66  98 136 175 217 276 348 410
#     4   9  23  44  64  94 132 176 224 274 334 397
#     4  12  22  39  66 102 133 178 223 273 354 399
#     4  11  21  42  62  96 136 176 221 274 341 403
#
# _framework density 21.296590999999999
#
# number of rings (size 3 to 8) (size 9 to 14) (size 15 to 20)
#    0.750    0.500    5.000    0.750    0.000    3.000 
#    4.500    0.000    0.000    0.000    0.000    0.000 
#    0.000    0.000    0.000    0.000    0.000    0.000 
#
# Total GULP energy -396528.289102 kJ/mol
# GULP energy per Si atom -12391.509034 kJ/mol
# Density = 2.124812 g / cm^3
# Si number density = 21.296591 Si / 1000 Ang^3
#
#
#
# Elastic Constant Matrix: (Units=GPa)
#
#
# Indices 1 2 3 4 5 6 
#
# 1 59.6608 27.8928 26.9434 0.0000 0.0000 0.0000
# 2 27.8928 67.1169 44.8427 0.0000 0.0000 0.0000
# 3 26.9434 44.8427 95.4455 0.0000 0.0000 0.0000
# 4 0.0000 0.0000 0.0000 41.5683 0.0000 0.0000
# 5 0.0000 0.0000 0.0000 0.0000 42.6252 0.0000
# 6 0.0000 0.0000 0.0000 0.0000 0.0000 39.7000
#
#
#
# Elastic Compliance Matrix: (Units=1/GPa)
#
#
# Indices 1 2 3 4 5 6 
#
# 1 0.021270 -0.007037 -0.002698 0.000000 0.000000 0.000000
# 2 -0.007037 0.024044 -0.009310 0.000000 0.000000 0.000000
# 3 -0.002698 -0.009310 0.015613 0.000000 0.000000 0.000000
# 4 0.000000 0.000000 0.000000 0.024057 0.000000 0.000000
# 5 0.000000 0.000000 0.000000 0.000000 0.023460 0.000000
# 6 0.000000 0.000000 0.000000 0.000000 0.000000 0.025189
#
#
# Mechanical properties :
#
#
# Convention : Reuss Voigt Hill
#
# Bulk Modulus (GPa) = 43.78899 46.84233 45.31566
# Shear Modulus (GPa) = 27.88075 32.94831 30.41453
#
# Velocity S-wave (km/s) = 3.62216 3.93761 3.78317
# Velocity P-wave (km/s) = 6.17248 6.53575 6.35671
#
# Compressibility (1/GPa) = 0.02283679
#
# Stress axis : x y z
#
# Youngs Moduli (GPa) = 47.01506 41.59031 64.04911
#
# Poissons Ratio (x) = 0.29266 0.17282
# Poissons Ratio (y) = 0.33083 0.59631
# Poissons Ratio (z) = 0.12686 0.38721
#
# Static dielectric constant tensor:
#      x y z
#    x 3.699240 0.000000 0.000000 
#    y 0.000000 3.730240 0.000000 
#    z 0.000000 0.000000 3.779210 
# 
# 
# High freq. dielectric constant tensor:
#      x y z
#    x 1.817860 0.000000 0.000000 
#    y 0.000000 1.832940 0.000000 
#    z 0.000000 0.000000 1.834890 
# 
# From -- ./inp_files/2497.got.cif
#   From: 2010.03.12/outbox.cif.g09.slc.cpg/sg29_2_cif.got.tgz:2497.got - 2010.04.14 03:43:10.
