data_PCOD8169323
_publ_section_title
;
Structure prediction by ZEFSAII (Michael W. Deem and Ramdas Pophale) SiO2 
 PCOD8169323
Probable space group: P C A 21
;
_chemical_formula_sum "Si O2"
_cell_formula_units_Z 24
_cell_length_a 9.505652
_cell_length_b 12.273302
_cell_length_c 8.193367
_cell_angle_alpha 90.000000
_cell_angle_beta 90.000000
_cell_angle_gamma 90.000000
_cell_volume 955.885205
_symmetry_space_group_name_H-M "P C A 21"
_symmetry_group_IT_number 29
_symmetry_cell_setting 'orthorhombic'
loop_
_space_group_symop_operation_xyz
x,y,z
-x,-y,1/2+z
1/2-x,y,1/2+z
1/2+x,-y,z
loop_
_atom_site_type_symbol
_atom_site_label
_atom_site_fract_x
_atom_site_fract_y
_atom_site_fract_z
Si Si1 0.191326 0.061706 0.610110
Si Si2 0.696586 0.698241 0.699077
Si Si3 0.340571 0.721688 0.251440
Si Si4 0.583601 0.054752 0.916557
Si Si5 0.432085 0.416255 0.893156
Si Si6 0.935870 0.327442 0.899908
O O1 0.247718 0.184922 0.632030
O O2 0.080705 0.053145 0.461787
O O3 0.320296 0.979972 0.572113
O O4 0.111975 0.032071 0.775801
O O5 0.607419 0.636349 0.563986
O O6 0.830466 0.626112 0.748408
O O7 0.592455 0.712187 0.854366
O O8 0.383344 0.825636 0.355639
O O9 0.411023 0.617257 0.339591
O O10 0.172321 0.706795 0.256751
O O11 0.389857 0.733668 0.065151
O O12 0.429801 0.543729 0.921293
#
# Coordination Sequence:
#
# PCOD8169323 Si02
#       6
#     4   4   4   4   4   4
#     4  12  28  49  77 106 144 189 243 303 368 429
#     4  12  27  47  73 108 150 190 241 299 360 431
#     4  12  27  47  73 108 148 189 244 302 357 427
#     4  12  28  49  75 106 144 187 246 304 364 430
#     4  12  24  47  72 110 148 194 241 294 356 430
#     4  12  26  45  76 106 148 195 241 294 359 429
#
# _framework density 25.107616
#
# number of rings (size 3 to 8) (size 9 to 14) (size 15 to 20)
#    0.000    0.000    1.667    8.000    9.333    0.000 
#    0.000    0.000    0.000    0.000    0.000    0.000 
#    0.000    0.000    0.000    0.000    0.000    0.000 
#
# Total GULP energy -297823.448338 kJ/mol
# GULP energy per Si atom -12409.310347 kJ/mol
# Density = 2.505047 g / cm^3
# Si number density = 25.107616 Si / 1000 Ang^3
#
#
#
# Elastic Constant Matrix: (Units=GPa)
#
#
# Indices 1 2 3 4 5 6 
#
# 1 81.2780 27.7801 -8.8772 0.0000 0.0000 0.0000
# 2 27.7801 82.2713 20.1042 0.0000 0.0000 0.0000
# 3 -8.8772 20.1042 86.3205 0.0000 0.0000 0.0000
# 4 0.0000 0.0000 0.0000 39.1489 0.0000 0.0000
# 5 0.0000 0.0000 0.0000 0.0000 40.9617 0.0000
# 6 0.0000 0.0000 0.0000 0.0000 0.0000 30.4048
#
#
#
# Elastic Compliance Matrix: (Units=1/GPa)
#
#
# Indices 1 2 3 4 5 6 
#
# 1 0.014517 -0.005585 0.002794 0.000000 0.000000 0.000000
# 2 -0.005585 0.015037 -0.004076 0.000000 0.000000 0.000000
# 3 0.002794 -0.004076 0.012821 0.000000 0.000000 0.000000
# 4 0.000000 0.000000 0.000000 0.025543 0.000000 0.000000
# 5 0.000000 0.000000 0.000000 0.000000 0.024413 0.000000
# 6 0.000000 0.000000 0.000000 0.000000 0.000000 0.032890
#
#
# Mechanical properties :
#
#
# Convention : Reuss Voigt Hill
#
# Bulk Modulus (GPa) = 34.91534 36.43155 35.67345
# Shear Modulus (GPa) = 33.66925 36.16060 34.91493
#
# Velocity S-wave (km/s) = 3.66594 3.79915 3.73314
# Velocity P-wave (km/s) = 5.64405 5.81260 5.72894
#
# Compressibility (1/GPa) = 0.02864071
#
# Stress axis : x y z
#
# Youngs Moduli (GPa) = 68.88298 66.50356 77.99437
#
# Poissons Ratio (x) = 0.37140 -0.21789
# Poissons Ratio (y) = 0.38469 0.31794
# Poissons Ratio (z) = -0.19243 0.27110
#
# Static dielectric constant tensor:
#      x y z
#    x 4.808490 0.000000 0.000000 
#    y 0.000000 4.533790 0.000000 
#    z 0.000000 0.000000 4.667320 
# 
# 
# High freq. dielectric constant tensor:
#      x y z
#    x 2.008530 0.000000 0.000000 
#    y 0.000000 2.007470 0.000000 
#    z 0.000000 0.000000 2.014000 
# 
# From -- ./inp_files/1127.got.cif
#   From: 2010.03.12/outbox.cif.g09.slc.cpg/sg29_1_cif.got.tgz:1127.got - 2010.04.14 03:43:10.
