data_PCOD8169582
_publ_section_title
;
Structure prediction by ZEFSAII (Michael W. Deem and Ramdas Pophale) SiO2 
 PCOD8169582
Probable space group: P N C 2
;
_chemical_formula_sum "Si O2"
_cell_formula_units_Z 28
_cell_length_a 9.705245
_cell_length_b 26.716273
_cell_length_c 5.112148
_cell_angle_alpha 90.000000
_cell_angle_beta 90.000000
_cell_angle_gamma 90.000000
_cell_volume 1325.518503
_symmetry_space_group_name_H-M "P N C 2"
_symmetry_group_IT_number 30
_symmetry_cell_setting 'orthorhombic'
loop_
_space_group_symop_operation_xyz
x,y,z
-x,-y,z
-x,1/2+y,1/2+z
x,1/2-y,1/2+z
loop_
_atom_site_type_symbol
_atom_site_label
_atom_site_fract_x
_atom_site_fract_y
_atom_site_fract_z
Si Si1 0.250278 0.047484 0.019080
Si Si2 0.593325 0.397073 0.092247
Si Si3 0.948293 0.868877 0.920181
Si Si4 0.500000 0.000000 0.710422
Si Si5 0.906744 0.102769 0.443838
Si Si6 0.752980 0.782947 0.055781
Si Si7 0.552171 0.868970 0.116637
Si Si8 0.000000 0.000000 0.326126
O O1 0.340108 0.086626 0.191160
O O2 0.140256 0.012370 0.165570
O O3 0.162122 0.087490 0.849227
O O4 0.359637 0.012373 0.870581
O O5 0.541026 0.453412 0.028387
O O6 0.557448 0.385378 0.393746
O O7 0.750261 0.392307 0.019624
O O8 0.521158 0.358522 0.892843
O O9 0.019647 0.858690 0.641689
O O10 0.887582 0.816755 0.018889
O O11 0.058350 0.886364 0.140929
O O12 0.959165 0.046485 0.509058
O O13 0.752107 0.761456 0.347602
O O14 0.619904 0.817825 0.017864
#
# Coordination Sequence:
#
# PCOD8169582 Si02
#       8
#     4   4   4   2   4   4   4   2
#     4   9  22  38  58  86 128 166 210 272 300 363
#     4  11  24  38  62  86 131 178 211 256 307 374
#     4  10  23  42  60  94 127 158 206 270 324 365
#     4  10  24  34  62  86 128 174 238 250 302 360
#     4  11  24  38  62  86 131 178 211 256 307 374
#     4  11  22  42  76  98 118 154 208 270 338 397
#     4  10  23  42  60  94 127 158 206 270 324 365
#     4  10  24  34  62  86 128 174 238 250 302 360
#
# _framework density 21.123806999999999
#
# number of rings (size 3 to 8) (size 9 to 14) (size 15 to 20)
#    0.000    1.714    0.000    2.571   12.000    9.143 
#    0.000    0.000    0.000   17.143    0.000    0.000 
#    0.000    0.000    0.000    0.000    0.000    0.000 
#
# Total GULP energy -346907.284433 kJ/mol
# GULP energy per Si atom -12389.545873 kJ/mol
# Density = 2.107573 g / cm^3
# Si number density = 21.123807 Si / 1000 Ang^3
#
#
#
# Elastic Constant Matrix: (Units=GPa)
#
#
# Indices 1 2 3 4 5 6 
#
# 1 146.7793 33.8133 41.0440 0.0000 0.0000 0.0000
# 2 33.8133 81.7975 13.6967 0.0000 0.0000 0.0000
# 3 41.0440 13.6967 87.7651 0.0000 0.0000 0.0000
# 4 0.0000 0.0000 0.0000 30.7416 0.0000 0.0000
# 5 0.0000 0.0000 0.0000 0.0000 15.7502 0.0000
# 6 0.0000 0.0000 0.0000 0.0000 0.0000 18.6164
#
#
#
# Elastic Compliance Matrix: (Units=1/GPa)
#
#
# Indices 1 2 3 4 5 6 
#
# 1 0.008463 -0.002912 -0.003504 0.000000 0.000000 0.000000
# 2 -0.002912 0.013555 -0.000754 0.000000 0.000000 0.000000
# 3 -0.003504 -0.000754 0.013150 0.000000 0.000000 0.000000
# 4 0.000000 0.000000 0.000000 0.032529 0.000000 0.000000
# 5 0.000000 0.000000 0.000000 0.000000 0.063491 0.000000
# 6 0.000000 0.000000 0.000000 0.000000 0.000000 0.053716
#
#
# Mechanical properties :
#
#
# Convention : Reuss Voigt Hill
#
# Bulk Modulus (GPa) = 48.00649 54.82778 51.41713
# Shear Modulus (GPa) = 24.24978 28.20748 26.22863
#
# Velocity S-wave (km/s) = 3.39187 3.65820 3.52755
# Velocity P-wave (km/s) = 6.17376 6.62231 6.40196
#
# Compressibility (1/GPa) = 0.02083052
#
# Stress axis : x y z
#
# Youngs Moduli (GPa) = 118.15474 73.77215 76.04489
#
# Poissons Ratio (x) = 0.21482 0.26643
# Poissons Ratio (y) = 0.34406 0.05731
# Poissons Ratio (z) = 0.41396 0.05560
#
# Static dielectric constant tensor:
#      x y z
#    x 4.077950 0.000000 0.000000 
#    y 0.000000 3.750870 0.000000 
#    z 0.000000 0.000000 3.641320 
# 
# 
# High freq. dielectric constant tensor:
#      x y z
#    x 1.841490 0.000000 0.000000 
#    y 0.000000 1.809150 0.000000 
#    z 0.000000 0.000000 1.821120 
# 
# From -- ./inp_files/517.got.cif
#   From: 2010.03.12/outbox.cif.g09.slc.cpg/sg30_1_cif.got.tgz:517.got - 2010.04.14 01:38:02.
