data_PCOD8169435
_publ_section_title
;
Structure prediction by ZEFSAII (Michael W. Deem and Ramdas Pophale) SiO2 
 PCOD8169435
Probable space group: P N C 2
;
_chemical_formula_sum "Si O2"
_cell_formula_units_Z 32
_cell_length_a 11.421000
_cell_length_b 13.327091
_cell_length_c 10.872795
_cell_angle_alpha 90.000000
_cell_angle_beta 90.000000
_cell_angle_gamma 90.000000
_cell_volume 1654.934061
_symmetry_space_group_name_H-M "P N C 2"
_symmetry_group_IT_number 30
_symmetry_cell_setting 'orthorhombic'
loop_
_space_group_symop_operation_xyz
x,y,z
-x,-y,z
-x,1/2+y,1/2+z
x,1/2-y,1/2+z
loop_
_atom_site_type_symbol
_atom_site_label
_atom_site_fract_x
_atom_site_fract_y
_atom_site_fract_z
Si Si1 0.182353 0.881465 0.905850
Si Si2 0.531220 0.166105 0.266638
Si Si3 0.885059 0.548732 0.955925
Si Si4 0.993600 0.750000 0.516638
Si Si5 0.817647 0.118535 0.627425
Si Si6 0.114941 0.048732 0.077350
Si Si7 0.627139 0.250000 0.016638
Si Si8 0.685708 0.530271 0.766638
O O1 0.225383 0.889204 0.766638
O O2 0.076976 0.800234 0.913726
O O3 0.291675 0.846613 0.989290
O O4 0.134593 0.990055 0.948486
O O5 0.550405 0.229154 0.139984
O O6 0.550405 0.229154 0.393291
O O7 0.398835 0.126436 0.266638
O O8 0.618722 0.073689 0.266638
O O9 0.906533 0.666901 0.963480
O O10 0.766296 0.532706 0.884830
O O11 0.000000 0.500000 0.890993
O O12 0.865407 0.490055 0.084790
O O13 0.906533 0.666901 0.569795
O O14 0.076976 0.800234 0.619550
O O15 0.708325 0.153387 0.543986
O O16 0.233704 0.032706 0.148445
O O17 0.000000 0.000000 0.142282
#
# Coordination Sequence:
#
# PCOD8169435 Si02
#       8
#     4   4   4   4   4   4   4   4
#     4  10  20  36  61  90 123 161 209 256 302 367
#     4  11  24  40  68  90 121 159 217 259 300 360
#     4  10  21  38  60  91 124 161 201 252 309 370
#     4   9  22  33  56  94 126 161 201 248 320 372
#     4  10  20  36  61  90 123 161 209 256 302 367
#     4  10  21  38  60  91 124 161 201 252 309 370
#     4  11  20  39  66  94 118 163 211 256 302 358
#     4  11  23  40  62  87 123 162 203 256 306 363
#
# _framework density 19.336117000000002
#
# number of rings (size 3 to 8) (size 9 to 14) (size 15 to 20)
#    0.000    1.750    3.750    0.375    1.750    5.500 
#    0.000    0.000    2.750    3.000    0.000    0.000 
#    0.000    0.000    0.000    0.000    0.000    0.000 
#
# Total GULP energy -396578.335511 kJ/mol
# GULP energy per Si atom -12393.072985 kJ/mol
# Density = 1.929211 g / cm^3
# Si number density = 19.336117 Si / 1000 Ang^3
#
#
#
# Elastic Constant Matrix: (Units=GPa)
#
#
# Indices 1 2 3 4 5 6 
#
# 1 104.8009 34.0600 38.6420 0.0000 0.0000 0.0000
# 2 34.0600 118.2025 35.7091 0.0000 0.0000 0.0000
# 3 38.6420 35.7091 122.9195 0.0000 0.0000 0.0000
# 4 0.0000 0.0000 0.0000 -841.8247 0.0000 0.0000
# 5 0.0000 0.0000 0.0000 0.0000 -7.7955 0.0000
# 6 0.0000 0.0000 0.0000 0.0000 0.0000 25.3655
#
#
#
# Elastic Compliance Matrix: (Units=1/GPa)
#
#
# Indices 1 2 3 4 5 6 
#
# 1 0.011387 -0.002411 -0.002879 0.000000 0.000000 0.000000
# 2 -0.002411 0.009785 -0.002084 0.000000 0.000000 0.000000
# 3 -0.002879 -0.002084 0.009646 0.000000 0.000000 0.000000
# 4 0.000000 0.000000 0.000000 -0.001188 0.000000 0.000000
# 5 0.000000 0.000000 0.000000 0.000000 -0.128279 0.000000
# 6 0.000000 0.000000 0.000000 0.000000 0.000000 0.039424
#
#
# Mechanical properties :
#
#
# Convention : Reuss Voigt Hill
#
# Bulk Modulus (GPa) = 62.23643 62.52721 62.38182
# Shear Modulus (GPa) = -127.81528 -149.01683 -138.41605
#
# Velocity S-wave (km/s) = -8.13912 -8.78828 -8.46992
# Velocity P-wave (km/s) = 7.48803 8.40067 7.95745
#
# Compressibility (1/GPa) = 0.01606776
#
# Stress axis : x y z
#
# Youngs Moduli (GPa) = 87.81766 102.20130 103.66891
#
# Poissons Ratio (x) = 0.24645 0.29849
# Poissons Ratio (y) = 0.21176 0.21609
# Poissons Ratio (z) = 0.25285 0.21303
#
# Static dielectric constant tensor:
#      x y z
#    x 3.524270 0.000000 0.000000 
#    y 0.000000 3.617630 0.000000 
#    z 0.000000 0.000000 3.340880 
# 
# 
# High freq. dielectric constant tensor:
#      x y z
#    x 1.746700 0.000000 0.000000 
#    y 0.000000 1.750140 0.000000 
#    z 0.000000 0.000000 1.742540 
# 
# From -- ./inp_files/4144.got.cif
#   From: 2010.03.12/outbox.cif.g09.slc.cpg/sg30_3_cif.got.tgz:4144.got - 2010.04.14 01:38:02.
