data_PCOD8169447
_publ_section_title
;
Structure prediction by ZEFSAII (Michael W. Deem and Ramdas Pophale) SiO2 
 PCOD8169447
Probable space group: P N C 2
;
_chemical_formula_sum "Si O2"
_cell_formula_units_Z 22
_cell_length_a 6.948047
_cell_length_b 11.149215
_cell_length_c 13.858643
_cell_angle_alpha 90.000000
_cell_angle_beta 90.000000
_cell_angle_gamma 90.000000
_cell_volume 1073.563520
_symmetry_space_group_name_H-M "P N C 2"
_symmetry_group_IT_number 30
_symmetry_cell_setting 'orthorhombic'
loop_
_space_group_symop_operation_xyz
x,y,z
-x,-y,z
-x,1/2+y,1/2+z
x,1/2-y,1/2+z
loop_
_atom_site_type_symbol
_atom_site_label
_atom_site_fract_x
_atom_site_fract_y
_atom_site_fract_z
Si Si1 0.800886 0.233877 0.625000
Si Si2 0.164021 0.763602 0.903568
Si Si3 0.000000 0.500000 0.468027
Si Si4 0.516011 0.359481 0.274294
Si Si5 0.277566 0.492361 0.630085
Si Si6 0.130849 0.279255 0.751806
O O1 0.804592 0.209872 0.510359
O O2 0.622885 0.159644 0.670607
O O3 0.790185 0.374000 0.653632
O O4 0.006715 0.202777 0.672859
O O5 0.369911 0.778703 0.852498
O O6 0.077270 0.896474 0.900850
O O7 0.008689 0.686854 0.842494
O O8 0.169835 0.444965 0.534750
O O9 0.500000 0.500000 0.299507
O O10 0.301287 0.310375 0.278017
O O11 0.500000 0.500000 0.606558
O O12 0.225540 0.404024 0.717229
#
# Coordination Sequence:
#
# PCOD8169447 Si02
#       6
#     4   4   2   4   4   4
#     4  10  22  41  65  91 125 162 211 253 310 372
#     4  10  22  37  62  96 122 159 212 255 304 375
#     4  10  20  38  62  94 118 150 216 266 302 356
#     4  11  24  40  64  91 129 165 207 254 310 372
#     4  11  19  35  67  93 115 156 205 262 314 351
#     4  11  21  38  64  89 128 161 197 262 314 359
#
# _framework density 20.492501000000001
#
# number of rings (size 3 to 8) (size 9 to 14) (size 15 to 20)
#    0.000    1.455    5.455    1.091    0.000    9.455 
#    0.000    0.000   28.000    0.000    0.000    0.000 
#    0.000    0.000    0.000    0.000    0.000    0.000 
#
# Total GULP energy -272694.795579 kJ/mol
# GULP energy per Si atom -12395.217981 kJ/mol
# Density = 2.044586 g / cm^3
# Si number density = 20.492501 Si / 1000 Ang^3
#
#
#
# Elastic Constant Matrix: (Units=GPa)
#
#
# Indices 1 2 3 4 5 6 
#
# 1 157.9600 13.4902 53.4119 0.0000 0.0000 0.0000
# 2 13.4902 42.3488 4.9071 0.0000 0.0000 0.0000
# 3 53.4119 4.9071 131.3445 0.0000 0.0000 0.0000
# 4 0.0000 0.0000 0.0000 25.7764 0.0000 0.0000
# 5 0.0000 0.0000 0.0000 0.0000 17.9237 0.0000
# 6 0.0000 0.0000 0.0000 0.0000 0.0000 30.1590
#
#
#
# Elastic Compliance Matrix: (Units=1/GPa)
#
#
# Indices 1 2 3 4 5 6 
#
# 1 0.007513 -0.002048 -0.002979 0.000000 0.000000 0.000000
# 2 -0.002048 0.024274 -0.000074 0.000000 0.000000 0.000000
# 3 -0.002979 -0.000074 0.008828 0.000000 0.000000 0.000000
# 4 0.000000 0.000000 0.000000 0.038795 0.000000 0.000000
# 5 0.000000 0.000000 0.000000 0.000000 0.055792 0.000000
# 6 0.000000 0.000000 0.000000 0.000000 0.000000 0.033158
#
#
# Mechanical properties :
#
#
# Convention : Reuss Voigt Hill
#
# Bulk Modulus (GPa) = 32.88025 52.80796 42.84411
# Shear Modulus (GPa) = 26.49723 32.09475 29.29599
#
# Velocity S-wave (km/s) = 3.59976 3.96178 3.78510
# Velocity P-wave (km/s) = 5.77560 6.83761 6.32892
#
# Compressibility (1/GPa) = 0.03041339
#
# Stress axis : x y z
#
# Youngs Moduli (GPa) = 133.10621 41.19563 113.28107
#
# Poissons Ratio (x) = 0.08437 0.33742
# Poissons Ratio (y) = 0.27261 0.00839
# Poissons Ratio (z) = 0.39647 0.00305
#
# Static dielectric constant tensor:
#      x y z
#    x 4.275480 0.000000 0.000000 
#    y 0.000000 3.519520 0.000000 
#    z 0.000000 0.000000 3.704030 
# 
# 
# High freq. dielectric constant tensor:
#      x y z
#    x 1.826640 0.000000 0.000000 
#    y 0.000000 1.770950 0.000000 
#    z 0.000000 0.000000 1.796560 
# 
# From -- ./inp_files/4636.got.cif
#   From: 2010.03.12/outbox.cif.g09.slc.cpg/sg30_3_cif.got.tgz:4636.got - 2010.04.14 01:38:02.
