data_PCOD8169711
_publ_section_title
;
Structure prediction by ZEFSAII (Michael W. Deem and Ramdas Pophale) SiO2 
 PCOD8169711
Probable space group: P M N 21
;
_chemical_formula_sum "Si O2"
_cell_formula_units_Z 32
_cell_length_a 8.669261
_cell_length_b 21.299650
_cell_length_c 9.821167
_cell_angle_alpha 90.000000
_cell_angle_beta 90.000000
_cell_angle_gamma 90.000000
_cell_volume 1813.500339
_symmetry_space_group_name_H-M "P M N 21"
_symmetry_group_IT_number 31
_symmetry_cell_setting 'orthorhombic'
loop_
_space_group_symop_operation_xyz
x,y,z
1/2-x,-y,1/2+z
-x,y,z
1/2+x,-y,1/2+z
loop_
_atom_site_type_symbol
_atom_site_label
_atom_site_fract_x
_atom_site_fract_y
_atom_site_fract_z
Si Si1 0.819874 0.561686 0.146280
Si Si2 0.673082 0.644501 0.944084
Si Si3 0.817326 0.134777 0.577391
Si Si4 0.816895 0.139552 0.164598
Si Si5 0.181907 0.099189 0.873277
Si Si6 0.180690 0.770002 0.875429
Si Si7 0.183455 0.957359 0.867873
Si Si8 0.175385 0.492311 0.407189
O O1 0.759559 0.539943 0.294011
O O2 0.000000 0.574747 0.148948
O O3 0.733067 0.625115 0.096672
O O4 0.781597 0.504148 0.041901
O O5 0.500000 0.671270 0.956046
O O6 0.782020 0.696252 0.875799
O O7 0.679509 0.580630 0.853413
O O8 0.768296 0.136146 0.736529
O O9 0.762155 0.198817 0.506479
O O10 0.734790 0.075497 0.507864
O O11 0.000000 0.127391 0.560069
O O12 0.741392 0.200402 0.234687
O O13 0.762871 0.076647 0.240305
O O14 0.000000 0.145581 0.175768
O O15 0.758962 0.135912 0.007672
O O16 0.000000 0.093909 0.882687
O O17 0.246649 0.028308 0.870088
O O18 0.000000 0.781703 0.886086
O O19 0.000000 0.952849 0.851891
O O20 0.000000 0.510077 0.445528
#
# Coordination Sequence:
#
# PCOD8169711 Si02
#       8
#     4   4   4   4   4   4   4   4
#     4   9  16  29  50  77 106 134 162 199 239 278
#     4   9  18  33  53  76 100 132 167 202 237 287
#     4  10  19  33  51  71  95 129 164 201 245 295
#     4  10  19  33  51  71  95 129 163 202 246 293
#     4   9  19  32  49  71  98 125 159 202 250 296
#     4  11  21  35  52  73  95 125 168 208 241 289
#     4  10  18  31  48  73 100 125 159 201 242 298
#     4   8  17  30  48  76 107 133 164 197 236 284
#
# _framework density 17.645434999999999
#
# number of rings (size 3 to 8) (size 9 to 14) (size 15 to 20)
#    0.750    1.750    0.000    4.875    0.000    1.000 
#    0.000    6.250    2.750    0.000    0.000    0.000 
#    0.000    0.000    0.000    0.000    0.000    0.000 
#
# Total GULP energy -396529.915599 kJ/mol
# GULP energy per Si atom -12391.559862 kJ/mol
# Density = 1.760527 g / cm^3
# Si number density = 17.645435 Si / 1000 Ang^3
#
#
#
# Elastic Constant Matrix: (Units=GPa)
#
#
# Indices 1 2 3 4 5 6 
#
# 1 43.7696 8.1668 6.5863 0.0000 0.0000 0.0000
# 2 8.1668 33.4578 0.4600 0.0000 0.0000 0.0000
# 3 6.5863 0.4600 85.3475 0.0000 0.0000 0.0000
# 4 0.0000 0.0000 0.0000 16.5495 0.0000 0.0000
# 5 0.0000 0.0000 0.0000 0.0000 21.8928 0.0000
# 6 0.0000 0.0000 0.0000 0.0000 0.0000 25.2185
#
#
#
# Elastic Compliance Matrix: (Units=1/GPa)
#
#
# Indices 1 2 3 4 5 6 
#
# 1 0.024222 -0.005887 -0.001837 0.000000 0.000000 0.000000
# 2 -0.005887 0.031321 0.000286 0.000000 0.000000 0.000000
# 3 -0.001837 0.000286 0.011857 0.000000 0.000000 0.000000
# 4 0.000000 0.000000 0.000000 0.060425 0.000000 0.000000
# 5 0.000000 0.000000 0.000000 0.000000 0.045677 0.000000
# 6 0.000000 0.000000 0.000000 0.000000 0.000000 0.039653
#
#
# Mechanical properties :
#
#
# Convention : Reuss Voigt Hill
#
# Bulk Modulus (GPa) = 19.03958 21.44457 20.24208
# Shear Modulus (GPa) = 20.36318 22.55629 21.45974
#
# Velocity S-wave (km/s) = 3.40077 3.57922 3.49114
# Velocity P-wave (km/s) = 5.12190 5.40930 5.26756
#
# Compressibility (1/GPa) = 0.05252217
#
# Stress axis : x y z
#
# Youngs Moduli (GPa) = 41.28505 31.92700 84.33790
#
# Poissons Ratio (x) = 0.18796 0.15497
# Poissons Ratio (y) = 0.24305 -0.02408
# Poissons Ratio (z) = 0.07586 -0.00912
#
# Static dielectric constant tensor:
#      x y z
#    x 3.210430 0.000000 0.000000 
#    y 0.000000 3.063140 0.000000 
#    z 0.000000 0.000000 3.375900 
# 
# 
# High freq. dielectric constant tensor:
#      x y z
#    x 1.685010 0.000000 0.000000 
#    y 0.000000 1.658140 0.000000 
#    z 0.000000 0.000000 1.671740 
# 
# From -- ./inp_files/1887.got.cif
#   From: 2010.03.12/outbox.cif.g09.slc.cpg/sg31_1_cif.got.tgz:1887.got - 2010.04.14 01:42:59.
