data_PCOD8169133
_publ_section_title
;
Structure prediction by ZEFSAII (Michael W. Deem and Ramdas Pophale) SiO2 
 PCOD8169133
Probable space group: P C A 21
;
_chemical_formula_sum "Si O2"
_cell_formula_units_Z 32
_cell_length_a 19.890641
_cell_length_b 8.726087
_cell_length_c 7.518313
_cell_angle_alpha 90.000000
_cell_angle_beta 90.000000
_cell_angle_gamma 90.000000
_cell_volume 1304.934520
_symmetry_space_group_name_H-M "P C A 21"
_symmetry_group_IT_number 29
_symmetry_cell_setting 'orthorhombic'
loop_
_space_group_symop_operation_xyz
x,y,z
-x,-y,1/2+z
1/2-x,y,1/2+z
1/2+x,-y,z
loop_
_atom_site_type_symbol
_atom_site_label
_atom_site_fract_x
_atom_site_fract_y
_atom_site_fract_z
Si Si1 0.255148 0.780188 0.299540
Si Si2 0.589212 0.912044 0.300250
Si Si3 0.803792 0.999872 0.060717
Si Si4 0.617000 0.238914 0.167264
Si Si5 0.802600 0.545792 0.236443
Si Si6 0.419488 0.549739 0.997635
Si Si7 0.193004 0.260773 0.066503
Si Si8 0.024234 0.692381 0.851122
O O1 0.208150 0.837198 0.459574
O O2 0.306121 0.925461 0.258502
O O3 0.198090 0.767904 0.139363
O O4 0.292542 0.620004 0.327931
O O5 0.628077 0.789112 0.177033
O O6 0.514162 0.854530 0.336646
O O7 0.627558 0.925972 0.491034
O O8 0.584801 0.072690 0.201068
O O9 0.743640 0.880110 0.038333
O O10 0.599348 0.348003 0.330753
O O11 0.587610 0.299751 0.981952
O O12 0.853532 0.538557 0.070623
O O13 0.831499 0.669739 0.377835
O O14 0.730271 0.602953 0.170207
O O15 0.449937 0.650551 0.156158
O O16 0.473482 0.429298 0.932409
#
# Coordination Sequence:
#
# PCOD8169133 Si02
#       8
#     4   4   4   4   4   4   4   4
#     4  11  24  43  72 107 146 179 243 304 373 454
#     4  11  26  46  74 107 149 192 253 307 362 461
#     4  11  20  45  67 102 144 187 225 304 373 434
#     4  11  26  52  75 106 149 191 247 312 370 445
#     4  12  26  40  73 113 143 193 239 307 380 440
#     4  12  28  50  74 106 145 199 251 307 370 439
#     4  12  23  42  71 109 151 183 241 301 380 446
#     4  12  29  50  76 102 147 202 253 306 360 443
#
# _framework density 24.522303000000001
#
# number of rings (size 3 to 8) (size 9 to 14) (size 15 to 20)
#    0.000    0.500    5.000    3.750    8.750    0.000 
#    0.000    0.000    0.000    0.000    0.000    0.000 
#    0.000    0.000    0.000    0.000    0.000    0.000 
#
# Total GULP energy -396766.405981 kJ/mol
# GULP energy per Si atom -12398.950187 kJ/mol
# Density = 2.446649 g / cm^3
# Si number density = 24.522303 Si / 1000 Ang^3
#
#
#
# Elastic Constant Matrix: (Units=GPa)
#
#
# Indices 1 2 3 4 5 6 
#
# 1 30.6056 3.1595 -15.0420 0.0000 0.0000 0.0000
# 2 3.1595 103.3388 0.9986 0.0000 0.0000 0.0000
# 3 -15.0420 0.9986 40.1261 0.0000 0.0000 0.0000
# 4 0.0000 0.0000 0.0000 40.0240 0.0000 0.0000
# 5 0.0000 0.0000 0.0000 0.0000 32.9337 0.0000
# 6 0.0000 0.0000 0.0000 0.0000 0.0000 36.7919
#
#
#
# Elastic Compliance Matrix: (Units=1/GPa)
#
#
# Indices 1 2 3 4 5 6 
#
# 1 0.040248 -0.001377 0.015122 0.000000 0.000000 0.000000
# 2 -0.001377 0.009726 -0.000758 0.000000 0.000000 0.000000
# 3 0.015122 -0.000758 0.030609 0.000000 0.000000 0.000000
# 4 0.000000 0.000000 0.000000 0.024985 0.000000 0.000000
# 5 0.000000 0.000000 0.000000 0.000000 0.030364 0.000000
# 6 0.000000 0.000000 0.000000 0.000000 0.000000 0.027180
#
#
# Mechanical properties :
#
#
# Convention : Reuss Voigt Hill
#
# Bulk Modulus (GPa) = 9.38458 16.92252 13.15355
# Shear Modulus (GPa) = 28.95911 34.28021 31.61966
#
# Velocity S-wave (km/s) = 3.44019 3.74293 3.59475
# Velocity P-wave (km/s) = 4.42890 5.05917 4.75449
#
# Compressibility (1/GPa) = 0.10655779
#
# Stress axis : x y z
#
# Youngs Moduli (GPa) = 24.84591 102.81375 32.67010
#
# Poissons Ratio (x) = 0.14154 -0.49404
# Poissons Ratio (y) = 0.03420 0.02477
# Poissons Ratio (z) = -0.37572 0.07795
#
# Static dielectric constant tensor:
#      x y z
#    x 4.450630 0.000000 0.000000 
#    y 0.000000 4.669120 0.000000 
#    z 0.000000 0.000000 4.741790 
# 
# 
# High freq. dielectric constant tensor:
#      x y z
#    x 1.959770 0.000000 0.000000 
#    y 0.000000 1.992400 0.000000 
#    z 0.000000 0.000000 1.989840 
# 
# From -- ./inp_files/2332.got.cif
#   From: 2010.03.12/outbox.cif.g09.slc.cpg/sg29_2_cif.got.tgz:2332.got - 2010.04.14 03:43:10.
