data_PCOD8169772
_publ_section_title
;
Structure prediction by ZEFSAII (Michael W. Deem and Ramdas Pophale) SiO2 
 PCOD8169772
Probable space group: P M N 21
;
_chemical_formula_sum "Si O2"
_cell_formula_units_Z 20
_cell_length_a 9.594295
_cell_length_b 13.291221
_cell_length_c 8.867974
_cell_angle_alpha 90.000000
_cell_angle_beta 90.000000
_cell_angle_gamma 90.000000
_cell_volume 1130.843115
_symmetry_space_group_name_H-M "P M N 21"
_symmetry_group_IT_number 31
_symmetry_cell_setting 'orthorhombic'
loop_
_space_group_symop_operation_xyz
x,y,z
1/2-x,-y,1/2+z
-x,y,z
1/2+x,-y,1/2+z
loop_
_atom_site_type_symbol
_atom_site_label
_atom_site_fract_x
_atom_site_fract_y
_atom_site_fract_z
Si Si1 0.500000 0.456316 0.195930
Si Si2 0.165182 0.112447 0.156088
Si Si3 0.500000 0.626441 0.944788
Si Si4 0.000000 0.382697 0.943692
Si Si5 0.500000 0.787057 0.193743
Si Si6 0.345696 0.954823 0.325887
Si Si7 0.783845 0.340021 0.193808
O O1 0.500000 0.512931 0.355072
O O2 0.631681 0.384909 0.187763
O O3 0.500000 0.533564 0.057834
O O4 0.228459 0.220032 0.197351
O O5 0.000000 0.115960 0.180189
O O6 0.230822 0.031188 0.267711
O O7 0.207380 0.084368 0.986844
O O8 0.637743 0.620929 0.843097
O O9 0.500000 0.732710 0.033520
O O10 0.000000 0.289866 0.831245
O O11 0.862984 0.377441 0.045340
O O12 0.362494 0.858209 0.213262
O O13 0.500000 0.006043 0.343332
#
# Coordination Sequence:
#
# PCOD8169772 Si02
#       7
#     2   4   2   2   2   4   4
#     4  11  24  35  62  89 112 144 196 247 282 334
#     4  11  21  38  58  83 117 159 183 232 287 341
#     4  10  22  38  64  83 110 157 192 230 290 352
#     4  10  18  42  62  71 122 153 183 231 295 345
#     4   9  18  39  58  83 108 156 193 226 281 343
#     4   9  21  36  57  85 112 151 192 232 276 332
#     4  11  21  39  59  86 114 152 192 233 292 338
#
# _framework density 17.685918999999998
#
# number of rings (size 3 to 8) (size 9 to 14) (size 15 to 20)
#    0.600    1.200    4.000    1.200    4.200    0.800 
#    0.000    0.000    0.000    0.000    0.000    0.000 
#    0.000    0.000    0.000    0.000    0.000    0.000 
#
# Total GULP energy -247956.958886 kJ/mol
# GULP energy per Si atom -12397.847944 kJ/mol
# Density = 1.764567 g / cm^3
# Si number density = 17.685919 Si / 1000 Ang^3
#
#
#
# Elastic Constant Matrix: (Units=GPa)
#
#
# Indices 1 2 3 4 5 6 
#
# 1 98.8371 71.3548 41.4464 0.0000 0.0000 0.0000
# 2 71.3548 124.5946 44.5633 0.0000 0.0000 0.0000
# 3 41.4464 44.5633 86.0162 0.0000 0.0000 0.0000
# 4 0.0000 0.0000 0.0000 28.3833 0.0000 0.0000
# 5 0.0000 0.0000 0.0000 0.0000 17.8837 0.0000
# 6 0.0000 0.0000 0.0000 0.0000 0.0000 37.5894
#
#
#
# Elastic Compliance Matrix: (Units=1/GPa)
#
#
# Indices 1 2 3 4 5 6 
#
# 1 0.018398 -0.009041 -0.004181 0.000000 0.000000 0.000000
# 2 -0.009041 0.014294 -0.003049 0.000000 0.000000 0.000000
# 3 -0.004181 -0.003049 0.015220 0.000000 0.000000 0.000000
# 4 0.000000 0.000000 0.000000 0.035232 0.000000 0.000000
# 5 0.000000 0.000000 0.000000 0.000000 0.055917 0.000000
# 6 0.000000 0.000000 0.000000 0.000000 0.000000 0.026603
#
#
# Mechanical properties :
#
#
# Convention : Reuss Voigt Hill
#
# Bulk Modulus (GPa) = 65.06236 69.35300 67.20768
# Shear Modulus (GPa) = 24.59048 26.91017 25.75032
#
# Velocity S-wave (km/s) = 3.73285 3.90495 3.81987
# Velocity P-wave (km/s) = 7.44624 7.72207 7.58540
#
# Compressibility (1/GPa) = 0.01536987
#
# Stress axis : x y z
#
# Youngs Moduli (GPa) = 54.35343 69.95718 65.70275
#
# Poissons Ratio (x) = 0.63249 0.27470
# Poissons Ratio (y) = 0.49142 0.20034
# Poissons Ratio (z) = 0.22725 0.21332
#
# Static dielectric constant tensor:
#      x y z
#    x 3.204710 0.000000 0.000000 
#    y 0.000000 3.290520 0.000000 
#    z 0.000000 0.000000 3.461530 
# 
# 
# High freq. dielectric constant tensor:
#      x y z
#    x 1.670650 0.000000 0.000000 
#    y 0.000000 1.688500 0.000000 
#    z 0.000000 0.000000 1.695890 
# 
# From -- ./inp_files/1656.got.cif
#   From: 2010.03.12/outbox.cif.g09.slc.cpg/sg31_1_cif.got.tgz:1656.got - 2010.04.14 01:42:59.
