data_PCOD8169912
_publ_section_title
;
Structure prediction by ZEFSAII (Michael W. Deem and Ramdas Pophale) SiO2 
 PCOD8169912
Probable space group: P M N 21
;
_chemical_formula_sum "Si O2"
_cell_formula_units_Z 32
_cell_length_a 8.981412
_cell_length_b 14.589503
_cell_length_c 12.376813
_cell_angle_alpha 90.000000
_cell_angle_beta 90.000000
_cell_angle_gamma 90.000000
_cell_volume 1621.787490
_symmetry_space_group_name_H-M "P M N 21"
_symmetry_group_IT_number 31
_symmetry_cell_setting 'orthorhombic'
loop_
_space_group_symop_operation_xyz
x,y,z
1/2-x,-y,1/2+z
-x,y,z
1/2+x,-y,1/2+z
loop_
_atom_site_type_symbol
_atom_site_label
_atom_site_fract_x
_atom_site_fract_y
_atom_site_fract_z
Si Si1 0.832420 0.807488 0.295860
Si Si2 0.170620 0.947291 0.474411
Si Si3 0.676054 0.856882 0.901035
Si Si4 0.828224 0.733823 0.068798
Si Si5 0.326591 0.363523 0.101158
Si Si6 0.823928 0.174544 0.157111
Si Si7 0.668997 0.561463 0.166276
Si Si8 0.833097 0.353406 0.891068
O O1 0.816651 0.906004 0.352582
O O2 0.802831 0.806834 0.166847
O O3 0.705463 0.748014 0.351674
O O4 0.000000 0.768150 0.316268
O O5 0.261317 0.892555 0.564896
O O6 0.000000 0.945711 0.512835
O O7 0.230910 0.050599 0.461145
O O8 0.500000 0.847421 0.908141
O O9 0.726898 0.858880 0.775872
O O10 0.746849 0.770447 0.962264
O O11 0.768676 0.633096 0.099796
O O12 0.000000 0.722626 0.039793
O O13 0.500000 0.341837 0.117003
O O14 0.233221 0.277857 0.143599
O O15 0.275240 0.457112 0.158232
O O16 0.289756 0.382962 0.976748
O O17 0.000000 0.174265 0.145313
O O18 0.500000 0.571892 0.123580
O O19 0.679607 0.576944 0.293223
O O20 0.000000 0.351938 0.939877
#
# Coordination Sequence:
#
# PCOD8169912 Si02
#       8
#     4   4   4   4   4   4   4   4
#     4   9  18  34  58  84 112 149 192 245 299 347
#     4  10  21  39  62  86 117 157 198 244 300 356
#     4  10  24  42  60  86 125 167 200 244 303 360
#     4  10  21  37  61  90 120 156 200 250 299 355
#     4  11  22  38  60  86 120 159 197 245 304 360
#     4  11  24  41  62  90 122 156 201 252 300 356
#     4   9  21  39  59  84 118 160 203 248 300 359
#     4  10  19  34  56  84 114 148 195 248 297 349
#
# _framework density 19.731316
#
# number of rings (size 3 to 8) (size 9 to 14) (size 15 to 20)
#    0.000    2.000    1.250    1.500    1.750    4.500 
#    0.000    2.500    0.000    0.000    0.000    0.000 
#    0.000    0.000    0.000    0.000    0.000    0.000 
#
# Total GULP energy -396694.526098 kJ/mol
# GULP energy per Si atom -12396.703941 kJ/mol
# Density = 1.968641 g / cm^3
# Si number density = 19.731316 Si / 1000 Ang^3
#
#
#
# Elastic Constant Matrix: (Units=GPa)
#
#
# Indices 1 2 3 4 5 6 
#
# 1 60.3936 43.5454 45.9694 0.0000 0.0000 0.0000
# 2 43.5454 120.9498 55.2653 0.0000 0.0000 0.0000
# 3 45.9694 55.2653 103.2944 0.0000 0.0000 0.0000
# 4 0.0000 0.0000 0.0000 18.1383 0.0000 0.0000
# 5 0.0000 0.0000 0.0000 0.0000 29.5506 0.0000
# 6 0.0000 0.0000 0.0000 0.0000 0.0000 22.5499
#
#
#
# Elastic Compliance Matrix: (Units=1/GPa)
#
#
# Indices 1 2 3 4 5 6 
#
# 1 0.027773 -0.005760 -0.009279 0.000000 0.000000 0.000000
# 2 -0.005760 0.012138 -0.003931 0.000000 0.000000 0.000000
# 3 -0.009279 -0.003931 0.015913 0.000000 0.000000 0.000000
# 4 0.000000 0.000000 0.000000 0.055132 0.000000 0.000000
# 5 0.000000 0.000000 0.000000 0.000000 0.033840 0.000000
# 6 0.000000 0.000000 0.000000 0.000000 0.000000 0.044346
#
#
# Mechanical properties :
#
#
# Convention : Reuss Voigt Hill
#
# Bulk Modulus (GPa) = 55.90774 63.79977 59.85375
# Shear Modulus (GPa) = 21.45534 23.37162 22.41348
#
# Velocity S-wave (km/s) = 3.30111 3.44538 3.37402
# Velocity P-wave (km/s) = 6.55178 6.94493 6.75122
#
# Compressibility (1/GPa) = 0.01788661
#
# Stress axis : x y z
#
# Youngs Moduli (GPa) = 36.00580 82.38883 62.84029
#
# Poissons Ratio (x) = 0.47452 0.58306
# Poissons Ratio (y) = 0.20738 0.24701
# Poissons Ratio (z) = 0.33408 0.32385
#
# Static dielectric constant tensor:
#      x y z
#    x 3.608960 0.000000 0.000000 
#    y 0.000000 3.541540 0.000000 
#    z 0.000000 0.000000 3.791560 
# 
# 
# High freq. dielectric constant tensor:
#      x y z
#    x 1.770350 0.000000 0.000000 
#    y 0.000000 1.765050 0.000000 
#    z 0.000000 0.000000 1.770940 
# 
# From -- ./inp_files/3700.got.cif
#   From: 2010.03.12/outbox.cif.g09.slc.cpg/sg31_2_cif.got.tgz:3700.got - 2010.04.14 01:42:59.
