data_PCOD8169937
_publ_section_title
;
Structure prediction by ZEFSAII (Michael W. Deem and Ramdas Pophale) SiO2 
 PCOD8169937
Probable space group: P M N 21
;
_chemical_formula_sum "Si O2"
_cell_formula_units_Z 24
_cell_length_a 9.109442
_cell_length_b 13.568727
_cell_length_c 10.042364
_cell_angle_alpha 90.000000
_cell_angle_beta 90.000000
_cell_angle_gamma 90.000000
_cell_volume 1241.271656
_symmetry_space_group_name_H-M "P M N 21"
_symmetry_group_IT_number 31
_symmetry_cell_setting 'orthorhombic'
loop_
_space_group_symop_operation_xyz
x,y,z
1/2-x,-y,1/2+z
-x,y,z
1/2+x,-y,1/2+z
loop_
_atom_site_type_symbol
_atom_site_label
_atom_site_fract_x
_atom_site_fract_y
_atom_site_fract_z
Si Si1 0.326762 0.364647 0.918480
Si Si2 0.827133 0.084550 0.554268
Si Si3 0.325683 0.277452 0.193291
Si Si4 0.326723 0.065243 0.285572
Si Si5 0.669024 0.428982 0.414330
Si Si6 0.168804 0.722116 0.140618
O O1 0.500000 0.378469 0.924637
O O2 0.260092 0.472192 0.910769
O O3 0.281031 0.300146 0.790923
O O4 0.266081 0.307399 0.047784
O O5 0.752918 0.038509 0.423264
O O6 0.770498 0.194344 0.579069
O O7 0.000000 0.086410 0.531678
O O8 0.783162 0.017515 0.679341
O O9 0.500000 0.274318 0.193761
O O10 0.265935 0.169785 0.231718
O O11 0.268637 0.356603 0.300305
O O12 0.500000 0.069261 0.311263
O O13 0.500000 0.454817 0.386784
O O14 0.689644 0.377770 0.557151
O O15 0.000000 0.757857 0.132869
#
# Coordination Sequence:
#
# PCOD8169937 Si02
#       6
#     4   4   4   4   4   4
#     4  10  21  34  56  86 112 150 196 236 283 340
#     4  11  24  39  63  93 116 149 196 244 293 344
#     4   9  18  36  58  79 109 152 190 224 280 348
#     4  10  22  42  63  85 118 154 193 239 293 355
#     4  10  19  35  57  79 111 156 194 233 289 340
#     4  10  21  38  59  82 118 159 191 232 294 355
#
# _framework density 19.335008999999999
#
# number of rings (size 3 to 8) (size 9 to 14) (size 15 to 20)
#    0.000    2.000    1.667    1.500    2.333    2.667 
#    0.000    0.833    0.000    0.000    0.000    0.000 
#    0.000    0.000    0.000    0.000    0.000    0.000 
#
# Total GULP energy -297686.396531 kJ/mol
# GULP energy per Si atom -12403.599855 kJ/mol
# Density = 1.929100 g / cm^3
# Si number density = 19.335009 Si / 1000 Ang^3
#
#
#
# Elastic Constant Matrix: (Units=GPa)
#
#
# Indices 1 2 3 4 5 6 
#
# 1 44.3192 32.2507 41.0352 0.0000 0.0000 0.0000
# 2 32.2507 79.4277 34.0762 0.0000 0.0000 0.0000
# 3 41.0352 34.0762 149.0852 0.0000 0.0000 0.0000
# 4 0.0000 0.0000 0.0000 31.7056 0.0000 0.0000
# 5 0.0000 0.0000 0.0000 0.0000 24.3330 0.0000
# 6 0.0000 0.0000 0.0000 0.0000 0.0000 29.3314
#
#
#
# Elastic Compliance Matrix: (Units=1/GPa)
#
#
# Indices 1 2 3 4 5 6 
#
# 1 0.038876 -0.012412 -0.007864 0.000000 0.000000 0.000000
# 2 -0.012412 0.017921 -0.000680 0.000000 0.000000 0.000000
# 3 -0.007864 -0.000680 0.009027 0.000000 0.000000 0.000000
# 4 0.000000 0.000000 0.000000 0.031540 0.000000 0.000000
# 5 0.000000 0.000000 0.000000 0.000000 0.041096 0.000000
# 6 0.000000 0.000000 0.000000 0.000000 0.000000 0.034093
#
#
# Mechanical properties :
#
#
# Convention : Reuss Voigt Hill
#
# Bulk Modulus (GPa) = 41.81544 54.17291 47.99417
# Shear Modulus (GPa) = 22.47827 28.10534 25.29180
#
# Velocity S-wave (km/s) = 3.41334 3.81674 3.62067
# Velocity P-wave (km/s) = 6.09986 6.89219 6.50809
#
# Compressibility (1/GPa) = 0.02391461
#
# Stress axis : x y z
#
# Youngs Moduli (GPa) = 25.72258 55.79928 110.77316
#
# Poissons Ratio (x) = 0.69256 0.87109
# Poissons Ratio (y) = 0.31926 0.07533
# Poissons Ratio (z) = 0.20227 0.03794
#
# Static dielectric constant tensor:
#      x y z
#    x 3.267100 0.000000 0.000000 
#    y 0.000000 3.482680 0.000000 
#    z 0.000000 0.000000 3.957920 
# 
# 
# High freq. dielectric constant tensor:
#      x y z
#    x 1.725900 0.000000 0.000000 
#    y 0.000000 1.755930 0.000000 
#    z 0.000000 0.000000 1.773670 
# 
# From -- ./inp_files/1713.got.cif
#   From: 2010.03.12/outbox.cif.g09.slc.cpg/sg31_1_cif.got.tgz:1713.got - 2010.04.14 01:42:59.
