data_PCOD8169679
_publ_section_title
;
Structure prediction by ZEFSAII (Michael W. Deem and Ramdas Pophale) SiO2 
 PCOD8169679
Probable space group: P M N 21
;
_chemical_formula_sum "Si O2"
_cell_formula_units_Z 32
_cell_length_a 8.649942
_cell_length_b 11.430587
_cell_length_c 17.768260
_cell_angle_alpha 90.000000
_cell_angle_beta 90.000000
_cell_angle_gamma 90.000000
_cell_volume 1756.817421
_symmetry_space_group_name_H-M "P M N 21"
_symmetry_group_IT_number 31
_symmetry_cell_setting 'orthorhombic'
loop_
_space_group_symop_operation_xyz
x,y,z
1/2-x,-y,1/2+z
-x,y,z
1/2+x,-y,1/2+z
loop_
_atom_site_type_symbol
_atom_site_label
_atom_site_fract_x
_atom_site_fract_y
_atom_site_fract_z
Si Si1 0.174021 0.047113 0.030280
Si Si2 0.319199 0.371245 0.397128
Si Si3 0.180502 0.274160 0.245695
Si Si4 0.180841 0.731638 0.592987
Si Si5 0.321274 0.386626 0.936429
Si Si6 0.182234 0.156692 0.457315
Si Si7 0.181252 0.941084 0.805904
Si Si8 0.173057 0.173365 0.870997
O O1 0.266636 0.133810 0.084656
O O2 0.000000 0.031299 0.060708
O O3 0.174504 0.100641 0.947514
O O4 0.259566 0.920132 0.028535
O O5 0.500000 0.347273 0.404327
O O6 0.265966 0.343464 0.312115
O O7 0.284932 0.505370 0.415144
O O8 0.228240 0.293984 0.460641
O O9 0.233089 0.325239 0.164893
O O10 0.224731 0.135145 0.244874
O O11 0.000000 0.291677 0.257420
O O12 0.226171 0.656335 0.519711
O O13 0.000000 0.728908 0.607589
O O14 0.500000 0.421385 0.931348
O O15 0.288947 0.282612 0.876245
O O16 0.276214 0.113845 0.385524
O O17 0.000000 0.140728 0.446920
O O18 0.000000 0.925160 0.791274
O O19 0.224737 0.080139 0.805936
O O20 0.000000 0.220105 0.854848
#
# Coordination Sequence:
#
# PCOD8169679 Si02
#       8
#     4   4   4   4   4   4   4   4
#     4   9  16  28  46  70  98 126 158 195 241 293
#     4  11  21  34  52  73 101 136 176 218 258 304
#     4  11  21  33  51  75 103 133 169 212 259 311
#     4  10  20  34  52  75 103 134 168 209 260 312
#     4  10  20  33  51  75 102 133 173 217 256 302
#     4  10  17  27  45  70  98 125 158 199 244 291
#     4   9  16  28  46  69  97 126 158 196 243 295
#     4   8  15  27  45  69  96 125 156 194 239 288
#
# _framework density 18.214756000000001
#
# number of rings (size 3 to 8) (size 9 to 14) (size 15 to 20)
#    0.000    2.250    0.000    7.125    0.000    5.000 
#    0.000    0.000    0.000    1.500    0.000    1.750 
#    0.000    0.000    0.000    0.000    0.000    0.000 
#
# Total GULP energy -396584.305100 kJ/mol
# GULP energy per Si atom -12393.259534 kJ/mol
# Density = 1.817330 g / cm^3
# Si number density = 18.214756 Si / 1000 Ang^3
#
#
#
# Elastic Constant Matrix: (Units=GPa)
#
#
# Indices 1 2 3 4 5 6 
#
# 1 59.8919 24.4418 21.6531 0.0000 0.0000 0.0000
# 2 24.4418 96.5198 29.3163 0.0000 0.0000 0.0000
# 3 21.6531 29.3163 53.6311 0.0000 0.0000 0.0000
# 4 0.0000 0.0000 0.0000 15.7649 0.0000 0.0000
# 5 0.0000 0.0000 0.0000 0.0000 23.3027 0.0000
# 6 0.0000 0.0000 0.0000 0.0000 0.0000 31.7130
#
#
#
# Elastic Compliance Matrix: (Units=1/GPa)
#
#
# Indices 1 2 3 4 5 6 
#
# 1 0.020335 -0.003185 -0.006469 0.000000 0.000000 0.000000
# 2 -0.003185 0.012922 -0.005778 0.000000 0.000000 0.000000
# 3 -0.006469 -0.005778 0.024416 0.000000 0.000000 0.000000
# 4 0.000000 0.000000 0.000000 0.063432 0.000000 0.000000
# 5 0.000000 0.000000 0.000000 0.000000 0.042913 0.000000
# 6 0.000000 0.000000 0.000000 0.000000 0.000000 0.031533
#
#
# Mechanical properties :
#
#
# Convention : Reuss Voigt Hill
#
# Bulk Modulus (GPa) = 37.29968 40.09615 38.69791
# Shear Modulus (GPa) = 21.24479 23.13156 22.18818
#
# Velocity S-wave (km/s) = 3.41889 3.56748 3.49398
# Velocity P-wave (km/s) = 6.00893 6.24740 6.12933
#
# Compressibility (1/GPa) = 0.02680988
#
# Stress axis : x y z
#
# Youngs Moduli (GPa) = 49.17559 77.38808 40.95641
#
# Poissons Ratio (x) = 0.24644 0.26497
# Poissons Ratio (y) = 0.15660 0.23664
# Poissons Ratio (z) = 0.31814 0.44713
#
# Static dielectric constant tensor:
#      x y z
#    x 3.380190 0.000000 0.000000 
#    y 0.000000 3.656740 0.000000 
#    z 0.000000 0.000000 3.252210 
# 
# 
# High freq. dielectric constant tensor:
#      x y z
#    x 1.719540 0.000000 0.000000 
#    y 0.000000 1.697720 0.000000 
#    z 0.000000 0.000000 1.662930 
# 
# From -- ./inp_files/5921.got.cif
#   From: 2010.03.12/outbox.cif.g09.slc.cpg/sg31_3_cif.got.tgz:5921.got - 2010.04.14 01:42:59.
