data_PCOD8169025
_publ_section_title
;
Structure prediction by ZEFSAII (Michael W. Deem and Ramdas Pophale) SiO2 
 PCOD8169025
Probable space group: P C A 21
;
_chemical_formula_sum "Si O2"
_cell_formula_units_Z 32
_cell_length_a 13.381421
_cell_length_b 5.297328
_cell_length_c 17.401961
_cell_angle_alpha 90.000000
_cell_angle_beta 90.000000
_cell_angle_gamma 90.000000
_cell_volume 1233.551512
_symmetry_space_group_name_H-M "P C A 21"
_symmetry_group_IT_number 29
_symmetry_cell_setting 'orthorhombic'
loop_
_space_group_symop_operation_xyz
x,y,z
-x,-y,1/2+z
1/2-x,y,1/2+z
1/2+x,-y,z
loop_
_atom_site_type_symbol
_atom_site_label
_atom_site_fract_x
_atom_site_fract_y
_atom_site_fract_z
Si Si1 0.169836 0.025889 0.973370
Si Si2 0.856777 0.219876 0.812512
Si Si3 0.016184 0.482438 0.723838
Si Si4 0.465280 0.916716 0.335331
Si Si5 0.795552 0.477957 0.953684
Si Si6 0.326048 0.570719 0.114217
Si Si7 0.691653 0.986383 0.722857
Si Si8 0.143595 0.270413 0.130245
O O1 0.226125 0.277418 0.943550
O O2 0.075323 0.960980 0.920369
O O3 0.240404 0.787520 0.967192
O O4 0.134345 0.068179 0.061287
O O5 0.858951 0.444410 0.875688
O O6 0.743145 0.170515 0.787530
O O7 0.924892 0.295452 0.739337
O O8 0.916914 0.975307 0.843688
O O9 0.050957 0.636918 0.799824
O O10 0.114845 0.378937 0.674985
O O11 0.967256 0.676670 0.660949
O O12 0.406084 0.110275 0.273575
O O13 0.869521 0.486549 0.028672
O O14 0.342419 0.850540 0.148316
O O15 0.207184 0.515190 0.102114
O O16 0.784032 0.809241 0.701110
#
# Coordination Sequence:
#
# PCOD8169025 Si02
#       8
#     4   4   4   4   4   4   4   4
#     4  11  26  46  73 103 143 190 234 289 361 421
#     4  12  25  41  69 102 143 185 238 292 354 430
#     4  11  25  42  70 108 131 188 239 294 353 420
#     4  11  26  42  68 104 138 184 238 291 355 419
#     4  11  26  47  72 102 142 195 230 291 361 418
#     4  10  23  45  67  96 136 180 237 289 348 417
#     4  11  21  42  69  95 137 181 229 294 345 421
#     4  11  22  43  70  96 140 179 233 290 353 420
#
# _framework density 25.941357
#
# number of rings (size 3 to 8) (size 9 to 14) (size 15 to 20)
#    0.000    1.000    5.000    0.750    7.000    0.000 
#    0.000    1.250    0.000    0.000    0.000    0.000 
#    0.000    0.000    0.000    0.000    0.000    0.000 
#
# Total GULP energy -396435.733285 kJ/mol
# GULP energy per Si atom -12388.616665 kJ/mol
# Density = 2.588231 g / cm^3
# Si number density = 25.941357 Si / 1000 Ang^3
#
#
#
# Elastic Constant Matrix: (Units=GPa)
#
#
# Indices 1 2 3 4 5 6 
#
# 1 74.3819 -17.4243 22.6402 0.0000 0.0000 0.0000
# 2 -17.4243 46.6850 -2.6966 0.0000 0.0000 0.0000
# 3 22.6402 -2.6966 100.9980 0.0000 0.0000 0.0000
# 4 0.0000 0.0000 0.0000 36.1134 0.0000 0.0000
# 5 0.0000 0.0000 0.0000 0.0000 35.2121 0.0000
# 6 0.0000 0.0000 0.0000 0.0000 0.0000 22.9240
#
#
#
# Elastic Compliance Matrix: (Units=1/GPa)
#
#
# Indices 1 2 3 4 5 6 
#
# 1 0.015813 0.005706 -0.003392 0.000000 0.000000 0.000000
# 2 0.005706 0.023512 -0.000651 0.000000 0.000000 0.000000
# 3 -0.003392 -0.000651 0.010644 0.000000 0.000000 0.000000
# 4 0.000000 0.000000 0.000000 0.027691 0.000000 0.000000
# 5 0.000000 0.000000 0.000000 0.000000 0.028399 0.000000
# 6 0.000000 0.000000 0.000000 0.000000 0.000000 0.043622
#
#
# Mechanical properties :
#
#
# Convention : Reuss Voigt Hill
#
# Bulk Modulus (GPa) = 18.76365 25.23372 21.99868
# Shear Modulus (GPa) = 30.46506 33.48627 31.97566
#
# Velocity S-wave (km/s) = 3.43064 3.59673 3.51467
# Velocity P-wave (km/s) = 4.78970 5.19586 4.99691
#
# Compressibility (1/GPa) = 0.05329455
#
# Stress axis : x y z
#
# Youngs Moduli (GPa) = 63.23746 42.53101 93.94732
#
# Poissons Ratio (x) = -0.24269 0.31871
# Poissons Ratio (y) = -0.36084 0.06119
# Poissons Ratio (z) = 0.21453 0.02770
#
# Static dielectric constant tensor:
#      x y z
#    x 4.787570 0.000000 0.000000 
#    y 0.000000 4.780050 0.000000 
#    z 0.000000 0.000000 5.473180 
# 
# 
# High freq. dielectric constant tensor:
#      x y z
#    x 2.036100 0.000000 0.000000 
#    y 0.000000 2.035230 0.000000 
#    z 0.000000 0.000000 2.052700 
# 
# From -- ./inp_files/5217.got.cif
#   From: 2010.03.12/outbox.cif.g09.slc.cpg/sg29_3_cif.got.tgz:5217.got - 2010.04.14 03:43:10.
