data_PCOD8169725
_publ_section_title
;
Structure prediction by ZEFSAII (Michael W. Deem and Ramdas Pophale) SiO2 
 PCOD8169725
Probable space group: P M N 21
;
_chemical_formula_sum "Si O2"
_cell_formula_units_Z 32
_cell_length_a 9.234438
_cell_length_b 12.562670
_cell_length_c 14.365730
_cell_angle_alpha 90.000000
_cell_angle_beta 90.000000
_cell_angle_gamma 90.000000
_cell_volume 1666.556805
_symmetry_space_group_name_H-M "P M N 21"
_symmetry_group_IT_number 31
_symmetry_cell_setting 'orthorhombic'
loop_
_space_group_symop_operation_xyz
x,y,z
1/2-x,-y,1/2+z
-x,y,z
1/2+x,-y,1/2+z
loop_
_atom_site_type_symbol
_atom_site_label
_atom_site_fract_x
_atom_site_fract_y
_atom_site_fract_z
Si Si1 0.166817 0.856580 0.695450
Si Si2 0.168836 0.623387 0.946380
Si Si3 0.171798 0.461837 0.614241
Si Si4 0.328895 0.574516 0.324165
Si Si5 0.330152 0.035349 0.004109
Si Si6 0.664583 0.136317 0.401893
Si Si7 0.159451 0.220636 0.926572
Si Si8 0.159223 0.326324 0.121865
O O1 0.209475 0.937573 0.611879
O O2 0.192733 0.908823 0.797058
O O3 0.260504 0.748685 0.695771
O O4 0.000000 0.821762 0.683739
O O5 0.260268 0.621204 0.041708
O O6 0.000000 0.604407 0.969282
O O7 0.228744 0.531286 0.876809
O O8 0.195558 0.737597 0.900010
O O9 0.218531 0.427154 0.717343
O O10 0.240467 0.575791 0.594245
O O11 0.000000 0.467583 0.602279
O O12 0.500000 0.576711 0.336345
O O13 0.266586 0.684343 0.366919
O O14 0.500000 0.033115 0.988928
O O15 0.264326 0.118951 0.929728
O O16 0.266237 0.920270 0.977796
O O17 0.500000 0.113566 0.432223
O O18 0.000000 0.188463 0.886223
O O19 0.136736 0.258560 0.030443
O O20 0.000000 0.361465 0.159665
#
# Coordination Sequence:
#
# PCOD8169725 Si02
#       8
#     4   4   4   4   4   4   4   4
#     4   9  19  37  60  85 109 145 193 237 281 331
#     4  10  20  38  59  81 112 149 190 233 275 331
#     4  11  21  33  53  82 115 151 186 225 278 338
#     4   9  18  35  57  80 109 149 188 221 269 339
#     4  10  21  37  58  85 115 139 179 245 290 320
#     4  10  21  39  62  82 111 157 195 224 276 353
#     4   9  17  34  58  77 101 142 188 223 267 334
#     4  10  18  31  55  82 110 144 183 232 276 324
#
# _framework density 19.201266
#
# number of rings (size 3 to 8) (size 9 to 14) (size 15 to 20)
#    0.000    2.250    1.250    1.875    0.000    4.000 
#    2.250    3.750    0.000    0.000    0.000    0.000 
#    0.000    0.000    0.000    0.000    0.000    0.000 
#
# Total GULP energy -396694.756661 kJ/mol
# GULP energy per Si atom -12396.711146 kJ/mol
# Density = 1.915756 g / cm^3
# Si number density = 19.201266 Si / 1000 Ang^3
#
#
#
# Elastic Constant Matrix: (Units=GPa)
#
#
# Indices 1 2 3 4 5 6 
#
# 1 81.7197 33.2786 43.9487 0.0000 0.0000 0.0000
# 2 33.2786 67.4233 42.4607 0.0000 0.0000 0.0000
# 3 43.9487 42.4607 102.1893 0.0000 0.0000 0.0000
# 4 0.0000 0.0000 0.0000 23.7720 0.0000 0.0000
# 5 0.0000 0.0000 0.0000 0.0000 21.6396 0.0000
# 6 0.0000 0.0000 0.0000 0.0000 0.0000 27.2646
#
#
#
# Elastic Compliance Matrix: (Units=1/GPa)
#
#
# Indices 1 2 3 4 5 6 
#
# 1 0.017156 -0.005176 -0.005228 0.000000 0.000000 0.000000
# 2 -0.005176 0.021650 -0.006770 0.000000 0.000000 0.000000
# 3 -0.005228 -0.006770 0.014847 0.000000 0.000000 0.000000
# 4 0.000000 0.000000 0.000000 0.042066 0.000000 0.000000
# 5 0.000000 0.000000 0.000000 0.000000 0.046212 0.000000
# 6 0.000000 0.000000 0.000000 0.000000 0.000000 0.036678
#
#
# Mechanical properties :
#
#
# Convention : Reuss Voigt Hill
#
# Bulk Modulus (GPa) = 51.79643 54.52313 53.15978
# Shear Modulus (GPa) = 22.79047 23.31152 23.05100
#
# Velocity S-wave (km/s) = 3.44892 3.48812 3.46857
# Velocity P-wave (km/s) = 6.54936 6.68430 6.61717
#
# Compressibility (1/GPa) = 0.01930635
#
# Stress axis : x y z
#
# Youngs Moduli (GPa) = 58.28826 46.19039 67.35366
#
# Poissons Ratio (x) = 0.23906 0.35212
# Poissons Ratio (y) = 0.30167 0.45597
# Poissons Ratio (z) = 0.30472 0.31270
#
# Static dielectric constant tensor:
#      x y z
#    x 3.627100 0.000000 0.000000 
#    y 0.000000 3.471820 0.000000 
#    z 0.000000 0.000000 3.527640 
# 
# 
# High freq. dielectric constant tensor:
#      x y z
#    x 1.735800 0.000000 0.000000 
#    y 0.000000 1.736360 0.000000 
#    z 0.000000 0.000000 1.741930 
# 
# From -- ./inp_files/4913.got.cif
#   From: 2010.03.12/outbox.cif.g09.slc.cpg/sg31_3_cif.got.tgz:4913.got - 2010.04.14 01:42:59.
