data_PCOD8169330
_publ_section_title
;
Structure prediction by ZEFSAII (Michael W. Deem and Ramdas Pophale) SiO2 
 PCOD8169330
Probable space group: P C A 21
;
_chemical_formula_sum "Si O2"
_cell_formula_units_Z 20
_cell_length_a 9.089239
_cell_length_b 12.832903
_cell_length_c 7.282502
_cell_angle_alpha 90.000000
_cell_angle_beta 90.000000
_cell_angle_gamma 90.000000
_cell_volume 849.440664
_symmetry_space_group_name_H-M "P C A 21"
_symmetry_group_IT_number 29
_symmetry_cell_setting 'orthorhombic'
loop_
_space_group_symop_operation_xyz
x,y,z
-x,-y,1/2+z
1/2-x,y,1/2+z
1/2+x,-y,z
loop_
_atom_site_type_symbol
_atom_site_label
_atom_site_fract_x
_atom_site_fract_y
_atom_site_fract_z
Si Si1 0.953492 0.266466 0.476000
Si Si2 0.449596 0.897598 0.758248
Si Si3 0.377593 0.897489 0.171075
Si Si4 0.559180 0.552503 0.280434
Si Si5 0.228069 0.561486 0.569492
O O1 0.021890 0.197004 0.641028
O O2 0.906540 0.198606 0.302817
O O3 0.810734 0.327705 0.556218
O O4 0.084006 0.343617 0.403664
O O5 0.295096 0.921622 0.658688
O O6 0.547149 0.999860 0.749376
O O7 0.434359 0.865453 0.969940
O O8 0.652690 0.534618 0.092551
O O9 0.382089 0.556256 0.247710
O O10 0.619195 0.453699 0.396872
#
# Coordination Sequence:
#
# PCOD8169330 Si02
#       5
#     4   4   4   4   4
#     4  12  26  46  80 107 152 213 248 313 400 450
#     4  12  25  48  76 112 147 197 253 316 385 466
#     4  12  25  48  78 108 151 195 253 315 384 468
#     4  12  25  47  73 107 154 201 261 322 373 467
#     4  12  25  47  73 108 154 202 263 314 384 459
#
# _framework density 23.544906000000001
#
# number of rings (size 3 to 8) (size 9 to 14) (size 15 to 20)
#    0.000    0.000    8.000    1.200    0.000    0.000 
#    7.200    0.000    0.000    0.000    0.000    0.000 
#    0.000    0.000    0.000    0.000    0.000    0.000 
#
# Total GULP energy -247909.008669 kJ/mol
# GULP energy per Si atom -12395.450433 kJ/mol
# Density = 2.349132 g / cm^3
# Si number density = 23.544906 Si / 1000 Ang^3
#
#
#
# Elastic Constant Matrix: (Units=GPa)
#
#
# Indices 1 2 3 4 5 6 
#
# 1 56.5884 41.7084 23.7383 0.0000 0.0000 0.0000
# 2 41.7084 129.3576 60.5947 0.0000 0.0000 0.0000
# 3 23.7383 60.5947 137.3613 0.0000 0.0000 0.0000
# 4 0.0000 0.0000 0.0000 61.1362 0.0000 0.0000
# 5 0.0000 0.0000 0.0000 0.0000 39.7836 0.0000
# 6 0.0000 0.0000 0.0000 0.0000 0.0000 31.9219
#
#
#
# Elastic Compliance Matrix: (Units=1/GPa)
#
#
# Indices 1 2 3 4 5 6 
#
# 1 0.023267 -0.007082 -0.000897 0.000000 0.000000 0.000000
# 2 -0.007082 0.011900 -0.004025 0.000000 0.000000 0.000000
# 3 -0.000897 -0.004025 0.009211 0.000000 0.000000 0.000000
# 4 0.000000 0.000000 0.000000 0.016357 0.000000 0.000000
# 5 0.000000 0.000000 0.000000 0.000000 0.025136 0.000000
# 6 0.000000 0.000000 0.000000 0.000000 0.000000 0.031326
#
#
# Mechanical properties :
#
#
# Convention : Reuss Voigt Hill
#
# Bulk Modulus (GPa) = 49.09353 63.93225 56.51289
# Shear Modulus (GPa) = 33.78482 39.71938 36.75210
#
# Velocity S-wave (km/s) = 3.79213 4.11172 3.95516
# Velocity P-wave (km/s) = 6.33008 7.05365 6.70164
#
# Compressibility (1/GPa) = 0.02036928
#
# Stress axis : x y z
#
# Youngs Moduli (GPa) = 42.97851 84.03703 108.56804
#
# Poissons Ratio (x) = 0.59514 0.09738
# Poissons Ratio (y) = 0.30437 0.43703
# Poissons Ratio (z) = 0.03855 0.33828
#
# Static dielectric constant tensor:
#      x y z
#    x 4.340680 0.000000 0.000000 
#    y 0.000000 4.172330 0.000000 
#    z 0.000000 0.000000 4.737320 
# 
# 
# High freq. dielectric constant tensor:
#      x y z
#    x 1.913280 0.000000 0.000000 
#    y 0.000000 1.921930 0.000000 
#    z 0.000000 0.000000 1.970940 
# 
# From -- ./inp_files/1098.got.cif
#   From: 2010.03.12/outbox.cif.g09.slc.cpg/sg29_1_cif.got.tgz:1098.got - 2010.04.14 03:43:10.
