data_PCOD8169859
_publ_section_title
;
Structure prediction by ZEFSAII (Michael W. Deem and Ramdas Pophale) SiO2 
 PCOD8169859
Probable space group: P M N 21
;
_chemical_formula_sum "Si O2"
_cell_formula_units_Z 32
_cell_length_a 9.138421
_cell_length_b 12.426519
_cell_length_c 14.489880
_cell_angle_alpha 90.000000
_cell_angle_beta 90.000000
_cell_angle_gamma 90.000000
_cell_volume 1645.452837
_symmetry_space_group_name_H-M "P M N 21"
_symmetry_group_IT_number 31
_symmetry_cell_setting 'orthorhombic'
loop_
_space_group_symop_operation_xyz
x,y,z
1/2-x,-y,1/2+z
-x,y,z
1/2+x,-y,1/2+z
loop_
_atom_site_type_symbol
_atom_site_label
_atom_site_fract_x
_atom_site_fract_y
_atom_site_fract_z
Si Si1 0.662757 0.410505 0.869560
Si Si2 0.326727 0.309816 0.531184
Si Si3 0.324558 0.172089 0.847472
Si Si4 0.336406 0.480788 0.075876
Si Si5 0.666949 0.644769 0.851795
Si Si6 0.164191 0.298441 0.154782
Si Si7 0.673785 0.901387 0.531775
Si Si8 0.673010 0.106119 0.645862
O O1 0.500000 0.401776 0.829281
O O2 0.738089 0.296078 0.842892
O O3 0.730940 0.523063 0.830211
O O4 0.668085 0.419058 0.979347
O O5 0.500000 0.315939 0.524743
O O6 0.266632 0.416074 0.579438
O O7 0.262355 0.296259 0.428804
O O8 0.271264 0.211247 0.592732
O O9 0.500000 0.172238 0.860865
O O10 0.275690 0.111740 0.753038
O O11 0.252650 0.108164 0.932934
O O12 0.500000 0.514481 0.103899
O O13 0.273594 0.397362 0.148384
O O14 0.500000 0.628058 0.889505
O O15 0.666677 0.724682 0.764514
O O16 0.219563 0.197819 0.096565
O O17 0.000000 0.330226 0.123066
O O18 0.500000 0.907644 0.515508
O O19 0.734012 0.003876 0.589164
O O20 0.500000 0.100623 0.645207
#
# Coordination Sequence:
#
# PCOD8169859 Si02
#       8
#     4   4   4   4   4   4   4   4
#     4   8  15  29  51  76 106 140 180 221 267 321
#     4  10  20  36  56  80 110 148 191 231 278 337
#     4  10  19  36  60  83 105 147 193 226 271 338
#     4  10  19  33  53  80 115 146 179 232 283 328
#     4   9  19  34  53  82 118 153 183 228 284 335
#     4  10  20  33  55  82 112 151 190 224 275 340
#     4  10  21  39  57  83 117 146 183 238 283 319
#     4   9  21  38  59  82 111 149 189 230 279 332
#
# _framework density 19.447533
#
# number of rings (size 3 to 8) (size 9 to 14) (size 15 to 20)
#    0.000    2.500    1.250    1.500    1.750    1.500 
#    0.000    4.375    0.000    0.000    0.000    0.000 
#    0.000    0.000    0.000    0.000    0.000    0.000 
#
# Total GULP energy -396544.288658 kJ/mol
# GULP energy per Si atom -12392.009021 kJ/mol
# Density = 1.940327 g / cm^3
# Si number density = 19.447533 Si / 1000 Ang^3
#
#
#
# Elastic Constant Matrix: (Units=GPa)
#
#
# Indices 1 2 3 4 5 6 
#
# 1 56.2759 33.4546 39.7279 0.0000 0.0000 0.0000
# 2 33.4546 106.0838 83.6741 0.0000 0.0000 0.0000
# 3 39.7279 83.6741 132.9072 0.0000 0.0000 0.0000
# 4 0.0000 0.0000 0.0000 29.5076 0.0000 0.0000
# 5 0.0000 0.0000 0.0000 0.0000 28.9034 0.0000
# 6 0.0000 0.0000 0.0000 0.0000 0.0000 13.5101
#
#
#
# Elastic Compliance Matrix: (Units=1/GPa)
#
#
# Indices 1 2 3 4 5 6 
#
# 1 0.023220 -0.003671 -0.004630 0.000000 0.000000 0.000000
# 2 -0.003671 0.019305 -0.011057 0.000000 0.000000 0.000000
# 3 -0.004630 -0.011057 0.015869 0.000000 0.000000 0.000000
# 4 0.000000 0.000000 0.000000 0.033890 0.000000 0.000000
# 5 0.000000 0.000000 0.000000 0.000000 0.034598 0.000000
# 6 0.000000 0.000000 0.000000 0.000000 0.000000 0.074019
#
#
# Mechanical properties :
#
#
# Convention : Reuss Voigt Hill
#
# Bulk Modulus (GPa) = 50.81411 67.66446 59.23928
# Shear Modulus (GPa) = 20.31074 23.61156 21.96115
#
# Velocity S-wave (km/s) = 3.23520 3.48820 3.36408
# Velocity P-wave (km/s) = 6.33569 7.14788 6.75400
#
# Compressibility (1/GPa) = 0.01967957
#
# Stress axis : x y z
#
# Youngs Moduli (GPa) = 43.06581 51.79978 63.01681
#
# Poissons Ratio (x) = 0.19016 0.29175
# Poissons Ratio (y) = 0.15810 0.69675
# Poissons Ratio (z) = 0.19938 0.57273
#
# Static dielectric constant tensor:
#      x y z
#    x 3.291760 0.000000 0.000000 
#    y 0.000000 3.645560 0.000000 
#    z 0.000000 0.000000 3.558440 
# 
# 
# High freq. dielectric constant tensor:
#      x y z
#    x 1.725030 0.000000 0.000000 
#    y 0.000000 1.753700 0.000000 
#    z 0.000000 0.000000 1.761770 
# 
# From -- ./inp_files/5036.got.cif
#   From: 2010.03.12/outbox.cif.g09.slc.cpg/sg31_3_cif.got.tgz:5036.got - 2010.04.14 01:42:59.
