data_PCOD8169507
_publ_section_title
;
Structure prediction by ZEFSAII (Michael W. Deem and Ramdas Pophale) SiO2 
 PCOD8169507
Probable space group: P N C 2
;
_chemical_formula_sum "Si O2"
_cell_formula_units_Z 20
_cell_length_a 20.942027
_cell_length_b 7.468937
_cell_length_c 5.270573
_cell_angle_alpha 90.000000
_cell_angle_beta 90.000000
_cell_angle_gamma 90.000000
_cell_volume 824.394991
_symmetry_space_group_name_H-M "P N C 2"
_symmetry_group_IT_number 30
_symmetry_cell_setting 'orthorhombic'
loop_
_space_group_symop_operation_xyz
x,y,z
-x,-y,z
-x,1/2+y,1/2+z
x,1/2-y,1/2+z
loop_
_atom_site_type_symbol
_atom_site_label
_atom_site_fract_x
_atom_site_fract_y
_atom_site_fract_z
Si Si1 0.175813 0.130750 0.311680
Si Si2 0.618992 0.656711 0.772561
Si Si3 0.289910 0.864608 0.335537
Si Si4 0.480224 0.798870 0.737686
Si Si5 0.058689 0.867498 0.293864
O O1 0.167296 0.252627 0.559236
O O2 0.244183 0.035685 0.309864
O O3 0.123970 0.974837 0.318220
O O4 0.647141 0.725741 0.505434
O O5 0.638949 0.449985 0.816943
O O6 0.542169 0.670612 0.776723
O O7 0.278492 0.773539 0.607268
O O8 0.439988 0.722478 0.498021
O O9 0.500000 0.000000 0.690783
O O10 0.055436 0.722900 0.518162
O O11 0.000000 0.000000 0.325780
#
# Coordination Sequence:
#
# PCOD8169507 Si02
#       5
#     4   4   4   4   4
#     4  12  24  42  66  93 127 170 212 263 321 377
#     4  10  21  41  62  88 122 159 200 248 304 366
#     4  12  24  41  64  94 125 162 207 259 314 376
#     4  10  21  40  63  89 121 158 200 247 301 363
#     4  12  24  42  64  94 131 171 220 269 319 378
#
# _framework density 24.260216
#
# number of rings (size 3 to 8) (size 9 to 14) (size 15 to 20)
#    0.000    0.800    0.000    8.400    0.000    0.000 
#    0.000   24.000    0.000    0.000    0.000    0.000 
#    0.000    0.000    0.000    0.000    0.000    0.000 
#
# Total GULP energy -247966.248521 kJ/mol
# GULP energy per Si atom -12398.312426 kJ/mol
# Density = 2.420500 g / cm^3
# Si number density = 24.260216 Si / 1000 Ang^3
#
#
#
# Elastic Constant Matrix: (Units=GPa)
#
#
# Indices 1 2 3 4 5 6 
#
# 1 65.0773 21.0436 -18.8225 0.0000 0.0000 0.0000
# 2 21.0436 90.8727 38.7619 0.0000 0.0000 0.0000
# 3 -18.8225 38.7619 174.7871 0.0000 0.0000 0.0000
# 4 0.0000 0.0000 0.0000 64.7847 0.0000 0.0000
# 5 0.0000 0.0000 0.0000 0.0000 19.3901 0.0000
# 6 0.0000 0.0000 0.0000 0.0000 0.0000 63.9656
#
#
#
# Elastic Compliance Matrix: (Units=1/GPa)
#
#
# Indices 1 2 3 4 5 6 
#
# 1 0.018076 -0.005540 0.003175 0.000000 0.000000 0.000000
# 2 -0.005540 0.013852 -0.003669 0.000000 0.000000 0.000000
# 3 0.003175 -0.003669 0.006877 0.000000 0.000000 0.000000
# 4 0.000000 0.000000 0.000000 0.015436 0.000000 0.000000
# 5 0.000000 0.000000 0.000000 0.000000 0.051573 0.000000
# 6 0.000000 0.000000 0.000000 0.000000 0.000000 0.015633
#
#
# Mechanical properties :
#
#
# Convention : Reuss Voigt Hill
#
# Bulk Modulus (GPa) = 37.40015 45.85593 41.62804
# Shear Modulus (GPa) = 35.10566 48.94502 42.02534
#
# Velocity S-wave (km/s) = 3.80813 4.49653 4.16657
# Velocity P-wave (km/s) = 5.89793 6.77504 6.35164
#
# Compressibility (1/GPa) = 0.02673786
#
# Stress axis : x y z
#
# Youngs Moduli (GPa) = 55.32108 72.19039 145.41735
#
# Poissons Ratio (x) = 0.39996 -0.46174
# Poissons Ratio (y) = 0.30650 0.53348
# Poissons Ratio (z) = -0.17566 0.26484
#
# Static dielectric constant tensor:
#      x y z
#    x 4.464510 0.000000 0.000000 
#    y 0.000000 4.419810 0.000000 
#    z 0.000000 0.000000 5.828620 
# 
# 
# High freq. dielectric constant tensor:
#      x y z
#    x 1.947410 0.000000 0.000000 
#    y 0.000000 1.981870 0.000000 
#    z 0.000000 0.000000 2.002950 
# 
# From -- ./inp_files/1062.got.cif
#   From: 2010.03.12/outbox.cif.g09.slc.cpg/sg30_1_cif.got.tgz:1062.got - 2010.04.14 01:38:02.
