data_PCOD8169368
_publ_section_title
;
Structure prediction by ZEFSAII (Michael W. Deem and Ramdas Pophale) SiO2 
 PCOD8169368
Probable space group: P N C 2
;
_chemical_formula_sum "Si O2"
_cell_formula_units_Z 24
_cell_length_a 5.347326
_cell_length_b 12.701310
_cell_length_c 19.268642
_cell_angle_alpha 90.000000
_cell_angle_beta 90.000000
_cell_angle_gamma 90.000000
_cell_volume 1308.688498
_symmetry_space_group_name_H-M "P N C 2"
_symmetry_group_IT_number 30
_symmetry_cell_setting 'orthorhombic'
loop_
_space_group_symop_operation_xyz
x,y,z
-x,-y,z
-x,1/2+y,1/2+z
x,1/2-y,1/2+z
loop_
_atom_site_type_symbol
_atom_site_label
_atom_site_fract_x
_atom_site_fract_y
_atom_site_fract_z
Si Si1 0.250000 0.469030 0.758820
Si Si2 0.750000 0.389910 0.044860
Si Si3 0.750000 0.877922 0.602152
Si Si4 0.750000 0.131481 0.387453
Si Si5 0.250000 0.068685 0.755255
Si Si6 0.750000 0.728832 0.840516
O O1 0.500000 0.500000 0.716167
O O2 0.250000 0.536381 0.831661
O O3 0.250000 0.345269 0.772329
O O4 0.000000 0.500000 0.716167
O O5 0.499829 0.325977 0.068076
O O6 0.750000 0.497892 0.087186
O O7 0.000171 0.325977 0.068076
O O8 0.750000 0.418743 0.963748
O O9 0.750000 0.863021 0.684797
O O10 0.503691 0.204384 0.382508
O O11 0.996309 0.204384 0.382508
O O12 0.250000 0.149848 0.818974
O O13 0.500000 0.000000 0.760222
O O14 0.000000 0.000000 0.760222
#
# Coordination Sequence:
#
# PCOD8169368 Si02
#       6
#     4   4   4   4   4   4
#     4   8  16  27  42  66  97 125 152 191 263 302
#     4  10  18  28  49  73 102 130 161 202 268 331
#     4  10  19  29  46  75  94 147 161 201 262 314
#     4  10  19  31  49  78 109 131 159 216 278 324
#     4  12  21  38  50  68 109 148 194 212 239 309
#     4  10  21  31  48  72 101 147 173 206 258 314
#
# _framework density 18.338971000000001
#
# number of rings (size 3 to 8) (size 9 to 14) (size 15 to 20)
#    0.000    2.000    3.333    2.000   14.000    0.000 
#    0.000    0.000    0.000    0.000    0.000    0.000 
#    0.000   80.000    0.000    0.000    0.000    0.000 
#
# Total GULP energy -297349.102368 kJ/mol
# GULP energy per Si atom -12389.545932 kJ/mol
# Density = 1.829723 g / cm^3
# Si number density = 18.338971 Si / 1000 Ang^3
#
#
#
# Elastic Constant Matrix: (Units=GPa)
#
#
# Indices 1 2 3 4 5 6 
#
# 1 208.3020 25.8051 10.7008 0.0000 0.0000 0.0000
# 2 25.8051 43.8196 15.9130 0.0000 0.0000 0.0000
# 3 10.7008 15.9130 39.9559 0.0000 0.0000 0.0000
# 4 0.0000 0.0000 0.0000 10.0398 0.0000 0.0000
# 5 0.0000 0.0000 0.0000 0.0000 19.1723 0.0000
# 6 0.0000 0.0000 0.0000 0.0000 0.0000 16.0503
#
#
#
# Elastic Compliance Matrix: (Units=1/GPa)
#
#
# Indices 1 2 3 4 5 6 
#
# 1 0.005180 -0.002977 -0.000202 0.000000 0.000000 0.000000
# 2 -0.002977 0.028391 -0.010510 0.000000 0.000000 0.000000
# 3 -0.000202 -0.010510 0.029267 0.000000 0.000000 0.000000
# 4 0.000000 0.000000 0.000000 0.099604 0.000000 0.000000
# 5 0.000000 0.000000 0.000000 0.000000 0.052158 0.000000
# 6 0.000000 0.000000 0.000000 0.000000 0.000000 0.062304
#
#
# Mechanical properties :
#
#
# Convention : Reuss Voigt Hill
#
# Bulk Modulus (GPa) = 28.20004 44.10171 36.15087
# Shear Modulus (GPa) = 15.81769 25.02971 20.42370
#
# Velocity S-wave (km/s) = 2.94005 3.69838 3.34080
# Velocity P-wave (km/s) = 5.18996 6.50674 5.88529
#
# Compressibility (1/GPa) = 0.03546094
#
# Stress axis : x y z
#
# Youngs Moduli (GPa) = 193.05382 35.22277 34.16792
#
# Poissons Ratio (x) = 0.10487 0.00689
# Poissons Ratio (y) = 0.57477 0.35909
# Poissons Ratio (z) = 0.03891 0.37018
#
# Static dielectric constant tensor:
#      x y z
#    x 6.231230 0.000000 0.000000 
#    y 0.000000 2.815170 0.000000 
#    z 0.000000 0.000000 2.954410 
# 
# 
# High freq. dielectric constant tensor:
#      x y z
#    x 1.763270 0.000000 0.000000 
#    y 0.000000 1.644920 0.000000 
#    z 0.000000 0.000000 1.662940 
# 
# From -- ./inp_files/5922.got.cif
#   From: 2010.03.12/outbox.cif.g09.slc.cpg/sg30_3_cif.got.tgz:5922.got - 2010.04.14 01:38:02.
