data_PCOD8169840
_publ_section_title
;
Structure prediction by ZEFSAII (Michael W. Deem and Ramdas Pophale) SiO2 
 PCOD8169840
Probable space group: P M N 21
;
_chemical_formula_sum "Si O2"
_cell_formula_units_Z 28
_cell_length_a 21.582666
_cell_length_b 11.904715
_cell_length_c 5.525080
_cell_angle_alpha 90.000000
_cell_angle_beta 90.000000
_cell_angle_gamma 90.000000
_cell_volume 1419.589124
_symmetry_space_group_name_H-M "P M N 21"
_symmetry_group_IT_number 31
_symmetry_cell_setting 'orthorhombic'
loop_
_space_group_symop_operation_xyz
x,y,z
1/2-x,-y,1/2+z
-x,y,z
1/2+x,-y,1/2+z
loop_
_atom_site_type_symbol
_atom_site_label
_atom_site_fract_x
_atom_site_fract_y
_atom_site_fract_z
Si Si1 0.706810 0.880773 0.397020
Si Si2 0.757409 0.332840 0.125391
Si Si3 0.845691 0.702761 0.966766
Si Si4 0.168200 0.019064 0.397498
Si Si5 0.326497 0.481154 0.839018
Si Si6 0.571291 0.155863 0.788491
Si Si7 0.068384 0.617932 0.588619
O O1 0.717529 0.746060 0.410572
O O2 0.669370 0.911525 0.644240
O O3 0.774238 0.935320 0.393732
O O4 0.670986 0.906163 0.144693
O O5 0.710657 0.256495 0.291419
O O6 0.815655 0.390011 0.261680
O O7 0.719406 0.445224 0.055169
O O8 0.897763 0.625543 0.843338
O O9 0.813047 0.619948 0.153494
O O10 0.881621 0.811874 0.069655
O O11 0.102572 0.952904 0.412161
O O12 0.398078 0.473622 0.920078
O O13 0.500000 0.130376 0.703718
O O14 0.570447 0.258215 0.974251
O O15 0.000000 0.573048 0.631902
#
# Coordination Sequence:
#
# PCOD8169840 Si02
#       7
#     4   4   4   4   4   4   4
#     4  10  23  36  60  81 120 154 201 240 302 357
#     4  11  21  34  55  88 117 158 191 250 302 373
#     4  10  19  32  56  84 118 150 189 245 300 369
#     4  10  22  39  55  87 115 156 194 251 296 358
#     4  10  20  33  54  82 119 147 192 239 306 353
#     4  10  21  36  59  86 117 152 197 249 309 363
#     4   9  19  34  53  82 113 149 192 240 299 367
#
# _framework density 19.724015999999999
#
# number of rings (size 3 to 8) (size 9 to 14) (size 15 to 20)
#    0.000    2.000    1.429    3.000   10.000    0.571 
#    0.000    0.000    0.000    1.714    0.000    0.000 
#    0.000    0.000    0.000    0.000    0.000    0.000 
#
# Total GULP energy -346927.304967 kJ/mol
# GULP energy per Si atom -12390.260892 kJ/mol
# Density = 1.967912 g / cm^3
# Si number density = 19.724016 Si / 1000 Ang^3
#
#
#
# Elastic Constant Matrix: (Units=GPa)
#
#
# Indices 1 2 3 4 5 6 
#
# 1 110.1856 45.0530 32.0173 0.0000 0.0000 0.0000
# 2 45.0530 70.8648 23.1217 0.0000 0.0000 0.0000
# 3 32.0173 23.1217 89.4809 0.0000 0.0000 0.0000
# 4 0.0000 0.0000 0.0000 27.1888 0.0000 0.0000
# 5 0.0000 0.0000 0.0000 0.0000 18.0394 0.0000
# 6 0.0000 0.0000 0.0000 0.0000 0.0000 23.7509
#
#
#
# Elastic Compliance Matrix: (Units=1/GPa)
#
#
# Indices 1 2 3 4 5 6 
#
# 1 0.012840 -0.007278 -0.002714 0.000000 0.000000 0.000000
# 2 -0.007278 0.019536 -0.002444 0.000000 0.000000 0.000000
# 3 -0.002714 -0.002444 0.012778 0.000000 0.000000 0.000000
# 4 0.000000 0.000000 0.000000 0.036780 0.000000 0.000000
# 5 0.000000 0.000000 0.000000 0.000000 0.055434 0.000000
# 6 0.000000 0.000000 0.000000 0.000000 0.000000 0.042104
#
#
# Mechanical properties :
#
#
# Convention : Reuss Voigt Hill
#
# Bulk Modulus (GPa) = 49.30251 52.32393 50.81322
# Shear Modulus (GPa) = 23.68515 25.15178 24.41846
#
# Velocity S-wave (km/s) = 3.46906 3.57485 3.52235
# Velocity P-wave (km/s) = 6.41064 6.60492 6.50850
#
# Compressibility (1/GPa) = 0.02028294
#
# Stress axis : x y z
#
# Youngs Moduli (GPa) = 77.88259 51.18856 78.25904
#
# Poissons Ratio (x) = 0.37253 0.21237
# Poissons Ratio (y) = 0.56680 0.19126
# Poissons Ratio (z) = 0.21135 0.12510
#
# Static dielectric constant tensor:
#      x y z
#    x 3.602060 0.000000 0.000000 
#    y 0.000000 3.238370 0.000000 
#    z 0.000000 0.000000 3.825230 
# 
# 
# High freq. dielectric constant tensor:
#      x y z
#    x 1.749600 0.000000 0.000000 
#    y 0.000000 1.733610 0.000000 
#    z 0.000000 0.000000 1.779590 
# 
# From -- ./inp_files/984.got.cif
#   From: 2010.03.12/outbox.cif.g09.slc.cpg/sg31_1_cif.got.tgz:984.got - 2010.04.14 01:42:59.
