data_PCOD8169139
_publ_section_title
;
Structure prediction by ZEFSAII (Michael W. Deem and Ramdas Pophale) SiO2 
 PCOD8169139
Probable space group: P C A 21
;
_chemical_formula_sum "Si O2"
_cell_formula_units_Z 32
_cell_length_a 8.936366
_cell_length_b 18.638968
_cell_length_c 8.456105
_cell_angle_alpha 90.000000
_cell_angle_beta 90.000000
_cell_angle_gamma 90.000000
_cell_volume 1408.488084
_symmetry_space_group_name_H-M "P C A 21"
_symmetry_group_IT_number 29
_symmetry_cell_setting 'orthorhombic'
loop_
_space_group_symop_operation_xyz
x,y,z
-x,-y,1/2+z
1/2-x,y,1/2+z
1/2+x,-y,z
loop_
_atom_site_type_symbol
_atom_site_label
_atom_site_fract_x
_atom_site_fract_y
_atom_site_fract_z
Si Si1 0.636417 0.651704 0.541200
Si Si2 0.174598 0.048235 0.964209
Si Si3 0.792041 0.516182 0.394129
Si Si4 0.433547 0.555202 0.687906
Si Si5 0.588185 0.880083 0.272873
Si Si6 0.256339 0.253655 0.289910
Si Si7 0.816505 0.120245 0.471013
Si Si8 0.469017 0.847766 0.801675
O O1 0.693355 0.584853 0.438370
O O2 0.466761 0.633358 0.606177
O O3 0.735526 0.671701 0.694268
O O4 0.653724 0.725271 0.441668
O O5 0.331447 0.089658 0.932687
O O6 0.062410 0.078178 0.827958
O O7 0.205972 0.964748 0.960398
O O8 0.101774 0.062300 0.134508
O O9 0.685772 0.450238 0.331554
O O10 0.883972 0.497571 0.549526
O O11 0.902708 0.531863 0.248940
O O12 0.664547 0.808464 0.202332
O O13 0.419521 0.861699 0.319535
O O14 0.423622 0.222027 0.323358
O O15 0.657016 0.158257 0.439208
O O16 0.889628 0.149372 0.631471
#
# Coordination Sequence:
#
# PCOD8169139 Si02
#       8
#     4   4   4   4   4   4   4   4
#     4  12  23  42  74  96 132 184 226 266 325 411
#     4  11  21  38  62  98 124 168 223 280 357 419
#     4  12  23  43  74 109 146 174 221 282 346 388
#     4  12  23  43  71 111 145 178 218 280 345 391
#     4  11  23  40  65  91 129 171 219 284 331 403
#     4  11  24  45  64  90 128 184 235 256 325 417
#     4  12  22  39  64  93 130 168 221 294 355 397
#     4  11  25  40  62  92 132 175 223 282 344 404
#
# _framework density 22.719397000000001
#
# number of rings (size 3 to 8) (size 9 to 14) (size 15 to 20)
#    0.000    0.500    3.750    6.750    0.000    0.000 
#    0.000    2.500    0.000    0.000    0.000    0.000 
#    0.000    0.000    0.000    0.000    0.000    0.000 
#
# Total GULP energy -396459.287253 kJ/mol
# GULP energy per Si atom -12389.352727 kJ/mol
# Density = 2.266769 g / cm^3
# Si number density = 22.719397 Si / 1000 Ang^3
#
#
#
# Elastic Constant Matrix: (Units=GPa)
#
#
# Indices 1 2 3 4 5 6 
#
# 1 96.8112 40.4525 20.9393 0.0000 0.0000 0.0000
# 2 40.4525 83.4979 34.9612 0.0000 0.0000 0.0000
# 3 20.9393 34.9612 83.1318 0.0000 0.0000 0.0000
# 4 0.0000 0.0000 0.0000 42.3986 0.0000 0.0000
# 5 0.0000 0.0000 0.0000 0.0000 41.6038 0.0000
# 6 0.0000 0.0000 0.0000 0.0000 0.0000 22.7864
#
#
#
# Elastic Compliance Matrix: (Units=1/GPa)
#
#
# Indices 1 2 3 4 5 6 
#
# 1 0.012991 -0.005976 -0.000759 0.000000 0.000000 0.000000
# 2 -0.005976 0.017285 -0.005764 0.000000 0.000000 0.000000
# 3 -0.000759 -0.005764 0.014644 0.000000 0.000000 0.000000
# 4 0.000000 0.000000 0.000000 0.023586 0.000000 0.000000
# 5 0.000000 0.000000 0.000000 0.000000 0.024036 0.000000
# 6 0.000000 0.000000 0.000000 0.000000 0.000000 0.043886
#
#
# Mechanical properties :
#
#
# Convention : Reuss Voigt Hill
#
# Bulk Modulus (GPa) = 50.19507 50.68298 50.43902
# Shear Modulus (GPa) = 29.75028 32.49695 31.12362
#
# Velocity S-wave (km/s) = 3.62258 3.78612 3.70525
# Velocity P-wave (km/s) = 6.29594 6.43969 6.36822
#
# Compressibility (1/GPa) = 0.01992228
#
# Stress axis : x y z
#
# Youngs Moduli (GPa) = 76.97926 57.85402 68.28596
#
# Poissons Ratio (x) = 0.34572 0.05182
# Poissons Ratio (y) = 0.46001 0.39360
# Poissons Ratio (z) = 0.05842 0.33347
#
# Static dielectric constant tensor:
#      x y z
#    x 4.327170 0.000000 0.000000 
#    y 0.000000 3.881640 0.000000 
#    z 0.000000 0.000000 4.283960 
# 
# 
# High freq. dielectric constant tensor:
#      x y z
#    x 1.893480 0.000000 0.000000 
#    y 0.000000 1.870580 0.000000 
#    z 0.000000 0.000000 1.915030 
# 
# From -- ./inp_files/1266.got.cif
#   From: 2010.03.12/outbox.cif.g09.slc.cpg/sg29_1_cif.got.tgz:1266.got - 2010.04.14 03:43:10.
