data_PCOD8169450
_publ_section_title
;
Structure prediction by ZEFSAII (Michael W. Deem and Ramdas Pophale) SiO2 
 PCOD8169450
Probable space group: P N C 2
;
_chemical_formula_sum "Si O2"
_cell_formula_units_Z 28
_cell_length_a 8.866951
_cell_length_b 16.380029
_cell_length_c 8.229290
_cell_angle_alpha 90.000000
_cell_angle_beta 90.000000
_cell_angle_gamma 90.000000
_cell_volume 1195.229605
_symmetry_space_group_name_H-M "P N C 2"
_symmetry_group_IT_number 30
_symmetry_cell_setting 'orthorhombic'
loop_
_space_group_symop_operation_xyz
x,y,z
-x,-y,z
-x,1/2+y,1/2+z
x,1/2-y,1/2+z
loop_
_atom_site_type_symbol
_atom_site_label
_atom_site_fract_x
_atom_site_fract_y
_atom_site_fract_z
Si Si1 0.000000 0.000000 0.233860
Si Si2 0.761277 0.553454 0.967231
Si Si3 0.623600 0.823210 0.244593
Si Si4 0.982413 0.838847 0.686102
Si Si5 0.567266 0.234445 0.981946
Si Si6 0.690062 0.360448 0.220073
Si Si7 0.068735 0.329863 0.561344
Si Si8 0.500000 0.000000 0.688421
O O1 0.856778 0.007044 0.353342
O O2 0.993825 0.917166 0.126216
O O3 0.641761 0.595974 0.848728
O O4 0.657019 0.504017 0.088997
O O5 0.866532 0.617807 0.063398
O O6 0.579589 0.750296 0.368057
O O7 0.774596 0.804235 0.145400
O O8 0.483962 0.830560 0.118888
O O9 0.138672 0.891918 0.690557
O O10 0.030743 0.748724 0.617285
O O11 0.912981 0.834975 0.867260
O O12 0.705253 0.200192 0.874347
O O13 0.623705 0.319267 0.058609
O O14 0.555850 0.421775 0.288634
#
# Coordination Sequence:
#
# PCOD8169450 Si02
#       8
#     2   4   4   4   4   4   4   2
#     4  10  24  46  68 106 146 176 226 292 354 412
#     4  11  24  45  69  97 139 184 230 283 349 414
#     4  10  20  38  66 100 130 177 224 282 327 404
#     4  12  25  45  72 104 140 189 235 280 343 429
#     4  10  21  41  68  98 136 175 232 279 334 414
#     4  11  25  43  68 100 136 179 228 285 343 411
#     4  11  24  41  74 106 140 182 232 283 352 415
#     4  12  26  44  68 102 134 182 232 286 360 392
#
# _framework density 23.426461
#
# number of rings (size 3 to 8) (size 9 to 14) (size 15 to 20)
#    0.000    1.143    1.429    5.143    4.000    2.857 
#    5.143    0.000    0.000    0.000    0.000    0.000 
#    0.000    0.000    0.000    0.000    0.000    0.000 
#
# Total GULP energy -346868.900179 kJ/mol
# GULP energy per Si atom -12388.175006 kJ/mol
# Density = 2.337314 g / cm^3
# Si number density = 23.426461 Si / 1000 Ang^3
#
#
#
# Elastic Constant Matrix: (Units=GPa)
#
#
# Indices 1 2 3 4 5 6 
#
# 1 86.9352 20.5081 22.0423 0.0000 0.0000 0.0000
# 2 20.5081 84.6999 26.6280 0.0000 0.0000 0.0000
# 3 22.0423 26.6280 119.5973 0.0000 0.0000 0.0000
# 4 0.0000 0.0000 0.0000 16.4072 0.0000 0.0000
# 5 0.0000 0.0000 0.0000 0.0000 16.4670 0.0000
# 6 0.0000 0.0000 0.0000 0.0000 0.0000 31.5182
#
#
#
# Elastic Compliance Matrix: (Units=1/GPa)
#
#
# Indices 1 2 3 4 5 6 
#
# 1 0.012534 -0.002482 -0.001757 0.000000 0.000000 0.000000
# 2 -0.002482 0.013187 -0.002478 0.000000 0.000000 0.000000
# 3 -0.001757 -0.002478 0.009237 0.000000 0.000000 0.000000
# 4 0.000000 0.000000 0.000000 0.060949 0.000000 0.000000
# 5 0.000000 0.000000 0.000000 0.000000 0.060728 0.000000
# 6 0.000000 0.000000 0.000000 0.000000 0.000000 0.031728
#
#
# Mechanical properties :
#
#
# Convention : Reuss Voigt Hill
#
# Bulk Modulus (GPa) = 46.46546 47.73214 47.09880
# Shear Modulus (GPa) = 23.92665 27.68207 25.80436
#
# Velocity S-wave (km/s) = 3.19933 3.44125 3.32249
# Velocity P-wave (km/s) = 5.79010 6.01741 5.90485
#
# Compressibility (1/GPa) = 0.02152136
#
# Stress axis : x y z
#
# Youngs Moduli (GPa) = 79.78303 75.83456 108.25899
#
# Poissons Ratio (x) = 0.18825 0.19025
# Poissons Ratio (y) = 0.19805 0.26832
# Poissons Ratio (z) = 0.14021 0.18795
#
# Static dielectric constant tensor:
#      x y z
#    x 4.244330 0.000000 0.000000 
#    y 0.000000 4.086790 0.000000 
#    z 0.000000 0.000000 4.421490 
# 
# 
# High freq. dielectric constant tensor:
#      x y z
#    x 1.930690 0.000000 0.000000 
#    y 0.000000 1.913370 0.000000 
#    z 0.000000 0.000000 1.940920 
# 
# From -- ./inp_files/2019.got.cif
#   From: 2010.03.12/outbox.cif.g09.slc.cpg/sg30_2_cif.got.tgz:2019.got - 2010.04.14 01:38:02.
