data_PCOD8169639
_publ_section_title
;
Structure prediction by ZEFSAII (Michael W. Deem and Ramdas Pophale) SiO2 
 PCOD8169639
Probable space group: P N C 2
;
_chemical_formula_sum "Si O2"
_cell_formula_units_Z 32
_cell_length_a 14.649677
_cell_length_b 10.879738
_cell_length_c 9.183293
_cell_angle_alpha 90.000000
_cell_angle_beta 90.000000
_cell_angle_gamma 90.000000
_cell_volume 1463.675918
_symmetry_space_group_name_H-M "P N C 2"
_symmetry_group_IT_number 30
_symmetry_cell_setting 'orthorhombic'
loop_
_space_group_symop_operation_xyz
x,y,z
-x,-y,z
-x,1/2+y,1/2+z
x,1/2-y,1/2+z
loop_
_atom_site_type_symbol
_atom_site_label
_atom_site_fract_x
_atom_site_fract_y
_atom_site_fract_z
Si Si1 0.109856 0.780423 0.632110
Si Si2 0.302439 0.345807 0.064453
Si Si3 0.500957 0.854870 0.466368
Si Si4 0.609856 0.280423 0.701180
Si Si5 0.999043 0.645130 0.866922
Si Si6 0.802439 0.845807 0.268837
Si Si7 0.738055 0.066718 0.757339
Si Si8 0.238055 0.933282 0.075951
O O1 0.076660 0.706602 0.771427
O O2 0.024018 0.820218 0.533071
O O3 0.164271 0.901906 0.683727
O O4 0.179310 0.689952 0.548406
O O5 0.402038 0.298055 0.015461
O O6 0.250000 0.250000 0.166645
O O7 0.314223 0.471390 0.154166
O O8 0.250000 0.374469 0.916645
O O9 0.423340 0.793398 0.561863
O O10 0.475982 0.820218 0.300219
O O11 0.500000 0.000000 0.487189
O O12 0.679310 0.189952 0.784884
O O13 0.664271 0.401906 0.649563
O O14 0.000000 0.500000 0.846101
O O15 0.902038 0.701945 0.817829
O O16 0.814223 0.971390 0.179124
O O17 0.750000 0.005202 0.916645
#
# Coordination Sequence:
#
# PCOD8169639 Si02
#       8
#     4   4   4   4   4   4   4   4
#     4  11  24  42  70 105 138 179 239 297 353 440
#     4  12  26  46  70 102 147 192 239 296 366 428
#     4  12  24  45  69 104 142 187 239 297 362 428
#     4  11  24  42  70 105 138 179 239 297 353 440
#     4  12  24  45  69 104 142 187 239 297 362 428
#     4  12  26  46  70 102 147 192 239 296 366 428
#     4  11  23  43  71 104 140 185 236 296 366 425
#     4  11  23  43  71 104 140 185 236 296 366 425
#
# _framework density 21.862763000000001
#
# number of rings (size 3 to 8) (size 9 to 14) (size 15 to 20)
#    0.000    0.500    5.000    3.750    0.000    0.000 
#    0.000    1.250    0.000    0.000    0.000    0.000 
#    0.000    0.000    0.000    0.000    0.000    0.000 
#
# Total GULP energy -396923.019741 kJ/mol
# GULP energy per Si atom -12403.844367 kJ/mol
# Density = 2.181300 g / cm^3
# Si number density = 21.862763 Si / 1000 Ang^3
#
#
#
# Elastic Constant Matrix: (Units=GPa)
#
#
# Indices 1 2 3 4 5 6 
#
# 1 115.2398 31.2212 43.2168 0.0000 0.0000 0.0000
# 2 31.2212 74.2079 31.3317 0.0000 0.0000 0.0000
# 3 43.2168 31.3317 134.0434 0.0000 0.0000 0.0000
# 4 0.0000 0.0000 0.0000 29.5620 0.0000 0.0000
# 5 0.0000 0.0000 0.0000 0.0000 49.9352 0.0000
# 6 0.0000 0.0000 0.0000 0.0000 0.0000 33.3406
#
#
#
# Elastic Compliance Matrix: (Units=1/GPa)
#
#
# Indices 1 2 3 4 5 6 
#
# 1 0.010567 -0.003337 -0.002627 0.000000 0.000000 0.000000
# 2 -0.003337 0.016005 -0.002665 0.000000 0.000000 0.000000
# 3 -0.002627 -0.002665 0.008930 0.000000 0.000000 0.000000
# 4 0.000000 0.000000 0.000000 0.033827 0.000000 0.000000
# 5 0.000000 0.000000 0.000000 0.000000 0.020026 0.000000
# 6 0.000000 0.000000 0.000000 0.000000 0.000000 0.029993
#
#
# Mechanical properties :
#
#
# Convention : Reuss Voigt Hill
#
# Bulk Modulus (GPa) = 54.81202 59.44785 57.12993
# Shear Modulus (GPa) = 35.04174 37.08231 36.06203
#
# Velocity S-wave (km/s) = 4.00785 4.12289 4.06578
# Velocity P-wave (km/s) = 6.82221 7.06503 6.94468
#
# Compressibility (1/GPa) = 0.01824417
#
# Stress axis : x y z
#
# Youngs Moduli (GPa) = 94.63752 62.48148 111.97977
#
# Poissons Ratio (x) = 0.20847 0.29416
# Poissons Ratio (y) = 0.31576 0.29845
# Poissons Ratio (z) = 0.24860 0.16653
#
# Static dielectric constant tensor:
#      x y z
#    x 4.067240 0.000000 0.000000 
#    y 0.000000 3.787380 0.000000 
#    z 0.000000 0.000000 3.975540 
# 
# 
# High freq. dielectric constant tensor:
#      x y z
#    x 1.863640 0.000000 0.000000 
#    y 0.000000 1.849380 0.000000 
#    z 0.000000 0.000000 1.876050 
# 
# From -- ./inp_files/2659.got.cif
#   From: 2010.03.12/outbox.cif.g09.slc.cpg/sg30_2_cif.got.tgz:2659.got - 2010.04.14 01:38:02.
