data_PCOD8169309
_publ_section_title
;
Structure prediction by ZEFSAII (Michael W. Deem and Ramdas Pophale) SiO2 
 PCOD8169309
Probable space group: P C A 21
;
_chemical_formula_sum "Si O2"
_cell_formula_units_Z 12
_cell_length_a 15.641424
_cell_length_b 7.393002
_cell_length_c 4.969303
_cell_angle_alpha 90.000000
_cell_angle_beta 90.000000
_cell_angle_gamma 90.000000
_cell_volume 574.635683
_symmetry_space_group_name_H-M "P C A 21"
_symmetry_group_IT_number 29
_symmetry_cell_setting 'orthorhombic'
loop_
_space_group_symop_operation_xyz
x,y,z
-x,-y,1/2+z
1/2-x,y,1/2+z
1/2+x,-y,z
loop_
_atom_site_type_symbol
_atom_site_label
_atom_site_fract_x
_atom_site_fract_y
_atom_site_fract_z
Si Si1 0.553515 0.454322 0.810890
Si Si2 0.306947 0.254571 0.280819
Si Si3 0.054775 0.956890 0.733203
O O1 0.475272 0.486998 0.607757
O O2 0.634776 0.571338 0.722000
O O3 0.580221 0.245304 0.815692
O O4 0.274654 0.258949 0.586478
O O5 0.359003 0.071809 0.227746
O O6 0.012636 0.955737 0.439117
#
# Coordination Sequence:
#
# PCOD8169309 Si02
#       3
#     4   4   4
#     4  12  23  43  71  97 128 179 226 264 323 404
#     4  12  26  42  66 102 140 164 216 288 334 372
#     4  12  23  43  71  97 128 179 226 264 323 404
#
# _framework density 20.882798000000001
#
# number of rings (size 3 to 8) (size 9 to 14) (size 15 to 20)
#    0.000    0.000    6.667    4.000    0.000    2.667 
#    0.000    0.000    0.000    0.000    0.000    0.000 
#    0.000    0.000    0.000    0.000    0.000    0.000 
#
# Total GULP energy -148936.383000 kJ/mol
# GULP energy per Si atom -12411.365250 kJ/mol
# Density = 2.083527 g / cm^3
# Si number density = 20.882798 Si / 1000 Ang^3
#
#
#
# Elastic Constant Matrix: (Units=GPa)
#
#
# Indices 1 2 3 4 5 6 
#
# 1 86.1971 33.0262 14.8014 0.0000 0.0000 0.0000
# 2 33.0262 151.3665 4.8965 0.0000 0.0000 0.0000
# 3 14.8014 4.8965 81.3946 0.0000 0.0000 0.0000
# 4 0.0000 0.0000 0.0000 29.1305 0.0000 0.0000
# 5 0.0000 0.0000 0.0000 0.0000 49.2575 0.0000
# 6 0.0000 0.0000 0.0000 0.0000 0.0000 15.5018
#
#
#
# Elastic Compliance Matrix: (Units=1/GPa)
#
#
# Indices 1 2 3 4 5 6 
#
# 1 0.013043 -0.002774 -0.002205 0.000000 0.000000 0.000000
# 2 -0.002774 0.007210 0.000071 0.000000 0.000000 0.000000
# 3 -0.002205 0.000071 0.012683 0.000000 0.000000 0.000000
# 4 0.000000 0.000000 0.000000 0.034328 0.000000 0.000000
# 5 0.000000 0.000000 0.000000 0.000000 0.020301 0.000000
# 6 0.000000 0.000000 0.000000 0.000000 0.000000 0.064508
#
#
# Mechanical properties :
#
#
# Convention : Reuss Voigt Hill
#
# Bulk Modulus (GPa) = 43.25657 47.15627 45.20642
# Shear Modulus (GPa) = 29.48176 36.52691 33.00433
#
# Velocity S-wave (km/s) = 3.76143 4.18681 3.97981
# Velocity P-wave (km/s) = 6.29472 6.78254 6.54318
#
# Compressibility (1/GPa) = 0.02311788
#
# Stress axis : x y z
#
# Youngs Moduli (GPa) = 76.66958 138.70499 78.84866
#
# Poissons Ratio (x) = 0.38483 0.17386
# Poissons Ratio (y) = 0.21272 -0.00558
# Poissons Ratio (z) = 0.16905 -0.00982
#
# Static dielectric constant tensor:
#      x y z
#    x 3.521480 0.000000 0.000000 
#    y 0.000000 3.933360 0.000000 
#    z 0.000000 0.000000 3.860980 
# 
# 
# High freq. dielectric constant tensor:
#      x y z
#    x 1.806390 0.000000 0.000000 
#    y 0.000000 1.834470 0.000000 
#    z 0.000000 0.000000 1.835060 
# 
# From -- ./inp_files/2.got.cif
#   From: 2010.03.12/outbox.cif.g09.slc.cpg/sg29_1_cif.got.tgz:2.got - 2010.04.14 03:43:10.
