data_PCOD8169689
_publ_section_title
;
Structure prediction by ZEFSAII (Michael W. Deem and Ramdas Pophale) SiO2 
 PCOD8169689
Probable space group: P M N 21
;
_chemical_formula_sum "Si O2"
_cell_formula_units_Z 28
_cell_length_a 13.883058
_cell_length_b 5.241895
_cell_length_c 26.066239
_cell_angle_alpha 90.000000
_cell_angle_beta 90.000000
_cell_angle_gamma 90.000000
_cell_volume 1896.932286
_symmetry_space_group_name_H-M "P M N 21"
_symmetry_group_IT_number 31
_symmetry_cell_setting 'orthorhombic'
loop_
_space_group_symop_operation_xyz
x,y,z
1/2-x,-y,1/2+z
-x,y,z
1/2+x,-y,1/2+z
loop_
_atom_site_type_symbol
_atom_site_label
_atom_site_fract_x
_atom_site_fract_y
_atom_site_fract_z
Si Si1 0.612335 0.899137 0.323410
Si Si2 0.114519 0.125663 0.057716
Si Si3 0.607711 0.658522 0.769586
Si Si4 0.609020 0.942488 0.672500
Si Si5 0.612439 0.391953 0.385617
Si Si6 0.708451 0.152870 0.762586
Si Si7 0.115140 0.623746 0.000132
O O1 0.500000 0.907362 0.307368
O O2 0.635918 0.663359 0.360563
O O3 0.676478 0.866675 0.271934
O O4 0.648576 0.156303 0.351201
O O5 0.155861 0.378838 0.030711
O O6 0.000000 0.132374 0.056750
O O7 0.153512 0.878251 0.027822
O O8 0.151029 0.117439 0.116456
O O9 0.500000 0.627501 0.791513
O O10 0.605993 0.684726 0.707076
O O11 0.670221 0.416283 0.786545
O O12 0.655201 0.918231 0.792125
O O13 0.500000 0.058402 0.669283
O O14 0.680962 0.140858 0.701841
O O15 0.500000 0.353547 0.392329
O O16 0.658148 0.382363 0.442511
O O17 0.000000 0.617551 0.999670
#
# Coordination Sequence:
#
# PCOD8169689 Si02
#       7
#     4   4   4   4   4   4   4
#     4  10  19  30  44  60  80 113 150 180 210 242
#     4   9  16  23  36  56  79 105 135 162 195 243
#     4   9  17  28  42  59  83 112 140 166 199 245
#     4   8  17  27  40  59  86 114 138 164 198 247
#     4   9  17  29  42  55  77 107 145 182 209 239
#     4  10  18  28  42  60  82 113 149 174 204 241
#     4   9  16  25  37  55  76 104 138 170 197 235
#
# _framework density 14.760676
#
# number of rings (size 3 to 8) (size 9 to 14) (size 15 to 20)
#    0.857    2.000    0.000    2.571    2.000    3.429 
#    0.000    0.000    0.000    0.000    0.000    0.000 
#    0.000    0.000    0.000   33.429    0.571    3.857 
#
# Total GULP energy -346868.685272 kJ/mol
# GULP energy per Si atom -12388.167331 kJ/mol
# Density = 1.472708 g / cm^3
# Si number density = 14.760676 Si / 1000 Ang^3
#
#
#
# Elastic Constant Matrix: (Units=GPa)
#
#
# Indices 1 2 3 4 5 6 
#
# 1 47.4449 15.5520 25.4836 0.0000 0.0000 0.0000
# 2 15.5520 97.4223 8.9513 0.0000 0.0000 0.0000
# 3 25.4836 8.9513 55.1494 0.0000 0.0000 0.0000
# 4 0.0000 0.0000 0.0000 15.0010 0.0000 0.0000
# 5 0.0000 0.0000 0.0000 0.0000 10.3892 0.0000
# 6 0.0000 0.0000 0.0000 0.0000 0.0000 10.2669
#
#
#
# Elastic Compliance Matrix: (Units=1/GPa)
#
#
# Indices 1 2 3 4 5 6 
#
# 1 0.029145 -0.003467 -0.012905 0.000000 0.000000 0.000000
# 2 -0.003467 0.010832 -0.000156 0.000000 0.000000 0.000000
# 3 -0.012905 -0.000156 0.024121 0.000000 0.000000 0.000000
# 4 0.000000 0.000000 0.000000 0.066662 0.000000 0.000000
# 5 0.000000 0.000000 0.000000 0.000000 0.096254 0.000000
# 6 0.000000 0.000000 0.000000 0.000000 0.000000 0.097401
#
#
# Mechanical properties :
#
#
# Convention : Reuss Voigt Hill
#
# Bulk Modulus (GPa) = 32.21367 33.33227 32.77297
# Shear Modulus (GPa) = 13.59367 17.13338 15.36352
#
# Velocity S-wave (km/s) = 3.03799 3.41067 3.22971
# Velocity P-wave (km/s) = 5.84613 6.17584 6.01324
#
# Compressibility (1/GPa) = 0.03104272
#
# Stress axis : x y z
#
# Youngs Moduli (GPa) = 34.31140 92.31582 41.45775
#
# Poissons Ratio (x) = 0.32004 0.53500
# Poissons Ratio (y) = 0.11895 0.00648
# Poissons Ratio (z) = 0.44278 0.01442
#
# Static dielectric constant tensor:
#      x y z
#    x 2.439700 0.000000 0.000000 
#    y 0.000000 2.984740 0.000000 
#    z 0.000000 0.000000 2.789760 
# 
# 
# High freq. dielectric constant tensor:
#      x y z
#    x 1.504010 0.000000 0.000000 
#    y 0.000000 1.582310 0.000000 
#    z 0.000000 0.000000 1.544420 
# 
# From -- ./inp_files/6587.got.cif
#   From: 2010.03.12/outbox.cif.g09.slc.cpg/sg31_4_cif.got.tgz:6587.got - 2010.04.14 01:42:59.
