data_PCOD8169260
_publ_section_title
;
Structure prediction by ZEFSAII (Michael W. Deem and Ramdas Pophale) SiO2 
 PCOD8169260
Probable space group: P C A 21
;
_chemical_formula_sum "Si O2"
_cell_formula_units_Z 32
_cell_length_a 10.537044
_cell_length_b 13.962833
_cell_length_c 8.760310
_cell_angle_alpha 90.000000
_cell_angle_beta 90.000000
_cell_angle_gamma 90.000000
_cell_volume 1288.878004
_symmetry_space_group_name_H-M "P C A 21"
_symmetry_group_IT_number 29
_symmetry_cell_setting 'orthorhombic'
loop_
_space_group_symop_operation_xyz
x,y,z
-x,-y,1/2+z
1/2-x,y,1/2+z
1/2+x,-y,z
loop_
_atom_site_type_symbol
_atom_site_label
_atom_site_fract_x
_atom_site_fract_y
_atom_site_fract_z
Si Si1 0.364281 0.340996 0.319070
Si Si2 0.490600 0.270285 0.887653
Si Si3 0.689752 0.834027 0.602614
Si Si4 0.277823 0.777574 0.197583
Si Si5 0.405329 0.614032 0.652299
Si Si6 0.634635 0.940394 0.894964
Si Si7 0.848111 0.097722 0.919328
Si Si8 0.653336 0.601698 0.150435
O O1 0.304769 0.250267 0.228616
O O2 0.514745 0.359176 0.305710
O O3 0.322182 0.339282 0.494441
O O4 0.284891 0.425542 0.236245
O O5 0.623030 0.224121 0.836987
O O6 0.431788 0.325612 0.746055
O O7 0.408952 0.185124 0.964244
O O8 0.509873 0.350143 0.014336
O O9 0.650632 0.922688 0.712500
O O10 0.822488 0.855933 0.513652
O O11 0.228865 0.669589 0.159740
O O12 0.161340 0.843382 0.259150
O O13 0.345608 0.823659 0.052803
O O14 0.405578 0.501537 0.622062
O O15 0.516263 0.042242 0.423283
O O16 0.727638 0.027924 0.936673
#
# Coordination Sequence:
#
# PCOD8169260 Si02
#       8
#     4   4   4   4   4   4   4   4
#     4  11  25  44  69 110 148 198 263 320 385 467
#     4  11  26  48  75 110 152 208 255 323 381 470
#     4  11  26  49  78 110 155 200 260 315 395 456
#     4  12  28  49  78 109 159 202 259 316 393 463
#     4  11  26  47  72 106 156 207 258 324 382 467
#     4  12  29  50  84 116 156 201 258 328 389 479
#     4  12  30  51  81 118 155 202 260 320 399 467
#     4  12  26  42  73 109 153 204 263 322 386 457
#
# _framework density 24.827795999999999
#
# number of rings (size 3 to 8) (size 9 to 14) (size 15 to 20)
#    0.000    0.500    1.250    6.000   12.250    2.000 
#    0.000    0.000    0.000    0.000    0.000    0.000 
#    0.000    0.000    0.000    0.000    0.000    0.000 
#
# Total GULP energy -396576.749596 kJ/mol
# GULP energy per Si atom -12393.023425 kJ/mol
# Density = 2.477129 g / cm^3
# Si number density = 24.827796 Si / 1000 Ang^3
#
#
#
# Elastic Constant Matrix: (Units=GPa)
#
#
# Indices 1 2 3 4 5 6 
#
# 1 132.2864 30.2374 34.4233 0.0000 0.0000 0.0000
# 2 30.2374 87.0113 24.3746 0.0000 0.0000 0.0000
# 3 34.4233 24.3746 129.5983 0.0000 0.0000 0.0000
# 4 0.0000 0.0000 0.0000 26.2871 0.0000 0.0000
# 5 0.0000 0.0000 0.0000 0.0000 43.0776 0.0000
# 6 0.0000 0.0000 0.0000 0.0000 0.0000 39.5951
#
#
#
# Elastic Compliance Matrix: (Units=1/GPa)
#
#
# Indices 1 2 3 4 5 6 
#
# 1 0.008599 -0.002479 -0.001818 0.000000 0.000000 0.000000
# 2 -0.002479 0.012847 -0.001758 0.000000 0.000000 0.000000
# 3 -0.001818 -0.001758 0.008530 0.000000 0.000000 0.000000
# 4 0.000000 0.000000 0.000000 0.038041 0.000000 0.000000
# 5 0.000000 0.000000 0.000000 0.000000 0.023214 0.000000
# 6 0.000000 0.000000 0.000000 0.000000 0.000000 0.025256
#
#
# Mechanical properties :
#
#
# Convention : Reuss Voigt Hill
#
# Bulk Modulus (GPa) = 55.97165 58.55184 57.26174
# Shear Modulus (GPa) = 37.16073 39.11602 38.13838
#
# Velocity S-wave (km/s) = 3.87297 3.97355 3.92358
# Velocity P-wave (km/s) = 6.52631 6.68480 6.60603
#
# Compressibility (1/GPa) = 0.01786619
#
# Stress axis : x y z
#
# Youngs Moduli (GPa) = 116.29233 77.84138 117.23925
#
# Poissons Ratio (x) = 0.19297 0.21311
# Poissons Ratio (y) = 0.28829 0.20607
# Poissons Ratio (z) = 0.21139 0.13682
#
# Static dielectric constant tensor:
#      x y z
#    x 4.511560 0.000000 0.000000 
#    y 0.000000 4.340060 0.000000 
#    z 0.000000 0.000000 4.735290 
# 
# 
# High freq. dielectric constant tensor:
#      x y z
#    x 1.990290 0.000000 0.000000 
#    y 0.000000 1.982400 0.000000 
#    z 0.000000 0.000000 2.008200 
# 
# From -- ./inp_files/1598.got.cif
#   From: 2010.03.12/outbox.cif.g09.slc.cpg/sg29_1_cif.got.tgz:1598.got - 2010.04.14 03:43:10.
