data_PCOD8169713
_publ_section_title
;
Structure prediction by ZEFSAII (Michael W. Deem and Ramdas Pophale) SiO2 
 PCOD8169713
Probable space group: P M N 21
;
_chemical_formula_sum "Si O2"
_cell_formula_units_Z 24
_cell_length_a 8.454592
_cell_length_b 9.623407
_cell_length_c 15.664555
_cell_angle_alpha 90.000000
_cell_angle_beta 90.000000
_cell_angle_gamma 90.000000
_cell_volume 1274.499208
_symmetry_space_group_name_H-M "P M N 21"
_symmetry_group_IT_number 31
_symmetry_cell_setting 'orthorhombic'
loop_
_space_group_symop_operation_xyz
x,y,z
1/2-x,-y,1/2+z
-x,y,z
1/2+x,-y,1/2+z
loop_
_atom_site_type_symbol
_atom_site_label
_atom_site_fract_x
_atom_site_fract_y
_atom_site_fract_z
Si Si1 0.683812 0.111219 0.149600
Si Si2 0.688285 0.579359 0.632333
Si Si3 0.682699 0.916107 0.474739
Si Si4 0.682874 0.376286 0.775644
Si Si5 0.815033 0.932421 0.299307
Si Si6 0.183919 0.615478 0.462748
O O1 0.500000 0.096053 0.169346
O O2 0.733430 0.271516 0.147164
O O3 0.780839 0.039725 0.224844
O O4 0.724677 0.034464 0.059978
O O5 0.500000 0.593048 0.636673
O O6 0.759059 0.474033 0.703184
O O7 0.746081 0.520743 0.539475
O O8 0.500000 0.948632 0.489635
O O9 0.741081 0.990884 0.387931
O O10 0.712208 0.753582 0.463171
O O11 0.500000 0.362175 0.752823
O O12 0.756091 0.220480 0.775632
O O13 0.705818 0.450912 0.868517
O O14 0.000000 0.917635 0.315734
O O15 0.000000 0.651516 0.479679
#
# Coordination Sequence:
#
# PCOD8169713 Si02
#       6
#     4   4   4   4   4   4
#     4  11  21  34  51  76 104 135 171 208 247 298
#     4  10  18  32  52  75  99 130 166 205 249 297
#     4  10  18  31  51  75  99 131 169 207 249 302
#     4   8  17  32  52  73  98 129 164 202 250 301
#     4  10  19  35  55  76 101 133 168 211 256 299
#     4   9  16  30  49  71  97 130 166 203 243 295
#
# _framework density 18.830926000000002
#
# number of rings (size 3 to 8) (size 9 to 14) (size 15 to 20)
#    0.000    2.333    0.000    7.500    0.000    0.000 
#    0.000   11.667    0.000    4.000    0.000    0.000 
#    0.000    0.000    0.000    0.000    0.000    0.000 
#
# Total GULP energy -297416.724465 kJ/mol
# GULP energy per Si atom -12392.363519 kJ/mol
# Density = 1.878807 g / cm^3
# Si number density = 18.830926 Si / 1000 Ang^3
#
#
#
# Elastic Constant Matrix: (Units=GPa)
#
#
# Indices 1 2 3 4 5 6 
#
# 1 61.5378 8.4449 11.9328 0.0000 0.0000 0.0000
# 2 8.4449 24.0633 3.4963 0.0000 0.0000 0.0000
# 3 11.9328 3.4963 66.8479 0.0000 0.0000 0.0000
# 4 0.0000 0.0000 0.0000 32.9651 0.0000 0.0000
# 5 0.0000 0.0000 0.0000 0.0000 35.1267 0.0000
# 6 0.0000 0.0000 0.0000 0.0000 0.0000 9.5109
#
#
#
# Elastic Compliance Matrix: (Units=1/GPa)
#
#
# Indices 1 2 3 4 5 6 
#
# 1 0.017591 -0.005761 -0.002839 0.000000 0.000000 0.000000
# 2 -0.005761 0.043762 -0.001260 0.000000 0.000000 0.000000
# 3 -0.002839 -0.001260 0.015532 0.000000 0.000000 0.000000
# 4 0.000000 0.000000 0.000000 0.030335 0.000000 0.000000
# 5 0.000000 0.000000 0.000000 0.000000 0.028468 0.000000
# 6 0.000000 0.000000 0.000000 0.000000 0.000000 0.105143
#
#
# Mechanical properties :
#
#
# Convention : Reuss Voigt Hill
#
# Bulk Modulus (GPa) = 17.49335 22.24410 19.86873
# Shear Modulus (GPa) = 17.88224 24.09221 20.98723
#
# Velocity S-wave (km/s) = 3.08493 3.58075 3.34205
# Velocity P-wave (km/s) = 4.69030 5.37902 5.04642
#
# Compressibility (1/GPa) = 0.05716457
#
# Stress axis : x y z
#
# Youngs Moduli (GPa) = 56.84649 22.85086 64.38318
#
# Poissons Ratio (x) = 0.13165 0.18277
# Poissons Ratio (y) = 0.32750 0.08115
# Poissons Ratio (z) = 0.16138 0.02880
#
# Static dielectric constant tensor:
#      x y z
#    x 3.378470 0.000000 0.000000 
#    y 0.000000 3.117260 0.000000 
#    z 0.000000 0.000000 4.328480 
# 
# 
# High freq. dielectric constant tensor:
#      x y z
#    x 1.729430 0.000000 0.000000 
#    y 0.000000 1.674560 0.000000 
#    z 0.000000 0.000000 1.758950 
# 
# From -- ./inp_files/3468.got.cif
#   From: 2010.03.12/outbox.cif.g09.slc.cpg/sg31_2_cif.got.tgz:3468.got - 2010.04.14 01:42:59.
