data_PCOD8169238
_publ_section_title
;
Structure prediction by ZEFSAII (Michael W. Deem and Ramdas Pophale) SiO2 
 PCOD8169238
Probable space group: P C A 21
;
_chemical_formula_sum "Si O2"
_cell_formula_units_Z 24
_cell_length_a 17.496849
_cell_length_b 6.298800
_cell_length_c 9.654422
_cell_angle_alpha 90.000000
_cell_angle_beta 90.000000
_cell_angle_gamma 90.000000
_cell_volume 1064.005666
_symmetry_space_group_name_H-M "P C A 21"
_symmetry_group_IT_number 29
_symmetry_cell_setting 'orthorhombic'
loop_
_space_group_symop_operation_xyz
x,y,z
-x,-y,1/2+z
1/2-x,y,1/2+z
1/2+x,-y,z
loop_
_atom_site_type_symbol
_atom_site_label
_atom_site_fract_x
_atom_site_fract_y
_atom_site_fract_z
Si Si1 0.309886 0.181312 0.429270
Si Si2 0.983613 0.832581 0.491928
Si Si3 0.725742 0.572541 0.662527
Si Si4 0.606839 0.495567 0.453483
Si Si5 0.576516 0.894104 0.283226
Si Si6 0.786378 0.181518 0.805143
O O1 0.400875 0.175338 0.423611
O O2 0.278079 0.344856 0.317832
O O3 0.283929 0.277423 0.576953
O O4 0.277765 0.947914 0.391410
O O5 0.980571 0.892161 0.653594
O O6 0.023231 0.602320 0.478607
O O7 0.034035 0.008423 0.415534
O O8 0.641395 0.596441 0.593901
O O9 0.752100 0.326058 0.680630
O O10 0.602248 0.659027 0.326491
O O11 0.669489 0.319892 0.417642
O O12 0.651548 0.023934 0.236152
#
# Coordination Sequence:
#
# PCOD8169238 Si02
#       6
#     4   4   4   4   4   4
#     4  12  27  45  74 111 141 191 247 302 369 439
#     4  11  29  43  75 105 146 195 234 307 367 439
#     4  12  26  45  74 106 140 189 244 303 365 444
#     4  11  26  47  70 102 146 187 237 301 364 438
#     4  11  26  50  70 108 149 189 246 301 370 441
#     4  11  24  46  75 102 142 187 242 302 365 435
#
# _framework density 22.556270999999999
#
# number of rings (size 3 to 8) (size 9 to 14) (size 15 to 20)
#    0.000    0.667    3.333    2.000   11.667    2.667 
#    0.000    0.000    0.000    0.000    0.000    0.000 
#    0.000    0.000    0.000    0.000    0.000    0.000 
#
# Total GULP energy -297659.229542 kJ/mol
# GULP energy per Si atom -12402.467898 kJ/mol
# Density = 2.250493 g / cm^3
# Si number density = 22.556271 Si / 1000 Ang^3
#
#
#
# Elastic Constant Matrix: (Units=GPa)
#
#
# Indices 1 2 3 4 5 6 
#
# 1 125.6677 45.3820 27.2608 0.0000 0.0000 0.0000
# 2 45.3820 117.8903 40.0967 0.0000 0.0000 0.0000
# 3 27.2608 40.0967 113.7022 0.0000 0.0000 0.0000
# 4 0.0000 0.0000 0.0000 44.4021 0.0000 0.0000
# 5 0.0000 0.0000 0.0000 0.0000 41.8708 0.0000
# 6 0.0000 0.0000 0.0000 0.0000 0.0000 42.1706
#
#
#
# Elastic Compliance Matrix: (Units=1/GPa)
#
#
# Indices 1 2 3 4 5 6 
#
# 1 0.009363 -0.003228 -0.001107 0.000000 0.000000 0.000000
# 2 -0.003228 0.010751 -0.003018 0.000000 0.000000 0.000000
# 3 -0.001107 -0.003018 0.010124 0.000000 0.000000 0.000000
# 4 0.000000 0.000000 0.000000 0.022521 0.000000 0.000000
# 5 0.000000 0.000000 0.000000 0.000000 0.023883 0.000000
# 6 0.000000 0.000000 0.000000 0.000000 0.000000 0.023713
#
#
# Mechanical properties :
#
#
# Convention : Reuss Voigt Hill
#
# Bulk Modulus (GPa) = 64.37154 64.74880 64.56017
# Shear Modulus (GPa) = 41.58379 41.99006 41.78693
#
# Velocity S-wave (km/s) = 4.29833 4.31927 4.30881
# Velocity P-wave (km/s) = 7.29618 7.32411 7.31016
#
# Compressibility (1/GPa) = 0.01553481
#
# Stress axis : x y z
#
# Youngs Moduli (GPa) = 106.80034 93.01102 98.77206
#
# Poissons Ratio (x) = 0.30024 0.10930
# Poissons Ratio (y) = 0.34476 0.29805
# Poissons Ratio (z) = 0.11818 0.28066
#
# Static dielectric constant tensor:
#      x y z
#    x 4.120410 0.000000 0.000000 
#    y 0.000000 4.233010 0.000000 
#    z 0.000000 0.000000 3.907990 
# 
# 
# High freq. dielectric constant tensor:
#      x y z
#    x 1.895700 0.000000 0.000000 
#    y 0.000000 1.896920 0.000000 
#    z 0.000000 0.000000 1.895890 
# 
# From -- ./inp_files/2003.got.cif
#   From: 2010.03.12/outbox.cif.g09.slc.cpg/sg29_2_cif.got.tgz:2003.got - 2010.04.14 03:43:10.
