data_PCOD8169496
_publ_section_title
;
Structure prediction by ZEFSAII (Michael W. Deem and Ramdas Pophale) SiO2 
 PCOD8169496
Probable space group: P N C 2
;
_chemical_formula_sum "Si O2"
_cell_formula_units_Z 30
_cell_length_a 6.350595
_cell_length_b 18.929888
_cell_length_c 13.227995
_cell_angle_alpha 90.000000
_cell_angle_beta 90.000000
_cell_angle_gamma 90.000000
_cell_volume 1590.217336
_symmetry_space_group_name_H-M "P N C 2"
_symmetry_group_IT_number 30
_symmetry_cell_setting 'orthorhombic'
loop_
_space_group_symop_operation_xyz
x,y,z
-x,-y,z
-x,1/2+y,1/2+z
x,1/2-y,1/2+z
loop_
_atom_site_type_symbol
_atom_site_label
_atom_site_fract_x
_atom_site_fract_y
_atom_site_fract_z
Si Si1 0.473941 0.290579 0.359680
Si Si2 0.389051 0.568049 0.455092
Si Si3 0.488880 0.419879 0.853988
Si Si4 0.000000 0.000000 0.028041
Si Si5 0.330319 0.097242 0.136442
Si Si6 0.217632 0.313619 0.975994
Si Si7 0.154482 0.687292 0.827169
Si Si8 0.813907 0.753812 0.178616
O O1 0.540634 0.370263 0.380718
O O2 0.322094 0.261156 0.446808
O O3 0.691615 0.249558 0.357501
O O4 0.345288 0.282573 0.256434
O O5 0.500000 0.500000 0.407522
O O6 0.139398 0.552414 0.457672
O O7 0.461285 0.579896 0.571667
O O8 0.500000 0.500000 0.894443
O O9 0.344739 0.421068 0.754597
O O10 0.383443 0.375222 0.945419
O O11 0.710521 0.385219 0.816254
O O12 0.138368 0.051155 0.096213
O O13 0.296818 0.180450 0.124668
O O14 0.003983 0.328266 0.917348
O O15 0.152770 0.307347 0.094047
O O16 0.029344 0.714789 0.727535
#
# Coordination Sequence:
#
# PCOD8169496 Si02
#       8
#     4   4   4   2   4   4   4   4
#     4  10  21  39  59  83 117 153 195 241 291 343
#     4  10  22  38  58  85 119 156 193 239 296 346
#     4  11  23  39  58  87 124 156 195 236 304 361
#     4  10  24  32  54  94 120 158 186 232 302 356
#     4  11  21  35  57  88 124 151 188 243 298 357
#     4  10  22  39  58  85 116 157 195 241 289 350
#     4  10  22  36  58  90 111 158 191 243 298 337
#     4  11  22  38  61  87 118 148 203 242 292 348
#
# _framework density 18.865347
#
# number of rings (size 3 to 8) (size 9 to 14) (size 15 to 20)
#    0.000    1.600    5.333    1.200    5.600    3.733 
#    0.000    0.667    0.000    1.600    0.000    0.000 
#    0.000    0.000    0.000    0.000    0.000    0.000 
#
# Total GULP energy -371767.941544 kJ/mol
# GULP energy per Si atom -12392.264718 kJ/mol
# Density = 1.882241 g / cm^3
# Si number density = 18.865347 Si / 1000 Ang^3
#
#
#
# Elastic Constant Matrix: (Units=GPa)
#
#
# Indices 1 2 3 4 5 6 
#
# 1 115.2901 47.7008 32.3198 0.0000 0.0000 0.0000
# 2 47.7008 138.3400 45.1353 0.0000 0.0000 0.0000
# 3 32.3198 45.1353 70.7394 0.0000 0.0000 0.0000
# 4 0.0000 0.0000 0.0000 32.3401 0.0000 0.0000
# 5 0.0000 0.0000 0.0000 0.0000 7.1179 0.0000
# 6 0.0000 0.0000 0.0000 0.0000 0.0000 24.7537
#
#
#
# Elastic Compliance Matrix: (Units=1/GPa)
#
#
# Indices 1 2 3 4 5 6 
#
# 1 0.010658 -0.002635 -0.003188 0.000000 0.000000 0.000000
# 2 -0.002635 0.009780 -0.005037 0.000000 0.000000 0.000000
# 3 -0.003188 -0.005037 0.018807 0.000000 0.000000 0.000000
# 4 0.000000 0.000000 0.000000 0.030921 0.000000 0.000000
# 5 0.000000 0.000000 0.000000 0.000000 0.140492 0.000000
# 6 0.000000 0.000000 0.000000 0.000000 0.000000 0.040398
#
#
# Mechanical properties :
#
#
# Convention : Reuss Voigt Hill
#
# Bulk Modulus (GPa) = 57.05946 63.85347 60.45646
# Shear Modulus (GPa) = 17.94582 26.12323 22.03453
#
# Velocity S-wave (km/s) = 3.08759 3.72522 3.42129
# Velocity P-wave (km/s) = 6.55914 7.24040 6.90817
#
# Compressibility (1/GPa) = 0.01752558
#
# Stress axis : x y z
#
# Youngs Moduli (GPa) = 93.82954 102.24682 53.17259
#
# Poissons Ratio (x) = 0.26938 0.16953
# Poissons Ratio (y) = 0.24720 0.26781
# Poissons Ratio (z) = 0.29916 0.51497
#
# Static dielectric constant tensor:
#      x y z
#    x 3.616710 0.000000 0.000000 
#    y 0.000000 3.582520 0.000000 
#    z 0.000000 0.000000 3.282060 
# 
# 
# High freq. dielectric constant tensor:
#      x y z
#    x 1.743350 0.000000 0.000000 
#    y 0.000000 1.733700 0.000000 
#    z 0.000000 0.000000 1.709370 
# 
# From -- ./inp_files/4798.got.cif
#   From: 2010.03.12/outbox.cif.g09.slc.cpg/sg30_3_cif.got.tgz:4798.got - 2010.04.14 01:38:02.
