data_PCOD8169764
_publ_section_title
;
Structure prediction by ZEFSAII (Michael W. Deem and Ramdas Pophale) SiO2 
 PCOD8169764
Probable space group: P M N 21
;
_chemical_formula_sum "Si O2"
_cell_formula_units_Z 28
_cell_length_a 13.642365
_cell_length_b 11.777981
_cell_length_c 6.711216
_cell_angle_alpha 90.000000
_cell_angle_beta 90.000000
_cell_angle_gamma 90.000000
_cell_volume 1078.354937
_symmetry_space_group_name_H-M "P M N 21"
_symmetry_group_IT_number 31
_symmetry_cell_setting 'orthorhombic'
loop_
_space_group_symop_operation_xyz
x,y,z
1/2-x,-y,1/2+z
-x,y,z
1/2+x,-y,1/2+z
loop_
_atom_site_type_symbol
_atom_site_label
_atom_site_fract_x
_atom_site_fract_y
_atom_site_fract_z
Si Si1 0.611560 0.567381 0.727360
Si Si2 0.392747 0.511017 0.190574
Si Si3 0.890348 0.941344 0.643448
Si Si4 0.780768 0.652883 0.210452
Si Si5 0.706769 0.289034 0.136679
Si Si6 0.390898 0.992145 0.714219
Si Si7 0.737676 0.877044 0.001741
O O1 0.500000 0.593333 0.659981
O O2 0.616938 0.540523 0.959379
O O3 0.649749 0.448585 0.624029
O O4 0.680306 0.675131 0.676673
O O5 0.500000 0.535436 0.276327
O O6 0.365344 0.381248 0.232535
O O7 0.317996 0.594774 0.301070
O O8 0.828411 0.832750 0.734527
O O9 0.000000 0.948408 0.734311
O O10 0.896770 0.921394 0.403213
O O11 0.830432 0.061240 0.673780
O O12 0.820702 0.720080 0.401964
O O13 0.754482 0.742723 0.036409
O O14 0.500000 0.949337 0.655728
O O15 0.342586 0.053942 0.519466
O O16 0.320823 0.888672 0.789133
#
# Coordination Sequence:
#
# PCOD8169764 Si02
#       7
#     4   4   4   4   4   4   4
#     4   9  20  36  53  77 109 144 181 225 278 332
#     4   9  19  33  52  78 105 137 179 225 277 333
#     4   9  19  35  58  81 108 146 187 230 281 334
#     4  10  19  32  55  79 106 139 179 226 278 326
#     4  10  18  35  57  79 103 145 186 229 270 331
#     4   9  20  37  58  82 112 150 190 235 289 341
#     4  10  19  36  57  84 113 147 190 240 285 341
#
# _framework density 25.965478000000001
#
# number of rings (size 3 to 8) (size 9 to 14) (size 15 to 20)
#    0.857    1.714    1.429    0.429    0.000    4.000 
#    0.000    3.571    0.000    7.714    0.000    0.000 
#    0.000    0.000    0.000    0.000    0.000    0.000 
#
# Total GULP energy -346868.019123 kJ/mol
# GULP energy per Si atom -12388.143540 kJ/mol
# Density = 2.590638 g / cm^3
# Si number density = 25.965478 Si / 1000 Ang^3
#
#
#
# Elastic Constant Matrix: (Units=GPa)
#
#
# Indices 1 2 3 4 5 6 
#
# 1 197.8387 43.8938 1.9324 0.0000 0.0000 0.0000
# 2 43.8938 134.1115 22.0386 0.0000 0.0000 0.0000
# 3 1.9324 22.0386 52.5678 0.0000 0.0000 0.0000
# 4 0.0000 0.0000 0.0000 46.0849 0.0000 0.0000
# 5 0.0000 0.0000 0.0000 0.0000 29.2590 0.0000
# 6 0.0000 0.0000 0.0000 0.0000 0.0000 28.0535
#
#
#
# Elastic Compliance Matrix: (Units=1/GPa)
#
#
# Indices 1 2 3 4 5 6 
#
# 1 0.005467 -0.001886 0.000590 0.000000 0.000000 0.000000
# 2 -0.001886 0.008659 -0.003561 0.000000 0.000000 0.000000
# 3 0.000590 -0.003561 0.020494 0.000000 0.000000 0.000000
# 4 0.000000 0.000000 0.000000 0.021699 0.000000 0.000000
# 5 0.000000 0.000000 0.000000 0.000000 0.034178 0.000000
# 6 0.000000 0.000000 0.000000 0.000000 0.000000 0.035646
#
#
# Mechanical properties :
#
#
# Convention : Reuss Voigt Hill
#
# Bulk Modulus (GPa) = 40.15117 57.80529 48.97823
# Shear Modulus (GPa) = 34.68365 41.78970 38.23667
#
# Velocity S-wave (km/s) = 3.65877 4.01613 3.84161
# Velocity P-wave (km/s) = 5.77457 6.61939 6.21136
#
# Compressibility (1/GPa) = 0.02490588
#
# Stress axis : x y z
#
# Youngs Moduli (GPa) = 182.90277 115.48623 48.79421
#
# Poissons Ratio (x) = 0.21785 -0.02878
# Poissons Ratio (y) = 0.34502 0.17375
# Poissons Ratio (z) = -0.10789 0.41123
#
# Static dielectric constant tensor:
#      x y z
#    x 4.853340 0.000000 0.000000 
#    y 0.000000 4.350670 0.000000 
#    z 0.000000 0.000000 4.510350 
# 
# 
# High freq. dielectric constant tensor:
#      x y z
#    x 2.041940 0.000000 0.000000 
#    y 0.000000 2.021460 0.000000 
#    z 0.000000 0.000000 2.059340 
# 
# From -- ./inp_files/4001.got.cif
#   From: 2010.03.12/outbox.cif.g09.slc.cpg/sg31_3_cif.got.tgz:4001.got - 2010.04.14 01:42:59.
