data_PCOD8169720
_publ_section_title
;
Structure prediction by ZEFSAII (Michael W. Deem and Ramdas Pophale) SiO2 
 PCOD8169720
Probable space group: P M N 21
;
_chemical_formula_sum "Si O2"
_cell_formula_units_Z 32
_cell_length_a 9.405353
_cell_length_b 14.685720
_cell_length_c 12.276105
_cell_angle_alpha 90.000000
_cell_angle_beta 90.000000
_cell_angle_gamma 90.000000
_cell_volume 1695.629400
_symmetry_space_group_name_H-M "P M N 21"
_symmetry_group_IT_number 31
_symmetry_cell_setting 'orthorhombic'
loop_
_space_group_symop_operation_xyz
x,y,z
1/2-x,-y,1/2+z
-x,y,z
1/2+x,-y,1/2+z
loop_
_atom_site_type_symbol
_atom_site_label
_atom_site_fract_x
_atom_site_fract_y
_atom_site_fract_z
Si Si1 0.166438 0.354329 0.145310
Si Si2 0.657179 0.866790 0.942305
Si Si3 0.163693 0.759339 0.481933
Si Si4 0.668938 0.668180 0.894979
Si Si5 0.336914 0.448808 0.570303
Si Si6 0.331198 0.056277 0.865606
Si Si7 0.657522 0.853208 0.190344
Si Si8 0.160850 0.691097 0.250029
O O1 0.209300 0.359765 0.272244
O O2 0.212006 0.447240 0.085013
O O3 0.000000 0.336191 0.134672
O O4 0.245307 0.271260 0.085772
O O5 0.500000 0.860497 0.890320
O O6 0.732304 0.770411 0.914905
O O7 0.733599 0.957602 0.897059
O O8 0.645971 0.887364 0.068814
O O9 0.208963 0.862544 0.449843
O O10 0.193664 0.691111 0.379497
O O11 0.000000 0.755415 0.516785
O O12 0.500000 0.664883 0.916999
O O13 0.740814 0.598699 0.979202
O O14 0.500000 0.441980 0.531220
O O15 0.321950 0.406281 0.692117
O O16 0.500000 0.053246 0.851847
O O17 0.258411 0.076415 0.751271
O O18 0.500000 0.848521 0.243542
O O19 0.726896 0.753910 0.188421
O O20 0.000000 0.729291 0.234290
#
# Coordination Sequence:
#
# PCOD8169720 Si02
#       8
#     4   4   4   4   4   4   4   4
#     4  10  23  38  55  81 116 149 182 230 282 332
#     4   9  18  34  56  80 108 142 182 226 277 330
#     4   9  19  35  56  79 107 147 188 222 271 331
#     4  10  21  39  60  83 111 147 185 228 285 337
#     4  10  21  37  56  81 110 142 183 230 276 329
#     4   9  19  36  55  77 110 152 188 223 276 339
#     4  10  18  31  52  81 108 135 182 236 275 319
#     4   9  18  34  56  78 104 142 182 225 276 331
#
# _framework density 18.872047999999999
#
# number of rings (size 3 to 8) (size 9 to 14) (size 15 to 20)
#    0.000    2.500    1.250    1.125    1.750    4.000 
#    0.000    1.875    0.000    0.000    0.000    0.000 
#    0.000    0.000    0.000    0.000    0.000    0.000 
#
# Total GULP energy -396603.404482 kJ/mol
# GULP energy per Si atom -12393.856390 kJ/mol
# Density = 1.882909 g / cm^3
# Si number density = 18.872048 Si / 1000 Ang^3
#
#
#
# Elastic Constant Matrix: (Units=GPa)
#
#
# Indices 1 2 3 4 5 6 
#
# 1 48.6937 36.9890 34.7967 0.0000 0.0000 0.0000
# 2 36.9890 120.1245 52.2303 0.0000 0.0000 0.0000
# 3 34.7967 52.2303 93.3842 0.0000 0.0000 0.0000
# 4 0.0000 0.0000 0.0000 28.1210 0.0000 0.0000
# 5 0.0000 0.0000 0.0000 0.0000 29.8056 0.0000
# 6 0.0000 0.0000 0.0000 0.0000 0.0000 18.7111
#
#
#
# Elastic Compliance Matrix: (Units=1/GPa)
#
#
# Indices 1 2 3 4 5 6 
#
# 1 0.030913 -0.005960 -0.008185 0.000000 0.000000 0.000000
# 2 -0.005960 0.012149 -0.004574 0.000000 0.000000 0.000000
# 3 -0.008185 -0.004574 0.016317 0.000000 0.000000 0.000000
# 4 0.000000 0.000000 0.000000 0.035561 0.000000 0.000000
# 5 0.000000 0.000000 0.000000 0.000000 0.033551 0.000000
# 6 0.000000 0.000000 0.000000 0.000000 0.000000 0.053444
#
#
# Mechanical properties :
#
#
# Convention : Reuss Voigt Hill
#
# Bulk Modulus (GPa) = 45.57901 56.69270 51.13586
# Shear Modulus (GPa) = 22.05692 24.53996 23.29844
#
# Velocity S-wave (km/s) = 3.42242 3.60993 3.51742
# Velocity P-wave (km/s) = 6.31042 6.89066 6.60691
#
# Compressibility (1/GPa) = 0.02193992
#
# Stress axis : x y z
#
# Youngs Moduli (GPa) = 32.34874 82.31364 61.28644
#
# Poissons Ratio (x) = 0.49057 0.50166
# Poissons Ratio (y) = 0.19279 0.28033
# Poissons Ratio (z) = 0.26479 0.37651
#
# Static dielectric constant tensor:
#      x y z
#    x 3.358490 0.000000 0.000000 
#    y 0.000000 3.572480 0.000000 
#    z 0.000000 0.000000 3.353150 
# 
# 
# High freq. dielectric constant tensor:
#      x y z
#    x 1.715500 0.000000 0.000000 
#    y 0.000000 1.735560 0.000000 
#    z 0.000000 0.000000 1.728060 
# 
# From -- ./inp_files/3624.got.cif
#   From: 2010.03.12/outbox.cif.g09.slc.cpg/sg31_2_cif.got.tgz:3624.got - 2010.04.14 01:42:59.
