data_PCOD8169020
_publ_section_title
;
Structure prediction by ZEFSAII (Michael W. Deem and Ramdas Pophale) SiO2 
 PCOD8169020
Probable space group: P C A 21
;
_chemical_formula_sum "Si O2"
_cell_formula_units_Z 24
_cell_length_a 14.127020
_cell_length_b 9.575332
_cell_length_c 6.419874
_cell_angle_alpha 90.000000
_cell_angle_beta 90.000000
_cell_angle_gamma 90.000000
_cell_volume 868.422177
_symmetry_space_group_name_H-M "P C A 21"
_symmetry_group_IT_number 29
_symmetry_cell_setting 'orthorhombic'
loop_
_space_group_symop_operation_xyz
x,y,z
-x,-y,1/2+z
1/2-x,y,1/2+z
1/2+x,-y,z
loop_
_atom_site_type_symbol
_atom_site_label
_atom_site_fract_x
_atom_site_fract_y
_atom_site_fract_z
Si Si1 0.385477 0.550637 0.217230
Si Si2 0.473523 0.830496 0.131251
Si Si3 0.823233 0.492478 0.756943
Si Si4 0.516792 0.309241 0.202925
Si Si5 0.674589 0.792373 0.051852
Si Si6 0.624154 0.883328 0.617232
O O1 0.438028 0.697104 0.259685
O O2 0.280540 0.564106 0.314513
O O3 0.451157 0.429258 0.311028
O O4 0.378897 0.505739 0.973512
O O5 0.586947 0.865300 0.179546
O O6 0.408140 0.963083 0.183126
O O7 0.454213 0.797607 0.887661
O O8 0.807149 0.641457 0.648649
O O9 0.888062 0.387830 0.610690
O O10 0.464233 0.209835 0.023513
O O11 0.772492 0.880344 0.009869
O O12 0.638138 0.782278 0.818134
#
# Coordination Sequence:
#
# PCOD8169020 Si02
#       6
#     4   4   4   4   4   4
#     4  11  23  41  71 105 142 190 243 310 353 436
#     4  10  25  45  65 106 148 187 245 297 371 439
#     4  11  23  41  73 107 143 187 250 301 364 430
#     4  10  23  44  70 102 142 191 240 303 359 431
#     4  11  23  44  71  97 141 192 241 297 368 436
#     4  11  25  43  70 101 148 191 241 302 365 446
#
# _framework density 27.636330000000001
#
# number of rings (size 3 to 8) (size 9 to 14) (size 15 to 20)
#    0.000    1.333    3.333    1.000    2.333    6.667 
#    0.000    0.000    0.000    0.000    0.000    0.000 
#    0.000    0.000    0.000    0.000    0.000    0.000 
#
# Total GULP energy -297316.893629 kJ/mol
# GULP energy per Si atom -12388.203901 kJ/mol
# Density = 2.757343 g / cm^3
# Si number density = 27.636330 Si / 1000 Ang^3
#
#
#
# Elastic Constant Matrix: (Units=GPa)
#
#
# Indices 1 2 3 4 5 6 
#
# 1 204.0182 76.1640 6.5678 0.0000 0.0000 0.0000
# 2 76.1640 169.8723 7.0253 0.0000 0.0000 0.0000
# 3 6.5678 7.0253 12.6464 0.0000 0.0000 0.0000
# 4 0.0000 0.0000 0.0000 29.8758 0.0000 0.0000
# 5 0.0000 0.0000 0.0000 0.0000 38.0367 0.0000
# 6 0.0000 0.0000 0.0000 0.0000 0.0000 57.0777
#
#
#
# Elastic Compliance Matrix: (Units=1/GPa)
#
#
# Indices 1 2 3 4 5 6 
#
# 1 0.005920 -0.002586 -0.001638 0.000000 0.000000 0.000000
# 2 -0.002586 0.007155 -0.002632 0.000000 0.000000 0.000000
# 3 -0.001638 -0.002632 0.081386 0.000000 0.000000 0.000000
# 4 0.000000 0.000000 0.000000 0.033472 0.000000 0.000000
# 5 0.000000 0.000000 0.000000 0.000000 0.026290 0.000000
# 6 0.000000 0.000000 0.000000 0.000000 0.000000 0.017520
#
#
# Mechanical properties :
#
#
# Convention : Reuss Voigt Hill
#
# Bulk Modulus (GPa) = 12.38394 62.89456 37.63925
# Shear Modulus (GPa) = 23.54368 44.78337 34.16352
#
# Velocity S-wave (km/s) = 2.92192 4.02985 3.51975
# Velocity P-wave (km/s) = 3.98425 6.66785 5.49247
#
# Compressibility (1/GPa) = 0.08074975
#
# Stress axis : x y z
#
# Youngs Moduli (GPa) = 168.92380 139.75678 12.28713
#
# Poissons Ratio (x) = 0.36148 0.02012
# Poissons Ratio (y) = 0.43692 0.03233
# Poissons Ratio (z) = 0.27663 0.36778
#
# Static dielectric constant tensor:
#      x y z
#    x 6.033480 0.000000 0.000000 
#    y 0.000000 4.599100 0.000000 
#    z 0.000000 0.000000 5.169720 
# 
# 
# High freq. dielectric constant tensor:
#      x y z
#    x 2.150080 0.000000 0.000000 
#    y 0.000000 2.086160 0.000000 
#    z 0.000000 0.000000 2.137670 
# 
# From -- ./inp_files/1730.got.cif
#   From: 2010.03.12/outbox.cif.g09.slc.cpg/sg29_1_cif.got.tgz:1730.got - 2010.04.14 03:43:10.
