data_PCOD8169892
_publ_section_title
;
Structure prediction by ZEFSAII (Michael W. Deem and Ramdas Pophale) SiO2 
 PCOD8169892
Probable space group: P M N 21
;
_chemical_formula_sum "Si O2"
_cell_formula_units_Z 32
_cell_length_a 8.712195
_cell_length_b 21.610247
_cell_length_c 9.816631
_cell_angle_alpha 90.000000
_cell_angle_beta 90.000000
_cell_angle_gamma 90.000000
_cell_volume 1848.203484
_symmetry_space_group_name_H-M "P M N 21"
_symmetry_group_IT_number 31
_symmetry_cell_setting 'orthorhombic'
loop_
_space_group_symop_operation_xyz
x,y,z
1/2-x,-y,1/2+z
-x,y,z
1/2+x,-y,1/2+z
loop_
_atom_site_type_symbol
_atom_site_label
_atom_site_fract_x
_atom_site_fract_y
_atom_site_fract_z
Si Si1 0.317534 0.465647 0.450500
Si Si2 0.317984 0.399897 0.935864
Si Si3 0.818448 0.370217 0.654093
Si Si4 0.326993 0.142796 0.373934
Si Si5 0.680123 0.367960 0.230802
Si Si6 0.817878 0.725635 0.956884
Si Si7 0.679292 0.941222 0.679582
Si Si8 0.324627 0.009138 0.422495
O O1 0.500000 0.477525 0.454422
O O2 0.223974 0.528387 0.443741
O O3 0.268952 0.427771 0.584928
O O4 0.264810 0.427486 0.316961
O O5 0.500000 0.392209 0.917559
O O6 0.231632 0.366504 0.811594
O O7 0.255294 0.368484 0.076516
O O8 0.770369 0.306112 0.581872
O O9 0.000000 0.380139 0.643139
O O10 0.500000 0.159633 0.333906
O O11 0.257693 0.203367 0.447134
O O12 0.244588 0.125079 0.229771
O O13 0.316425 0.081994 0.471534
O O14 0.500000 0.372060 0.219076
O O15 0.728639 0.306439 0.313407
O O16 0.000000 0.719777 0.984264
O O17 0.500000 0.936729 0.667722
O O18 0.746654 0.962771 0.534025
O O19 0.725083 0.996104 0.785093
O O20 0.500000 0.991785 0.389232
#
# Coordination Sequence:
#
# PCOD8169892 Si02
#       8
#     4   4   4   4   4   4   4   4
#     4  10  19  34  53  75  98 125 162 203 252 307
#     4  11  20  32  50  73 101 128 158 203 257 302
#     4  11  22  34  49  72 101 132 167 204 241 295
#     4   8  16  30  51  73  97 125 163 203 242 289
#     4   8  17  31  50  72  92 118 158 202 245 290
#     4   9  17  35  57  71  89 125 170 211 245 289
#     4   9  16  27  47  72 101 128 156 193 237 283
#     4   8  16  29  45  72 101 127 160 195 235 285
#
# _framework density 17.314111
#
# number of rings (size 3 to 8) (size 9 to 14) (size 15 to 20)
#    0.750    2.000    0.000    3.375    0.000    2.500 
#    0.000    5.625    2.750    0.000    0.000    0.000 
#    0.000    0.000    0.000    0.000    0.000    0.000 
#
# Total GULP energy -396426.446835 kJ/mol
# GULP energy per Si atom -12388.326464 kJ/mol
# Density = 1.727470 g / cm^3
# Si number density = 17.314111 Si / 1000 Ang^3
#
#
#
# Elastic Constant Matrix: (Units=GPa)
#
#
# Indices 1 2 3 4 5 6 
#
# 1 40.5970 7.8243 12.7423 0.0000 0.0000 0.0000
# 2 7.8243 33.0010 1.9387 0.0000 0.0000 0.0000
# 3 12.7423 1.9387 84.8236 0.0000 0.0000 0.0000
# 4 0.0000 0.0000 0.0000 13.6533 0.0000 0.0000
# 5 0.0000 0.0000 0.0000 0.0000 22.0371 0.0000
# 6 0.0000 0.0000 0.0000 0.0000 0.0000 27.3796
#
#
#
# Elastic Compliance Matrix: (Units=1/GPa)
#
#
# Indices 1 2 3 4 5 6 
#
# 1 0.027056 -0.006184 -0.003923 0.000000 0.000000 0.000000
# 2 -0.006184 0.031756 0.000203 0.000000 0.000000 0.000000
# 3 -0.003923 0.000203 0.012374 0.000000 0.000000 0.000000
# 4 0.000000 0.000000 0.000000 0.073242 0.000000 0.000000
# 5 0.000000 0.000000 0.000000 0.000000 0.045378 0.000000
# 6 0.000000 0.000000 0.000000 0.000000 0.000000 0.036524
#
#
# Mechanical properties :
#
#
# Convention : Reuss Voigt Hill
#
# Bulk Modulus (GPa) = 19.46366 22.60358 21.03362
# Shear Modulus (GPa) = 18.99238 21.67509 20.33374
#
# Velocity S-wave (km/s) = 3.31559 3.54202 3.43067
# Velocity P-wave (km/s) = 5.09150 5.45997 5.27895
#
# Compressibility (1/GPa) = 0.05137780
#
# Stress axis : x y z
#
# Youngs Moduli (GPa) = 36.96101 31.48975 80.81564
#
# Poissons Ratio (x) = 0.19474 0.31704
# Poissons Ratio (y) = 0.22857 -0.01642
# Poissons Ratio (z) = 0.14500 -0.00640
#
# Static dielectric constant tensor:
#      x y z
#    x 3.065770 0.000000 0.000000 
#    y 0.000000 3.211990 0.000000 
#    z 0.000000 0.000000 3.450190 
# 
# 
# High freq. dielectric constant tensor:
#      x y z
#    x 1.660530 0.000000 0.000000 
#    y 0.000000 1.645750 0.000000 
#    z 0.000000 0.000000 1.661310 
# 
# From -- ./inp_files/1879.got.cif
#   From: 2010.03.12/outbox.cif.g09.slc.cpg/sg31_1_cif.got.tgz:1879.got - 2010.04.14 01:42:59.
