data_PCOD8169588
_publ_section_title
;
Structure prediction by ZEFSAII (Michael W. Deem and Ramdas Pophale) SiO2 
 PCOD8169588
Probable space group: P N C 2
;
_chemical_formula_sum "Si O2"
_cell_formula_units_Z 24
_cell_length_a 8.391304
_cell_length_b 15.848450
_cell_length_c 8.995222
_cell_angle_alpha 90.000000
_cell_angle_beta 90.000000
_cell_angle_gamma 90.000000
_cell_volume 1196.267035
_symmetry_space_group_name_H-M "P N C 2"
_symmetry_group_IT_number 30
_symmetry_cell_setting 'orthorhombic'
loop_
_space_group_symop_operation_xyz
x,y,z
-x,-y,z
-x,1/2+y,1/2+z
x,1/2-y,1/2+z
loop_
_atom_site_type_symbol
_atom_site_label
_atom_site_fract_x
_atom_site_fract_y
_atom_site_fract_z
Si Si1 0.758154 0.167642 0.274680
Si Si2 0.607843 0.578935 0.132735
Si Si3 0.823182 0.983587 0.366655
Si Si4 0.732686 0.812396 0.869679
Si Si5 0.428795 0.756727 0.527739
Si Si6 0.887311 0.828524 0.175279
O O1 0.721375 0.219880 0.423939
O O2 0.628099 0.191492 0.152312
O O3 0.931839 0.192486 0.216689
O O4 0.740167 0.068503 0.309315
O O5 0.500000 0.500000 0.176320
O O6 0.719323 0.601344 0.274143
O O7 0.495081 0.657982 0.099645
O O8 0.718227 0.559957 0.992241
O O9 0.837697 0.921942 0.225717
O O10 0.000000 0.000000 0.432805
O O11 0.775232 0.738281 0.756020
O O12 0.561831 0.792577 0.937500
O O13 0.865155 0.822480 0.997706
#
# Coordination Sequence:
#
# PCOD8169588 Si02
#       6
#     4   4   4   4   4   4
#     4  11  24  41  67  95 132 167 219 271 325 388
#     4  12  24  41  65  96 129 171 214 271 333 389
#     4  10  23  43  66  94 129 173 217 265 332 388
#     4  12  23  41  66  94 130 169 222 261 326 394
#     4  12  22  41  65  97 128 168 219 270 321 392
#     4  11  22  42  65  94 128 177 214 266 325 390
#
# _framework density 20.062411999999998
#
# number of rings (size 3 to 8) (size 9 to 14) (size 15 to 20)
#    0.000    0.667    6.667    1.000    0.000    2.667 
#    0.000    2.500    0.000    0.000    0.000    0.000 
#    0.000    0.000    0.000    0.000    0.000    0.000 
#
# Total GULP energy -297712.185609 kJ/mol
# GULP energy per Si atom -12404.674400 kJ/mol
# Density = 2.001675 g / cm^3
# Si number density = 20.062412 Si / 1000 Ang^3
#
#
#
# Elastic Constant Matrix: (Units=GPa)
#
#
# Indices 1 2 3 4 5 6 
#
# 1 91.5976 39.3704 46.3145 0.0000 0.0000 0.0000
# 2 39.3704 91.7460 40.9867 0.0000 0.0000 0.0000
# 3 46.3145 40.9867 124.8744 0.0000 0.0000 0.0000
# 4 0.0000 0.0000 0.0000 38.1980 0.0000 0.0000
# 5 0.0000 0.0000 0.0000 0.0000 41.0229 0.0000
# 6 0.0000 0.0000 0.0000 0.0000 0.0000 35.9344
#
#
#
# Elastic Compliance Matrix: (Units=1/GPa)
#
#
# Indices 1 2 3 4 5 6 
#
# 1 0.014934 -0.004610 -0.004026 0.000000 0.000000 0.000000
# 2 -0.004610 0.014196 -0.002949 0.000000 0.000000 0.000000
# 3 -0.004026 -0.002949 0.010469 0.000000 0.000000 0.000000
# 4 0.000000 0.000000 0.000000 0.026179 0.000000 0.000000
# 5 0.000000 0.000000 0.000000 0.000000 0.024377 0.000000
# 6 0.000000 0.000000 0.000000 0.000000 0.000000 0.027828
#
#
# Mechanical properties :
#
#
# Convention : Reuss Voigt Hill
#
# Bulk Modulus (GPa) = 60.87049 62.39570 61.63309
# Shear Modulus (GPa) = 34.09918 35.13415 34.61667
#
# Velocity S-wave (km/s) = 4.12716 4.18932 4.15836
# Velocity P-wave (km/s) = 7.28819 7.38708 7.33780
#
# Compressibility (1/GPa) = 0.01642832
#
# Stress axis : x y z
#
# Youngs Moduli (GPa) = 66.95925 70.44403 95.51773
#
# Poissons Ratio (x) = 0.32476 0.38454
# Poissons Ratio (y) = 0.30870 0.28173
# Poissons Ratio (z) = 0.26957 0.20777
#
# Static dielectric constant tensor:
#      x y z
#    x 3.792790 0.000000 0.000000 
#    y 0.000000 3.725740 0.000000 
#    z 0.000000 0.000000 3.852420 
# 
# 
# High freq. dielectric constant tensor:
#      x y z
#    x 1.790270 0.000000 0.000000 
#    y 0.000000 1.785600 0.000000 
#    z 0.000000 0.000000 1.789790 
# 
# From -- ./inp_files/1816.got.cif
#   From: 2010.03.12/outbox.cif.g09.slc.cpg/sg30_1_cif.got.tgz:1816.got - 2010.04.14 01:38:02.
