data_PCOD8169443
_publ_section_title
;
Structure prediction by ZEFSAII (Michael W. Deem and Ramdas Pophale) SiO2 
 PCOD8169443
Probable space group: P N C 2
;
_chemical_formula_sum "Si O2"
_cell_formula_units_Z 32
_cell_length_a 11.816659
_cell_length_b 8.545755
_cell_length_c 15.070982
_cell_angle_alpha 90.000000
_cell_angle_beta 90.000000
_cell_angle_gamma 90.000000
_cell_volume 1521.902015
_symmetry_space_group_name_H-M "P N C 2"
_symmetry_group_IT_number 30
_symmetry_cell_setting 'orthorhombic'
loop_
_space_group_symop_operation_xyz
x,y,z
-x,-y,z
-x,1/2+y,1/2+z
x,1/2-y,1/2+z
loop_
_atom_site_type_symbol
_atom_site_label
_atom_site_fract_x
_atom_site_fract_y
_atom_site_fract_z
Si Si1 0.661792 0.856178 0.463260
Si Si2 0.103225 0.286804 0.425423
Si Si3 0.582265 0.858795 0.812532
Si Si4 0.944348 0.329979 0.068222
Si Si5 0.966895 0.179932 0.763189
Si Si6 0.310589 0.800084 0.509130
Si Si7 0.228005 0.929095 0.867021
Si Si8 0.516587 0.817416 0.622933
O O1 0.794977 0.827350 0.451848
O O2 0.586682 0.775213 0.387147
O O3 0.620314 0.780822 0.556431
O O4 0.640020 0.042353 0.463499
O O5 0.140821 0.467953 0.425473
O O6 0.001083 0.279114 0.494928
O O7 0.055426 0.232935 0.328415
O O8 0.549047 0.763983 0.722696
O O9 0.500000 0.000000 0.839765
O O10 0.703678 0.946468 0.806033
O O11 0.967546 0.249896 0.164234
O O12 0.000000 0.500000 0.061039
O O13 0.810137 0.337129 0.052757
O O14 0.840132 0.190767 0.804196
O O15 0.000000 0.000000 0.755900
O O16 0.307442 0.667392 0.433797
O O17 0.399225 0.743344 0.585446
O O18 0.500000 0.000000 0.633920
#
# Coordination Sequence:
#
# PCOD8169443 Si02
#       8
#     4   4   4   4   4   4   4   4
#     4  10  21  37  64  88 121 159 205 256 314 366
#     4  10  20  38  59  90 122 159 209 254 299 375
#     4  10  21  38  64  87 116 159 206 260 306 373
#     4  11  21  35  64  89 125 166 206 254 310 368
#     4   9  20  34  56  88 115 158 210 244 294 380
#     4  11  21  38  65  90 126 161 203 261 316 371
#     4  10  21  36  64  85 125 159 207 254 316 365
#     4   9  21  37  60  91 115 154 212 253 302 384
#
# _framework density 21.026319999999998
#
# number of rings (size 3 to 8) (size 9 to 14) (size 15 to 20)
#    0.000    2.000    2.500    0.750    5.250    2.000 
#    0.000    0.000   13.750   11.250    0.000    0.000 
#    0.000    0.000    0.000    0.000    0.000    0.000 
#
# Total GULP energy -396643.699913 kJ/mol
# GULP energy per Si atom -12395.115622 kJ/mol
# Density = 2.097846 g / cm^3
# Si number density = 21.026320 Si / 1000 Ang^3
#
#
#
# Elastic Constant Matrix: (Units=GPa)
#
#
# Indices 1 2 3 4 5 6 
#
# 1 109.0332 22.5216 58.5733 0.0000 0.0000 0.0000
# 2 22.5216 48.4217 41.7846 0.0000 0.0000 0.0000
# 3 58.5733 41.7846 167.7251 0.0000 0.0000 0.0000
# 4 0.0000 0.0000 0.0000 25.6215 0.0000 0.0000
# 5 0.0000 0.0000 0.0000 0.0000 36.3606 0.0000
# 6 0.0000 0.0000 0.0000 0.0000 0.0000 32.8190
#
#
#
# Elastic Compliance Matrix: (Units=1/GPa)
#
#
# Indices 1 2 3 4 5 6 
#
# 1 0.011504 -0.002400 -0.003420 0.000000 0.000000 0.000000
# 2 -0.002400 0.026808 -0.005840 0.000000 0.000000 0.000000
# 3 -0.003420 -0.005840 0.008611 0.000000 0.000000 0.000000
# 4 0.000000 0.000000 0.000000 0.039030 0.000000 0.000000
# 5 0.000000 0.000000 0.000000 0.000000 0.027502 0.000000
# 6 0.000000 0.000000 0.000000 0.000000 0.000000 0.030470
#
#
# Mechanical properties :
#
#
# Convention : Reuss Voigt Hill
#
# Bulk Modulus (GPa) = 42.36633 63.43769 52.90201
# Shear Modulus (GPa) = 28.55285 32.44692 30.49989
#
# Velocity S-wave (km/s) = 3.68905 3.93257 3.81275
# Velocity P-wave (km/s) = 6.19180 7.13135 6.67812
#
# Compressibility (1/GPa) = 0.02360365
#
# Stress axis : x y z
#
# Youngs Moduli (GPa) = 86.92402 37.30226 116.12540
#
# Poissons Ratio (x) = 0.08952 0.39711
# Poissons Ratio (y) = 0.20861 0.67823
# Poissons Ratio (z) = 0.29725 0.21786
#
# Static dielectric constant tensor:
#      x y z
#    x 4.192890 0.000000 0.000000 
#    y 0.000000 3.360160 0.000000 
#    z 0.000000 0.000000 4.174780 
# 
# 
# High freq. dielectric constant tensor:
#      x y z
#    x 1.842660 0.000000 0.000000 
#    y 0.000000 1.780850 0.000000 
#    z 0.000000 0.000000 1.824980 
# 
# From -- ./inp_files/5535.got.cif
#   From: 2010.03.12/outbox.cif.g09.slc.cpg/sg30_3_cif.got.tgz:5535.got - 2010.04.14 01:38:02.
