data_PCOD8169704
_publ_section_title
;
Structure prediction by ZEFSAII (Michael W. Deem and Ramdas Pophale) SiO2 
 PCOD8169704
Probable space group: P M N 21
;
_chemical_formula_sum "Si O2"
_cell_formula_units_Z 32
_cell_length_a 9.348680
_cell_length_b 12.138067
_cell_length_c 14.602630
_cell_angle_alpha 90.000000
_cell_angle_beta 90.000000
_cell_angle_gamma 90.000000
_cell_volume 1657.032040
_symmetry_space_group_name_H-M "P M N 21"
_symmetry_group_IT_number 31
_symmetry_cell_setting 'orthorhombic'
loop_
_space_group_symop_operation_xyz
x,y,z
1/2-x,-y,1/2+z
-x,y,z
1/2+x,-y,1/2+z
loop_
_atom_site_type_symbol
_atom_site_label
_atom_site_fract_x
_atom_site_fract_y
_atom_site_fract_z
Si Si1 0.334125 0.506766 0.732740
Si Si2 0.169522 0.910719 0.340876
Si Si3 0.664014 0.891979 0.972818
Si Si4 0.170673 0.667314 0.377167
Si Si5 0.661625 0.403558 0.070220
Si Si6 0.838685 0.262178 0.314916
Si Si7 0.669796 0.037232 0.635301
Si Si8 0.161725 0.831801 0.660526
O O1 0.500000 0.497419 0.708366
O O2 0.279367 0.398602 0.786411
O O3 0.253146 0.517718 0.636184
O O4 0.303677 0.609422 0.800815
O O5 0.231196 0.792035 0.373396
O O6 0.221644 0.930632 0.236919
O O7 0.000000 0.907659 0.340767
O O8 0.221221 0.008445 0.407651
O O9 0.500000 0.914835 0.002165
O O10 0.675496 0.774622 0.920359
O O11 0.765257 0.877693 0.061316
O O12 0.225594 0.601041 0.467171
O O13 0.000000 0.670275 0.382570
O O14 0.500000 0.449251 0.071757
O O15 0.667111 0.278563 0.102909
O O16 0.728586 0.186794 0.260061
O O17 0.000000 0.235905 0.279675
O O18 0.500000 0.031731 0.625877
O O19 0.742403 0.921168 0.607712
O O20 0.000000 0.874924 0.671250
#
# Coordination Sequence:
#
# PCOD8169704 Si02
#       8
#     4   4   4   4   4   4   4   4
#     4   9  18  33  55  79 102 132 172 219 262 306
#     4   9  18  34  54  74 103 141 175 209 256 312
#     4  10  19  34  53  74 103 140 176 210 258 319
#     4   9  17  33  55  76 101 138 180 210 250 316
#     4   9  18  33  55  80 102 134 179 219 256 309
#     4   9  17  32  52  73 100 132 169 212 262 307
#     4  11  21  33  50  77 108 139 174 214 260 311
#     4  10  18  30  52  77 103 134 173 217 258 304
#
# _framework density 19.311637000000001
#
# number of rings (size 3 to 8) (size 9 to 14) (size 15 to 20)
#    0.000    2.500    1.250    1.500    0.000    3.000 
#    2.250    0.625    0.000    3.000    0.000    0.000 
#    0.000    0.000    0.000    0.000    0.000    0.000 
#
# Total GULP energy -396666.496806 kJ/mol
# GULP energy per Si atom -12395.828025 kJ/mol
# Density = 1.926768 g / cm^3
# Si number density = 19.311637 Si / 1000 Ang^3
#
#
#
# Elastic Constant Matrix: (Units=GPa)
#
#
# Indices 1 2 3 4 5 6 
#
# 1 58.9212 5.8971 26.1245 0.0000 0.0000 0.0000
# 2 5.8971 46.5587 9.7944 0.0000 0.0000 0.0000
# 3 26.1245 9.7944 98.4693 0.0000 0.0000 0.0000
# 4 0.0000 0.0000 0.0000 23.7042 0.0000 0.0000
# 5 0.0000 0.0000 0.0000 0.0000 32.0529 0.0000
# 6 0.0000 0.0000 0.0000 0.0000 0.0000 16.7851
#
#
#
# Elastic Compliance Matrix: (Units=1/GPa)
#
#
# Indices 1 2 3 4 5 6 
#
# 1 0.019323 -0.001398 -0.004987 0.000000 0.000000 0.000000
# 2 -0.001398 0.022038 -0.001821 0.000000 0.000000 0.000000
# 3 -0.004987 -0.001821 0.011660 0.000000 0.000000 0.000000
# 4 0.000000 0.000000 0.000000 0.042187 0.000000 0.000000
# 5 0.000000 0.000000 0.000000 0.000000 0.031198 0.000000
# 6 0.000000 0.000000 0.000000 0.000000 0.000000 0.059577
#
#
# Mechanical properties :
#
#
# Convention : Reuss Voigt Hill
#
# Bulk Modulus (GPa) = 27.31668 31.95346 29.63507
# Shear Modulus (GPa) = 23.29922 25.31731 24.30827
#
# Velocity S-wave (km/s) = 3.47722 3.62468 3.55172
# Velocity P-wave (km/s) = 5.50430 5.83951 5.67438
#
# Compressibility (1/GPa) = 0.03660767
#
# Stress axis : x y z
#
# Youngs Moduli (GPa) = 51.75152 45.37522 85.76480
#
# Poissons Ratio (x) = 0.06345 0.42775
# Poissons Ratio (y) = 0.07236 0.15619
# Poissons Ratio (z) = 0.25811 0.08263
#
# Static dielectric constant tensor:
#      x y z
#    x 3.359030 0.000000 0.000000 
#    y 0.000000 3.541750 0.000000 
#    z 0.000000 0.000000 3.610250 
# 
# 
# High freq. dielectric constant tensor:
#      x y z
#    x 1.719160 0.000000 0.000000 
#    y 0.000000 1.740370 0.000000 
#    z 0.000000 0.000000 1.753020 
# 
# From -- ./inp_files/5115.got.cif
#   From: 2010.03.12/outbox.cif.g09.slc.cpg/sg31_3_cif.got.tgz:5115.got - 2010.04.14 01:42:59.
