data_PCOD8169669
_publ_section_title
;
Structure prediction by ZEFSAII (Michael W. Deem and Ramdas Pophale) SiO2 
 PCOD8169669
Probable space group: P N C 2
;
_chemical_formula_sum "Si O2"
_cell_formula_units_Z 20
_cell_length_a 10.655510
_cell_length_b 8.413644
_cell_length_c 9.263267
_cell_angle_alpha 90.000000
_cell_angle_beta 90.000000
_cell_angle_gamma 90.000000
_cell_volume 830.467336
_symmetry_space_group_name_H-M "P N C 2"
_symmetry_group_IT_number 30
_symmetry_cell_setting 'orthorhombic'
loop_
_space_group_symop_operation_xyz
x,y,z
-x,-y,z
-x,1/2+y,1/2+z
x,1/2-y,1/2+z
loop_
_atom_site_type_symbol
_atom_site_label
_atom_site_fract_x
_atom_site_fract_y
_atom_site_fract_z
Si Si1 0.750000 0.135269 0.496650
Si Si2 0.002451 0.826469 0.938944
Si Si3 0.148674 0.146641 0.666008
Si Si4 0.648674 0.853359 0.327292
Si Si5 0.502451 0.173531 0.054356
O O1 0.861724 0.247236 0.442960
O O2 0.638276 0.247236 0.550340
O O3 0.796312 0.027644 0.631241
O O4 0.703688 0.027644 0.362059
O O5 0.971204 0.855767 0.770770
O O6 0.000000 0.000000 0.016350
O O7 0.895474 0.718887 0.013016
O O8 0.250000 0.250000 0.746650
O O9 0.604526 0.781113 0.480284
O O10 0.528796 0.855767 0.222530
O O11 0.500000 0.000000 0.976950
#
# Coordination Sequence:
#
# PCOD8169669 Si02
#       5
#     4   4   4   4   4
#     4  12  28  52  80 110 162 202 256 322 382 458
#     4  12  29  48  78 113 152 203 258 313 385 454
#     4  12  27  50  77 111 154 201 255 319 379 456
#     4  12  27  50  77 111 154 201 255 319 379 456
#     4  12  29  48  78 113 152 203 258 313 385 454
#
# _framework density 24.082825
#
# number of rings (size 3 to 8) (size 9 to 14) (size 15 to 20)
#    0.000    0.000    4.000    3.600   11.200    3.200 
#    0.000    0.000    0.000    0.000    0.000    0.000 
#    0.000    0.000    0.000    0.000    0.000    0.000 
#
# Total GULP energy -248048.417585 kJ/mol
# GULP energy per Si atom -12402.420879 kJ/mol
# Density = 2.402801 g / cm^3
# Si number density = 24.082825 Si / 1000 Ang^3
#
#
#
# Elastic Constant Matrix: (Units=GPa)
#
#
# Indices 1 2 3 4 5 6 
#
# 1 167.3618 104.5072 69.7783 0.0000 0.0000 0.0000
# 2 104.5072 189.0016 49.4200 0.0000 0.0000 0.0000
# 3 69.7783 49.4200 128.5922 0.0000 0.0000 0.0000
# 4 0.0000 0.0000 0.0000 32.0465 0.0000 0.0000
# 5 0.0000 0.0000 0.0000 0.0000 49.9419 0.0000
# 6 0.0000 0.0000 0.0000 0.0000 0.0000 66.4965
#
#
#
# Elastic Compliance Matrix: (Units=1/GPa)
#
#
# Indices 1 2 3 4 5 6 
#
# 1 0.010639 -0.004862 -0.003905 0.000000 0.000000 0.000000
# 2 -0.004862 0.008104 -0.000476 0.000000 0.000000 0.000000
# 3 -0.003905 -0.000476 0.010078 0.000000 0.000000 0.000000
# 4 0.000000 0.000000 0.000000 0.031205 0.000000 0.000000
# 5 0.000000 0.000000 0.000000 0.000000 0.020023 0.000000
# 6 0.000000 0.000000 0.000000 0.000000 0.000000 0.015038
#
#
# Mechanical properties :
#
#
# Convention : Reuss Voigt Hill
#
# Bulk Modulus (GPa) = 96.75098 103.59628 100.17363
# Shear Modulus (GPa) = 42.72863 47.11366 44.92114
#
# Velocity S-wave (km/s) = 4.21674 4.42783 4.32357
# Velocity P-wave (km/s) = 7.99808 8.32171 8.16150
#
# Compressibility (1/GPa) = 0.01033581
#
# Stress axis : x y z
#
# Youngs Moduli (GPa) = 93.99500 123.39964 99.22311
#
# Poissons Ratio (x) = 0.59994 0.38742
# Poissons Ratio (y) = 0.45698 0.04726
# Poissons Ratio (z) = 0.36701 0.05877
#
# Static dielectric constant tensor:
#      x y z
#    x 4.776400 0.000000 0.000000 
#    y 0.000000 4.603740 0.000000 
#    z 0.000000 0.000000 4.475040 
# 
# 
# High freq. dielectric constant tensor:
#      x y z
#    x 1.977290 0.000000 0.000000 
#    y 0.000000 1.971310 0.000000 
#    z 0.000000 0.000000 1.953890 
# 
# From -- ./inp_files/2276.got.cif
#   From: 2010.03.12/outbox.cif.g09.slc.cpg/sg30_2_cif.got.tgz:2276.got - 2010.04.14 01:38:02.
