data_PCOD8169459
_publ_section_title
;
Structure prediction by ZEFSAII (Michael W. Deem and Ramdas Pophale) SiO2 
 PCOD8169459
Probable space group: P N C 2
;
_chemical_formula_sum "Si O2"
_cell_formula_units_Z 32
_cell_length_a 11.781712
_cell_length_b 8.801178
_cell_length_c 14.006650
_cell_angle_alpha 90.000000
_cell_angle_beta 90.000000
_cell_angle_gamma 90.000000
_cell_volume 1452.390780
_symmetry_space_group_name_H-M "P N C 2"
_symmetry_group_IT_number 30
_symmetry_cell_setting 'orthorhombic'
loop_
_space_group_symop_operation_xyz
x,y,z
-x,-y,z
-x,1/2+y,1/2+z
x,1/2-y,1/2+z
loop_
_atom_site_type_symbol
_atom_site_label
_atom_site_fract_x
_atom_site_fract_y
_atom_site_fract_z
Si Si1 0.949583 0.341528 0.226620
Si Si2 0.659996 0.863589 0.611117
Si Si3 0.777125 0.430286 0.388396
Si Si4 0.827356 0.666619 0.727208
Si Si5 0.539975 0.337182 0.413654
Si Si6 0.201023 0.869305 0.109109
Si Si7 0.413571 0.700796 0.106398
Si Si8 0.304651 0.262780 0.895002
O O1 0.874658 0.367739 0.320676
O O2 0.878357 0.269502 0.140605
O O3 0.000000 0.500000 0.188647
O O4 0.048025 0.223423 0.254889
O O5 0.760758 0.805420 0.677303
O O6 0.541232 0.788385 0.647627
O O7 0.689656 0.824823 0.501887
O O8 0.649327 0.042665 0.626694
O O9 0.654253 0.364792 0.351535
O O10 0.805554 0.376549 0.495249
O O11 0.773051 0.612109 0.389502
O O12 0.838155 0.525007 0.656879
O O13 0.758249 0.619642 0.823528
O O14 0.500000 0.500000 0.459403
O O15 0.571525 0.214180 0.492815
O O16 0.432436 0.271321 0.355092
O O17 0.331193 0.835576 0.142565
#
# Coordination Sequence:
#
# PCOD8169459 Si02
#       8
#     4   4   4   4   4   4   4   4
#     4  12  26  44  66  94 130 171 234 280 324 405
#     4  10  21  41  66  98 136 175 219 273 338 403
#     4  10  21  44  70  93 134 185 214 274 348 404
#     4  12  25  41  64 100 132 171 232 282 321 408
#     4   8  17  35  66  97 129 171 222 264 335 410
#     4  11  25  45  70 100 132 175 223 283 343 400
#     4   9  20  38  65  97 136 172 216 271 338 408
#     4  10  20  40  69  98 133 175 214 275 339 400
#
# _framework density 22.032639
#
# number of rings (size 3 to 8) (size 9 to 14) (size 15 to 20)
#    0.000    1.750    2.500    1.125    1.750    5.000 
#    4.500    5.000    0.000    0.000    0.000    0.000 
#    0.000    0.000    0.000    0.000    0.000    0.000 
#
# Total GULP energy -396619.781517 kJ/mol
# GULP energy per Si atom -12394.368172 kJ/mol
# Density = 2.198249 g / cm^3
# Si number density = 22.032639 Si / 1000 Ang^3
#
#
#
# Elastic Constant Matrix: (Units=GPa)
#
#
# Indices 1 2 3 4 5 6 
#
# 1 139.1616 37.4899 47.4459 0.0000 0.0000 0.0000
# 2 37.4899 66.8197 21.5943 0.0000 0.0000 0.0000
# 3 47.4459 21.5943 82.0667 0.0000 0.0000 0.0000
# 4 0.0000 0.0000 0.0000 26.5244 0.0000 0.0000
# 5 0.0000 0.0000 0.0000 0.0000 35.0706 0.0000
# 6 0.0000 0.0000 0.0000 0.0000 0.0000 35.7194
#
#
#
# Elastic Compliance Matrix: (Units=1/GPa)
#
#
# Indices 1 2 3 4 5 6 
#
# 1 0.009852 -0.004029 -0.004635 0.000000 0.000000 0.000000
# 2 -0.004029 0.018005 -0.002408 0.000000 0.000000 0.000000
# 3 -0.004635 -0.002408 0.015499 0.000000 0.000000 0.000000
# 4 0.000000 0.000000 0.000000 0.037701 0.000000 0.000000
# 5 0.000000 0.000000 0.000000 0.000000 0.028514 0.000000
# 6 0.000000 0.000000 0.000000 0.000000 0.000000 0.027996
#
#
# Mechanical properties :
#
#
# Convention : Reuss Voigt Hill
#
# Bulk Modulus (GPa) = 47.14883 55.67867 51.41375
# Shear Modulus (GPa) = 29.97931 31.56409 30.77170
#
# Velocity S-wave (km/s) = 3.69274 3.78908 3.74122
# Velocity P-wave (km/s) = 6.29506 6.66849 6.48446
#
# Compressibility (1/GPa) = 0.02120943
#
# Stress axis : x y z
#
# Youngs Moduli (GPa) = 101.50403 55.54141 64.52126
#
# Poissons Ratio (x) = 0.22380 0.29909
# Poissons Ratio (y) = 0.40900 0.15537
# Poissons Ratio (z) = 0.47052 0.13374
#
# Static dielectric constant tensor:
#      x y z
#    x 4.377580 0.000000 0.000000 
#    y 0.000000 3.927230 0.000000 
#    z 0.000000 0.000000 3.723210 
# 
# 
# High freq. dielectric constant tensor:
#      x y z
#    x 1.883650 0.000000 0.000000 
#    y 0.000000 1.857990 0.000000 
#    z 0.000000 0.000000 1.849450 
# 
# From -- ./inp_files/5542.got.cif
#   From: 2010.03.12/outbox.cif.g09.slc.cpg/sg30_3_cif.got.tgz:5542.got - 2010.04.14 01:38:02.
