data_PCOD8169627
_publ_section_title
;
Structure prediction by ZEFSAII (Michael W. Deem and Ramdas Pophale) SiO2 
 PCOD8169627
Probable space group: P N C 2
;
_chemical_formula_sum "Si O2"
_cell_formula_units_Z 24
_cell_length_a 4.864177
_cell_length_b 14.993485
_cell_length_c 16.210412
_cell_angle_alpha 90.000000
_cell_angle_beta 90.000000
_cell_angle_gamma 90.000000
_cell_volume 1182.240988
_symmetry_space_group_name_H-M "P N C 2"
_symmetry_group_IT_number 30
_symmetry_cell_setting 'orthorhombic'
loop_
_space_group_symop_operation_xyz
x,y,z
-x,-y,z
-x,1/2+y,1/2+z
x,1/2-y,1/2+z
loop_
_atom_site_type_symbol
_atom_site_label
_atom_site_fract_x
_atom_site_fract_y
_atom_site_fract_z
Si Si1 0.368230 0.200387 0.951660
Si Si2 0.748096 0.560411 0.588718
Si Si3 0.568095 0.312129 0.093387
Si Si4 0.073283 0.230514 0.176839
Si Si5 0.125189 0.814028 0.841861
Si Si6 0.500000 0.500000 0.151737
Si Si7 0.000000 0.500000 0.264203
O O1 0.061174 0.214332 0.918931
O O2 0.560729 0.192256 0.871381
O O3 0.377201 0.114247 0.011131
O O4 0.452467 0.286881 0.003943
O O5 0.500000 0.500000 0.624746
O O6 0.861208 0.626094 0.660688
O O7 0.000000 0.500000 0.557740
O O8 0.359216 0.283230 0.166330
O O9 0.603124 0.418591 0.095215
O O10 0.860516 0.264592 0.107341
O O11 0.938034 0.247566 0.265970
O O12 0.080771 0.916860 0.820050
O O13 0.250573 0.467390 0.208242
#
# Coordination Sequence:
#
# PCOD8169627 Si02
#       7
#     4   4   4   4   4   2   2
#     4  11  25  38  60  90 128 158 190 249 317 363
#     4  11  23  41  63  90 118 163 214 254 296 363
#     4  11  21  41  61  90 119 163 204 244 299 366
#     4  11  22  41  63  85 123 163 204 247 300 364
#     4  12  23  40  60  91 129 156 192 250 315 371
#     4  12  20  40  66  90 116 154 214 252 286 372
#     4  12  24  36  60  98 122 150 196 254 316 364
#
# _framework density 20.300431
#
# number of rings (size 3 to 8) (size 9 to 14) (size 15 to 20)
#    0.000    0.667    3.333    7.000    3.500    0.000 
#    0.000    0.000    5.500    0.000    0.000    0.000 
#    0.000    0.000    0.000    0.000    0.000    0.000 
#
# Total GULP energy -297666.116066 kJ/mol
# GULP energy per Si atom -12402.754836 kJ/mol
# Density = 2.025423 g / cm^3
# Si number density = 20.300431 Si / 1000 Ang^3
#
#
#
# Elastic Constant Matrix: (Units=GPa)
#
#
# Indices 1 2 3 4 5 6 
#
# 1 82.7466 25.0146 4.9366 0.0000 0.0000 0.0000
# 2 25.0146 103.9780 42.6651 0.0000 0.0000 0.0000
# 3 4.9366 42.6651 87.1690 0.0000 0.0000 0.0000
# 4 0.0000 0.0000 0.0000 38.2006 0.0000 0.0000
# 5 0.0000 0.0000 0.0000 0.0000 36.5836 0.0000
# 6 0.0000 0.0000 0.0000 0.0000 0.0000 32.2620
#
#
#
# Elastic Compliance Matrix: (Units=1/GPa)
#
#
# Indices 1 2 3 4 5 6 
#
# 1 0.013103 -0.003563 0.001002 0.000000 0.000000 0.000000
# 2 -0.003563 0.013003 -0.006163 0.000000 0.000000 0.000000
# 3 0.001002 -0.006163 0.014432 0.000000 0.000000 0.000000
# 4 0.000000 0.000000 0.000000 0.026178 0.000000 0.000000
# 5 0.000000 0.000000 0.000000 0.000000 0.027335 0.000000
# 6 0.000000 0.000000 0.000000 0.000000 0.000000 0.030996
#
#
# Mechanical properties :
#
#
# Convention : Reuss Voigt Hill
#
# Bulk Modulus (GPa) = 43.30977 46.56956 44.93966
# Shear Modulus (GPa) = 33.29106 34.82775 34.05941
#
# Velocity S-wave (km/s) = 4.05398 4.14649 4.10050
# Velocity P-wave (km/s) = 6.57980 6.77603 6.67863
#
# Compressibility (1/GPa) = 0.02308948
#
# Stress axis : x y z
#
# Youngs Moduli (GPa) = 76.32128 76.90291 69.29242
#
# Poissons Ratio (x) = 0.27403 -0.06943
# Poissons Ratio (y) = 0.27196 0.42703
# Poissons Ratio (z) = -0.07648 0.47393
#
# Static dielectric constant tensor:
#      x y z
#    x 3.972840 0.000000 0.000000 
#    y 0.000000 3.617890 0.000000 
#    z 0.000000 0.000000 3.446380 
# 
# 
# High freq. dielectric constant tensor:
#      x y z
#    x 1.820310 0.000000 0.000000 
#    y 0.000000 1.784900 0.000000 
#    z 0.000000 0.000000 1.770520 
# 
# From -- ./inp_files/4692.got.cif
#   From: 2010.03.12/outbox.cif.g09.slc.cpg/sg30_3_cif.got.tgz:4692.got - 2010.04.14 01:38:02.
