data_PCOD8169630
_publ_section_title
;
Structure prediction by ZEFSAII (Michael W. Deem and Ramdas Pophale) SiO2 
 PCOD8169630
Probable space group: P N C 2
;
_chemical_formula_sum "Si O2"
_cell_formula_units_Z 32
_cell_length_a 11.339605
_cell_length_b 8.389796
_cell_length_c 14.878505
_cell_angle_alpha 90.000000
_cell_angle_beta 90.000000
_cell_angle_gamma 90.000000
_cell_volume 1415.495924
_symmetry_space_group_name_H-M "P N C 2"
_symmetry_group_IT_number 30
_symmetry_cell_setting 'orthorhombic'
loop_
_space_group_symop_operation_xyz
x,y,z
-x,-y,z
-x,1/2+y,1/2+z
x,1/2-y,1/2+z
loop_
_atom_site_type_symbol
_atom_site_label
_atom_site_fract_x
_atom_site_fract_y
_atom_site_fract_z
Si Si1 0.635670 0.819377 0.434410
Si Si2 0.128614 0.325626 0.368141
Si Si3 0.470406 0.822516 0.792665
Si Si4 0.978658 0.321538 0.024367
Si Si5 0.999058 0.318250 0.711501
Si Si6 0.283311 0.829224 0.487298
Si Si7 0.210864 0.838628 0.810532
Si Si8 0.500571 0.811175 0.598941
O O1 0.739639 0.710922 0.398308
O O2 0.517905 0.799248 0.370235
O O3 0.603981 0.750360 0.532923
O O4 0.678492 0.000560 0.445244
O O5 0.131211 0.504571 0.328816
O O6 0.033052 0.298508 0.448855
O O7 0.099789 0.210458 0.285131
O O8 0.334379 0.843186 0.758065
O O9 0.529589 0.756083 0.700355
O O10 0.500000 0.000000 0.824658
O O11 0.030982 0.284760 0.122824
O O12 0.839320 0.319523 0.039782
O O13 0.000000 0.500000 0.990246
O O14 0.873596 0.281003 0.757614
O O15 0.000000 0.500000 0.680340
O O16 0.264624 0.714742 0.404519
O O17 0.376534 0.754141 0.556648
O O18 0.500000 0.000000 0.597023
#
# Coordination Sequence:
#
# PCOD8169630 Si02
#       8
#     4   4   4   4   4   4   4   4
#     4  11  22  42  69 100 139 184 232 293 358 424
#     4  12  25  44  71 103 143 187 237 292 359 429
#     4  11  22  42  70 103 141 183 236 297 355 423
#     4  12  25  45  73 101 140 187 234 297 367 428
#     4  12  28  46  68 106 143 180 246 301 356 430
#     4  11  22  41  71  95 137 184 236 288 357 423
#     4  12  24  43  75  97 139 193 238 290 360 418
#     4   9  21  38  65  99 134 179 234 283 349 424
#
# _framework density 22.606916999999999
#
# number of rings (size 3 to 8) (size 9 to 14) (size 15 to 20)
#    0.000    0.750    5.000    3.000    1.750    1.000 
#    0.000    0.000    5.500    0.000    0.000    0.000 
#    0.000    0.000    0.000    0.000    0.000    0.000 
#
# Total GULP energy -396447.902934 kJ/mol
# GULP energy per Si atom -12388.996967 kJ/mol
# Density = 2.255546 g / cm^3
# Si number density = 22.606917 Si / 1000 Ang^3
#
#
#
# Elastic Constant Matrix: (Units=GPa)
#
#
# Indices 1 2 3 4 5 6 
#
# 1 104.5908 23.7300 14.0449 0.0000 0.0000 0.0000
# 2 23.7300 68.4211 19.8180 0.0000 0.0000 0.0000
# 3 14.0449 19.8180 130.4489 0.0000 0.0000 0.0000
# 4 0.0000 0.0000 0.0000 24.4599 0.0000 0.0000
# 5 0.0000 0.0000 0.0000 0.0000 35.3848 0.0000
# 6 0.0000 0.0000 0.0000 0.0000 0.0000 32.4746
#
#
#
# Elastic Compliance Matrix: (Units=1/GPa)
#
#
# Indices 1 2 3 4 5 6 
#
# 1 0.010422 -0.003441 -0.000599 0.000000 0.000000 0.000000
# 2 -0.003441 0.016424 -0.002125 0.000000 0.000000 0.000000
# 3 -0.000599 -0.002125 0.008053 0.000000 0.000000 0.000000
# 4 0.000000 0.000000 0.000000 0.040883 0.000000 0.000000
# 5 0.000000 0.000000 0.000000 0.000000 0.028261 0.000000
# 6 0.000000 0.000000 0.000000 0.000000 0.000000 0.030793
#
#
# Mechanical properties :
#
#
# Convention : Reuss Voigt Hill
#
# Bulk Modulus (GPa) = 44.30779 46.51629 45.41204
# Shear Modulus (GPa) = 32.32261 34.85503 33.58882
#
# Velocity S-wave (km/s) = 3.78533 3.93082 3.85876
# Velocity P-wave (km/s) = 6.22469 6.42048 6.32334
#
# Compressibility (1/GPa) = 0.02256939
#
# Stress axis : x y z
#
# Youngs Moduli (GPa) = 95.94828 60.88561 124.17494
#
# Poissons Ratio (x) = 0.20951 0.07442
# Poissons Ratio (y) = 0.33017 0.26384
# Poissons Ratio (z) = 0.05751 0.12936
#
# Static dielectric constant tensor:
#      x y z
#    x 3.630770 0.000000 0.000000 
#    y 0.000000 3.936660 0.000000 
#    z 0.000000 0.000000 4.638510 
# 
# 
# High freq. dielectric constant tensor:
#      x y z
#    x 1.908010 0.000000 0.000000 
#    y 0.000000 1.867180 0.000000 
#    z 0.000000 0.000000 1.904990 
# 
# From -- ./inp_files/5534.got.cif
#   From: 2010.03.12/outbox.cif.g09.slc.cpg/sg30_3_cif.got.tgz:5534.got - 2010.04.14 01:38:02.
