data_PCOD8169974
_publ_section_title
;
Structure prediction by ZEFSAII (Michael W. Deem and Ramdas Pophale) SiO2 
 PCOD8169974
Probable space group: P M N 21
;
_chemical_formula_sum "Si O2"
_cell_formula_units_Z 32
_cell_length_a 8.443375
_cell_length_b 35.550022
_cell_length_c 5.054717
_cell_angle_alpha 90.000000
_cell_angle_beta 90.000000
_cell_angle_gamma 90.000000
_cell_volume 1517.234808
_symmetry_space_group_name_H-M "P M N 21"
_symmetry_group_IT_number 31
_symmetry_cell_setting 'orthorhombic'
loop_
_space_group_symop_operation_xyz
x,y,z
1/2-x,-y,1/2+z
-x,y,z
1/2+x,-y,1/2+z
loop_
_atom_site_type_symbol
_atom_site_label
_atom_site_fract_x
_atom_site_fract_y
_atom_site_fract_z
Si Si1 0.684088 0.980802 0.760640
Si Si2 0.187875 0.650750 0.755869
Si Si3 0.315718 0.143410 0.821514
Si Si4 0.184191 0.771061 0.256211
Si Si5 0.682945 0.732926 0.756655
Si Si6 0.812872 0.604571 0.258883
Si Si7 0.314080 0.480091 0.771159
Si Si8 0.815841 0.104948 0.321442
O O1 0.500000 0.985149 0.827814
O O2 0.739974 0.937924 0.790685
O O3 0.716819 0.993552 0.461601
O O4 0.275734 0.689680 0.801009
O O5 0.250857 0.631806 0.488000
O O6 0.000000 0.658042 0.754971
O O7 0.241569 0.622123 0.983169
O O8 0.500000 0.139426 0.754543
O O9 0.258507 0.186223 0.791451
O O10 0.217418 0.117597 0.620522
O O11 0.283189 0.130612 0.120482
O O12 0.278706 0.744437 0.456770
O O13 0.000000 0.766853 0.320733
O O14 0.216821 0.758579 0.956681
O O15 0.500000 0.739634 0.816943
O O16 0.746663 0.562406 0.288382
O O17 0.000000 0.602327 0.276284
O O18 0.283278 0.494888 0.476653
O O19 0.500000 0.481922 0.835528
O O20 0.000000 0.109326 0.254919
#
# Coordination Sequence:
#
# PCOD8169974 Si02
#       8
#     4   4   4   4   4   4   4   4
#     4  11  24  41  62  90 122 160 203 248 297 355
#     4  10  19  36  60  83 110 154 201 240 286 347
#     4  11  24  41  64  92 120 155 204 251 292 345
#     4  11  24  43  64  88 120 161 204 243 287 355
#     4  12  25  40  61  93 125 154 193 248 305 353
#     4   9  19  35  58  83 111 152 201 240 281 349
#     4  11  22  39  61  89 121 156 199 246 295 353
#     4  11  24  41  62  90 125 160 197 244 305 363
#
# _framework density 21.091000000000001
#
# number of rings (size 3 to 8) (size 9 to 14) (size 15 to 20)
#    0.000    1.250    0.000    6.000    0.000   13.000 
#    0.000    3.750    0.000    0.000    0.000    0.000 
#    0.000    0.000    0.000    0.000    0.000    0.000 
#
# Total GULP energy -397064.396817 kJ/mol
# GULP energy per Si atom -12408.262401 kJ/mol
# Density = 2.104300 g / cm^3
# Si number density = 21.091000 Si / 1000 Ang^3
#
#
#
# Elastic Constant Matrix: (Units=GPa)
#
#
# Indices 1 2 3 4 5 6 
#
# 1 47.9184 39.1765 11.3455 0.0000 0.0000 0.0000
# 2 39.1765 108.1835 8.0634 0.0000 0.0000 0.0000
# 3 11.3455 8.0634 85.5889 0.0000 0.0000 0.0000
# 4 0.0000 0.0000 0.0000 44.4525 0.0000 0.0000
# 5 0.0000 0.0000 0.0000 0.0000 38.7052 0.0000
# 6 0.0000 0.0000 0.0000 0.0000 0.0000 26.1161
#
#
#
# Elastic Compliance Matrix: (Units=1/GPa)
#
#
# Indices 1 2 3 4 5 6 
#
# 1 0.030399 -0.010784 -0.003014 0.000000 0.000000 0.000000
# 2 -0.010784 0.013134 0.000192 0.000000 0.000000 0.000000
# 3 -0.003014 0.000192 0.012065 0.000000 0.000000 0.000000
# 4 0.000000 0.000000 0.000000 0.022496 0.000000 0.000000
# 5 0.000000 0.000000 0.000000 0.000000 0.025836 0.000000
# 6 0.000000 0.000000 0.000000 0.000000 0.000000 0.038291
#
#
# Mechanical properties :
#
#
# Convention : Reuss Voigt Hill
#
# Bulk Modulus (GPa) = 35.22654 39.87349 37.55001
# Shear Modulus (GPa) = 27.94951 34.06178 31.00564
#
# Velocity S-wave (km/s) = 3.64426 4.02305 3.83833
# Velocity P-wave (km/s) = 5.86907 6.36604 6.12260
#
# Compressibility (1/GPa) = 0.02838769
#
# Stress axis : x y z
#
# Youngs Moduli (GPa) = 32.89617 76.13642 82.88335
#
# Poissons Ratio (x) = 0.82103 0.24978
# Poissons Ratio (y) = 0.35474 -0.01592
# Poissons Ratio (z) = 0.09914 -0.01462
#
# Static dielectric constant tensor:
#      x y z
#    x 3.584880 0.000000 0.000000 
#    y 0.000000 3.969050 0.000000 
#    z 0.000000 0.000000 3.835890 
# 
# 
# High freq. dielectric constant tensor:
#      x y z
#    x 1.812990 0.000000 0.000000 
#    y 0.000000 1.842730 0.000000 
#    z 0.000000 0.000000 1.840070 
# 
# From -- ./inp_files/175.got.cif
#   From: 2010.03.12/outbox.cif.g09.slc.cpg/sg31_1_cif.got.tgz:175.got - 2010.04.14 01:42:59.
