data_PCOD8169909
_publ_section_title
;
Structure prediction by ZEFSAII (Michael W. Deem and Ramdas Pophale) SiO2 
 PCOD8169909
Probable space group: P M N 21
;
_chemical_formula_sum "Si O2"
_cell_formula_units_Z 32
_cell_length_a 8.589214
_cell_length_b 10.285748
_cell_length_c 19.256096
_cell_angle_alpha 90.000000
_cell_angle_beta 90.000000
_cell_angle_gamma 90.000000
_cell_volume 1701.208507
_symmetry_space_group_name_H-M "P M N 21"
_symmetry_group_IT_number 31
_symmetry_cell_setting 'orthorhombic'
loop_
_space_group_symop_operation_xyz
x,y,z
1/2-x,-y,1/2+z
-x,y,z
1/2+x,-y,1/2+z
loop_
_atom_site_type_symbol
_atom_site_label
_atom_site_fract_x
_atom_site_fract_y
_atom_site_fract_z
Si Si1 0.184513 0.371709 0.457970
Si Si2 0.316458 0.732840 0.814667
Si Si3 0.681184 0.877515 0.448941
Si Si4 0.182060 0.016315 0.668525
Si Si5 0.183627 0.264694 0.162248
Si Si6 0.818229 0.637297 0.528281
Si Si7 0.318244 0.129310 0.535973
Si Si8 0.316483 0.026139 0.814031
O O1 0.241540 0.358943 0.377443
O O2 0.236727 0.512742 0.484347
O O3 0.272779 0.266079 0.503360
O O4 0.000000 0.349471 0.464199
O O5 0.500000 0.738760 0.815136
O O6 0.261980 0.682422 0.738381
O O7 0.254556 0.879207 0.825952
O O8 0.500000 0.845961 0.457123
O O9 0.777364 0.765276 0.485885
O O10 0.729117 0.880813 0.368306
O O11 0.727487 0.014722 0.482996
O O12 0.237793 0.873293 0.645952
O O13 0.000000 0.014960 0.683821
O O14 0.221521 0.114696 0.606651
O O15 0.271435 0.068696 0.736432
O O16 0.000000 0.241936 0.160116
O O17 0.233946 0.366277 0.103223
O O18 0.000000 0.632673 0.542603
O O19 0.500000 0.126138 0.553519
O O20 0.500000 0.039674 0.825082
#
# Coordination Sequence:
#
# PCOD8169909 Si02
#       8
#     4   4   4   4   4   4   4   4
#     4  10  21  39  59  83 114 151 196 240 291 350
#     4   8  16  32  56  81 106 141 183 232 283 339
#     4  11  22  36  57  84 116 149 191 241 287 341
#     4  11  21  34  56  85 118 150 189 239 294 343
#     4  10  19  34  56  82 111 147 193 239 290 347
#     4  11  23  37  57  84 116 156 197 238 290 350
#     4  11  22  36  57  86 115 148 192 237 287 340
#     4  10  19  34  58  85 116 148 189 238 292 348
#
# _framework density 18.810158000000001
#
# number of rings (size 3 to 8) (size 9 to 14) (size 15 to 20)
#    0.000    1.750    2.500    3.750    0.000    2.000 
#    0.000    1.875    0.000    4.500    0.000    0.000 
#    0.000    0.000    0.000    0.000    0.000    0.000 
#
# Total GULP energy -396836.217994 kJ/mol
# GULP energy per Si atom -12401.131812 kJ/mol
# Density = 1.876735 g / cm^3
# Si number density = 18.810158 Si / 1000 Ang^3
#
#
#
# Elastic Constant Matrix: (Units=GPa)
#
#
# Indices 1 2 3 4 5 6 
#
# 1 42.8308 20.4888 17.2986 0.0000 0.0000 0.0000
# 2 20.4888 71.1840 45.6226 0.0000 0.0000 0.0000
# 3 17.2986 45.6226 149.3914 0.0000 0.0000 0.0000
# 4 0.0000 0.0000 0.0000 28.2694 0.0000 0.0000
# 5 0.0000 0.0000 0.0000 0.0000 32.9261 0.0000
# 6 0.0000 0.0000 0.0000 0.0000 0.0000 22.2123
#
#
#
# Elastic Compliance Matrix: (Units=1/GPa)
#
#
# Indices 1 2 3 4 5 6 
#
# 1 0.027182 -0.007220 -0.000943 0.000000 0.000000 0.000000
# 2 -0.007220 0.019384 -0.005084 0.000000 0.000000 0.000000
# 3 -0.000943 -0.005084 0.008356 0.000000 0.000000 0.000000
# 4 0.000000 0.000000 0.000000 0.035374 0.000000 0.000000
# 5 0.000000 0.000000 0.000000 0.000000 0.030371 0.000000
# 6 0.000000 0.000000 0.000000 0.000000 0.000000 0.045020
#
#
# Mechanical properties :
#
#
# Convention : Reuss Voigt Hill
#
# Bulk Modulus (GPa) = 35.17446 47.80291 41.48869
# Shear Modulus (GPa) = 24.79472 28.68130 26.73801
#
# Velocity S-wave (km/s) = 3.63458 3.90908 3.77432
# Velocity P-wave (km/s) = 6.02942 6.77075 6.41081
#
# Compressibility (1/GPa) = 0.02842972
#
# Stress axis : x y z
#
# Youngs Moduli (GPa) = 36.78906 51.58794 119.68119
#
# Poissons Ratio (x) = 0.37244 0.11283
# Poissons Ratio (y) = 0.26560 0.60844
# Poissons Ratio (z) = 0.03468 0.26226
#
# Static dielectric constant tensor:
#      x y z
#    x 3.352240 0.000000 0.000000 
#    y 0.000000 3.207150 0.000000 
#    z 0.000000 0.000000 3.907350 
# 
# 
# High freq. dielectric constant tensor:
#      x y z
#    x 1.729160 0.000000 0.000000 
#    y 0.000000 1.694650 0.000000 
#    z 0.000000 0.000000 1.751530 
# 
# From -- ./inp_files/5858.got.cif
#   From: 2010.03.12/outbox.cif.g09.slc.cpg/sg31_3_cif.got.tgz:5858.got - 2010.04.14 01:42:59.
