data_PCOD8169888
_publ_section_title
;
Structure prediction by ZEFSAII (Michael W. Deem and Ramdas Pophale) SiO2 
 PCOD8169888
Probable space group: P M N 21
;
_chemical_formula_sum "Si O2"
_cell_formula_units_Z 32
_cell_length_a 8.773692
_cell_length_b 11.659806
_cell_length_c 14.360289
_cell_angle_alpha 90.000000
_cell_angle_beta 90.000000
_cell_angle_gamma 90.000000
_cell_volume 1469.051054
_symmetry_space_group_name_H-M "P M N 21"
_symmetry_group_IT_number 31
_symmetry_cell_setting 'orthorhombic'
loop_
_space_group_symop_operation_xyz
x,y,z
1/2-x,-y,1/2+z
-x,y,z
1/2+x,-y,1/2+z
loop_
_atom_site_type_symbol
_atom_site_label
_atom_site_fract_x
_atom_site_fract_y
_atom_site_fract_z
Si Si1 0.824804 0.171589 0.903470
Si Si2 0.177698 0.410690 0.810859
Si Si3 0.821841 0.925576 0.110255
Si Si4 0.675088 0.123515 0.232701
Si Si5 0.677288 0.944238 0.909763
Si Si6 0.322323 0.518714 0.983276
Si Si7 0.177633 0.664661 0.130285
Si Si8 0.673763 0.278358 0.068231
O O1 0.784007 0.283383 0.845237
O O2 0.000000 0.135345 0.893725
O O3 0.716929 0.069610 0.867173
O O4 0.786631 0.195549 0.011425
O O5 0.258138 0.501067 0.879303
O O6 0.242752 0.416968 0.706875
O O7 0.000000 0.438734 0.809864
O O8 0.786068 0.798132 0.148525
O O9 0.000000 0.954901 0.117323
O O10 0.727700 0.016003 0.170296
O O11 0.773949 0.926649 0.002459
O O12 0.500000 0.101577 0.259358
O O13 0.772156 0.141647 0.327127
O O14 0.693789 0.242960 0.176000
O O15 0.500000 0.929880 0.931811
O O16 0.500000 0.543044 0.975695
O O17 0.242735 0.628950 0.029245
O O18 0.283791 0.410329 0.049974
O O19 0.000000 0.639428 0.132329
O O20 0.500000 0.254978 0.035068
#
# Coordination Sequence:
#
# PCOD8169888 Si02
#       8
#     4   4   4   4   4   4   4   4
#     4  10  19  33  58  87 118 154 198 249 296 351
#     4  10  21  38  63  94 122 159 207 254 303 362
#     4  11  24  42  63  90 125 164 206 254 307 363
#     4  11  22  38  61  90 123 160 201 246 304 368
#     4  12  24  37  56  86 124 165 205 246 301 365
#     4  10  21  40  65  91 121 158 202 254 307 363
#     4  11  24  42  63  90 124 164 207 255 307 364
#     4   9  19  36  59  86 115 150 192 244 301 354
#
# _framework density 21.782769999999999
#
# number of rings (size 3 to 8) (size 9 to 14) (size 15 to 20)
#    0.000    1.500    1.250    4.125    0.000    6.500 
#    2.250    0.000    0.000    0.000    0.000    0.000 
#    0.000    0.000    0.000    0.000    0.000    0.000 
#
# Total GULP energy -396881.386905 kJ/mol
# GULP energy per Si atom -12402.543341 kJ/mol
# Density = 2.173319 g / cm^3
# Si number density = 21.782770 Si / 1000 Ang^3
#
#
#
# Elastic Constant Matrix: (Units=GPa)
#
#
# Indices 1 2 3 4 5 6 
#
# 1 66.1046 15.7369 3.4785 0.0000 0.0000 0.0000
# 2 15.7369 23.3705 -5.3371 0.0000 0.0000 0.0000
# 3 3.4785 -5.3371 77.9826 0.0000 0.0000 0.0000
# 4 0.0000 0.0000 0.0000 26.7704 0.0000 0.0000
# 5 0.0000 0.0000 0.0000 0.0000 36.7143 0.0000
# 6 0.0000 0.0000 0.0000 0.0000 0.0000 27.9239
#
#
#
# Elastic Compliance Matrix: (Units=1/GPa)
#
#
# Indices 1 2 3 4 5 6 
#
# 1 0.018229 -0.012659 -0.001679 0.000000 0.000000 0.000000
# 2 -0.012659 0.052259 0.004141 0.000000 0.000000 0.000000
# 3 -0.001679 0.004141 0.013182 0.000000 0.000000 0.000000
# 4 0.000000 0.000000 0.000000 0.037355 0.000000 0.000000
# 5 0.000000 0.000000 0.000000 0.000000 0.027237 0.000000
# 6 0.000000 0.000000 0.000000 0.000000 0.000000 0.035812
#
#
# Mechanical properties :
#
#
# Convention : Reuss Voigt Hill
#
# Bulk Modulus (GPa) = 15.80377 21.69045 18.74711
# Shear Modulus (GPa) = 22.16713 28.52036 25.34375
#
# Velocity S-wave (km/s) = 3.19352 3.62236 3.41468
# Velocity P-wave (km/s) = 4.56826 5.24162 4.91648
#
# Compressibility (1/GPa) = 0.06327602
#
# Stress axis : x y z
#
# Youngs Moduli (GPa) = 54.85633 19.13559 75.86263
#
# Poissons Ratio (x) = 0.24223 0.12741
# Poissons Ratio (y) = 0.69441 -0.31416
# Poissons Ratio (z) = 0.09213 -0.07924
#
# Static dielectric constant tensor:
#      x y z
#    x 3.864280 0.000000 0.000000 
#    y 0.000000 3.857980 0.000000 
#    z 0.000000 0.000000 3.963940 
# 
# 
# High freq. dielectric constant tensor:
#      x y z
#    x 1.860710 0.000000 0.000000 
#    y 0.000000 1.841520 0.000000 
#    z 0.000000 0.000000 1.859810 
# 
# From -- ./inp_files/5000.got.cif
#   From: 2010.03.12/outbox.cif.g09.slc.cpg/sg31_3_cif.got.tgz:5000.got - 2010.04.14 01:42:59.
