data_PCOD8169090
_publ_section_title
;
Structure prediction by ZEFSAII (Michael W. Deem and Ramdas Pophale) SiO2 
 PCOD8169090
Probable space group: P C A 21
;
_chemical_formula_sum "Si O2"
_cell_formula_units_Z 28
_cell_length_a 22.917195
_cell_length_b 5.542569
_cell_length_c 9.185352
_cell_angle_alpha 90.000000
_cell_angle_beta 90.000000
_cell_angle_gamma 90.000000
_cell_volume 1166.724647
_symmetry_space_group_name_H-M "P C A 21"
_symmetry_group_IT_number 29
_symmetry_cell_setting 'orthorhombic'
loop_
_space_group_symop_operation_xyz
x,y,z
-x,-y,1/2+z
1/2-x,y,1/2+z
1/2+x,-y,z
loop_
_atom_site_type_symbol
_atom_site_label
_atom_site_fract_x
_atom_site_fract_y
_atom_site_fract_z
Si Si1 0.836643 0.796237 0.777910
Si Si2 0.130403 0.663120 0.747489
Si Si3 0.287974 0.423633 0.045319
Si Si4 0.898004 0.474229 0.573852
Si Si5 0.487616 0.766330 0.078760
Si Si6 0.940680 0.092077 0.775768
Si Si7 0.240016 0.917283 0.659408
O O1 0.851735 0.681618 0.619535
O O2 0.898651 0.884924 0.843902
O O3 0.792420 0.026574 0.771933
O O4 0.811643 0.581912 0.880160
O O5 0.160293 0.436007 0.665618
O O6 0.070407 0.707786 0.665901
O O7 0.176164 0.888141 0.734691
O O8 0.118837 0.614127 0.915011
O O9 0.247527 0.667528 0.066034
O O10 0.257140 0.165242 0.065661
O O11 0.894720 0.265221 0.694219
O O12 0.965465 0.553843 0.583979
O O13 0.514122 0.003702 0.153256
O O14 0.476267 0.797211 0.907982
#
# Coordination Sequence:
#
# PCOD8169090 Si02
#       7
#     4   4   4   4   4   4   4
#     4  11  26  47  75 106 147 192 263 307 387 463
#     4  10  24  45  71 106 156 196 253 315 395 455
#     4  10  25  47  76 107 144 203 244 311 380 452
#     4  11  25  42  71 111 146 197 250 326 379 470
#     4  11  23  44  69 107 147 199 255 315 394 462
#     4  11  25  42  73 105 148 200 253 325 385 468
#     4  10  26  47  75 108 148 199 248 317 382 456
#
# _framework density 23.998805999999998
#
# number of rings (size 3 to 8) (size 9 to 14) (size 15 to 20)
#    0.857    0.571    0.000    3.429    4.000   11.429 
#    0.000    0.000    0.000    0.000    0.000    0.000 
#    0.000    0.000    0.000    0.000    0.000    0.000 
#
# Total GULP energy -346875.624527 kJ/mol
# GULP energy per Si atom -12388.415162 kJ/mol
# Density = 2.394418 g / cm^3
# Si number density = 23.998806 Si / 1000 Ang^3
#
#
#
# Elastic Constant Matrix: (Units=GPa)
#
#
# Indices 1 2 3 4 5 6 
#
# 1 58.1733 16.0994 26.4015 0.0000 0.0000 0.0000
# 2 16.0994 114.7505 36.0932 0.0000 0.0000 0.0000
# 3 26.4015 36.0932 134.5062 0.0000 0.0000 0.0000
# 4 0.0000 0.0000 0.0000 40.9003 0.0000 0.0000
# 5 0.0000 0.0000 0.0000 0.0000 27.3841 0.0000
# 6 0.0000 0.0000 0.0000 0.0000 0.0000 37.5293
#
#
#
# Elastic Compliance Matrix: (Units=1/GPa)
#
#
# Indices 1 2 3 4 5 6 
#
# 1 0.019151 -0.001643 -0.003318 0.000000 0.000000 0.000000
# 2 -0.001643 0.009659 -0.002269 0.000000 0.000000 0.000000
# 3 -0.003318 -0.002269 0.008695 0.000000 0.000000 0.000000
# 4 0.000000 0.000000 0.000000 0.024450 0.000000 0.000000
# 5 0.000000 0.000000 0.000000 0.000000 0.036518 0.000000
# 6 0.000000 0.000000 0.000000 0.000000 0.000000 0.026646
#
#
# Mechanical properties :
#
#
# Convention : Reuss Voigt Hill
#
# Bulk Modulus (GPa) = 43.39663 51.62424 47.51043
# Shear Modulus (GPa) = 33.95364 36.41846 35.18605
#
# Velocity S-wave (km/s) = 3.76547 3.89975 3.83320
# Velocity P-wave (km/s) = 6.08499 6.46802 6.27943
#
# Compressibility (1/GPa) = 0.02304327
#
# Stress axis : x y z
#
# Youngs Moduli (GPa) = 52.21757 103.53173 115.01092
#
# Poissons Ratio (x) = 0.17012 0.38161
# Poissons Ratio (y) = 0.08580 0.26100
# Poissons Ratio (z) = 0.17326 0.23495
#
# Static dielectric constant tensor:
#      x y z
#    x 4.472820 0.000000 0.000000 
#    y 0.000000 4.363540 0.000000 
#    z 0.000000 0.000000 4.224250 
# 
# 
# High freq. dielectric constant tensor:
#      x y z
#    x 1.967500 0.000000 0.000000 
#    y 0.000000 1.948880 0.000000 
#    z 0.000000 0.000000 1.944930 
# 
# From -- ./inp_files/2419.got.cif
#   From: 2010.03.12/outbox.cif.g09.slc.cpg/sg29_2_cif.got.tgz:2419.got - 2010.04.14 03:43:10.
