data_PCOD8169224
_publ_section_title
;
Structure prediction by ZEFSAII (Michael W. Deem and Ramdas Pophale) SiO2 
 PCOD8169224
Probable space group: P C A 21
;
_chemical_formula_sum "Si O2"
_cell_formula_units_Z 32
_cell_length_a 10.516600
_cell_length_b 5.246806
_cell_length_c 22.780137
_cell_angle_alpha 90.000000
_cell_angle_beta 90.000000
_cell_angle_gamma 90.000000
_cell_volume 1256.975156
_symmetry_space_group_name_H-M "P C A 21"
_symmetry_group_IT_number 29
_symmetry_cell_setting 'orthorhombic'
loop_
_space_group_symop_operation_xyz
x,y,z
-x,-y,1/2+z
1/2-x,y,1/2+z
1/2+x,-y,z
loop_
_atom_site_type_symbol
_atom_site_label
_atom_site_fract_x
_atom_site_fract_y
_atom_site_fract_z
Si Si1 0.152950 0.274947 0.412650
Si Si2 0.991352 0.231133 0.182632
Si Si3 0.833355 0.607908 0.322096
Si Si4 0.510235 0.108269 0.809992
Si Si5 0.312159 0.061719 0.511066
Si Si6 0.253277 0.449211 0.698263
Si Si7 0.382204 0.143737 0.104929
Si Si8 0.477912 0.567325 0.510363
O O1 0.257702 0.456490 0.381933
O O2 0.219793 0.075957 0.455627
O O3 0.098057 0.100945 0.359629
O O4 0.059606 0.459058 0.450243
O O5 0.031901 0.072721 0.241655
O O6 0.842125 0.314168 0.186906
O O7 0.098168 0.459274 0.175110
O O8 0.996106 0.048508 0.124829
O O9 0.938326 0.395607 0.313382
O O10 0.736074 0.605498 0.267406
O O11 0.892512 0.888392 0.327247
O O12 0.222545 0.999271 0.566154
O O13 0.389717 0.324780 0.519672
O O14 0.404133 0.829141 0.500750
O O15 0.185549 0.217284 0.665350
O O16 0.435095 0.389769 0.068704
#
# Coordination Sequence:
#
# PCOD8169224 Si02
#       8
#     4   4   4   4   4   4   4   4
#     4  11  24  46  75 104 144 199 246 321 385 459
#     4  11  25  47  71 115 154 205 259 322 394 469
#     4  11  24  44  68 106 146 193 241 311 380 460
#     4  11  24  44  68 105 147 191 245 308 382 462
#     4  11  27  47  73 105 148 193 261 318 385 457
#     4  11  25  45  73 111 154 205 256 322 385 476
#     4  11  26  44  75 102 152 203 255 321 391 459
#     4  11  27  47  71 108 145 197 259 319 386 458
#
# _framework density 25.457940000000001
#
# number of rings (size 3 to 8) (size 9 to 14) (size 15 to 20)
#    0.000    1.000    2.500    2.250    5.250    7.000 
#    2.250    0.000    0.000    0.000    0.000    0.000 
#    0.000    0.000    0.000    0.000    0.000    0.000 
#
# Total GULP energy -396598.575308 kJ/mol
# GULP energy per Si atom -12393.705478 kJ/mol
# Density = 2.540000 g / cm^3
# Si number density = 25.457940 Si / 1000 Ang^3
#
#
#
# Elastic Constant Matrix: (Units=GPa)
#
#
# Indices 1 2 3 4 5 6 
#
# 1 102.3257 28.7641 27.6471 0.0000 0.0000 0.0000
# 2 28.7641 65.9426 17.4011 0.0000 0.0000 0.0000
# 3 27.6471 17.4011 108.0454 0.0000 0.0000 0.0000
# 4 0.0000 0.0000 0.0000 21.7327 0.0000 0.0000
# 5 0.0000 0.0000 0.0000 0.0000 37.9977 0.0000
# 6 0.0000 0.0000 0.0000 0.0000 0.0000 27.5652
#
#
#
# Elastic Compliance Matrix: (Units=1/GPa)
#
#
# Indices 1 2 3 4 5 6 
#
# 1 0.011643 -0.004483 -0.002257 0.000000 0.000000 0.000000
# 2 -0.004483 0.017564 -0.001682 0.000000 0.000000 0.000000
# 3 -0.002257 -0.001682 0.010104 0.000000 0.000000 0.000000
# 4 0.000000 0.000000 0.000000 0.046014 0.000000 0.000000
# 5 0.000000 0.000000 0.000000 0.000000 0.026317 0.000000
# 6 0.000000 0.000000 0.000000 0.000000 0.000000 0.036278
#
#
# Mechanical properties :
#
#
# Convention : Reuss Voigt Hill
#
# Bulk Modulus (GPa) = 44.50985 47.10426 45.80706
# Shear Modulus (GPa) = 29.02732 30.95921 29.99326
#
# Velocity S-wave (km/s) = 3.38036 3.49103 3.43614
# Velocity P-wave (km/s) = 5.72341 5.89853 5.81163
#
# Compressibility (1/GPa) = 0.02246694
#
# Stress axis : x y z
#
# Youngs Moduli (GPa) = 85.89034 56.93497 98.97276
#
# Poissons Ratio (x) = 0.25523 0.22340
# Poissons Ratio (y) = 0.38504 0.16644
# Poissons Ratio (z) = 0.19387 0.09574
#
# Static dielectric constant tensor:
#      x y z
#    x 4.955010 0.000000 0.000000 
#    y 0.000000 4.859540 0.000000 
#    z 0.000000 0.000000 5.211680 
# 
# 
# High freq. dielectric constant tensor:
#      x y z
#    x 2.022620 0.000000 0.000000 
#    y 0.000000 1.985640 0.000000 
#    z 0.000000 0.000000 2.045790 
# 
# From -- ./inp_files/5722.got.cif
#   From: 2010.03.12/outbox.cif.g09.slc.cpg/sg29_3_cif.got.tgz:5722.got - 2010.04.14 03:43:10.
