data_PCOD8169120
_publ_section_title
;
Structure prediction by ZEFSAII (Michael W. Deem and Ramdas Pophale) SiO2 
 PCOD8169120
Probable space group: P C A 21
;
_chemical_formula_sum "Si O2"
_cell_formula_units_Z 28
_cell_length_a 24.526021
_cell_length_b 6.531918
_cell_length_c 7.303718
_cell_angle_alpha 90.000000
_cell_angle_beta 90.000000
_cell_angle_gamma 90.000000
_cell_volume 1170.069925
_symmetry_space_group_name_H-M "P C A 21"
_symmetry_group_IT_number 29
_symmetry_cell_setting 'orthorhombic'
loop_
_space_group_symop_operation_xyz
x,y,z
-x,-y,1/2+z
1/2-x,y,1/2+z
1/2+x,-y,z
loop_
_atom_site_type_symbol
_atom_site_label
_atom_site_fract_x
_atom_site_fract_y
_atom_site_fract_z
Si Si1 0.183234 0.311195 0.839430
Si Si2 0.802658 0.718564 0.921782
Si Si3 0.454316 0.974704 0.479544
Si Si4 0.650668 0.993391 0.146262
Si Si5 0.002119 0.321372 0.734574
Si Si6 0.119596 0.619343 0.324698
Si Si7 0.598067 0.363079 0.735082
O O1 0.182482 0.239887 0.630055
O O2 0.243326 0.385252 0.900670
O O3 0.140398 0.499370 0.857185
O O4 0.170672 0.105378 0.955000
O O5 0.809560 0.928132 0.811415
O O6 0.848276 0.591445 0.812364
O O7 0.501363 0.824168 0.554787
O O8 0.416341 0.848930 0.335836
O O9 0.415121 0.049821 0.647796
O O10 0.480986 0.179518 0.403850
O O11 0.651494 0.238214 0.178053
O O12 0.942630 0.417136 0.764631
O O13 0.043730 0.504040 0.701667
O O14 0.123002 0.696171 0.537064
#
# Coordination Sequence:
#
# PCOD8169120 Si02
#       7
#     4   4   4   4   4   4   4
#     4  11  24  47  73  98 142 184 234 297 355 420
#     4  11  25  48  69 103 139 183 237 297 355 428
#     4  11  25  40  69 101 143 184 237 286 356 430
#     4  11  25  45  70 102 137 181 233 293 356 413
#     4  11  23  41  67 103 140 191 231 298 354 429
#     4  10  26  43  68 105 139 186 237 293 356 431
#     4  11  24  44  70 102 142 191 235 294 358 429
#
# _framework density 23.930195999999999
#
# number of rings (size 3 to 8) (size 9 to 14) (size 15 to 20)
#    0.000    1.143    2.857    1.714    6.000    8.000 
#    7.714    0.000    0.000    0.000    0.000    0.000 
#    0.000    0.000    0.000    0.000    0.000    0.000 
#
# Total GULP energy -346896.864198 kJ/mol
# GULP energy per Si atom -12389.173721 kJ/mol
# Density = 2.387573 g / cm^3
# Si number density = 23.930196 Si / 1000 Ang^3
#
#
#
# Elastic Constant Matrix: (Units=GPa)
#
#
# Indices 1 2 3 4 5 6 
#
# 1 123.2455 49.2403 10.9977 0.0000 0.0000 0.0000
# 2 49.2403 58.6326 31.0795 0.0000 0.0000 0.0000
# 3 10.9977 31.0795 73.1765 0.0000 0.0000 0.0000
# 4 0.0000 0.0000 0.0000 47.9953 0.0000 0.0000
# 5 0.0000 0.0000 0.0000 0.0000 38.4011 0.0000
# 6 0.0000 0.0000 0.0000 0.0000 0.0000 24.9973
#
#
#
# Elastic Compliance Matrix: (Units=1/GPa)
#
#
# Indices 1 2 3 4 5 6 
#
# 1 0.012842 -0.012598 0.003421 0.000000 0.000000 0.000000
# 2 -0.012598 0.034369 -0.012704 0.000000 0.000000 0.000000
# 3 0.003421 -0.012704 0.018547 0.000000 0.000000 0.000000
# 4 0.000000 0.000000 0.000000 0.020835 0.000000 0.000000
# 5 0.000000 0.000000 0.000000 0.000000 0.026041 0.000000
# 6 0.000000 0.000000 0.000000 0.000000 0.000000 0.040004
#
#
# Mechanical properties :
#
#
# Convention : Reuss Voigt Hill
#
# Bulk Modulus (GPa) = 45.46347 48.63217 47.04782
# Shear Modulus (GPa) = 24.54186 33.19454 28.86820
#
# Velocity S-wave (km/s) = 3.20591 3.72847 3.47702
# Velocity P-wave (km/s) = 5.72219 6.23715 5.98521
#
# Compressibility (1/GPa) = 0.02199568
#
# Stress axis : x y z
#
# Youngs Moduli (GPa) = 77.86999 29.09575 53.91673
#
# Poissons Ratio (x) = 0.36655 -0.18443
# Poissons Ratio (y) = 0.98100 0.68496
# Poissons Ratio (z) = -0.26636 0.36963
#
# Static dielectric constant tensor:
#      x y z
#    x 4.519160 0.000000 0.000000 
#    y 0.000000 4.103020 0.000000 
#    z 0.000000 0.000000 4.504510 
# 
# 
# High freq. dielectric constant tensor:
#      x y z
#    x 1.950720 0.000000 0.000000 
#    y 0.000000 1.933210 0.000000 
#    z 0.000000 0.000000 1.960280 
# 
# From -- ./inp_files/2412.got.cif
#   From: 2010.03.12/outbox.cif.g09.slc.cpg/sg29_2_cif.got.tgz:2412.got - 2010.04.14 03:43:10.
