data_PCOD8169776
_publ_section_title
;
Structure prediction by ZEFSAII (Michael W. Deem and Ramdas Pophale) SiO2 
 PCOD8169776
Probable space group: P M N 21
;
_chemical_formula_sum "Si O2"
_cell_formula_units_Z 32
_cell_length_a 9.224895
_cell_length_b 11.479839
_cell_length_c 17.645339
_cell_angle_alpha 90.000000
_cell_angle_beta 90.000000
_cell_angle_gamma 90.000000
_cell_volume 1868.646859
_symmetry_space_group_name_H-M "P M N 21"
_symmetry_group_IT_number 31
_symmetry_cell_setting 'orthorhombic'
loop_
_space_group_symop_operation_xyz
x,y,z
1/2-x,-y,1/2+z
-x,y,z
1/2+x,-y,1/2+z
loop_
_atom_site_type_symbol
_atom_site_label
_atom_site_fract_x
_atom_site_fract_y
_atom_site_fract_z
Si Si1 0.331776 0.763917 0.048110
Si Si2 0.840819 0.659899 0.833010
Si Si3 0.836490 0.654474 0.437086
Si Si4 0.337779 0.454374 0.495053
Si Si5 0.671016 0.116730 0.417528
Si Si6 0.330558 0.859073 0.369905
Si Si7 0.834851 0.259653 0.716685
Si Si8 0.838766 0.534618 0.274413
O O1 0.500000 0.752059 0.024570
O O2 0.314996 0.803663 0.135695
O O3 0.255474 0.638873 0.041386
O O4 0.255396 0.860786 0.995982
O O5 0.852348 0.585434 0.908989
O O6 0.780693 0.788368 0.854319
O O7 0.735862 0.593046 0.774714
O O8 0.000000 0.670120 0.795461
O O9 0.746290 0.577957 0.497742
O O10 0.758423 0.778760 0.427838
O O11 0.839385 0.588217 0.357700
O O12 0.000000 0.673870 0.467118
O O13 0.500000 0.467678 0.529848
O O14 0.500000 0.129638 0.434123
O O15 0.714296 0.991569 0.385419
O O16 0.500000 0.838230 0.384920
O O17 0.288030 0.829881 0.282922
O O18 0.742981 0.378225 0.718094
O O19 0.000000 0.298564 0.729526
O O20 0.000000 0.517087 0.243010
#
# Coordination Sequence:
#
# PCOD8169776 Si02
#       8
#     4   4   4   4   4   4   4   4
#     4  10  19  30  46  69  95 121 152 195 245 290
#     4   8  14  25  41  62  87 113 143 181 224 269
#     4   9  16  26  42  67  94 116 144 185 230 270
#     4   9  16  27  44  65  89 118 148 179 223 277
#     4   9  18  31  48  69  92 124 165 202 235 277
#     4   9  17  31  49  68  92 125 166 201 230 276
#     4   9  18  31  47  67  92 122 154 191 237 288
#     4   9  16  25  41  65  89 113 142 180 226 273
#
# _framework density 17.124690999999999
#
# number of rings (size 3 to 8) (size 9 to 14) (size 15 to 20)
#    0.000    3.000    0.000    2.250    0.000    7.500 
#    0.000    0.000    0.000    1.500    0.000    7.000 
#    0.000    0.000    0.000    0.000    0.000    0.000 
#
# Total GULP energy -396670.793571 kJ/mol
# GULP energy per Si atom -12395.962299 kJ/mol
# Density = 1.708571 g / cm^3
# Si number density = 17.124691 Si / 1000 Ang^3
#
#
#
# Elastic Constant Matrix: (Units=GPa)
#
#
# Indices 1 2 3 4 5 6 
#
# 1 102.4816 60.5799 33.6217 0.0000 0.0000 0.0000
# 2 60.5799 134.4847 39.3107 0.0000 0.0000 0.0000
# 3 33.6217 39.3107 53.6591 0.0000 0.0000 0.0000
# 4 0.0000 0.0000 0.0000 14.6420 0.0000 0.0000
# 5 0.0000 0.0000 0.0000 0.0000 18.2430 0.0000
# 6 0.0000 0.0000 0.0000 0.0000 0.0000 25.1151
#
#
#
# Elastic Compliance Matrix: (Units=1/GPa)
#
#
# Indices 1 2 3 4 5 6 
#
# 1 0.014454 -0.004916 -0.005455 0.000000 0.000000 0.000000
# 2 -0.004916 0.011134 -0.005077 0.000000 0.000000 0.000000
# 3 -0.005455 -0.005077 0.025773 0.000000 0.000000 0.000000
# 4 0.000000 0.000000 0.000000 0.068297 0.000000 0.000000
# 5 0.000000 0.000000 0.000000 0.000000 0.054816 0.000000
# 6 0.000000 0.000000 0.000000 0.000000 0.000000 0.039817
#
#
# Mechanical properties :
#
#
# Convention : Reuss Voigt Hill
#
# Bulk Modulus (GPa) = 48.86170 61.96111 55.41140
# Shear Modulus (GPa) = 19.84073 22.07421 20.95747
#
# Velocity S-wave (km/s) = 3.40752 3.59420 3.50210
# Velocity P-wave (km/s) = 6.63901 7.31336 6.98433
#
# Compressibility (1/GPa) = 0.02046593
#
# Stress axis : x y z
#
# Youngs Moduli (GPa) = 69.18709 89.81261 38.80032
#
# Poissons Ratio (x) = 0.44155 0.21164
# Poissons Ratio (y) = 0.34015 0.19697
# Poissons Ratio (z) = 0.37739 0.45594
#
# Static dielectric constant tensor:
#      x y z
#    x 3.425060 0.000000 0.000000 
#    y 0.000000 3.161530 0.000000 
#    z 0.000000 0.000000 2.852810 
# 
# 
# High freq. dielectric constant tensor:
#      x y z
#    x 1.671560 0.000000 0.000000 
#    y 0.000000 1.645910 0.000000 
#    z 0.000000 0.000000 1.617750 
# 
# From -- ./inp_files/5837.got.cif
#   From: 2010.03.12/outbox.cif.g09.slc.cpg/sg31_3_cif.got.tgz:5837.got - 2010.04.14 01:42:59.
