data_PCOD8169389
_publ_section_title
;
Structure prediction by ZEFSAII (Michael W. Deem and Ramdas Pophale) SiO2 
 PCOD8169389
Probable space group: P N C 2
;
_chemical_formula_sum "Si O2"
_cell_formula_units_Z 26
_cell_length_a 5.092513
_cell_length_b 18.138148
_cell_length_c 13.330319
_cell_angle_alpha 90.000000
_cell_angle_beta 90.000000
_cell_angle_gamma 90.000000
_cell_volume 1231.304963
_symmetry_space_group_name_H-M "P N C 2"
_symmetry_group_IT_number 30
_symmetry_cell_setting 'orthorhombic'
loop_
_space_group_symop_operation_xyz
x,y,z
-x,-y,z
-x,1/2+y,1/2+z
x,1/2-y,1/2+z
loop_
_atom_site_type_symbol
_atom_site_label
_atom_site_fract_x
_atom_site_fract_y
_atom_site_fract_z
Si Si1 0.077849 0.692383 0.228790
Si Si2 0.929461 0.360584 0.786101
Si Si3 0.157917 0.924523 0.881165
Si Si4 0.604641 0.634819 0.121326
Si Si5 0.554774 0.912968 0.398720
Si Si6 0.500000 0.500000 0.231318
Si Si7 0.247804 0.549788 0.596119
O O1 0.078222 0.774256 0.269946
O O2 0.010565 0.644588 0.330077
O O3 0.332559 0.667770 0.164831
O O4 0.835421 0.689223 0.152776
O O5 0.722399 0.378029 0.871289
O O6 0.818074 0.395148 0.684156
O O7 0.213805 0.394185 0.817974
O O8 0.382380 0.937319 0.800826
O O9 0.283408 0.905813 0.990428
O O10 0.000000 0.000000 0.885310
O O11 0.678388 0.551654 0.160141
O O12 0.617757 0.627660 0.002098
O O13 0.500000 0.000000 0.407722
O O14 0.500000 0.500000 0.622487
O O15 0.000000 0.500000 0.576713
#
# Coordination Sequence:
#
# PCOD8169389 Si02
#       7
#     4   4   4   4   4   2   4
#     4  11  25  42  66 100 138 179 209 283 346 410
#     4  12  26  45  64  96 145 180 225 271 341 410
#     4  10  20  37  65  94 125 163 222 271 336 385
#     4  11  23  41  69  99 134 168 229 273 345 393
#     4  12  25  45  72 100 131 184 234 284 329 404
#     4  10  18  38  62  98 126 160 210 292 326 392
#     4  11  23  40  66  92 120 171 222 274 319 386
#
# _framework density 21.115808999999999
#
# number of rings (size 3 to 8) (size 9 to 14) (size 15 to 20)
#    0.000    0.923    3.077    4.615    0.000    2.462 
#    0.000    1.538    0.000    0.000    0.000    0.000 
#    0.000    0.000    0.000    0.000    0.000    0.000 
#
# Total GULP energy -322096.876363 kJ/mol
# GULP energy per Si atom -12388.341399 kJ/mol
# Density = 2.106775 g / cm^3
# Si number density = 21.115809 Si / 1000 Ang^3
#
#
#
# Elastic Constant Matrix: (Units=GPa)
#
#
# Indices 1 2 3 4 5 6 
#
# 1 104.9903 30.2245 17.2646 0.0000 0.0000 0.0000
# 2 30.2245 127.1495 48.5786 0.0000 0.0000 0.0000
# 3 17.2646 48.5786 102.2436 0.0000 0.0000 0.0000
# 4 0.0000 0.0000 0.0000 57.5102 0.0000 0.0000
# 5 0.0000 0.0000 0.0000 0.0000 26.8111 0.0000
# 6 0.0000 0.0000 0.0000 0.0000 0.0000 27.8437
#
#
#
# Elastic Compliance Matrix: (Units=1/GPa)
#
#
# Indices 1 2 3 4 5 6 
#
# 1 0.010265 -0.002172 -0.000701 0.000000 0.000000 0.000000
# 2 -0.002172 0.010069 -0.004417 0.000000 0.000000 0.000000
# 3 -0.000701 -0.004417 0.011998 0.000000 0.000000 0.000000
# 4 0.000000 0.000000 0.000000 0.017388 0.000000 0.000000
# 5 0.000000 0.000000 0.000000 0.000000 0.037298 0.000000
# 6 0.000000 0.000000 0.000000 0.000000 0.000000 0.035915
#
#
# Mechanical properties :
#
#
# Convention : Reuss Voigt Hill
#
# Bulk Modulus (GPa) = 56.33659 58.50211 57.41935
# Shear Modulus (GPa) = 34.86004 38.32072 36.59038
#
# Velocity S-wave (km/s) = 4.06753 4.26465 4.16726
# Velocity P-wave (km/s) = 6.98552 7.21216 7.09974
#
# Compressibility (1/GPa) = 0.01775045
#
# Stress axis : x y z
#
# Youngs Moduli (GPa) = 97.41513 99.31758 83.34956
#
# Poissons Ratio (x) = 0.21574 0.05845
# Poissons Ratio (y) = 0.21161 0.36816
# Poissons Ratio (z) = 0.06832 0.43870
#
# Static dielectric constant tensor:
#      x y z
#    x 3.824270 0.000000 0.000000 
#    y 0.000000 2.736830 0.000000 
#    z 0.000000 0.000000 4.407230 
# 
# 
# High freq. dielectric constant tensor:
#      x y z
#    x 1.827060 0.000000 0.000000 
#    y 0.000000 1.821500 0.000000 
#    z 0.000000 0.000000 1.849170 
# 
# From -- ./inp_files/3162.got.cif
#   From: 2010.03.12/outbox.cif.g09.slc.cpg/sg30_2_cif.got.tgz:3162.got - 2010.04.14 01:38:02.
