data_PCOD8169299
_publ_section_title
;
Structure prediction by ZEFSAII (Michael W. Deem and Ramdas Pophale) SiO2 
 PCOD8169299
Probable space group: P C A 21
;
_chemical_formula_sum "Si O2"
_cell_formula_units_Z 20
_cell_length_a 9.683973
_cell_length_b 8.860429
_cell_length_c 9.586168
_cell_angle_alpha 90.000000
_cell_angle_beta 90.000000
_cell_angle_gamma 90.000000
_cell_volume 822.533047
_symmetry_space_group_name_H-M "P C A 21"
_symmetry_group_IT_number 29
_symmetry_cell_setting 'orthorhombic'
loop_
_space_group_symop_operation_xyz
x,y,z
-x,-y,1/2+z
1/2-x,y,1/2+z
1/2+x,-y,z
loop_
_atom_site_type_symbol
_atom_site_label
_atom_site_fract_x
_atom_site_fract_y
_atom_site_fract_z
Si Si1 0.050232 0.466183 0.809090
Si Si2 0.348752 0.232252 0.091868
Si Si3 0.864915 0.248836 0.448615
Si Si4 0.552425 0.674148 0.077762
Si Si5 0.830169 0.111120 0.168668
O O1 0.123624 0.330070 0.729211
O O2 0.159060 0.586461 0.878018
O O3 0.948204 0.552156 0.703073
O O4 0.970631 0.392785 0.942528
O O5 0.207859 0.295918 0.025667
O O6 0.316498 0.062053 0.134879
O O7 0.470917 0.237300 0.979219
O O8 0.813872 0.126064 0.335530
O O9 0.783029 0.217400 0.591627
O O10 0.481469 0.829082 0.125728
#
# Coordination Sequence:
#
# PCOD8169299 Si02
#       5
#     4   4   4   4   4
#     4  11  27  46  75 111 150 196 254 320 369 463
#     4  12  28  49  79 111 156 202 264 315 394 464
#     4  11  28  51  75 112 156 203 259 317 394 460
#     4  11  28  49  80 109 152 200 258 316 389 454
#     4  11  29  49  79 113 156 203 253 324 392 469
#
# _framework density 24.315132999999999
#
# number of rings (size 3 to 8) (size 9 to 14) (size 15 to 20)
#    0.000    0.800    2.000    1.200   22.400    0.000 
#    0.000    0.000    0.000    0.000    0.000    0.000 
#    0.000    0.000    0.000    0.000    0.000    0.000 
#
# Total GULP energy -247948.624712 kJ/mol
# GULP energy per Si atom -12397.431236 kJ/mol
# Density = 2.425979 g / cm^3
# Si number density = 24.315133 Si / 1000 Ang^3
#
#
#
# Elastic Constant Matrix: (Units=GPa)
#
#
# Indices 1 2 3 4 5 6 
#
# 1 109.2624 15.8625 51.7582 0.0000 0.0000 0.0000
# 2 15.8625 133.7509 42.8367 0.0000 0.0000 0.0000
# 3 51.7582 42.8367 148.8202 0.0000 0.0000 0.0000
# 4 0.0000 0.0000 0.0000 35.9660 0.0000 0.0000
# 5 0.0000 0.0000 0.0000 0.0000 32.9011 0.0000
# 6 0.0000 0.0000 0.0000 0.0000 0.0000 18.2392
#
#
#
# Elastic Compliance Matrix: (Units=1/GPa)
#
#
# Indices 1 2 3 4 5 6 
#
# 1 0.010958 -0.000087 -0.003786 0.000000 0.000000 0.000000
# 2 -0.000087 0.008237 -0.002341 0.000000 0.000000 0.000000
# 3 -0.003786 -0.002341 0.008710 0.000000 0.000000 0.000000
# 4 0.000000 0.000000 0.000000 0.027804 0.000000 0.000000
# 5 0.000000 0.000000 0.000000 0.000000 0.030394 0.000000
# 6 0.000000 0.000000 0.000000 0.000000 0.000000 0.054827
#
#
# Mechanical properties :
#
#
# Convention : Reuss Voigt Hill
#
# Bulk Modulus (GPa) = 64.61011 68.08316 66.34663
# Shear Modulus (GPa) = 31.54241 36.17967 33.86104
#
# Velocity S-wave (km/s) = 3.60562 3.86158 3.73579
# Velocity P-wave (km/s) = 6.63051 6.92412 6.77891
#
# Compressibility (1/GPa) = 0.01547745
#
# Stress axis : x y z
#
# Youngs Moduli (GPa) = 91.25376 121.41045 114.81022
#
# Poissons Ratio (x) = 0.01057 0.43469
# Poissons Ratio (y) = 0.00794 0.26872
# Poissons Ratio (z) = 0.34550 0.28417
#
# Static dielectric constant tensor:
#      x y z
#    x 4.017800 0.000000 0.000000 
#    y 0.000000 4.444930 0.000000 
#    z 0.000000 0.000000 4.592910 
# 
# 
# High freq. dielectric constant tensor:
#      x y z
#    x 1.942260 0.000000 0.000000 
#    y 0.000000 1.979240 0.000000 
#    z 0.000000 0.000000 1.983480 
# 
# From -- ./inp_files/1059.got.cif
#   From: 2010.03.12/outbox.cif.g09.slc.cpg/sg29_1_cif.got.tgz:1059.got - 2010.04.14 03:43:10.
