data_PCOD8169371
_publ_section_title
;
Structure prediction by ZEFSAII (Michael W. Deem and Ramdas Pophale) SiO2 
 PCOD8169371
Probable space group: P N C 2
;
_chemical_formula_sum "Si O2"
_cell_formula_units_Z 30
_cell_length_a 11.326521
_cell_length_b 12.918197
_cell_length_c 9.969608
_cell_angle_alpha 90.000000
_cell_angle_beta 90.000000
_cell_angle_gamma 90.000000
_cell_volume 1458.735392
_symmetry_space_group_name_H-M "P N C 2"
_symmetry_group_IT_number 30
_symmetry_cell_setting 'orthorhombic'
loop_
_space_group_symop_operation_xyz
x,y,z
-x,-y,z
-x,1/2+y,1/2+z
x,1/2-y,1/2+z
loop_
_atom_site_type_symbol
_atom_site_label
_atom_site_fract_x
_atom_site_fract_y
_atom_site_fract_z
Si Si1 0.676790 0.053199 0.037470
Si Si2 0.851530 0.202804 0.161618
Si Si3 0.435466 0.159353 0.393569
Si Si4 0.568699 0.659049 0.589402
Si Si5 0.670300 0.448932 0.973699
Si Si6 0.000000 0.500000 0.118251
Si Si7 0.234823 0.577733 0.240858
Si Si8 0.920381 0.161482 0.435654
O O1 0.768636 0.103555 0.141588
O O2 0.558087 0.119323 0.041540
O O3 0.660572 0.935382 0.082592
O O4 0.724853 0.051989 0.888034
O O5 0.777047 0.299156 0.219086
O O6 0.949804 0.179328 0.278291
O O7 0.909167 0.230209 0.017516
O O8 0.389246 0.249234 0.491740
O O9 0.433390 0.200806 0.241416
O O10 0.569677 0.130557 0.428970
O O11 0.350447 0.059832 0.405240
O O12 0.797031 0.401475 0.937434
O O13 0.666571 0.462875 0.135581
O O14 0.888272 0.481845 0.213164
O O15 0.019526 0.403007 0.016059
#
# Coordination Sequence:
#
# PCOD8169371 Si02
#       8
#     4   4   4   4   4   2   4   4
#     4  11  22  37  58  91 125 157 207 249 301 353
#     4  10  18  33  61  91 111 146 195 247 297 348
#     4  11  22  38  54  85 123 170 204 247 298 352
#     4  11  25  34  56  84 132 161 206 249 291 364
#     4   9  20  34  60  78 115 158 203 240 296 348
#     4   8  20  38  58  82 118 144 184 252 316 352
#     4  10  21  37  65  91 116 155 198 262 307 369
#     4  10  18  35  62  86 113 145 191 250 301 354
#
# _framework density 20.565757000000001
#
# number of rings (size 3 to 8) (size 9 to 14) (size 15 to 20)
#    0.000    2.133    1.333    4.800    5.600    1.067 
#    0.000    0.667   11.733    1.600    0.000    0.000 
#    0.000    0.000    0.000    0.000    0.000    0.000 
#
# Total GULP energy -371849.013910 kJ/mol
# GULP energy per Si atom -12394.967130 kJ/mol
# Density = 2.051895 g / cm^3
# Si number density = 20.565757 Si / 1000 Ang^3
#
#
#
# Elastic Constant Matrix: (Units=GPa)
#
#
# Indices 1 2 3 4 5 6 
#
# 1 31.2678 27.3254 41.2399 0.0000 0.0000 0.0000
# 2 27.3254 106.0224 43.9867 0.0000 0.0000 0.0000
# 3 41.2399 43.9867 184.6919 0.0000 0.0000 0.0000
# 4 0.0000 0.0000 0.0000 32.3412 0.0000 0.0000
# 5 0.0000 0.0000 0.0000 0.0000 27.4149 0.0000
# 6 0.0000 0.0000 0.0000 0.0000 0.0000 20.1121
#
#
#
# Elastic Compliance Matrix: (Units=1/GPa)
#
#
# Indices 1 2 3 4 5 6 
#
# 1 0.053043 -0.009717 -0.009530 0.000000 0.000000 0.000000
# 2 -0.009717 0.012246 -0.000747 0.000000 0.000000 0.000000
# 3 -0.009530 -0.000747 0.007720 0.000000 0.000000 0.000000
# 4 0.000000 0.000000 0.000000 0.030920 0.000000 0.000000
# 5 0.000000 0.000000 0.000000 0.000000 0.036476 0.000000
# 6 0.000000 0.000000 0.000000 0.000000 0.000000 0.049721
#
#
# Mechanical properties :
#
#
# Convention : Reuss Voigt Hill
#
# Bulk Modulus (GPa) = 30.28301 60.78733 45.53517
# Shear Modulus (GPa) = 20.73641 29.93566 25.33603
#
# Velocity S-wave (km/s) = 3.17882 3.81938 3.51373
# Velocity P-wave (km/s) = 5.31320 7.00514 6.21699
#
# Compressibility (1/GPa) = 0.03302181
#
# Stress axis : x y z
#
# Youngs Moduli (GPa) = 18.85274 81.65768 129.53084
#
# Poissons Ratio (x) = 0.79348 1.23438
# Poissons Ratio (y) = 0.18319 0.09674
# Poissons Ratio (z) = 0.17966 0.06099
#
# Static dielectric constant tensor:
#      x y z
#    x 3.376490 0.000000 0.000000 
#    y 0.000000 3.771960 0.000000 
#    z 0.000000 0.000000 4.162690 
# 
# 
# High freq. dielectric constant tensor:
#      x y z
#    x 1.757700 0.000000 0.000000 
#    y 0.000000 1.800780 0.000000 
#    z 0.000000 0.000000 1.829780 
# 
# From -- ./inp_files/2463.got.cif
#   From: 2010.03.12/outbox.cif.g09.slc.cpg/sg30_2_cif.got.tgz:2463.got - 2010.04.14 01:38:02.
