data_PCOD8169229
_publ_section_title
;
Structure prediction by ZEFSAII (Michael W. Deem and Ramdas Pophale) SiO2 
 PCOD8169229
Probable space group: P C A 21
;
_chemical_formula_sum "Si O2"
_cell_formula_units_Z 32
_cell_length_a 9.550003
_cell_length_b 17.323322
_cell_length_c 9.229015
_cell_angle_alpha 90.000000
_cell_angle_beta 90.000000
_cell_angle_gamma 90.000000
_cell_volume 1526.827726
_symmetry_space_group_name_H-M "P C A 21"
_symmetry_group_IT_number 29
_symmetry_cell_setting 'orthorhombic'
loop_
_space_group_symop_operation_xyz
x,y,z
-x,-y,1/2+z
1/2-x,y,1/2+z
1/2+x,-y,z
loop_
_atom_site_type_symbol
_atom_site_label
_atom_site_fract_x
_atom_site_fract_y
_atom_site_fract_z
Si Si1 0.110841 0.439854 0.201650
Si Si2 0.757927 0.837385 0.795788
Si Si3 0.098061 0.444184 0.852947
Si Si4 0.743860 0.189482 0.814857
Si Si5 0.013430 0.271397 0.191058
Si Si6 0.011516 0.274809 0.865480
Si Si7 0.380823 0.066635 0.052949
Si Si8 0.292459 0.917460 0.568316
O O1 0.258382 0.460348 0.271164
O O2 0.073769 0.352482 0.245919
O O3 0.004163 0.493727 0.285494
O O4 0.112125 0.452708 0.027484
O O5 0.866265 0.793330 0.692752
O O6 0.649943 0.776271 0.859473
O O7 0.677711 0.902968 0.705842
O O8 0.846304 0.873702 0.926151
O O9 0.042918 0.359852 0.806139
O O10 0.615004 0.246737 0.791154
O O11 0.886101 0.235651 0.775840
O O12 0.742757 0.109080 0.726730
O O13 0.734208 0.160729 0.978972
O O14 0.957439 0.280559 0.029177
O O15 0.547162 0.054037 0.063463
O O16 0.308658 0.985625 0.015832
#
# Coordination Sequence:
#
# PCOD8169229 Si02
#       8
#     4   4   4   4   4   4   4   4
#     4  11  25  47  71 106 144 185 230 282 345 417
#     4  12  23  44  69  96 130 172 228 276 341 400
#     4  11  25  47  71 106 144 185 230 282 345 417
#     4  12  25  46  67  98 134 174 232 280 341 404
#     4  11  24  44  72 101 133 175 227 285 336 401
#     4  11  24  44  72 101 133 175 227 285 336 401
#     4  12  28  42  66  98 131 180 221 285 341 410
#     4  12  28  44  66  96 135 176 227 281 345 408
#
# _framework density 20.958487999999999
#
# number of rings (size 3 to 8) (size 9 to 14) (size 15 to 20)
#    0.000    0.500    6.250    1.500    5.250    2.000 
#    6.750    0.000    0.000    0.000    0.000    0.000 
#    0.000    0.000    0.000    0.000    0.000    0.000 
#
# Total GULP energy -396930.267167 kJ/mol
# GULP energy per Si atom -12404.070849 kJ/mol
# Density = 2.091079 g / cm^3
# Si number density = 20.958488 Si / 1000 Ang^3
#
#
#
# Elastic Constant Matrix: (Units=GPa)
#
#
# Indices 1 2 3 4 5 6 
#
# 1 129.9933 57.4731 18.3479 0.0000 0.0000 0.0000
# 2 57.4731 58.2932 24.2185 0.0000 0.0000 0.0000
# 3 18.3479 24.2185 71.9339 0.0000 0.0000 0.0000
# 4 0.0000 0.0000 0.0000 30.6289 0.0000 0.0000
# 5 0.0000 0.0000 0.0000 0.0000 33.3258 0.0000
# 6 0.0000 0.0000 0.0000 0.0000 0.0000 41.5969
#
#
#
# Elastic Compliance Matrix: (Units=1/GPa)
#
#
# Indices 1 2 3 4 5 6 
#
# 1 0.013730 -0.014046 0.001227 0.000000 0.000000 0.000000
# 2 -0.014046 0.034315 -0.007970 0.000000 0.000000 0.000000
# 3 0.001227 -0.007970 0.016272 0.000000 0.000000 0.000000
# 4 0.000000 0.000000 0.000000 0.032649 0.000000 0.000000
# 5 0.000000 0.000000 0.000000 0.000000 0.030007 0.000000
# 6 0.000000 0.000000 0.000000 0.000000 0.000000 0.024040
#
#
# Mechanical properties :
#
#
# Convention : Reuss Voigt Hill
#
# Bulk Modulus (GPa) = 43.98018 51.14437 47.56228
# Shear Modulus (GPa) = 24.97868 31.78905 28.38387
#
# Velocity S-wave (km/s) = 3.45602 3.89879 3.68406
# Velocity P-wave (km/s) = 6.07909 6.68753 6.39056
#
# Compressibility (1/GPa) = 0.02273751
#
# Stress axis : x y z
#
# Youngs Moduli (GPa) = 72.83456 29.14197 61.45504
#
# Poissons Ratio (x) = 0.40934 -0.07541
# Poissons Ratio (y) = 1.02306 0.48981
# Poissons Ratio (z) = -0.08938 0.23227
#
# Static dielectric constant tensor:
#      x y z
#    x 4.466970 0.000000 0.000000 
#    y 0.000000 3.835490 0.000000 
#    z 0.000000 0.000000 3.807170 
# 
# 
# High freq. dielectric constant tensor:
#      x y z
#    x 1.834010 0.000000 0.000000 
#    y 0.000000 1.828510 0.000000 
#    z 0.000000 0.000000 1.825420 
# 
# From -- ./inp_files/1244.got.cif
#   From: 2010.03.12/outbox.cif.g09.slc.cpg/sg29_1_cif.got.tgz:1244.got - 2010.04.14 03:43:10.
