data_PCOD8169239
_publ_section_title
;
Structure prediction by ZEFSAII (Michael W. Deem and Ramdas Pophale) SiO2 
 PCOD8169239
Probable space group: P C A 21
;
_chemical_formula_sum "Si O2"
_cell_formula_units_Z 20
_cell_length_a 15.847094
_cell_length_b 6.051252
_cell_length_c 7.916461
_cell_angle_alpha 90.000000
_cell_angle_beta 90.000000
_cell_angle_gamma 90.000000
_cell_volume 759.147122
_symmetry_space_group_name_H-M "P C A 21"
_symmetry_group_IT_number 29
_symmetry_cell_setting 'orthorhombic'
loop_
_space_group_symop_operation_xyz
x,y,z
-x,-y,1/2+z
1/2-x,y,1/2+z
1/2+x,-y,z
loop_
_atom_site_type_symbol
_atom_site_label
_atom_site_fract_x
_atom_site_fract_y
_atom_site_fract_z
Si Si1 0.393080 0.861247 0.220250
Si Si2 0.169890 0.482935 0.927966
Si Si3 0.849440 0.186366 0.705036
Si Si4 0.765468 0.927950 0.997017
Si Si5 0.010716 0.188330 0.910341
O O1 0.329162 0.666777 0.278321
O O2 0.335096 0.065928 0.148158
O O3 0.443581 0.950541 0.384425
O O4 0.460326 0.784690 0.082964
O O5 0.178737 0.585164 0.116565
O O6 0.250008 0.312717 0.911875
O O7 0.077308 0.383296 0.903587
O O8 0.947692 0.203304 0.749529
O O9 0.827413 0.990001 0.570850
O O10 0.796016 0.124831 0.873158
#
# Coordination Sequence:
#
# PCOD8169239 Si02
#       5
#     4   4   4   4   4
#     4  11  25  46  73 108 148 192 245 302 361 434
#     4  12  24  46  73 104 144 193 244 297 370 436
#     4  11  25  46  73 107 146 191 244 302 360 433
#     4  11  26  46  70 106 151 192 239 302 359 435
#     4  11  24  46  75 107 147 190 242 305 362 432
#
# _framework density 26.345357
#
# number of rings (size 3 to 8) (size 9 to 14) (size 15 to 20)
#    0.000    0.800    0.000    7.200    0.000    6.400 
#    0.000   18.000    0.000    0.000    0.000    0.000 
#    0.000    0.000    0.000    0.000    0.000    0.000 
#
# Total GULP energy -247791.253120 kJ/mol
# GULP energy per Si atom -12389.562656 kJ/mol
# Density = 2.628539 g / cm^3
# Si number density = 26.345357 Si / 1000 Ang^3
#
#
#
# Elastic Constant Matrix: (Units=GPa)
#
#
# Indices 1 2 3 4 5 6 
#
# 1 114.0106 53.7227 56.9787 0.0000 0.0000 0.0000
# 2 53.7227 103.4780 56.5021 0.0000 0.0000 0.0000
# 3 56.9787 56.5021 103.2179 0.0000 0.0000 0.0000
# 4 0.0000 0.0000 0.0000 48.0324 0.0000 0.0000
# 5 0.0000 0.0000 0.0000 0.0000 72.0085 0.0000
# 6 0.0000 0.0000 0.0000 0.0000 0.0000 52.5877
#
#
#
# Elastic Compliance Matrix: (Units=1/GPa)
#
#
# Indices 1 2 3 4 5 6 
#
# 1 0.013235 -0.004110 -0.005056 0.000000 0.000000 0.000000
# 2 -0.004110 0.015061 -0.005975 0.000000 0.000000 0.000000
# 3 -0.005056 -0.005975 0.015750 0.000000 0.000000 0.000000
# 4 0.000000 0.000000 0.000000 0.020819 0.000000 0.000000
# 5 0.000000 0.000000 0.000000 0.000000 0.013887 0.000000
# 6 0.000000 0.000000 0.000000 0.000000 0.000000 0.019016
#
#
# Mechanical properties :
#
#
# Convention : Reuss Voigt Hill
#
# Bulk Modulus (GPa) = 72.66154 72.79039 72.72597
# Shear Modulus (GPa) = 37.69663 44.75926 41.22794
#
# Velocity S-wave (km/s) = 3.78678 4.12630 3.96018
# Velocity P-wave (km/s) = 6.83812 7.09866 6.96961
#
# Compressibility (1/GPa) = 0.01376244
#
# Stress axis : x y z
#
# Youngs Moduli (GPa) = 75.55898 66.39873 63.49212
#
# Poissons Ratio (x) = 0.27293 0.32100
# Poissons Ratio (y) = 0.31058 0.37938
# Poissons Ratio (z) = 0.38201 0.39674
#
# Static dielectric constant tensor:
#      x y z
#    x 5.002450 0.000000 0.000000 
#    y 0.000000 4.475900 0.000000 
#    z 0.000000 0.000000 5.067610 
# 
# 
# High freq. dielectric constant tensor:
#      x y z
#    x 2.076140 0.000000 0.000000 
#    y 0.000000 2.032330 0.000000 
#    z 0.000000 0.000000 2.076500 
# 
# From -- ./inp_files/1960.got.cif
#   From: 2010.03.12/outbox.cif.g09.slc.cpg/sg29_1_cif.got.tgz:1960.got - 2010.04.14 03:43:10.
