data_PCOD8169839
_publ_section_title
;
Structure prediction by ZEFSAII (Michael W. Deem and Ramdas Pophale) SiO2 
 PCOD8169839
Probable space group: P M N 21
;
_chemical_formula_sum "Si O2"
_cell_formula_units_Z 32
_cell_length_a 9.354573
_cell_length_b 11.401744
_cell_length_c 16.039851
_cell_angle_alpha 90.000000
_cell_angle_beta 90.000000
_cell_angle_gamma 90.000000
_cell_volume 1710.785591
_symmetry_space_group_name_H-M "P M N 21"
_symmetry_group_IT_number 31
_symmetry_cell_setting 'orthorhombic'
loop_
_space_group_symop_operation_xyz
x,y,z
1/2-x,-y,1/2+z
-x,y,z
1/2+x,-y,1/2+z
loop_
_atom_site_type_symbol
_atom_site_label
_atom_site_fract_x
_atom_site_fract_y
_atom_site_fract_z
Si Si1 0.667749 0.735583 0.461370
Si Si2 0.156367 0.908958 0.363523
Si Si3 0.166832 0.416634 0.803265
Si Si4 0.335206 0.929317 0.087489
Si Si5 0.833420 0.687027 0.792263
Si Si6 0.840338 0.154689 0.402778
Si Si7 0.330946 0.198693 0.118513
Si Si8 0.340042 0.239877 0.700750
O O1 0.500000 0.740915 0.479600
O O2 0.718627 0.858019 0.421222
O O3 0.706777 0.631164 0.396072
O O4 0.751658 0.721634 0.548590
O O5 0.150714 0.847154 0.276568
O O6 0.000000 0.895900 0.409328
O O7 0.183447 0.044781 0.340839
O O8 0.209492 0.551512 0.794919
O O9 0.254465 0.354867 0.729411
O O10 0.000000 0.393997 0.786506
O O11 0.500000 0.912719 0.113813
O O12 0.242411 0.828288 0.129296
O O13 0.286090 0.061682 0.110852
O O14 0.307734 0.904850 0.991065
O O15 0.764391 0.742754 0.874922
O O16 0.779651 0.749442 0.707499
O O17 0.000000 0.705001 0.802107
O O18 0.000000 0.206673 0.399231
O O19 0.500000 0.215088 0.106720
O O20 0.500000 0.275350 0.670701
#
# Coordination Sequence:
#
# PCOD8169839 Si02
#       8
#     4   4   4   4   4   4   4   4
#     4  10  19  32  56  84 109 142 181 230 278 323
#     4   9  17  33  54  78 111 143 176 220 275 333
#     4   9  20  40  58  77 111 149 188 229 278 331
#     4  10  20  35  55  81 116 148 177 221 282 342
#     4  10  22  39  59  81 110 151 192 234 276 328
#     4  10  20  35  55  79 113 149 177 224 282 332
#     4  10  20  37  59  83 112 146 185 229 281 339
#     4  10  20  33  56  85 108 140 184 231 272 320
#
# _framework density 18.704857000000001
#
# number of rings (size 3 to 8) (size 9 to 14) (size 15 to 20)
#    0.000    2.250    1.250    1.500    0.000    3.500 
#    2.250    0.000    0.000    0.000    0.000    0.000 
#    0.000    0.000    0.000    0.000    0.000    0.000 
#
# Total GULP energy -396658.565141 kJ/mol
# GULP energy per Si atom -12395.580161 kJ/mol
# Density = 1.866228 g / cm^3
# Si number density = 18.704857 Si / 1000 Ang^3
#
#
#
# Elastic Constant Matrix: (Units=GPa)
#
#
# Indices 1 2 3 4 5 6 
#
# 1 66.4781 55.4810 37.3712 0.0000 0.0000 0.0000
# 2 55.4810 128.0150 54.0485 0.0000 0.0000 0.0000
# 3 37.3712 54.0485 65.8734 0.0000 0.0000 0.0000
# 4 0.0000 0.0000 0.0000 23.5528 0.0000 0.0000
# 5 0.0000 0.0000 0.0000 0.0000 33.0706 0.0000
# 6 0.0000 0.0000 0.0000 0.0000 0.0000 27.4825
#
#
#
# Elastic Compliance Matrix: (Units=1/GPa)
#
#
# Indices 1 2 3 4 5 6 
#
# 1 0.026375 -0.007823 -0.008544 0.000000 0.000000 0.000000
# 2 -0.007823 0.014273 -0.007272 0.000000 0.000000 0.000000
# 3 -0.008544 -0.007272 0.025994 0.000000 0.000000 0.000000
# 4 0.000000 0.000000 0.000000 0.042458 0.000000 0.000000
# 5 0.000000 0.000000 0.000000 0.000000 0.030238 0.000000
# 6 0.000000 0.000000 0.000000 0.000000 0.000000 0.036387
#
#
# Mechanical properties :
#
#
# Convention : Reuss Voigt Hill
#
# Bulk Modulus (GPa) = 51.64502 61.57420 56.60961
# Shear Modulus (GPa) = 21.79053 24.38558 23.08805
#
# Velocity S-wave (km/s) = 3.41686 3.61460 3.51712
# Velocity P-wave (km/s) = 6.57549 7.10005 6.84280
#
# Compressibility (1/GPa) = 0.01936295
#
# Stress axis : x y z
#
# Youngs Moduli (GPa) = 37.91506 70.06469 38.46984
#
# Poissons Ratio (x) = 0.54815 0.32868
# Poissons Ratio (y) = 0.29663 0.27976
# Poissons Ratio (z) = 0.32394 0.50952
#
# Static dielectric constant tensor:
#      x y z
#    x 3.731190 0.000000 0.000000 
#    y 0.000000 3.608060 0.000000 
#    z 0.000000 0.000000 3.665620 
# 
# 
# High freq. dielectric constant tensor:
#      x y z
#    x 1.724880 0.000000 0.000000 
#    y 0.000000 1.717710 0.000000 
#    z 0.000000 0.000000 1.722910 
# 
# From -- ./inp_files/4921.got.cif
#   From: 2010.03.12/outbox.cif.g09.slc.cpg/sg31_3_cif.got.tgz:4921.got - 2010.04.14 01:42:59.
