data_PCOD8169420
_publ_section_title
;
Structure prediction by ZEFSAII (Michael W. Deem and Ramdas Pophale) SiO2 
 PCOD8169420
Probable space group: P N C 2
;
_chemical_formula_sum "Si O2"
_cell_formula_units_Z 20
_cell_length_a 10.624943
_cell_length_b 10.324995
_cell_length_c 8.882368
_cell_angle_alpha 90.000000
_cell_angle_beta 90.000000
_cell_angle_gamma 90.000000
_cell_volume 974.417828
_symmetry_space_group_name_H-M "P N C 2"
_symmetry_group_IT_number 30
_symmetry_cell_setting 'orthorhombic'
loop_
_space_group_symop_operation_xyz
x,y,z
-x,-y,z
-x,1/2+y,1/2+z
x,1/2-y,1/2+z
loop_
_atom_site_type_symbol
_atom_site_label
_atom_site_fract_x
_atom_site_fract_y
_atom_site_fract_z
Si Si1 0.375697 0.081076 0.998810
Si Si2 0.194233 0.715163 0.798265
Si Si3 0.120968 0.919444 0.020818
Si Si4 0.331940 0.898335 0.564240
Si Si5 0.607407 0.837111 0.662010
O O1 0.404349 0.150583 0.841076
O O2 0.500000 0.000000 0.047001
O O3 0.344960 0.193393 0.120344
O O4 0.254541 0.988662 0.988383
O O5 0.110610 0.618164 0.697075
O O6 0.260032 0.810978 0.683025
O O7 0.108485 0.793471 0.915135
O O8 0.294863 0.631232 0.892249
O O9 0.000000 0.000000 0.975063
O O10 0.476594 0.863010 0.580276
O O11 0.300824 0.049047 0.600484
#
# Coordination Sequence:
#
# PCOD8169420 Si02
#       5
#     4   4   4   4   4
#     4  12  24  42  63  97 134 169 217 273 327 386
#     4  10  21  43  66  89 130 177 214 259 340 389
#     4  11  25  45  68  94 132 173 221 269 327 393
#     4  10  19  39  64  95 132 172 211 265 333 392
#     4  11  22  36  62  98 132 162 220 270 320 384
#
# _framework density 20.525075999999999
#
# number of rings (size 3 to 8) (size 9 to 14) (size 15 to 20)
#    0.000    1.200    4.000    3.600    2.800    1.600 
#    0.000    2.000    0.000    0.000    0.000    0.000 
#    0.000    0.000    0.000    0.000    0.000    0.000 
#
# Total GULP energy -247963.522531 kJ/mol
# GULP energy per Si atom -12398.176127 kJ/mol
# Density = 2.047836 g / cm^3
# Si number density = 20.525076 Si / 1000 Ang^3
#
#
#
# Elastic Constant Matrix: (Units=GPa)
#
#
# Indices 1 2 3 4 5 6 
#
# 1 77.2666 17.4197 11.0498 0.0000 0.0000 0.0000
# 2 17.4197 97.9062 32.9366 0.0000 0.0000 0.0000
# 3 11.0498 32.9366 110.3746 0.0000 0.0000 0.0000
# 4 0.0000 0.0000 0.0000 44.1182 0.0000 0.0000
# 5 0.0000 0.0000 0.0000 0.0000 15.8317 0.0000
# 6 0.0000 0.0000 0.0000 0.0000 0.0000 28.2757
#
#
#
# Elastic Compliance Matrix: (Units=1/GPa)
#
#
# Indices 1 2 3 4 5 6 
#
# 1 0.013533 -0.002170 -0.000707 0.000000 0.000000 0.000000
# 2 -0.002170 0.011702 -0.003275 0.000000 0.000000 0.000000
# 3 -0.000707 -0.003275 0.010108 0.000000 0.000000 0.000000
# 4 0.000000 0.000000 0.000000 0.022666 0.000000 0.000000
# 5 0.000000 0.000000 0.000000 0.000000 0.063164 0.000000
# 6 0.000000 0.000000 0.000000 0.000000 0.000000 0.035366
#
#
# Mechanical properties :
#
#
# Convention : Reuss Voigt Hill
#
# Bulk Modulus (GPa) = 43.40519 45.37329 44.38924
# Shear Modulus (GPa) = 28.32512 32.58788 30.45650
#
# Velocity S-wave (km/s) = 3.71890 3.98893 3.85628
# Velocity P-wave (km/s) = 6.29552 6.58557 6.44218
#
# Compressibility (1/GPa) = 0.02303872
#
# Stress axis : x y z
#
# Youngs Moduli (GPa) = 73.89599 85.45897 98.93126
#
# Poissons Ratio (x) = 0.18543 0.06997
# Poissons Ratio (y) = 0.16034 0.32396
# Poissons Ratio (z) = 0.05227 0.27984
#
# Static dielectric constant tensor:
#      x y z
#    x 3.359230 0.000000 0.000000 
#    y 0.000000 4.313300 0.000000 
#    z 0.000000 0.000000 4.033060 
# 
# 
# High freq. dielectric constant tensor:
#      x y z
#    x 1.762460 0.000000 0.000000 
#    y 0.000000 1.818200 0.000000 
#    z 0.000000 0.000000 1.817900 
# 
# From -- ./inp_files/1695.got.cif
#   From: 2010.03.12/outbox.cif.g09.slc.cpg/sg30_1_cif.got.tgz:1695.got - 2010.04.14 01:38:02.
