data_PCOD8169163
_publ_section_title
;
Structure prediction by ZEFSAII (Michael W. Deem and Ramdas Pophale) SiO2 
 PCOD8169163
Probable space group: P C A 21
;
_chemical_formula_sum "Si O2"
_cell_formula_units_Z 32
_cell_length_a 14.943082
_cell_length_b 10.544688
_cell_length_c 8.947865
_cell_angle_alpha 90.000000
_cell_angle_beta 90.000000
_cell_angle_gamma 90.000000
_cell_volume 1409.916318
_symmetry_space_group_name_H-M "P C A 21"
_symmetry_group_IT_number 29
_symmetry_cell_setting 'orthorhombic'
loop_
_space_group_symop_operation_xyz
x,y,z
-x,-y,1/2+z
1/2-x,y,1/2+z
1/2+x,-y,z
loop_
_atom_site_type_symbol
_atom_site_label
_atom_site_fract_x
_atom_site_fract_y
_atom_site_fract_z
Si Si1 0.787594 0.012776 0.146100
Si Si2 0.297009 0.247517 0.688152
Si Si3 0.140134 0.363589 0.878898
Si Si4 0.029002 0.175188 0.316460
Si Si5 0.979774 0.962833 0.120116
Si Si6 0.450383 0.718456 0.757419
Si Si7 0.886682 0.353497 0.451661
Si Si8 0.221660 0.808451 0.389395
O O1 0.716531 0.900032 0.147784
O O2 0.882244 0.954145 0.198590
O O3 0.759719 0.138539 0.234452
O O4 0.801421 0.063419 0.978601
O O5 0.208664 0.314259 0.753025
O O6 0.328426 0.319383 0.540869
O O7 0.375866 0.248842 0.812807
O O8 0.138872 0.514979 0.874928
O O9 0.039626 0.318973 0.844261
O O10 0.025459 0.066055 0.443547
O O11 0.953568 0.280577 0.340226
O O12 0.016355 0.104400 0.155934
O O13 0.044555 0.860527 0.193701
O O14 0.432433 0.626339 0.614882
O O15 0.365455 0.718878 0.868445
O O16 0.796104 0.274188 0.473398
#
# Coordination Sequence:
#
# PCOD8169163 Si02
#       8
#     4   4   4   4   4   4   4   4
#     4  12  23  42  72 108 150 185 245 306 382 447
#     4  12  28  50  76 115 147 206 250 312 382 441
#     4  12  30  50  80 105 155 204 257 312 365 455
#     4  11  26  43  75 110 149 195 250 312 384 452
#     4  11  22  42  71 107 151 186 241 314 376 452
#     4  11  26  50  72 112 148 197 250 308 380 443
#     4  11  28  50  74 110 149 198 256 313 371 455
#     4  12  25  45  74 107 147 193 239 317 378 447
#
# _framework density 22.696380999999999
#
# number of rings (size 3 to 8) (size 9 to 14) (size 15 to 20)
#    0.000    0.500    3.750    3.750   10.500    0.000 
#    0.000    0.000    0.000    0.000    0.000    0.000 
#    0.000    0.000    0.000    0.000    0.000    0.000 
#
# Total GULP energy -396873.325280 kJ/mol
# GULP energy per Si atom -12402.291415 kJ/mol
# Density = 2.264472 g / cm^3
# Si number density = 22.696381 Si / 1000 Ang^3
#
#
#
# Elastic Constant Matrix: (Units=GPa)
#
#
# Indices 1 2 3 4 5 6 
#
# 1 155.7913 37.2126 43.9288 0.0000 0.0000 0.0000
# 2 37.2126 108.3459 43.9770 0.0000 0.0000 0.0000
# 3 43.9288 43.9770 92.9404 0.0000 0.0000 0.0000
# 4 0.0000 0.0000 0.0000 31.3871 0.0000 0.0000
# 5 0.0000 0.0000 0.0000 0.0000 38.0955 0.0000
# 6 0.0000 0.0000 0.0000 0.0000 0.0000 28.1016
#
#
#
# Elastic Compliance Matrix: (Units=1/GPa)
#
#
# Indices 1 2 3 4 5 6 
#
# 1 0.007579 -0.001422 -0.002909 0.000000 0.000000 0.000000
# 2 -0.001422 0.011691 -0.004859 0.000000 0.000000 0.000000
# 3 -0.002909 -0.004859 0.014434 0.000000 0.000000 0.000000
# 4 0.000000 0.000000 0.000000 0.031860 0.000000 0.000000
# 5 0.000000 0.000000 0.000000 0.000000 0.026250 0.000000
# 6 0.000000 0.000000 0.000000 0.000000 0.000000 0.035585
#
#
# Mechanical properties :
#
#
# Convention : Reuss Voigt Hill
#
# Bulk Modulus (GPa) = 65.26707 67.47935 66.37321
# Shear Modulus (GPa) = 33.13721 34.98079 34.05900
#
# Velocity S-wave (km/s) = 3.82517 3.93013 3.87801
# Velocity P-wave (km/s) = 6.95185 7.09863 7.02562
#
# Compressibility (1/GPa) = 0.01532166
#
# Stress axis : x y z
#
# Youngs Moduli (GPa) = 131.94562 85.53883 69.28077
#
# Poissons Ratio (x) = 0.12165 0.20155
# Poissons Ratio (y) = 0.18765 0.33667
# Poissons Ratio (z) = 0.38386 0.41567
#
# Static dielectric constant tensor:
#      x y z
#    x 4.296500 0.000000 0.000000 
#    y 0.000000 3.862660 0.000000 
#    z 0.000000 0.000000 3.985700 
# 
# 
# High freq. dielectric constant tensor:
#      x y z
#    x 1.918400 0.000000 0.000000 
#    y 0.000000 1.880430 0.000000 
#    z 0.000000 0.000000 1.890970 
# 
# From -- ./inp_files/1855.got.cif
#   From: 2010.03.12/outbox.cif.g09.slc.cpg/sg29_1_cif.got.tgz:1855.got - 2010.04.14 03:43:10.
