data_PCOD8169690
_publ_section_title
;
Structure prediction by ZEFSAII (Michael W. Deem and Ramdas Pophale) SiO2 
 PCOD8169690
Probable space group: P M N 21
;
_chemical_formula_sum "Si O2"
_cell_formula_units_Z 32
_cell_length_a 9.296727
_cell_length_b 11.411269
_cell_length_c 18.264218
_cell_angle_alpha 90.000000
_cell_angle_beta 90.000000
_cell_angle_gamma 90.000000
_cell_volume 1937.604362
_symmetry_space_group_name_H-M "P M N 21"
_symmetry_group_IT_number 31
_symmetry_cell_setting 'orthorhombic'
loop_
_space_group_symop_operation_xyz
x,y,z
1/2-x,-y,1/2+z
-x,y,z
1/2+x,-y,1/2+z
loop_
_atom_site_type_symbol
_atom_site_label
_atom_site_fract_x
_atom_site_fract_y
_atom_site_fract_z
Si Si1 0.840006 0.966452 0.632130
Si Si2 0.829121 0.728731 0.860710
Si Si3 0.829520 0.731282 0.697934
Si Si4 0.660608 0.157697 0.571482
Si Si5 0.156888 0.970616 0.918476
Si Si6 0.841857 0.841492 0.477475
Si Si7 0.828940 0.614908 0.553491
Si Si8 0.827799 0.361728 0.498646
O O1 0.772859 0.863718 0.683113
O O2 0.851664 0.918474 0.550143
O O3 0.000000 0.003856 0.658672
O O4 0.736313 0.080112 0.634892
O O5 0.785923 0.687287 0.778948
O O6 0.783666 0.865685 0.867410
O O7 0.000000 0.714748 0.877253
O O8 0.737899 0.651898 0.917526
O O9 0.770368 0.641287 0.636074
O O10 0.000000 0.739139 0.691189
O O11 0.500000 0.196251 0.596829
O O12 0.647318 0.079081 0.499952
O O13 0.760006 0.269911 0.555320
O O14 0.000000 0.009006 0.890608
O O15 0.252890 0.087824 0.915886
O O16 0.770943 0.715148 0.497440
O O17 0.000000 0.822769 0.443914
O O18 0.777770 0.488507 0.527184
O O19 0.000000 0.623959 0.554230
O O20 0.000000 0.346638 0.496123
#
# Coordination Sequence:
#
# PCOD8169690 Si02
#       8
#     4   4   4   4   4   4   4   4
#     4   8  13  23  42  65  83 103 135 172 213 261
#     4   9  17  29  45  65  90 117 144 181 230 276
#     4   8  14  27  47  67  87 113 146 185 228 274
#     4   9  16  26  40  60  87 113 137 171 216 260
#     4   8  14  23  36  58  84 106 129 161 206 256
#     4   8  13  23  40  60  80 102 131 169 211 252
#     4   8  15  27  44  66  86 109 149 193 223 251
#     4  10  18  28  44  65  89 117 153 192 221 256
#
# _framework density 16.515239999999999
#
# number of rings (size 3 to 8) (size 9 to 14) (size 15 to 20)
#    0.000    3.500    0.000    3.000    0.000    3.000 
#    0.000    1.875    0.000    5.250    0.000    7.000 
#    0.000    0.000    0.000    0.000    0.000    0.000 
#
# Total GULP energy -396442.542002 kJ/mol
# GULP energy per Si atom -12388.829438 kJ/mol
# Density = 1.647765 g / cm^3
# Si number density = 16.515240 Si / 1000 Ang^3
#
#
#
# Elastic Constant Matrix: (Units=GPa)
#
#
# Indices 1 2 3 4 5 6 
#
# 1 65.8343 47.2793 28.4710 0.0000 0.0000 0.0000
# 2 47.2793 121.2517 52.9729 0.0000 0.0000 0.0000
# 3 28.4710 52.9729 68.5918 0.0000 0.0000 0.0000
# 4 0.0000 0.0000 0.0000 15.9672 0.0000 0.0000
# 5 0.0000 0.0000 0.0000 0.0000 14.3818 0.0000
# 6 0.0000 0.0000 0.0000 0.0000 0.0000 17.3379
#
#
#
# Elastic Compliance Matrix: (Units=1/GPa)
#
#
# Indices 1 2 3 4 5 6 
#
# 1 0.021713 -0.006835 -0.003734 0.000000 0.000000 0.000000
# 2 -0.006835 0.014599 -0.008437 0.000000 0.000000 0.000000
# 3 -0.003734 -0.008437 0.022645 0.000000 0.000000 0.000000
# 4 0.000000 0.000000 0.000000 0.062628 0.000000 0.000000
# 5 0.000000 0.000000 0.000000 0.000000 0.069533 0.000000
# 6 0.000000 0.000000 0.000000 0.000000 0.000000 0.057677
#
#
# Mechanical properties :
#
#
# Convention : Reuss Voigt Hill
#
# Bulk Modulus (GPa) = 47.74646 57.01380 52.38013
# Shear Modulus (GPa) = 17.01901 18.00100 17.51001
#
# Velocity S-wave (km/s) = 3.21363 3.30504 3.25966
# Velocity P-wave (km/s) = 6.53783 7.01151 6.77881
#
# Compressibility (1/GPa) = 0.02094396
#
# Stress axis : x y z
#
# Youngs Moduli (GPa) = 46.05487 68.49927 44.16005
#
# Poissons Ratio (x) = 0.46821 0.16489
# Poissons Ratio (y) = 0.31480 0.37259
# Poissons Ratio (z) = 0.17196 0.57795
#
# Static dielectric constant tensor:
#      x y z
#    x 3.162400 0.000000 0.000000 
#    y 0.000000 3.186440 0.000000 
#    z 0.000000 0.000000 2.963940 
# 
# 
# High freq. dielectric constant tensor:
#      x y z
#    x 1.615820 0.000000 0.000000 
#    y 0.000000 1.624170 0.000000 
#    z 0.000000 0.000000 1.598630 
# 
# From -- ./inp_files/6265.got.cif
#   From: 2010.03.12/outbox.cif.g09.slc.cpg/sg31_4_cif.got.tgz:6265.got - 2010.04.14 01:42:59.
