data_PCOD8169785
_publ_section_title
;
Structure prediction by ZEFSAII (Michael W. Deem and Ramdas Pophale) SiO2 
 PCOD8169785
Probable space group: P M N 21
;
_chemical_formula_sum "Si O2"
_cell_formula_units_Z 24
_cell_length_a 9.227015
_cell_length_b 9.094008
_cell_length_c 16.522954
_cell_angle_alpha 90.000000
_cell_angle_beta 90.000000
_cell_angle_gamma 90.000000
_cell_volume 1386.450128
_symmetry_space_group_name_H-M "P M N 21"
_symmetry_group_IT_number 31
_symmetry_cell_setting 'orthorhombic'
loop_
_space_group_symop_operation_xyz
x,y,z
1/2-x,-y,1/2+z
-x,y,z
1/2+x,-y,1/2+z
loop_
_atom_site_type_symbol
_atom_site_label
_atom_site_fract_x
_atom_site_fract_y
_atom_site_fract_z
Si Si1 0.168172 0.846852 0.843280
Si Si2 0.331060 0.178052 0.524779
Si Si3 0.168863 0.659755 0.690323
Si Si4 0.159213 0.108725 0.104947
Si Si5 0.327630 0.674781 0.169175
Si Si6 0.837398 0.911406 0.263341
O O1 0.216362 0.724986 0.777440
O O2 0.000000 0.888050 0.832420
O O3 0.258923 0.997347 0.834312
O O4 0.197869 0.778471 0.931785
O O5 0.500000 0.199719 0.549271
O O6 0.232354 0.280085 0.581178
O O7 0.288890 0.004875 0.535313
O O8 0.237193 0.751492 0.615875
O O9 0.219694 0.492301 0.685347
O O10 0.000000 0.673452 0.677408
O O11 0.000000 0.170962 0.084775
O O12 0.157007 0.014275 0.185972
O O13 0.500000 0.697663 0.170846
O O14 0.255593 0.767236 0.241679
O O15 0.000000 0.866634 0.290645
#
# Coordination Sequence:
#
# PCOD8169785 Si02
#       6
#     4   4   4   4   4   4
#     4   9  17  32  52  71  94 124 159 201 245 286
#     4   9  18  32  50  72  95 122 160 202 243 287
#     4   9  18  31  48  70  94 124 160 194 233 285
#     4   8  15  28  46  67  89 115 150 190 230 276
#     4  10  19  31  48  70  97 128 161 195 234 284
#     4   9  17  30  48  70  93 119 156 194 231 280
#
# _framework density 17.310395
#
# number of rings (size 3 to 8) (size 9 to 14) (size 15 to 20)
#    0.000    3.000    0.000    2.000    0.000    6.000 
#    0.000    1.667    0.000    8.000    0.000    0.000 
#    0.000    0.000    0.000    0.000    0.000    0.000 
#
# Total GULP energy -297491.578114 kJ/mol
# GULP energy per Si atom -12395.482421 kJ/mol
# Density = 1.727100 g / cm^3
# Si number density = 17.310395 Si / 1000 Ang^3
#
#
#
# Elastic Constant Matrix: (Units=GPa)
#
#
# Indices 1 2 3 4 5 6 
#
# 1 75.1569 60.8883 32.0667 0.0000 0.0000 0.0000
# 2 60.8883 130.2634 41.7826 0.0000 0.0000 0.0000
# 3 32.0667 41.7826 67.8020 0.0000 0.0000 0.0000
# 4 0.0000 0.0000 0.0000 17.7104 0.0000 0.0000
# 5 0.0000 0.0000 0.0000 0.0000 21.0121 0.0000
# 6 0.0000 0.0000 0.0000 0.0000 0.0000 28.5014
#
#
#
# Elastic Compliance Matrix: (Units=1/GPa)
#
#
# Indices 1 2 3 4 5 6 
#
# 1 0.022827 -0.008983 -0.005261 0.000000 0.000000 0.000000
# 2 -0.008983 0.013103 -0.003826 0.000000 0.000000 0.000000
# 3 -0.005261 -0.003826 0.019595 0.000000 0.000000 0.000000
# 4 0.000000 0.000000 0.000000 0.056464 0.000000 0.000000
# 5 0.000000 0.000000 0.000000 0.000000 0.047592 0.000000
# 6 0.000000 0.000000 0.000000 0.000000 0.000000 0.035086
#
#
# Mechanical properties :
#
#
# Convention : Reuss Voigt Hill
#
# Bulk Modulus (GPa) = 51.58395 60.29971 55.94183
# Shear Modulus (GPa) = 21.07331 22.67711 21.87521
#
# Velocity S-wave (km/s) = 3.49288 3.62336 3.55872
# Velocity P-wave (km/s) = 6.79198 7.23982 7.01947
#
# Compressibility (1/GPa) = 0.01938587
#
# Stress axis : x y z
#
# Youngs Moduli (GPa) = 43.80723 76.32001 51.03435
#
# Poissons Ratio (x) = 0.68556 0.26847
# Poissons Ratio (y) = 0.39351 0.19527
# Poissons Ratio (z) = 0.23045 0.29201
#
# Static dielectric constant tensor:
#      x y z
#    x 3.359820 0.000000 0.000000 
#    y 0.000000 3.267390 0.000000 
#    z 0.000000 0.000000 3.175170 
# 
# 
# High freq. dielectric constant tensor:
#      x y z
#    x 1.671820 0.000000 0.000000 
#    y 0.000000 1.655980 0.000000 
#    z 0.000000 0.000000 1.647300 
# 
# From -- ./inp_files/5693.got.cif
#   From: 2010.03.12/outbox.cif.g09.slc.cpg/sg31_3_cif.got.tgz:5693.got - 2010.04.14 01:42:59.
