data_PCOD8169126
_publ_section_title
;
Structure prediction by ZEFSAII (Michael W. Deem and Ramdas Pophale) SiO2 
 PCOD8169126
Probable space group: P C A 21
;
_chemical_formula_sum "Si O2"
_cell_formula_units_Z 24
_cell_length_a 17.313832
_cell_length_b 7.695107
_cell_length_c 8.702407
_cell_angle_alpha 90.000000
_cell_angle_beta 90.000000
_cell_angle_gamma 90.000000
_cell_volume 1159.437260
_symmetry_space_group_name_H-M "P C A 21"
_symmetry_group_IT_number 29
_symmetry_cell_setting 'orthorhombic'
loop_
_space_group_symop_operation_xyz
x,y,z
-x,-y,1/2+z
1/2-x,y,1/2+z
1/2+x,-y,z
loop_
_atom_site_type_symbol
_atom_site_label
_atom_site_fract_x
_atom_site_fract_y
_atom_site_fract_z
Si Si1 0.353374 0.755132 0.133700
Si Si2 0.202882 0.260975 0.003934
Si Si3 0.238998 0.620517 0.370147
Si Si4 0.599047 0.528773 0.209191
Si Si5 0.047884 0.434582 0.545606
Si Si6 0.346620 0.138466 0.183957
O O1 0.315782 0.695028 0.293971
O O2 0.422810 0.626958 0.090412
O O3 0.384855 0.951170 0.149155
O O4 0.287898 0.751441 0.002336
O O5 0.245615 0.432108 0.941861
O O6 0.168435 0.149840 0.865223
O O7 0.132481 0.305153 0.118637
O O8 0.265538 0.149133 0.095535
O O9 0.169903 0.600127 0.246553
O O10 0.540872 0.423307 0.098187
O O11 0.555046 0.593785 0.362834
O O12 0.095514 0.289007 0.634546
#
# Coordination Sequence:
#
# PCOD8169126 Si02
#       6
#     4   4   4   4   4   4
#     4  11  23  38  63  93 127 165 210 262 313 370
#     4  12  19  40  67  91 122 166 217 260 315 367
#     4  11  19  40  65  91 121 163 215 261 307 368
#     4  11  22  39  70  90 124 177 203 260 326 372
#     4  11  23  42  61  92 132 165 212 256 319 392
#     4  12  22  39  64  93 128 166 213 261 314 379
#
# _framework density 20.699698000000001
#
# number of rings (size 3 to 8) (size 9 to 14) (size 15 to 20)
#    0.000    0.667    8.333    2.000    0.000    0.000 
#    0.000    6.667    0.000    0.000    0.000    0.000 
#    0.000    0.000    0.000    0.000    0.000    0.000 
#
# Total GULP energy -297677.760966 kJ/mol
# GULP energy per Si atom -12403.240040 kJ/mol
# Density = 2.065258 g / cm^3
# Si number density = 20.699698 Si / 1000 Ang^3
#
#
#
# Elastic Constant Matrix: (Units=GPa)
#
#
# Indices 1 2 3 4 5 6 
#
# 1 72.4387 23.0043 29.4595 0.0000 0.0000 0.0000
# 2 23.0043 121.5864 38.8427 0.0000 0.0000 0.0000
# 3 29.4595 38.8427 100.9182 0.0000 0.0000 0.0000
# 4 0.0000 0.0000 0.0000 26.1893 0.0000 0.0000
# 5 0.0000 0.0000 0.0000 0.0000 46.4384 0.0000
# 6 0.0000 0.0000 0.0000 0.0000 0.0000 11.0680
#
#
#
# Elastic Compliance Matrix: (Units=1/GPa)
#
#
# Indices 1 2 3 4 5 6 
#
# 1 0.015984 -0.001749 -0.003993 0.000000 0.000000 0.000000
# 2 -0.001749 0.009569 -0.003173 0.000000 0.000000 0.000000
# 3 -0.003993 -0.003173 0.012296 0.000000 0.000000 0.000000
# 4 0.000000 0.000000 0.000000 0.038184 0.000000 0.000000
# 5 0.000000 0.000000 0.000000 0.000000 0.021534 0.000000
# 6 0.000000 0.000000 0.000000 0.000000 0.000000 0.090350
#
#
# Mechanical properties :
#
#
# Convention : Reuss Voigt Hill
#
# Bulk Modulus (GPa) = 49.94902 53.06183 51.50543
# Shear Modulus (GPa) = 23.53849 30.31493 26.92671
#
# Velocity S-wave (km/s) = 3.37581 3.83104 3.61061
# Velocity P-wave (km/s) = 6.27515 6.72748 6.50525
#
# Compressibility (1/GPa) = 0.02002041
#
# Stress axis : x y z
#
# Youngs Moduli (GPa) = 62.56287 104.50444 81.32915
#
# Poissons Ratio (x) = 0.18273 0.32474
# Poissons Ratio (y) = 0.10940 0.25802
# Poissons Ratio (z) = 0.24981 0.33155
#
# Static dielectric constant tensor:
#      x y z
#    x 3.693230 0.000000 0.000000 
#    y 0.000000 3.462590 0.000000 
#    z 0.000000 0.000000 4.116220 
# 
# 
# High freq. dielectric constant tensor:
#      x y z
#    x 1.799160 0.000000 0.000000 
#    y 0.000000 1.783530 0.000000 
#    z 0.000000 0.000000 1.832990 
# 
# From -- ./inp_files/2029.got.cif
#   From: 2010.03.12/outbox.cif.g09.slc.cpg/sg29_2_cif.got.tgz:2029.got - 2010.04.14 03:43:10.
