data_PCOD8169762
_publ_section_title
;
Structure prediction by ZEFSAII (Michael W. Deem and Ramdas Pophale) SiO2 
 PCOD8169762
Probable space group: P M N 21
;
_chemical_formula_sum "Si O2"
_cell_formula_units_Z 32
_cell_length_a 8.907339
_cell_length_b 11.977085
_cell_length_c 15.457920
_cell_angle_alpha 90.000000
_cell_angle_beta 90.000000
_cell_angle_gamma 90.000000
_cell_volume 1649.112062
_symmetry_space_group_name_H-M "P M N 21"
_symmetry_group_IT_number 31
_symmetry_cell_setting 'orthorhombic'
loop_
_space_group_symop_operation_xyz
x,y,z
1/2-x,-y,1/2+z
-x,y,z
1/2+x,-y,1/2+z
loop_
_atom_site_type_symbol
_atom_site_label
_atom_site_fract_x
_atom_site_fract_y
_atom_site_fract_z
Si Si1 0.176944 0.495353 0.695270
Si Si2 0.177117 0.109435 0.104345
Si Si3 0.178700 0.855728 0.102280
Si Si4 0.678448 0.258797 0.247676
Si Si5 0.173169 0.496495 0.016571
Si Si6 0.823572 0.258410 0.943401
Si Si7 0.822016 0.716788 0.267161
Si Si8 0.326041 0.272969 0.437969
O O1 0.233348 0.618809 0.719299
O O2 0.225082 0.470779 0.597559
O O3 0.254616 0.407093 0.759004
O O4 0.000000 0.482646 0.706373
O O5 0.252107 0.166394 0.186394
O O6 0.000000 0.117253 0.116682
O O7 0.235343 0.982763 0.101489
O O8 0.226282 0.169531 0.015759
O O9 0.237050 0.793690 0.188336
O O10 0.000000 0.849686 0.100230
O O11 0.248770 0.794473 0.017670
O O12 0.500000 0.251568 0.242764
O O13 0.739467 0.235918 0.345031
O O14 0.000000 0.489543 0.047222
O O15 0.226465 0.380746 0.975257
O O16 0.196649 0.593868 0.946518
O O17 0.735833 0.228093 0.855984
O O18 0.000000 0.253427 0.924808
O O19 0.000000 0.709239 0.268286
O O20 0.500000 0.242931 0.438946
#
# Coordination Sequence:
#
# PCOD8169762 Si02
#       8
#     4   4   4   4   4   4   4   4
#     4  11  21  34  55  86 120 146 182 234 284 335
#     4  10  21  38  59  81 110 148 190 237 283 331
#     4   9  19  36  58  82 108 146 195 236 275 333
#     4  10  21  36  58  85 113 147 183 230 283 334
#     4  10  18  34  59  83 109 148 188 225 282 345
#     4  10  21  36  57  85 115 147 187 238 289 336
#     4  11  22  37  59  84 114 155 193 228 281 343
#     4   9  17  33  57  80 107 143 184 224 271 333
#
# _framework density 19.404381999999998
#
# number of rings (size 3 to 8) (size 9 to 14) (size 15 to 20)
#    0.000    2.000    2.500    1.500    0.000    4.500 
#    0.000    3.125    0.000    0.000    0.000    0.000 
#    0.000    0.000    0.000    0.000    0.000    0.000 
#
# Total GULP energy -396849.968214 kJ/mol
# GULP energy per Si atom -12401.561507 kJ/mol
# Density = 1.936022 g / cm^3
# Si number density = 19.404382 Si / 1000 Ang^3
#
#
#
# Elastic Constant Matrix: (Units=GPa)
#
#
# Indices 1 2 3 4 5 6 
#
# 1 33.3212 21.0014 27.9551 0.0000 0.0000 0.0000
# 2 21.0014 129.9087 53.5899 0.0000 0.0000 0.0000
# 3 27.9551 53.5899 143.7319 0.0000 0.0000 0.0000
# 4 0.0000 0.0000 0.0000 18.3140 0.0000 0.0000
# 5 0.0000 0.0000 0.0000 0.0000 31.5413 0.0000
# 6 0.0000 0.0000 0.0000 0.0000 0.0000 15.7088
#
#
#
# Elastic Compliance Matrix: (Units=1/GPa)
#
#
# Indices 1 2 3 4 5 6 
#
# 1 0.037222 -0.003582 -0.005904 0.000000 0.000000 0.000000
# 2 -0.003582 0.009442 -0.002824 0.000000 0.000000 0.000000
# 3 -0.005904 -0.002824 0.009158 0.000000 0.000000 0.000000
# 4 0.000000 0.000000 0.000000 0.054603 0.000000 0.000000
# 5 0.000000 0.000000 0.000000 0.000000 0.031705 0.000000
# 6 0.000000 0.000000 0.000000 0.000000 0.000000 0.063659
#
#
# Mechanical properties :
#
#
# Convention : Reuss Voigt Hill
#
# Bulk Modulus (GPa) = 32.04832 56.89494 44.47163
# Shear Modulus (GPa) = 20.76345 26.74049 23.75197
#
# Velocity S-wave (km/s) = 3.27469 3.71626 3.50244
# Velocity P-wave (km/s) = 5.55428 6.91364 6.27090
#
# Compressibility (1/GPa) = 0.03120288
#
# Stress axis : x y z
#
# Youngs Moduli (GPa) = 26.86607 105.91470 109.18880
#
# Poissons Ratio (x) = 0.37937 0.64464
# Poissons Ratio (y) = 0.09623 0.30830
# Poissons Ratio (z) = 0.15862 0.29906
#
# Static dielectric constant tensor:
#      x y z
#    x 3.185990 0.000000 0.000000 
#    y 0.000000 3.657080 0.000000 
#    z 0.000000 0.000000 3.761270 
# 
# 
# High freq. dielectric constant tensor:
#      x y z
#    x 1.720270 0.000000 0.000000 
#    y 0.000000 1.756450 0.000000 
#    z 0.000000 0.000000 1.770460 
# 
# From -- ./inp_files/4957.got.cif
#   From: 2010.03.12/outbox.cif.g09.slc.cpg/sg31_3_cif.got.tgz:4957.got - 2010.04.14 01:42:59.
