data_PCOD8169545
_publ_section_title
;
Structure prediction by ZEFSAII (Michael W. Deem and Ramdas Pophale) SiO2 
 PCOD8169545
Probable space group: P N C 2
;
_chemical_formula_sum "Si O2"
_cell_formula_units_Z 26
_cell_length_a 12.550186
_cell_length_b 10.752004
_cell_length_c 9.218297
_cell_angle_alpha 90.000000
_cell_angle_beta 90.000000
_cell_angle_gamma 90.000000
_cell_volume 1243.913771
_symmetry_space_group_name_H-M "P N C 2"
_symmetry_group_IT_number 30
_symmetry_cell_setting 'orthorhombic'
loop_
_space_group_symop_operation_xyz
x,y,z
-x,-y,z
-x,1/2+y,1/2+z
x,1/2-y,1/2+z
loop_
_atom_site_type_symbol
_atom_site_label
_atom_site_fract_x
_atom_site_fract_y
_atom_site_fract_z
Si Si1 0.762200 0.769395 0.201470
Si Si2 0.358141 0.359543 0.426204
Si Si3 0.122945 0.497676 0.830840
Si Si4 0.500000 0.000000 0.101821
Si Si5 0.283633 0.624915 0.350909
Si Si6 0.301577 0.646261 0.676733
Si Si7 0.878777 0.992050 0.666443
O O1 0.653361 0.739249 0.295326
O O2 0.833732 0.861901 0.293787
O O3 0.829754 0.644001 0.190212
O O4 0.732679 0.827279 0.046029
O O5 0.472461 0.373605 0.506924
O O6 0.348317 0.497337 0.359495
O O7 0.192839 0.600989 0.750587
O O8 0.000000 0.500000 0.780426
O O9 0.134865 0.528761 0.999573
O O10 0.394589 0.960298 0.191874
O O11 0.268557 0.677330 0.512557
O O12 0.344362 0.729737 0.256111
O O13 0.173584 0.595708 0.269204
O O14 0.000000 0.000000 0.714872
#
# Coordination Sequence:
#
# PCOD8169545 Si02
#       7
#     4   4   4   2   4   4   4
#     4  11  20  42  62  91 130 170 213 269 320 389
#     4  10  22  40  66  89 126 166 217 270 324 381
#     4  11  23  40  63  96 129 173 215 260 326 390
#     4  10  22  42  66  98 124 172 218 274 326 392
#     4  10  22  41  60  92 129 167 212 274 322 382
#     4  11  23  43  65  92 136 168 220 270 328 391
#     4  10  23  40  64  95 130 174 222 265 323 388
#
# _framework density 20.901769999999999
#
# number of rings (size 3 to 8) (size 9 to 14) (size 15 to 20)
#    0.000    1.538    4.615    0.923    2.154    3.077 
#    0.000    0.000    0.000    5.538    0.000    0.000 
#    0.000    0.000    0.000    0.000    0.000    0.000 
#
# Total GULP energy -322176.076317 kJ/mol
# GULP energy per Si atom -12391.387551 kJ/mol
# Density = 2.085420 g / cm^3
# Si number density = 20.901770 Si / 1000 Ang^3
#
#
#
# Elastic Constant Matrix: (Units=GPa)
#
#
# Indices 1 2 3 4 5 6 
#
# 1 80.5717 24.6815 31.3171 0.0000 0.0000 0.0000
# 2 24.6815 100.4856 37.4780 0.0000 0.0000 0.0000
# 3 31.3171 37.4780 106.5159 0.0000 0.0000 0.0000
# 4 0.0000 0.0000 0.0000 39.9998 0.0000 0.0000
# 5 0.0000 0.0000 0.0000 0.0000 18.5565 0.0000
# 6 0.0000 0.0000 0.0000 0.0000 0.0000 29.4171
#
#
#
# Elastic Compliance Matrix: (Units=1/GPa)
#
#
# Indices 1 2 3 4 5 6 
#
# 1 0.014445 -0.002261 -0.003452 0.000000 0.000000 0.000000
# 2 -0.002261 0.011809 -0.003490 0.000000 0.000000 0.000000
# 3 -0.003452 -0.003490 0.011631 0.000000 0.000000 0.000000
# 4 0.000000 0.000000 0.000000 0.025000 0.000000 0.000000
# 5 0.000000 0.000000 0.000000 0.000000 0.053889 0.000000
# 6 0.000000 0.000000 0.000000 0.000000 0.000000 0.033994
#
#
# Mechanical properties :
#
#
# Convention : Reuss Voigt Hill
#
# Bulk Modulus (GPa) = 51.33483 52.72515 52.02999
# Shear Modulus (GPa) = 28.46286 30.53445 29.49865
#
# Velocity S-wave (km/s) = 3.69418 3.82626 3.76080
# Velocity P-wave (km/s) = 6.54289 6.69330 6.61852
#
# Compressibility (1/GPa) = 0.01947995
#
# Stress axis : x y z
#
# Youngs Moduli (GPa) = 69.22587 84.68316 85.97588
#
# Poissons Ratio (x) = 0.19145 0.29676
# Poissons Ratio (y) = 0.15650 0.30008
# Poissons Ratio (z) = 0.23895 0.29557
#
# Static dielectric constant tensor:
#      x y z
#    x 3.776310 0.000000 0.000000 
#    y 0.000000 3.866440 0.000000 
#    z 0.000000 0.000000 4.006700 
# 
# 
# High freq. dielectric constant tensor:
#      x y z
#    x 1.806730 0.000000 0.000000 
#    y 0.000000 1.823340 0.000000 
#    z 0.000000 0.000000 1.825390 
# 
# From -- ./inp_files/2367.got.cif
#   From: 2010.03.12/outbox.cif.g09.slc.cpg/sg30_2_cif.got.tgz:2367.got - 2010.04.14 01:38:02.
