data_PCOD8169324
_publ_section_title
;
Structure prediction by ZEFSAII (Michael W. Deem and Ramdas Pophale) SiO2 
 PCOD8169324
Probable space group: P C A 21
;
_chemical_formula_sum "Si O2"
_cell_formula_units_Z 24
_cell_length_a 9.568403
_cell_length_b 12.094625
_cell_length_c 8.277098
_cell_angle_alpha 90.000000
_cell_angle_beta 90.000000
_cell_angle_gamma 90.000000
_cell_volume 957.877480
_symmetry_space_group_name_H-M "P C A 21"
_symmetry_group_IT_number 29
_symmetry_cell_setting 'orthorhombic'
loop_
_space_group_symop_operation_xyz
x,y,z
-x,-y,1/2+z
1/2-x,y,1/2+z
1/2+x,-y,z
loop_
_atom_site_type_symbol
_atom_site_label
_atom_site_fract_x
_atom_site_fract_y
_atom_site_fract_z
Si Si1 0.080157 0.038442 0.390410
Si Si2 0.803038 0.305194 0.780239
Si Si3 0.565707 0.678121 0.977704
Si Si4 0.810847 0.067861 0.209001
Si Si5 0.345661 0.276162 0.828530
Si Si6 0.926938 0.419871 0.473280
O O1 0.113584 0.166044 0.427253
O O2 0.916002 0.028577 0.351018
O O3 0.120781 0.958676 0.537142
O O4 0.167473 0.999113 0.233025
O O5 0.718536 0.198163 0.721998
O O6 0.890894 0.357136 0.636735
O O7 0.690335 0.394962 0.839001
O O8 0.914732 0.276310 0.921216
O O9 0.679852 0.703869 0.839501
O O10 0.557834 0.548034 0.010351
O O11 0.608971 0.739346 0.142547
O O12 0.422837 0.379370 0.911090
#
# Coordination Sequence:
#
# PCOD8169324 Si02
#       6
#     4   4   4   4   4   4
#     4  12  28  50  78 112 150 202 259 325 396 462
#     4  12  27  47  78 113 158 205 264 324 390 466
#     4  12  26  46  78 110 160 205 259 317 390 470
#     4  12  28  50  80 111 155 201 261 327 395 466
#     4  12  27  48  73 115 153 203 260 323 386 462
#     4  12  24  47  73 115 156 208 259 320 387 464
#
# _framework density 25.055396999999999
#
# number of rings (size 3 to 8) (size 9 to 14) (size 15 to 20)
#    0.000    0.000    1.667    8.000    7.000    0.000 
#    0.000    0.000    0.000    0.000    0.000    0.000 
#    0.000    0.000    0.000    0.000    0.000    0.000 
#
# Total GULP energy -297826.414178 kJ/mol
# GULP energy per Si atom -12409.433924 kJ/mol
# Density = 2.499837 g / cm^3
# Si number density = 25.055397 Si / 1000 Ang^3
#
#
#
# Elastic Constant Matrix: (Units=GPa)
#
#
# Indices 1 2 3 4 5 6 
#
# 1 115.1807 39.1450 17.9426 0.0000 0.0000 0.0000
# 2 39.1450 88.1908 47.1180 0.0000 0.0000 0.0000
# 3 17.9426 47.1180 109.1479 0.0000 0.0000 0.0000
# 4 0.0000 0.0000 0.0000 40.2127 0.0000 0.0000
# 5 0.0000 0.0000 0.0000 0.0000 47.0396 0.0000
# 6 0.0000 0.0000 0.0000 0.0000 0.0000 40.1770
#
#
#
# Elastic Compliance Matrix: (Units=1/GPa)
#
#
# Indices 1 2 3 4 5 6 
#
# 1 0.010235 -0.004737 0.000362 0.000000 0.000000 0.000000
# 2 -0.004737 0.016930 -0.006530 0.000000 0.000000 0.000000
# 3 0.000362 -0.006530 0.011921 0.000000 0.000000 0.000000
# 4 0.000000 0.000000 0.000000 0.024868 0.000000 0.000000
# 5 0.000000 0.000000 0.000000 0.000000 0.021259 0.000000
# 6 0.000000 0.000000 0.000000 0.000000 0.000000 0.024890
#
#
# Mechanical properties :
#
#
# Convention : Reuss Voigt Hill
#
# Bulk Modulus (GPa) = 57.87693 57.88119 57.87906
# Shear Modulus (GPa) = 36.31834 39.37344 37.84589
#
# Velocity S-wave (km/s) = 3.81139 3.96846 3.89072
# Velocity P-wave (km/s) = 6.52063 6.64452 6.58287
#
# Compressibility (1/GPa) = 0.01727804
#
# Stress axis : x y z
#
# Youngs Moduli (GPa) = 97.70035 59.06570 83.88368
#
# Poissons Ratio (x) = 0.27977 -0.03038
# Poissons Ratio (y) = 0.46277 0.54776
# Poissons Ratio (z) = -0.03539 0.38570
#
# Static dielectric constant tensor:
#      x y z
#    x 4.825710 0.000000 0.000000 
#    y 0.000000 4.417350 0.000000 
#    z 0.000000 0.000000 4.483170 
# 
# 
# High freq. dielectric constant tensor:
#      x y z
#    x 2.017900 0.000000 0.000000 
#    y 0.000000 2.003130 0.000000 
#    z 0.000000 0.000000 2.000300 
# 
# From -- ./inp_files/1120.got.cif
#   From: 2010.03.12/outbox.cif.g09.slc.cpg/sg29_1_cif.got.tgz:1120.got - 2010.04.14 03:43:10.
