data_PCOD8169007
_publ_section_title
;
Structure prediction by ZEFSAII (Michael W. Deem and Ramdas Pophale) SiO2 
 PCOD8169007
Probable space group: P C A 21
;
_chemical_formula_sum "Si O2"
_cell_formula_units_Z 32
_cell_length_a 13.718294
_cell_length_b 11.598975
_cell_length_c 9.233257
_cell_angle_alpha 90.000000
_cell_angle_beta 90.000000
_cell_angle_gamma 90.000000
_cell_volume 1469.178764
_symmetry_space_group_name_H-M "P C A 21"
_symmetry_group_IT_number 29
_symmetry_cell_setting 'orthorhombic'
loop_
_space_group_symop_operation_xyz
x,y,z
-x,-y,1/2+z
1/2-x,y,1/2+z
1/2+x,-y,z
loop_
_atom_site_type_symbol
_atom_site_label
_atom_site_fract_x
_atom_site_fract_y
_atom_site_fract_z
Si Si1 0.873306 0.780749 0.560080
Si Si2 0.376111 0.507072 0.842286
Si Si3 0.782504 0.735039 0.851089
Si Si4 0.521885 0.408500 0.626342
Si Si5 0.208553 0.682292 0.752165
Si Si6 0.222630 0.839779 0.012096
Si Si7 0.059438 0.977779 0.146828
Si Si8 0.121199 0.036647 0.459699
O O1 0.788926 0.754042 0.678919
O O2 0.829747 0.742190 0.404616
O O3 0.972955 0.715167 0.596086
O O4 0.897127 0.914666 0.559198
O O5 0.324804 0.389296 0.891508
O O6 0.442557 0.492436 0.699505
O O7 0.296688 0.603384 0.806209
O O8 0.444243 0.540720 0.975041
O O9 0.841841 0.834608 0.933575
O O10 0.610543 0.393231 0.739767
O O11 0.192166 0.791794 0.855831
O O12 0.225130 0.734075 0.592864
O O13 0.290366 0.951313 0.994504
O O14 0.125769 0.869391 0.102572
O O15 0.061223 0.993089 0.319604
O O16 0.948470 0.957942 0.099109
#
# Coordination Sequence:
#
# PCOD8169007 Si02
#       8
#     4   4   4   4   4   4   4   4
#     4  10  23  43  66 102 136 180 222 289 339 421
#     4  11  28  45  72 104 137 192 228 297 356 423
#     4  10  24  43  67  96 139 175 230 279 355 407
#     4  11  27  46  73 103 142 178 246 288 354 425
#     4  12  27  47  71 101 145 187 237 303 357 426
#     4  12  25  45  71 100 142 188 238 291 363 425
#     4  11  25  40  71  99 145 179 232 285 356 424
#     4  11  25  45  65 109 136 189 231 290 356 423
#
# _framework density 21.780875999999999
#
# number of rings (size 3 to 8) (size 9 to 14) (size 15 to 20)
#    0.000    1.000    3.750    0.750   14.000    1.000 
#    0.000    0.000    0.000    0.000    0.000    0.000 
#    0.000    0.000    0.000    0.000    0.000    0.000 
#
# Total GULP energy -396949.565107 kJ/mol
# GULP energy per Si atom -12404.673910 kJ/mol
# Density = 2.173130 g / cm^3
# Si number density = 21.780876 Si / 1000 Ang^3
#
#
#
# Elastic Constant Matrix: (Units=GPa)
#
#
# Indices 1 2 3 4 5 6 
#
# 1 64.3313 8.5214 14.5113 0.0000 0.0000 0.0000
# 2 8.5214 83.8651 14.0603 0.0000 0.0000 0.0000
# 3 14.5113 14.0603 57.0491 0.0000 0.0000 0.0000
# 4 0.0000 0.0000 0.0000 34.0133 0.0000 0.0000
# 5 0.0000 0.0000 0.0000 0.0000 41.4427 0.0000
# 6 0.0000 0.0000 0.0000 0.0000 0.0000 25.3068
#
#
#
# Elastic Compliance Matrix: (Units=1/GPa)
#
#
# Indices 1 2 3 4 5 6 
#
# 1 0.016574 -0.001019 -0.003965 0.000000 0.000000 0.000000
# 2 -0.001019 0.012501 -0.002822 0.000000 0.000000 0.000000
# 3 -0.003965 -0.002822 0.019233 0.000000 0.000000 0.000000
# 4 0.000000 0.000000 0.000000 0.029400 0.000000 0.000000
# 5 0.000000 0.000000 0.000000 0.000000 0.024130 0.000000
# 6 0.000000 0.000000 0.000000 0.000000 0.000000 0.039515
#
#
# Mechanical properties :
#
#
# Convention : Reuss Voigt Hill
#
# Bulk Modulus (GPa) = 30.58485 31.04796 30.81641
# Shear Modulus (GPa) = 29.78641 31.36273 30.57457
#
# Velocity S-wave (km/s) = 3.70205 3.79874 3.75071
# Velocity P-wave (km/s) = 5.68736 5.79019 5.73901
#
# Compressibility (1/GPa) = 0.03269592
#
# Stress axis : x y z
#
# Youngs Moduli (GPa) = 60.33602 79.99655 51.99505
#
# Poissons Ratio (x) = 0.08155 0.20614
# Poissons Ratio (y) = 0.06150 0.14671
# Poissons Ratio (z) = 0.23921 0.22572
#
# Static dielectric constant tensor:
#      x y z
#    x 3.904340 0.000000 0.000000 
#    y 0.000000 3.939390 0.000000 
#    z 0.000000 0.000000 3.971180 
# 
# 
# High freq. dielectric constant tensor:
#      x y z
#    x 1.856710 0.000000 0.000000 
#    y 0.000000 1.863280 0.000000 
#    z 0.000000 0.000000 1.859980 
# 
# From -- ./inp_files/1850.got.cif
#   From: 2010.03.12/outbox.cif.g09.slc.cpg/sg29_1_cif.got.tgz:1850.got - 2010.04.14 03:43:10.
