data_PCOD8169935
_publ_section_title
;
Structure prediction by ZEFSAII (Michael W. Deem and Ramdas Pophale) SiO2 
 PCOD8169935
Probable space group: P M N 21
;
_chemical_formula_sum "Si O2"
_cell_formula_units_Z 32
_cell_length_a 9.027338
_cell_length_b 13.596555
_cell_length_c 12.960519
_cell_angle_alpha 90.000000
_cell_angle_beta 90.000000
_cell_angle_gamma 90.000000
_cell_volume 1590.783144
_symmetry_space_group_name_H-M "P M N 21"
_symmetry_group_IT_number 31
_symmetry_cell_setting 'orthorhombic'
loop_
_space_group_symop_operation_xyz
x,y,z
1/2-x,-y,1/2+z
-x,y,z
1/2+x,-y,1/2+z
loop_
_atom_site_type_symbol
_atom_site_label
_atom_site_fract_x
_atom_site_fract_y
_atom_site_fract_z
Si Si1 0.176329 0.181638 0.814620
Si Si2 0.324451 0.104709 0.608526
Si Si3 0.323950 0.742690 0.712035
Si Si4 0.824759 0.548035 0.013904
Si Si5 0.163606 0.391477 0.866408
Si Si6 0.675070 0.892729 0.537268
Si Si7 0.325661 0.246118 0.422485
Si Si8 0.335700 0.461396 0.186772
O O1 0.251327 0.130629 0.717324
O O2 0.242249 0.294000 0.822215
O O3 0.000000 0.177374 0.797904
O O4 0.227865 0.128310 0.920230
O O5 0.500000 0.106624 0.623746
O O6 0.275309 0.180178 0.519187
O O7 0.264418 0.998247 0.573833
O O8 0.500000 0.741701 0.720472
O O9 0.267717 0.809997 0.617046
O O10 0.258224 0.786700 0.818569
O O11 0.267459 0.633262 0.692142
O O12 0.737695 0.549531 0.120920
O O13 0.000000 0.548997 0.032932
O O14 0.766621 0.442552 0.967601
O O15 0.778802 0.641982 0.946594
O O16 0.151313 0.487451 0.796315
O O17 0.000000 0.352848 0.896067
O O18 0.500000 0.894053 0.538924
O O19 0.500000 0.235761 0.401776
O O20 0.500000 0.431713 0.147999
#
# Coordination Sequence:
#
# PCOD8169935 Si02
#       8
#     4   4   4   4   4   4   4   4
#     4  10  20  38  62  86 113 153 200 238 285 359
#     4  10  22  40  61  87 119 153 190 247 307 349
#     4  11  22  38  61  87 119 160 202 243 291 357
#     4  10  19  35  56  81 115 157 192 227 285 349
#     4   9  18  34  55  78 114 153 184 224 282 340
#     4   9  21  40  61  85 116 156 196 240 302 358
#     4  10  21  38  61  88 123 158 193 244 303 352
#     4  11  21  35  55  84 119 154 193 241 287 336
#
# _framework density 20.115877000000001
#
# number of rings (size 3 to 8) (size 9 to 14) (size 15 to 20)
#    0.000    2.000    1.250    2.250    1.750    3.000 
#    0.000    5.000    0.000    0.000    0.000    0.000 
#    0.000    0.000    0.000    0.000    0.000    0.000 
#
# Total GULP energy -396590.072025 kJ/mol
# GULP energy per Si atom -12393.439751 kJ/mol
# Density = 2.007009 g / cm^3
# Si number density = 20.115877 Si / 1000 Ang^3
#
#
#
# Elastic Constant Matrix: (Units=GPa)
#
#
# Indices 1 2 3 4 5 6 
#
# 1 49.2502 28.1971 40.4163 0.0000 0.0000 0.0000
# 2 28.1971 134.5456 59.0820 0.0000 0.0000 0.0000
# 3 40.4163 59.0820 139.1475 0.0000 0.0000 0.0000
# 4 0.0000 0.0000 0.0000 36.3048 0.0000 0.0000
# 5 0.0000 0.0000 0.0000 0.0000 32.9150 0.0000
# 6 0.0000 0.0000 0.0000 0.0000 0.0000 21.4783
#
#
#
# Elastic Compliance Matrix: (Units=1/GPa)
#
#
# Indices 1 2 3 4 5 6 
#
# 1 0.027474 -0.002770 -0.006804 0.000000 0.000000 0.000000
# 2 -0.002770 0.009415 -0.003193 0.000000 0.000000 0.000000
# 3 -0.006804 -0.003193 0.010519 0.000000 0.000000 0.000000
# 4 0.000000 0.000000 0.000000 0.027545 0.000000 0.000000
# 5 0.000000 0.000000 0.000000 0.000000 0.030381 0.000000
# 6 0.000000 0.000000 0.000000 0.000000 0.000000 0.046559
#
#
# Mechanical properties :
#
#
# Convention : Reuss Voigt Hill
#
# Bulk Modulus (GPa) = 45.71700 64.25934 54.98817
# Shear Modulus (GPa) = 27.06840 31.15613 29.11227
#
# Velocity S-wave (km/s) = 3.67225 3.93979 3.80837
# Velocity P-wave (km/s) = 6.38410 7.26016 6.83618
#
# Compressibility (1/GPa) = 0.02187370
#
# Stress axis : x y z
#
# Youngs Moduli (GPa) = 36.39823 106.21229 95.06978
#
# Poissons Ratio (x) = 0.29422 0.64683
# Poissons Ratio (y) = 0.10083 0.30356
# Poissons Ratio (z) = 0.24765 0.33914
#
# Static dielectric constant tensor:
#      x y z
#    x 3.385020 0.000000 0.000000 
#    y 0.000000 3.823270 0.000000 
#    z 0.000000 0.000000 3.793430 
# 
# 
# High freq. dielectric constant tensor:
#      x y z
#    x 1.749950 0.000000 0.000000 
#    y 0.000000 1.794690 0.000000 
#    z 0.000000 0.000000 1.801700 
# 
# From -- ./inp_files/3742.got.cif
#   From: 2010.03.12/outbox.cif.g09.slc.cpg/sg31_2_cif.got.tgz:3742.got - 2010.04.14 01:42:59.
