data_PCOD8169883
_publ_section_title
;
Structure prediction by ZEFSAII (Michael W. Deem and Ramdas Pophale) SiO2 
 PCOD8169883
Probable space group: P M N 21
;
_chemical_formula_sum "Si O2"
_cell_formula_units_Z 32
_cell_length_a 8.693137
_cell_length_b 14.529404
_cell_length_c 12.228044
_cell_angle_alpha 90.000000
_cell_angle_beta 90.000000
_cell_angle_gamma 90.000000
_cell_volume 1544.476542
_symmetry_space_group_name_H-M "P M N 21"
_symmetry_group_IT_number 31
_symmetry_cell_setting 'orthorhombic'
loop_
_space_group_symop_operation_xyz
x,y,z
1/2-x,-y,1/2+z
-x,y,z
1/2+x,-y,1/2+z
loop_
_atom_site_type_symbol
_atom_site_label
_atom_site_fract_x
_atom_site_fract_y
_atom_site_fract_z
Si Si1 0.318358 0.632766 0.244930
Si Si2 0.673161 0.833435 0.728502
Si Si3 0.319592 0.334958 0.511982
Si Si4 0.177343 0.867836 0.943055
Si Si5 0.677314 0.333418 0.134355
Si Si6 0.826233 0.066204 0.011380
Si Si7 0.680760 0.238550 0.911837
Si Si8 0.680992 0.551110 0.810695
O O1 0.500000 0.622844 0.245445
O O2 0.260364 0.626708 0.120584
O O3 0.267361 0.728059 0.302643
O O4 0.243807 0.552392 0.319077
O O5 0.500000 0.792131 0.727151
O O6 0.709344 0.881259 0.841840
O O7 0.797442 0.752895 0.714236
O O8 0.695005 0.910087 0.637434
O O9 0.500000 0.354770 0.519492
O O10 0.283355 0.225814 0.507526
O O11 0.255155 0.385601 0.404561
O O12 0.000000 0.866588 0.905576
O O13 0.217349 0.958670 0.012103
O O14 0.500000 0.362965 0.134092
O O15 0.775696 0.415740 0.187361
O O16 0.734123 0.303818 0.013511
O O17 0.000000 0.082512 0.970693
O O18 0.721340 0.132019 0.935712
O O19 0.500000 0.246353 0.892957
O O20 0.500000 0.551584 0.828012
#
# Coordination Sequence:
#
# PCOD8169883 Si02
#       8
#     4   4   4   4   4   4   4   4
#     4  12  27  45  66  93 131 174 216 265 323 387
#     4  10  19  33  56  86 120 157 208 263 314 373
#     4  11  24  44  67  95 132 170 214 266 324 384
#     4  10  21  38  62  89 126 167 208 261 322 383
#     4  10  20  37  62  89 120 158 205 260 316 374
#     4   9  20  38  59  89 125 168 214 261 320 384
#     4  10  22  41  64  92 127 166 213 266 320 379
#     4  12  25  42  66  95 127 164 212 264 319 384
#
# _framework density 20.718993000000001
#
# number of rings (size 3 to 8) (size 9 to 14) (size 15 to 20)
#    0.000    1.500    1.250    3.750    1.750    4.000 
#    0.000    1.250    0.000    0.000    0.000    0.000 
#    0.000    0.000    0.000    0.000    0.000    0.000 
#
# Total GULP energy -396793.509852 kJ/mol
# GULP energy per Si atom -12399.797183 kJ/mol
# Density = 2.067184 g / cm^3
# Si number density = 20.718993 Si / 1000 Ang^3
#
#
#
# Elastic Constant Matrix: (Units=GPa)
#
#
# Indices 1 2 3 4 5 6 
#
# 1 90.2581 37.6976 31.7821 0.0000 0.0000 0.0000
# 2 37.6976 111.3179 30.5622 0.0000 0.0000 0.0000
# 3 31.7821 30.5622 76.7795 0.0000 0.0000 0.0000
# 4 0.0000 0.0000 0.0000 27.5433 0.0000 0.0000
# 5 0.0000 0.0000 0.0000 0.0000 33.9802 0.0000
# 6 0.0000 0.0000 0.0000 0.0000 0.0000 30.4238
#
#
#
# Elastic Compliance Matrix: (Units=1/GPa)
#
#
# Indices 1 2 3 4 5 6 
#
# 1 0.014129 -0.003569 -0.004428 0.000000 0.000000 0.000000
# 2 -0.003569 0.010987 -0.002896 0.000000 0.000000 0.000000
# 3 -0.004428 -0.002896 0.016010 0.000000 0.000000 0.000000
# 4 0.000000 0.000000 0.000000 0.036306 0.000000 0.000000
# 5 0.000000 0.000000 0.000000 0.000000 0.029429 0.000000
# 6 0.000000 0.000000 0.000000 0.000000 0.000000 0.032869
#
#
# Mechanical properties :
#
#
# Convention : Reuss Voigt Hill
#
# Bulk Modulus (GPa) = 51.70612 53.15991 52.43302
# Shear Modulus (GPa) = 29.76837 30.27704 30.02270
#
# Velocity S-wave (km/s) = 3.79458 3.82687 3.81076
# Velocity P-wave (km/s) = 6.64895 6.72605 6.68761
#
# Compressibility (1/GPa) = 0.01934007
#
# Stress axis : x y z
#
# Youngs Moduli (GPa) = 70.77524 91.01621 62.46109
#
# Poissons Ratio (x) = 0.32485 0.27657
# Poissons Ratio (y) = 0.25261 0.18089
# Poissons Ratio (z) = 0.31339 0.26358
#
# Static dielectric constant tensor:
#      x y z
#    x 3.732660 0.000000 0.000000 
#    y 0.000000 3.821310 0.000000 
#    z 0.000000 0.000000 3.753310 
# 
# 
# High freq. dielectric constant tensor:
#      x y z
#    x 1.814600 0.000000 0.000000 
#    y 0.000000 1.812500 0.000000 
#    z 0.000000 0.000000 1.806870 
# 
# From -- ./inp_files/3716.got.cif
#   From: 2010.03.12/outbox.cif.g09.slc.cpg/sg31_2_cif.got.tgz:3716.got - 2010.04.14 01:42:59.
