data_PCOD8169164
_publ_section_title
;
Structure prediction by ZEFSAII (Michael W. Deem and Ramdas Pophale) SiO2 
 PCOD8169164
Probable space group: P C A 21
;
_chemical_formula_sum "Si O2"
_cell_formula_units_Z 32
_cell_length_a 8.766259
_cell_length_b 13.243572
_cell_length_c 13.187154
_cell_angle_alpha 90.000000
_cell_angle_beta 90.000000
_cell_angle_gamma 90.000000
_cell_volume 1530.983509
_symmetry_space_group_name_H-M "P C A 21"
_symmetry_group_IT_number 29
_symmetry_cell_setting 'orthorhombic'
loop_
_space_group_symop_operation_xyz
x,y,z
-x,-y,1/2+z
1/2-x,y,1/2+z
1/2+x,-y,z
loop_
_atom_site_type_symbol
_atom_site_label
_atom_site_fract_x
_atom_site_fract_y
_atom_site_fract_z
Si Si1 0.413491 0.743576 0.854900
Si Si2 0.722651 0.745793 0.355201
Si Si3 0.948688 0.616226 0.689506
Si Si4 0.888605 0.895243 0.706038
Si Si5 0.956154 0.387033 0.678956
Si Si6 0.224487 0.276809 0.581479
Si Si7 0.287762 0.711588 0.077289
Si Si8 0.751410 0.111964 0.708593
O O1 0.595413 0.750345 0.860985
O O2 0.372078 0.649802 0.781677
O O3 0.328814 0.843638 0.811684
O O4 0.352166 0.718200 0.965639
O O5 0.646380 0.655715 0.287998
O O6 0.668385 0.854188 0.314490
O O7 0.659088 0.733708 0.468990
O O8 0.008559 0.501750 0.697141
O O9 0.839358 0.627295 0.590542
O O10 0.089642 0.689531 0.666667
O O11 0.817792 0.822157 0.618927
O O12 0.070054 0.900078 0.712004
O O13 0.826353 0.005551 0.684218
O O14 0.838160 0.378032 0.584463
O O15 0.090607 0.306077 0.659651
O O16 0.208677 0.816298 0.112536
#
# Coordination Sequence:
#
# PCOD8169164 Si02
#       8
#     4   4   4   4   4   4   4   4
#     4  11  23  44  65  98 133 176 219 279 332 395
#     4  11  22  43  68  95 137 172 225 275 331 394
#     4  11  22  43  64  96 132 180 223 279 330 388
#     4  11  23  43  68  97 131 168 217 270 333 399
#     4  11  25  39  68  95 136 179 230 274 333 397
#     4  11  23  44  67  98 135 179 220 279 335 397
#     4  11  24  43  65  96 139 170 224 279 330 404
#     4  11  24  43  69  97 131 170 214 273 332 400
#
# _framework density 20.901598
#
# number of rings (size 3 to 8) (size 9 to 14) (size 15 to 20)
#    0.000    1.000    6.250    1.500    3.500    3.000 
#    0.000    2.500    0.000    0.000    0.000    0.000 
#    0.000    0.000    0.000    0.000    0.000    0.000 
#
# Total GULP energy -396435.801129 kJ/mol
# GULP energy per Si atom -12388.618785 kJ/mol
# Density = 2.085402 g / cm^3
# Si number density = 20.901598 Si / 1000 Ang^3
#
#
#
# Elastic Constant Matrix: (Units=GPa)
#
#
# Indices 1 2 3 4 5 6 
#
# 1 91.1834 41.4890 24.5188 0.0000 0.0000 0.0000
# 2 41.4890 138.7190 51.4167 0.0000 0.0000 0.0000
# 3 24.5188 51.4167 118.1417 0.0000 0.0000 0.0000
# 4 0.0000 0.0000 0.0000 18.2105 0.0000 0.0000
# 5 0.0000 0.0000 0.0000 0.0000 32.4303 0.0000
# 6 0.0000 0.0000 0.0000 0.0000 0.0000 33.5408
#
#
#
# Elastic Compliance Matrix: (Units=1/GPa)
#
#
# Indices 1 2 3 4 5 6 
#
# 1 0.012832 -0.003399 -0.001184 0.000000 0.000000 0.000000
# 2 -0.003399 0.009496 -0.003427 0.000000 0.000000 0.000000
# 3 -0.001184 -0.003427 0.010202 0.000000 0.000000 0.000000
# 4 0.000000 0.000000 0.000000 0.054913 0.000000 0.000000
# 5 0.000000 0.000000 0.000000 0.000000 0.030835 0.000000
# 6 0.000000 0.000000 0.000000 0.000000 0.000000 0.029814
#
#
# Mechanical properties :
#
#
# Convention : Reuss Voigt Hill
#
# Bulk Modulus (GPa) = 60.57266 64.76592 62.66929
# Shear Modulus (GPa) = 29.47846 32.21098 30.84472
#
# Velocity S-wave (km/s) = 3.75953 3.92991 3.84567
# Velocity P-wave (km/s) = 6.92013 7.18649 7.05457
#
# Compressibility (1/GPa) = 0.01650910
#
# Stress axis : x y z
#
# Youngs Moduli (GPa) = 77.93136 105.31038 98.02327
#
# Poissons Ratio (x) = 0.35796 0.11604
# Poissons Ratio (y) = 0.26489 0.33595
# Poissons Ratio (z) = 0.09225 0.36092
#
# Static dielectric constant tensor:
#      x y z
#    x 4.124990 0.000000 0.000000 
#    y 0.000000 3.722220 0.000000 
#    z 0.000000 0.000000 3.757820 
# 
# 
# High freq. dielectric constant tensor:
#      x y z
#    x 1.840830 0.000000 0.000000 
#    y 0.000000 1.809600 0.000000 
#    z 0.000000 0.000000 1.807220 
# 
# From -- ./inp_files/4326.got.cif
#   From: 2010.03.12/outbox.cif.g09.slc.cpg/sg29_3_cif.got.tgz:4326.got - 2010.04.14 03:43:10.
