data_PCOD8169044
_publ_section_title
;
Structure prediction by ZEFSAII (Michael W. Deem and Ramdas Pophale) SiO2 
 PCOD8169044
Probable space group: P C A 21
;
_chemical_formula_sum "Si O2"
_cell_formula_units_Z 32
_cell_length_a 8.216983
_cell_length_b 14.574897
_cell_length_c 12.127942
_cell_angle_alpha 90.000000
_cell_angle_beta 90.000000
_cell_angle_gamma 90.000000
_cell_volume 1452.462719
_symmetry_space_group_name_H-M "P C A 21"
_symmetry_group_IT_number 29
_symmetry_cell_setting 'orthorhombic'
loop_
_space_group_symop_operation_xyz
x,y,z
-x,-y,1/2+z
1/2-x,y,1/2+z
1/2+x,-y,z
loop_
_atom_site_type_symbol
_atom_site_label
_atom_site_fract_x
_atom_site_fract_y
_atom_site_fract_z
Si Si1 0.411963 0.360228 0.998700
Si Si2 0.402435 0.654861 0.302641
Si Si3 0.623004 0.438757 0.405528
Si Si4 0.986795 0.882889 0.545498
Si Si5 0.048959 0.326100 0.081896
Si Si6 0.244328 0.997153 0.167640
Si Si7 0.561772 0.313453 0.224706
Si Si8 0.975981 0.881604 0.288888
O O1 0.486692 0.296346 0.899213
O O2 0.419421 0.459820 0.942116
O O3 0.229011 0.340232 0.033957
O O4 0.533459 0.349448 0.101269
O O5 0.312492 0.568790 0.365596
O O6 0.526375 0.628286 0.203531
O O7 0.252803 0.714200 0.249453
O O8 0.590235 0.370653 0.507278
O O9 0.511432 0.398653 0.304656
O O10 0.979589 0.781217 0.592847
O O11 0.820472 0.936370 0.571102
O O12 0.022090 0.883154 0.416323
O O13 0.125155 0.933114 0.612204
O O14 0.310914 0.062421 0.265683
O O15 0.113197 0.929437 0.217342
O O16 0.453420 0.223721 0.249187
#
# Coordination Sequence:
#
# PCOD8169044 Si02
#       8
#     4   4   4   4   4   4   4   4
#     4  12  26  44  69 104 136 181 239 297 345 412
#     4  10  25  43  66  97 133 187 225 288 353 411
#     4  10  25  46  66  95 137 184 228 281 352 412
#     4  11  22  43  64 101 135 178 228 279 358 410
#     4  12  25  41  72  99 137 179 236 296 340 423
#     4  10  24  38  69 101 134 182 222 291 343 432
#     4  10  24  45  72  96 140 189 229 286 354 436
#     4  11  21  44  66  99 140 176 231 280 353 416
#
# _framework density 22.031548000000001
#
# number of rings (size 3 to 8) (size 9 to 14) (size 15 to 20)
#    0.750    0.500    1.250    3.750    3.500    3.000 
#    0.000    6.250    0.000    0.000    0.000    0.000 
#    0.000    0.000    0.000    0.000    0.000    0.000 
#
# Total GULP energy -396450.624335 kJ/mol
# GULP energy per Si atom -12389.082010 kJ/mol
# Density = 2.198140 g / cm^3
# Si number density = 22.031548 Si / 1000 Ang^3
#
#
#
# Elastic Constant Matrix: (Units=GPa)
#
#
# Indices 1 2 3 4 5 6 
#
# 1 78.0689 26.7288 44.0883 0.0000 0.0000 0.0000
# 2 26.7288 105.0118 41.4420 0.0000 0.0000 0.0000
# 3 44.0883 41.4420 180.2486 0.0000 0.0000 0.0000
# 4 0.0000 0.0000 0.0000 29.2123 0.0000 0.0000
# 5 0.0000 0.0000 0.0000 0.0000 45.2183 0.0000
# 6 0.0000 0.0000 0.0000 0.0000 0.0000 18.5387
#
#
#
# Elastic Compliance Matrix: (Units=1/GPa)
#
#
# Indices 1 2 3 4 5 6 
#
# 1 0.015528 -0.002698 -0.003178 0.000000 0.000000 0.000000
# 2 -0.002698 0.010942 -0.001856 0.000000 0.000000 0.000000
# 3 -0.003178 -0.001856 0.006752 0.000000 0.000000 0.000000
# 4 0.000000 0.000000 0.000000 0.034232 0.000000 0.000000
# 5 0.000000 0.000000 0.000000 0.000000 0.022115 0.000000
# 6 0.000000 0.000000 0.000000 0.000000 0.000000 0.053941
#
#
# Mechanical properties :
#
#
# Convention : Reuss Voigt Hill
#
# Bulk Modulus (GPa) = 56.31254 65.31638 60.81446
# Shear Modulus (GPa) = 30.32289 35.33189 32.82739
#
# Velocity S-wave (km/s) = 3.71393 4.00896 3.86426
# Velocity P-wave (km/s) = 6.63374 7.15123 6.89734
#
# Compressibility (1/GPa) = 0.01775803
#
# Stress axis : x y z
#
# Youngs Moduli (GPa) = 64.40179 91.39209 148.10885
#
# Poissons Ratio (x) = 0.24660 0.47063
# Poissons Ratio (y) = 0.17377 0.27485
# Poissons Ratio (z) = 0.20464 0.16960
#
# Static dielectric constant tensor:
#      x y z
#    x 4.211390 0.000000 0.000000 
#    y 0.000000 3.911940 0.000000 
#    z 0.000000 0.000000 4.277690 
# 
# 
# High freq. dielectric constant tensor:
#      x y z
#    x 1.872570 0.000000 0.000000 
#    y 0.000000 1.850440 0.000000 
#    z 0.000000 0.000000 1.884670 
# 
# From -- ./inp_files/2943.got.cif
#   From: 2010.03.12/outbox.cif.g09.slc.cpg/sg29_2_cif.got.tgz:2943.got - 2010.04.14 03:43:10.
