data_PCOD8169361
_publ_section_title
;
Structure prediction by ZEFSAII (Michael W. Deem and Ramdas Pophale) SiO2 
 PCOD8169361
Probable space group: P N C 2
;
_chemical_formula_sum "Si O2"
_cell_formula_units_Z 32
_cell_length_a 38.278418
_cell_length_b 7.506464
_cell_length_c 5.250712
_cell_angle_alpha 90.000000
_cell_angle_beta 90.000000
_cell_angle_gamma 90.000000
_cell_volume 1508.716308
_symmetry_space_group_name_H-M "P N C 2"
_symmetry_group_IT_number 30
_symmetry_cell_setting 'orthorhombic'
loop_
_space_group_symop_operation_xyz
x,y,z
-x,-y,z
-x,1/2+y,1/2+z
x,1/2-y,1/2+z
loop_
_atom_site_type_symbol
_atom_site_label
_atom_site_fract_x
_atom_site_fract_y
_atom_site_fract_z
Si Si1 0.104904 0.641057 0.997160
Si Si2 0.179577 0.866844 0.588418
Si Si3 0.468664 0.365615 0.033590
Si Si4 0.250146 0.454320 0.033149
Si Si5 0.030600 0.863662 0.595638
Si Si6 0.608580 0.544469 0.035473
Si Si7 0.720134 0.560295 0.533247
Si Si8 0.638315 0.560449 0.535551
O O1 0.104864 0.693542 0.698785
O O2 0.141326 0.537928 0.057332
O O3 0.068522 0.537537 0.057833
O O4 0.183604 0.717610 0.368875
O O5 0.208680 0.018774 0.555125
O O6 0.500000 0.500000 0.075725
O O7 0.470663 0.282448 0.752800
O O8 0.432921 0.477482 0.058983
O O9 0.265100 0.548088 0.776337
O O10 0.259311 0.246697 0.008111
O O11 0.270291 0.544183 0.273529
O O12 0.027625 0.709159 0.382941
O O13 0.000000 0.000000 0.541962
O O14 0.623391 0.451544 0.778293
O O15 0.618594 0.751962 0.008765
O O16 0.627983 0.454282 0.277910
O O17 0.679253 0.594668 0.561306
#
# Coordination Sequence:
#
# PCOD8169361 Si02
#       8
#     4   4   4   4   4   4   4   4
#     4   8  16  30  49  71  93 128 179 219 254 303
#     4  10  19  32  50  71  93 135 184 215 241 303
#     4  12  23  40  59  89 122 152 187 234 278 332
#     4  10  18  30  46  68 105 125 157 206 261 307
#     4  10  19  33  55  79 109 141 178 235 284 334
#     4  10  16  29  49  77 106 124 169 220 262 287
#     4  10  19  30  48  79 103 127 161 209 281 303
#     4  10  16  28  51  74 105 122 175 221 262 285
#
# _framework density 21.210086
#
# number of rings (size 3 to 8) (size 9 to 14) (size 15 to 20)
#    0.000    2.000    2.500    5.250    0.000    0.000 
#    0.000    0.000    5.500    0.000    0.000   29.750 
#    0.000    0.000    0.000    0.000    0.000    0.000 
#
# Total GULP energy -396426.753209 kJ/mol
# GULP energy per Si atom -12388.336038 kJ/mol
# Density = 2.116181 g / cm^3
# Si number density = 21.210086 Si / 1000 Ang^3
#
#
#
# Elastic Constant Matrix: (Units=GPa)
#
#
# Indices 1 2 3 4 5 6 
#
# 1 193.5229 25.3362 16.3113 0.0000 0.0000 0.0000
# 2 25.3362 14.0388 -2.4387 0.0000 0.0000 0.0000
# 3 16.3113 -2.4387 167.3714 0.0000 0.0000 0.0000
# 4 0.0000 0.0000 0.0000 7.3129 0.0000 0.0000
# 5 0.0000 0.0000 0.0000 0.0000 34.8876 0.0000
# 6 0.0000 0.0000 0.0000 0.0000 0.0000 26.7954
#
#
#
# Elastic Compliance Matrix: (Units=1/GPa)
#
#
# Indices 1 2 3 4 5 6 
#
# 1 0.006886 -0.012575 -0.000854 0.000000 0.000000 0.000000
# 2 -0.012575 0.094378 0.002601 0.000000 0.000000 0.000000
# 3 -0.000854 0.002601 0.006096 0.000000 0.000000 0.000000
# 4 0.000000 0.000000 0.000000 0.136746 0.000000 0.000000
# 5 0.000000 0.000000 0.000000 0.000000 0.028663 0.000000
# 6 0.000000 0.000000 0.000000 0.000000 0.000000 0.037320
#
#
# Mechanical properties :
#
#
# Convention : Reuss Voigt Hill
#
# Bulk Modulus (GPa) = 11.66836 50.37230 31.02033
# Shear Modulus (GPa) = 13.87681 36.18080 25.02880
#
# Velocity S-wave (km/s) = 2.56062 4.13465 3.43890
# Velocity P-wave (km/s) = 3.77566 6.82602 5.51589
#
# Compressibility (1/GPa) = 0.08570181
#
# Stress axis : x y z
#
# Youngs Moduli (GPa) = 145.22832 10.59570 164.04515
#
# Poissons Ratio (x) = 0.13324 0.14014
# Poissons Ratio (y) = 1.82628 -0.42662
# Poissons Ratio (z) = 0.12407 -0.02756
#
# Static dielectric constant tensor:
#      x y z
#    x 4.220030 0.000000 0.000000 
#    y 0.000000 2.829530 0.000000 
#    z 0.000000 0.000000 6.366890 
# 
# 
# High freq. dielectric constant tensor:
#      x y z
#    x 1.854870 0.000000 0.000000 
#    y 0.000000 1.736250 0.000000 
#    z 0.000000 0.000000 1.879020 
# 
# From -- ./inp_files/1078.got.cif
#   From: 2010.03.12/outbox.cif.g09.slc.cpg/sg30_1_cif.got.tgz:1078.got - 2010.04.14 01:38:02.
