data_PCOD8169870
_publ_section_title
;
Structure prediction by ZEFSAII (Michael W. Deem and Ramdas Pophale) SiO2 
 PCOD8169870
Probable space group: P M N 21
;
_chemical_formula_sum "Si O2"
_cell_formula_units_Z 32
_cell_length_a 8.930069
_cell_length_b 12.205193
_cell_length_c 14.584722
_cell_angle_alpha 90.000000
_cell_angle_beta 90.000000
_cell_angle_gamma 90.000000
_cell_volume 1589.635750
_symmetry_space_group_name_H-M "P M N 21"
_symmetry_group_IT_number 31
_symmetry_cell_setting 'orthorhombic'
loop_
_space_group_symop_operation_xyz
x,y,z
1/2-x,-y,1/2+z
-x,y,z
1/2+x,-y,1/2+z
loop_
_atom_site_type_symbol
_atom_site_label
_atom_site_fract_x
_atom_site_fract_y
_atom_site_fract_z
Si Si1 0.826253 0.158482 0.321880
Si Si2 0.676939 0.389830 0.897911
Si Si3 0.828844 0.976024 0.185712
Si Si4 0.325496 0.121264 0.498432
Si Si5 0.323658 0.550119 0.576851
Si Si6 0.668423 0.774207 0.270668
Si Si7 0.822136 0.402355 0.280307
Si Si8 0.331265 0.671289 0.077259
O O1 0.733444 0.088123 0.397640
O O2 0.766754 0.283578 0.315897
O O3 0.000000 0.155964 0.348944
O O4 0.800716 0.098519 0.223687
O O5 0.500000 0.392869 0.904113
O O6 0.726091 0.279909 0.846276
O O7 0.737271 0.500090 0.846214
O O8 0.745561 0.376975 0.999086
O O9 0.792878 0.971329 0.076239
O O10 0.726988 0.893172 0.242841
O O11 0.000000 0.939217 0.201365
O O12 0.500000 0.150221 0.495073
O O13 0.227456 0.226611 0.521052
O O14 0.500000 0.566562 0.570527
O O15 0.260300 0.582199 0.676999
O O16 0.280893 0.425880 0.554624
O O17 0.500000 0.786970 0.308938
O O18 0.670725 0.693443 0.184669
O O19 0.000000 0.406156 0.276433
O O20 0.500000 0.643005 0.043429
#
# Coordination Sequence:
#
# PCOD8169870 Si02
#       8
#     4   4   4   4   4   4   4   4
#     4  10  20  39  62  84 114 156 197 237 288 353
#     4  11  21  36  57  84 118 155 192 233 288 352
#     4   9  20  38  60  83 114 153 193 237 292 350
#     4  10  20  35  57  88 116 150 196 245 292 341
#     4  11  21  35  54  83 117 154 193 234 287 348
#     4  10  20  35  57  82 109 143 190 244 288 334
#     4   9  20  37  58  82 115 155 191 230 285 348
#     4  10  19  33  55  82 111 148 192 240 286 336
#
# _framework density 20.130399000000001
#
# number of rings (size 3 to 8) (size 9 to 14) (size 15 to 20)
#    0.000    2.000    1.250    2.625    0.000    3.000 
#    2.250    1.875    0.000    0.000    0.000    0.000 
#    0.000    0.000    0.000    0.000    0.000    0.000 
#
# Total GULP energy -396745.492756 kJ/mol
# GULP energy per Si atom -12398.296649 kJ/mol
# Density = 2.008458 g / cm^3
# Si number density = 20.130399 Si / 1000 Ang^3
#
#
#
# Elastic Constant Matrix: (Units=GPa)
#
#
# Indices 1 2 3 4 5 6 
#
# 1 73.6664 14.4945 31.7896 0.0000 0.0000 0.0000
# 2 14.4945 42.6980 13.8492 0.0000 0.0000 0.0000
# 3 31.7896 13.8492 114.4340 0.0000 0.0000 0.0000
# 4 0.0000 0.0000 0.0000 25.4602 0.0000 0.0000
# 5 0.0000 0.0000 0.0000 0.0000 33.3719 0.0000
# 6 0.0000 0.0000 0.0000 0.0000 0.0000 22.5973
#
#
#
# Elastic Compliance Matrix: (Units=1/GPa)
#
#
# Indices 1 2 3 4 5 6 
#
# 1 0.016110 -0.004181 -0.003969 0.000000 0.000000 0.000000
# 2 -0.004181 0.025463 -0.001920 0.000000 0.000000 0.000000
# 3 -0.003969 -0.001920 0.010074 0.000000 0.000000 0.000000
# 4 0.000000 0.000000 0.000000 0.039277 0.000000 0.000000
# 5 0.000000 0.000000 0.000000 0.000000 0.029965 0.000000
# 6 0.000000 0.000000 0.000000 0.000000 0.000000 0.044253
#
#
# Mechanical properties :
#
#
# Convention : Reuss Voigt Hill
#
# Bulk Modulus (GPa) = 31.74099 39.00723 35.37411
# Shear Modulus (GPa) = 25.53818 27.66354 26.60086
#
# Velocity S-wave (km/s) = 3.56566 3.71107 3.63909
# Velocity P-wave (km/s) = 5.72309 6.14671 5.93868
#
# Compressibility (1/GPa) = 0.03150501
#
# Stress axis : x y z
#
# Youngs Moduli (GPa) = 62.07181 39.27344 99.26835
#
# Poissons Ratio (x) = 0.16422 0.39403
# Poissons Ratio (y) = 0.25955 0.19059
# Poissons Ratio (z) = 0.24639 0.07540
#
# Static dielectric constant tensor:
#      x y z
#    x 3.553310 0.000000 0.000000 
#    y 0.000000 3.452450 0.000000 
#    z 0.000000 0.000000 3.951420 
# 
# 
# High freq. dielectric constant tensor:
#      x y z
#    x 1.776290 0.000000 0.000000 
#    y 0.000000 1.764300 0.000000 
#    z 0.000000 0.000000 1.795600 
# 
# From -- ./inp_files/5090.got.cif
#   From: 2010.03.12/outbox.cif.g09.slc.cpg/sg31_3_cif.got.tgz:5090.got - 2010.04.14 01:42:59.
