data_PCOD8169138
_publ_section_title
;
Structure prediction by ZEFSAII (Michael W. Deem and Ramdas Pophale) SiO2 
 PCOD8169138
Probable space group: P C A 21
;
_chemical_formula_sum "Si O2"
_cell_formula_units_Z 32
_cell_length_a 9.263605
_cell_length_b 18.354699
_cell_length_c 8.604112
_cell_angle_alpha 90.000000
_cell_angle_beta 90.000000
_cell_angle_gamma 90.000000
_cell_volume 1462.963026
_symmetry_space_group_name_H-M "P C A 21"
_symmetry_group_IT_number 29
_symmetry_cell_setting 'orthorhombic'
loop_
_space_group_symop_operation_xyz
x,y,z
-x,-y,1/2+z
1/2-x,y,1/2+z
1/2+x,-y,z
loop_
_atom_site_type_symbol
_atom_site_label
_atom_site_fract_x
_atom_site_fract_y
_atom_site_fract_z
Si Si1 0.348757 0.878554 0.097230
Si Si2 0.936613 0.149574 0.751369
Si Si3 0.649579 0.647153 0.095879
Si Si4 0.649455 0.949694 0.595552
Si Si5 0.445045 0.553986 0.268308
Si Si6 0.878147 0.870590 0.782106
Si Si7 0.168800 0.259453 0.809938
Si Si8 0.292349 0.495195 0.965981
O O1 0.197496 0.841123 0.137288
O O2 0.464094 0.849347 0.221641
O O3 0.331923 0.964871 0.110168
O O4 0.388981 0.853350 0.927593
O O5 0.025115 0.075986 0.714112
O O6 0.037202 0.219866 0.722618
O O7 0.612998 0.712115 0.976699
O O8 0.700790 0.577956 0.995063
O O9 0.505547 0.630740 0.199869
O O10 0.779490 0.672727 0.206769
O O11 0.799382 0.910658 0.639025
O O12 0.607748 0.927529 0.421879
O O13 0.588575 0.513204 0.330338
O O14 0.322824 0.557017 0.404723
O O15 0.371976 0.512739 0.125189
O O16 0.798942 0.797377 0.838475
#
# Coordination Sequence:
#
# PCOD8169138 Si02
#       8
#     4   4   4   4   4   4   4   4
#     4  12  22  39  64  92 129 164 220 289 349 384
#     4  11  25  40  62  90 131 172 217 279 333 397
#     4  12  23  42  74  97 132 183 224 264 322 407
#     4  11  21  38  62  98 120 169 219 275 350 412
#     4  12  23  43  71 109 144 174 214 278 339 391
#     4  11  23  40  65  90 132 169 217 281 327 395
#     4  11  24  45  64  91 128 181 232 251 322 409
#     4  12  23  43  74 107 144 172 217 279 344 385
#
# _framework density 21.873417
#
# number of rings (size 3 to 8) (size 9 to 14) (size 15 to 20)
#    0.000    0.500    3.750    6.750    0.000    0.000 
#    0.000    2.500    0.000    0.000    0.000    0.000 
#    0.000    0.000    0.000    0.000    0.000    0.000 
#
# Total GULP energy -396821.736371 kJ/mol
# GULP energy per Si atom -12400.679262 kJ/mol
# Density = 2.182363 g / cm^3
# Si number density = 21.873417 Si / 1000 Ang^3
#
#
#
# Elastic Constant Matrix: (Units=GPa)
#
#
# Indices 1 2 3 4 5 6 
#
# 1 124.5404 37.5421 32.6750 0.0000 0.0000 0.0000
# 2 37.5421 69.0133 24.0472 0.0000 0.0000 0.0000
# 3 32.6750 24.0472 98.7425 0.0000 0.0000 0.0000
# 4 0.0000 0.0000 0.0000 39.1309 0.0000 0.0000
# 5 0.0000 0.0000 0.0000 0.0000 44.9326 0.0000
# 6 0.0000 0.0000 0.0000 0.0000 0.0000 22.1881
#
#
#
# Elastic Compliance Matrix: (Units=1/GPa)
#
#
# Indices 1 2 3 4 5 6 
#
# 1 0.010013 -0.004690 -0.002171 0.000000 0.000000 0.000000
# 2 -0.004690 0.018031 -0.002839 0.000000 0.000000 0.000000
# 3 -0.002171 -0.002839 0.011537 0.000000 0.000000 0.000000
# 4 0.000000 0.000000 0.000000 0.025555 0.000000 0.000000
# 5 0.000000 0.000000 0.000000 0.000000 0.022256 0.000000
# 6 0.000000 0.000000 0.000000 0.000000 0.000000 0.045069
#
#
# Mechanical properties :
#
#
# Convention : Reuss Voigt Hill
#
# Bulk Modulus (GPa) = 49.55439 53.42498 51.48969
# Shear Modulus (GPa) = 31.52811 34.45245 32.99028
#
# Velocity S-wave (km/s) = 3.80068 3.97304 3.88782
# Velocity P-wave (km/s) = 6.47800 6.74717 6.61396
#
# Compressibility (1/GPa) = 0.02017985
#
# Stress axis : x y z
#
# Youngs Moduli (GPa) = 99.86951 55.46099 86.67619
#
# Poissons Ratio (x) = 0.26014 0.18819
# Poissons Ratio (y) = 0.46843 0.24607
# Poissons Ratio (z) = 0.21683 0.15745
#
# Static dielectric constant tensor:
#      x y z
#    x 4.333910 0.000000 0.000000 
#    y 0.000000 3.772470 0.000000 
#    z 0.000000 0.000000 4.147660 
# 
# 
# High freq. dielectric constant tensor:
#      x y z
#    x 1.866720 0.000000 0.000000 
#    y 0.000000 1.833150 0.000000 
#    z 0.000000 0.000000 1.878650 
# 
# From -- ./inp_files/1261.got.cif
#   From: 2010.03.12/outbox.cif.g09.slc.cpg/sg29_1_cif.got.tgz:1261.got - 2010.04.14 03:43:10.
