data_PCOD8169322
_publ_section_title
;
Structure prediction by ZEFSAII (Michael W. Deem and Ramdas Pophale) SiO2 
 PCOD8169322
Probable space group: P C A 21
;
_chemical_formula_sum "Si O2"
_cell_formula_units_Z 24
_cell_length_a 9.642084
_cell_length_b 6.435955
_cell_length_c 17.033278
_cell_angle_alpha 90.000000
_cell_angle_beta 90.000000
_cell_angle_gamma 90.000000
_cell_volume 1057.017419
_symmetry_space_group_name_H-M "P C A 21"
_symmetry_group_IT_number 29
_symmetry_cell_setting 'orthorhombic'
loop_
_space_group_symop_operation_xyz
x,y,z
-x,-y,1/2+z
1/2-x,y,1/2+z
1/2+x,-y,z
loop_
_atom_site_type_symbol
_atom_site_label
_atom_site_fract_x
_atom_site_fract_y
_atom_site_fract_z
Si Si1 0.967057 0.959179 0.933100
Si Si2 0.199347 0.268548 0.178515
Si Si3 0.699347 0.768548 0.993966
Si Si4 0.849786 0.110249 0.781776
Si Si5 0.532943 0.540821 0.739381
Si Si6 0.150215 0.610249 0.890704
O O1 0.058854 0.753874 0.948085
O O2 0.814730 0.937546 0.970065
O O3 0.045404 0.154236 0.971745
O O4 0.952671 0.985544 0.839415
O O5 0.314730 0.437546 0.202416
O O6 0.045404 0.345764 0.200735
O O7 0.229960 0.053014 0.225204
O O8 0.209470 0.250001 0.086240
O O9 0.729960 0.553014 0.947276
O O10 0.750001 0.250001 0.836240
O O11 0.941148 0.253873 0.724396
O O12 0.547328 0.514453 0.833066
#
# Coordination Sequence:
#
# PCOD8169322 Si02
#       6
#     4   4   4   4   4   4
#     4  12  25  48  73 105 145 192 247 303 367 453
#     4  12  30  45  73 112 151 194 245 315 380 436
#     4  12  30  45  73 112 151 194 245 315 380 436
#     4  12  24  46  78 107 142 193 255 297 365 450
#     4  12  25  48  73 105 145 192 247 303 367 453
#     4  12  24  46  78 107 142 193 255 297 365 450
#
# _framework density 22.705396
#
# number of rings (size 3 to 8) (size 9 to 14) (size 15 to 20)
#    0.000    0.000    6.667    3.000    4.667    0.000 
#    0.000    0.000    0.000    0.000    0.000    0.000 
#    0.000    0.000    0.000    0.000    0.000    0.000 
#
# Total GULP energy -297662.139208 kJ/mol
# GULP energy per Si atom -12402.589134 kJ/mol
# Density = 2.265372 g / cm^3
# Si number density = 22.705396 Si / 1000 Ang^3
#
#
#
# Elastic Constant Matrix: (Units=GPa)
#
#
# Indices 1 2 3 4 5 6 
#
# 1 89.6969 38.4148 20.8527 0.0000 0.0000 0.0000
# 2 38.4148 103.6185 50.5318 0.0000 0.0000 0.0000
# 3 20.8527 50.5318 138.8803 0.0000 0.0000 0.0000
# 4 0.0000 0.0000 0.0000 24.6889 0.0000 0.0000
# 5 0.0000 0.0000 0.0000 0.0000 20.8544 0.0000
# 6 0.0000 0.0000 0.0000 0.0000 0.0000 53.0557
#
#
#
# Elastic Compliance Matrix: (Units=1/GPa)
#
#
# Indices 1 2 3 4 5 6 
#
# 1 0.013260 -0.004796 -0.000246 0.000000 0.000000 0.000000
# 2 -0.004796 0.013467 -0.004180 0.000000 0.000000 0.000000
# 3 -0.000246 -0.004180 0.008758 0.000000 0.000000 0.000000
# 4 0.000000 0.000000 0.000000 0.040504 0.000000 0.000000
# 5 0.000000 0.000000 0.000000 0.000000 0.047952 0.000000
# 6 0.000000 0.000000 0.000000 0.000000 0.000000 0.018848
#
#
# Mechanical properties :
#
#
# Convention : Reuss Voigt Hill
#
# Bulk Modulus (GPa) = 58.67978 61.31050 59.99514
# Shear Modulus (GPa) = 29.95569 34.54622 32.25096
#
# Velocity S-wave (km/s) = 3.63619 3.90487 3.77292
# Velocity P-wave (km/s) = 6.59767 6.88418 6.74245
#
# Compressibility (1/GPa) = 0.01704164
#
# Stress axis : x y z
#
# Youngs Moduli (GPa) = 75.41597 74.25426 114.17786
#
# Poissons Ratio (x) = 0.35612 0.02808
# Poissons Ratio (y) = 0.36169 0.47726
# Poissons Ratio (z) = 0.01855 0.31038
#
# Static dielectric constant tensor:
#      x y z
#    x 4.143750 0.000000 0.000000 
#    y 0.000000 4.300520 0.000000 
#    z 0.000000 0.000000 3.839780 
# 
# 
# High freq. dielectric constant tensor:
#      x y z
#    x 1.904770 0.000000 0.000000 
#    y 0.000000 1.906140 0.000000 
#    z 0.000000 0.000000 1.876530 
# 
# From -- ./inp_files/4941.got.cif
#   From: 2010.03.12/outbox.cif.g09.slc.cpg/sg29_3_cif.got.tgz:4941.got - 2010.04.14 03:43:10.
