data_PCOD8169574
_publ_section_title
;
Structure prediction by ZEFSAII (Michael W. Deem and Ramdas Pophale) SiO2 
 PCOD8169574
Probable space group: P N C 2
;
_chemical_formula_sum "Si O2"
_cell_formula_units_Z 26
_cell_length_a 11.571136
_cell_length_b 10.834292
_cell_length_c 9.793372
_cell_angle_alpha 90.000000
_cell_angle_beta 90.000000
_cell_angle_gamma 90.000000
_cell_volume 1227.746729
_symmetry_space_group_name_H-M "P N C 2"
_symmetry_group_IT_number 30
_symmetry_cell_setting 'orthorhombic'
loop_
_space_group_symop_operation_xyz
x,y,z
-x,-y,z
-x,1/2+y,1/2+z
x,1/2-y,1/2+z
loop_
_atom_site_type_symbol
_atom_site_label
_atom_site_fract_x
_atom_site_fract_y
_atom_site_fract_z
Si Si1 0.183552 0.074535 0.748750
Si Si2 0.910322 0.107375 0.124902
Si Si3 0.482661 0.189096 0.963907
Si Si4 0.568315 0.624969 0.175956
Si Si5 0.000000 0.000000 0.547238
Si Si6 0.307463 0.979408 0.005080
Si Si7 0.001416 0.755937 0.371964
O O1 0.294010 0.115497 0.659799
O O2 0.113984 0.192663 0.809674
O O3 0.228455 0.991341 0.871661
O O4 0.108553 0.986968 0.649696
O O5 0.917371 0.210959 0.242818
O O6 0.781110 0.049298 0.128550
O O7 0.000000 0.000000 0.160086
O O8 0.935752 0.162512 0.974868
O O9 0.457985 0.213147 0.804952
O O10 0.609383 0.136099 0.986184
O O11 0.382930 0.102267 0.030300
O O12 0.481222 0.320680 0.036838
O O13 0.500000 0.500000 0.210450
O O14 0.974387 0.880713 0.455159
#
# Coordination Sequence:
#
# PCOD8169574 Si02
#       7
#     4   4   4   4   2   4   4
#     4  11  23  44  70  95 140 182 220 279 339 404
#     4  12  25  42  66 100 137 176 228 277 338 405
#     4  10  23  46  72  99 136 175 230 276 339 399
#     4  11  24  45  73 103 134 179 225 280 338 405
#     4  12  26  40  64 106 132 170 238 274 340 402
#     4  10  22  45  72  94 136 185 219 278 340 399
#     4  12  26  41  67 101 134 181 225 277 341 406
#
# _framework density 21.177007
#
# number of rings (size 3 to 8) (size 9 to 14) (size 15 to 20)
#    0.000    0.923    6.923    0.923    6.462    2.462 
#    2.769    0.000    0.000    0.000    0.000    0.000 
#    0.000    0.000    0.000    0.000    0.000    0.000 
#
# Total GULP energy -322340.284988 kJ/mol
# GULP energy per Si atom -12397.703269 kJ/mol
# Density = 2.112881 g / cm^3
# Si number density = 21.177007 Si / 1000 Ang^3
#
#
#
# Elastic Constant Matrix: (Units=GPa)
#
#
# Indices 1 2 3 4 5 6 
#
# 1 129.0633 29.5784 46.2664 0.0000 0.0000 0.0000
# 2 29.5784 70.4732 40.8188 0.0000 0.0000 0.0000
# 3 46.2664 40.8188 109.5658 0.0000 0.0000 0.0000
# 4 0.0000 0.0000 0.0000 43.5768 0.0000 0.0000
# 5 0.0000 0.0000 0.0000 0.0000 9.9420 0.0000
# 6 0.0000 0.0000 0.0000 0.0000 0.0000 28.6199
#
#
#
# Elastic Compliance Matrix: (Units=1/GPa)
#
#
# Indices 1 2 3 4 5 6 
#
# 1 0.009366 -0.002092 -0.003176 0.000000 0.000000 0.000000
# 2 -0.002092 0.018561 -0.006032 0.000000 0.000000 0.000000
# 3 -0.003176 -0.006032 0.012715 0.000000 0.000000 0.000000
# 4 0.000000 0.000000 0.000000 0.022948 0.000000 0.000000
# 5 0.000000 0.000000 0.000000 0.000000 0.100584 0.000000
# 6 0.000000 0.000000 0.000000 0.000000 0.000000 0.034941
#
#
# Mechanical properties :
#
#
# Convention : Reuss Voigt Hill
#
# Bulk Modulus (GPa) = 55.41977 60.26996 57.84487
# Shear Modulus (GPa) = 21.95604 29.25698 25.60651
#
# Velocity S-wave (km/s) = 3.22341 3.72095 3.48108
# Velocity P-wave (km/s) = 6.33091 6.85438 6.59784
#
# Compressibility (1/GPa) = 0.01804410
#
# Stress axis : x y z
#
# Youngs Moduli (GPa) = 106.77022 53.87543 78.64648
#
# Poissons Ratio (x) = 0.11268 0.24976
# Poissons Ratio (y) = 0.22332 0.47438
# Poissons Ratio (z) = 0.33907 0.32497
#
# Static dielectric constant tensor:
#      x y z
#    x 4.179170 0.000000 0.000000 
#    y 0.000000 3.747650 0.000000 
#    z 0.000000 0.000000 3.868650 
# 
# 
# High freq. dielectric constant tensor:
#      x y z
#    x 1.836880 0.000000 0.000000 
#    y 0.000000 1.821130 0.000000 
#    z 0.000000 0.000000 1.830730 
# 
# From -- ./inp_files/2380.got.cif
#   From: 2010.03.12/outbox.cif.g09.slc.cpg/sg30_2_cif.got.tgz:2380.got - 2010.04.14 01:38:02.
