data_PCOD8169596
_publ_section_title
;
Structure prediction by ZEFSAII (Michael W. Deem and Ramdas Pophale) SiO2 
 PCOD8169596
Probable space group: P N C 2
;
_chemical_formula_sum "Si O2"
_cell_formula_units_Z 24
_cell_length_a 8.334073
_cell_length_b 10.913166
_cell_length_c 11.825309
_cell_angle_alpha 90.000000
_cell_angle_beta 90.000000
_cell_angle_gamma 90.000000
_cell_volume 1075.525123
_symmetry_space_group_name_H-M "P N C 2"
_symmetry_group_IT_number 30
_symmetry_cell_setting 'orthorhombic'
loop_
_space_group_symop_operation_xyz
x,y,z
-x,-y,z
-x,1/2+y,1/2+z
x,1/2-y,1/2+z
loop_
_atom_site_type_symbol
_atom_site_label
_atom_site_fract_x
_atom_site_fract_y
_atom_site_fract_z
Si Si1 0.178041 0.035809 0.237140
Si Si2 0.302505 0.818600 0.368266
Si Si3 0.681759 0.482395 0.070733
Si Si4 0.332409 0.298768 0.898972
Si Si5 0.324756 0.040653 0.002950
Si Si6 0.161255 0.573673 0.304303
O O1 0.298584 0.939855 0.293202
O O2 0.225953 0.170355 0.287080
O O3 0.197991 0.026401 0.103365
O O4 0.000000 0.000000 0.273372
O O5 0.279171 0.857315 0.500529
O O6 0.486206 0.777594 0.357134
O O7 0.168772 0.722780 0.317181
O O8 0.500000 0.500000 0.113181
O O9 0.793064 0.476131 0.180793
O O10 0.713364 0.597820 0.990623
O O11 0.285435 0.174762 0.958466
O O12 0.500000 0.000000 0.047649
O O13 0.294156 0.951534 0.898755
O O14 0.000000 0.500000 0.337969
#
# Coordination Sequence:
#
# PCOD8169596 Si02
#       6
#     4   4   4   4   4   4
#     4  11  26  45  70 103 139 185 222 288 362 413
#     4  10  23  46  70  96 138 183 234 278 344 422
#     4   9  22  43  69  96 128 183 231 277 341 412
#     4  10  23  45  72  99 133 181 238 278 335 423
#     4  12  25  44  71 101 134 181 239 284 338 413
#     4  12  27  42  66 104 138 176 228 288 352 401
#
# _framework density 22.314681
#
# number of rings (size 3 to 8) (size 9 to 14) (size 15 to 20)
#    0.000    1.333    1.667    3.500    7.000    4.000 
#    0.000    0.000    0.000    0.000    0.000    0.000 
#    0.000    0.000    0.000    0.000    0.000    0.000 
#
# Total GULP energy -297357.985720 kJ/mol
# GULP energy per Si atom -12389.916072 kJ/mol
# Density = 2.226389 g / cm^3
# Si number density = 22.314681 Si / 1000 Ang^3
#
#
#
# Elastic Constant Matrix: (Units=GPa)
#
#
# Indices 1 2 3 4 5 6 
#
# 1 70.2693 19.5928 34.2695 0.0000 0.0000 0.0000
# 2 19.5928 91.5580 26.9801 0.0000 0.0000 0.0000
# 3 34.2695 26.9801 117.2052 0.0000 0.0000 0.0000
# 4 0.0000 0.0000 0.0000 30.7797 0.0000 0.0000
# 5 0.0000 0.0000 0.0000 0.0000 34.8340 0.0000
# 6 0.0000 0.0000 0.0000 0.0000 0.0000 38.8155
#
#
#
# Elastic Compliance Matrix: (Units=1/GPa)
#
#
# Indices 1 2 3 4 5 6 
#
# 1 0.017052 -0.002338 -0.004448 0.000000 0.000000 0.000000
# 2 -0.002338 0.012038 -0.002087 0.000000 0.000000 0.000000
# 3 -0.004448 -0.002087 0.010313 0.000000 0.000000 0.000000
# 4 0.000000 0.000000 0.000000 0.032489 0.000000 0.000000
# 5 0.000000 0.000000 0.000000 0.000000 0.028708 0.000000
# 6 0.000000 0.000000 0.000000 0.000000 0.000000 0.025763
#
#
# Mechanical properties :
#
#
# Convention : Reuss Voigt Hill
#
# Bulk Modulus (GPa) = 46.17652 48.96860 47.57256
# Shear Modulus (GPa) = 33.04104 34.09850 33.56977
#
# Velocity S-wave (km/s) = 3.85214 3.91330 3.88284
# Velocity P-wave (km/s) = 6.36582 6.51235 6.43950
#
# Compressibility (1/GPa) = 0.02165603
#
# Stress axis : x y z
#
# Youngs Moduli (GPa) = 58.64419 83.07358 96.96567
#
# Poissons Ratio (x) = 0.19426 0.43126
# Poissons Ratio (y) = 0.13714 0.20239
# Poissons Ratio (z) = 0.26082 0.17340
#
# Static dielectric constant tensor:
#      x y z
#    x 3.716320 0.000000 0.000000 
#    y 0.000000 3.356820 0.000000 
#    z 0.000000 0.000000 3.992830 
# 
# 
# High freq. dielectric constant tensor:
#      x y z
#    x 1.865280 0.000000 0.000000 
#    y 0.000000 1.884720 0.000000 
#    z 0.000000 0.000000 1.885560 
# 
# From -- ./inp_files/3623.got.cif
#   From: 2010.03.12/outbox.cif.g09.slc.cpg/sg30_2_cif.got.tgz:3623.got - 2010.04.14 01:38:02.
