data_PCOD8169169
_publ_section_title
;
Structure prediction by ZEFSAII (Michael W. Deem and Ramdas Pophale) SiO2 
 PCOD8169169
Probable space group: P C A 21
;
_chemical_formula_sum "Si O2"
_cell_formula_units_Z 32
_cell_length_a 14.677692
_cell_length_b 8.617482
_cell_length_c 11.560421
_cell_angle_alpha 90.000000
_cell_angle_beta 90.000000
_cell_angle_gamma 90.000000
_cell_volume 1462.216921
_symmetry_space_group_name_H-M "P C A 21"
_symmetry_group_IT_number 29
_symmetry_cell_setting 'orthorhombic'
loop_
_space_group_symop_operation_xyz
x,y,z
-x,-y,1/2+z
1/2-x,y,1/2+z
1/2+x,-y,z
loop_
_atom_site_type_symbol
_atom_site_label
_atom_site_fract_x
_atom_site_fract_y
_atom_site_fract_z
Si Si1 0.924821 0.545323 0.730720
Si Si2 0.294328 0.820059 0.728702
Si Si3 0.571578 0.709147 0.792441
Si Si4 0.371267 0.990122 0.176048
Si Si5 0.761092 0.478094 0.336464
Si Si6 0.866524 0.366289 0.531518
Si Si7 0.980473 0.198542 0.347478
Si Si8 0.434461 0.902552 0.928005
O O1 0.840948 0.542619 0.822175
O O2 0.891470 0.524950 0.599083
O O3 0.994119 0.404562 0.748859
O O4 0.970759 0.710989 0.743208
O O5 0.238278 0.971616 0.687476
O O6 0.228957 0.667958 0.747501
O O7 0.358699 0.777999 0.619882
O O8 0.352959 0.847731 0.843981
O O9 0.662593 0.612075 0.821535
O O10 0.526631 0.802663 0.901831
O O11 0.597354 0.830876 0.689021
O O12 0.401333 0.902196 0.292062
O O13 0.406818 0.898932 0.062741
O O14 0.772606 0.406292 0.464967
O O15 0.943866 0.325325 0.438124
O O16 0.052260 0.084975 0.406586
#
# Coordination Sequence:
#
# PCOD8169169 Si02
#       8
#     4   4   4   4   4   4   4   4
#     4  11  24  45  69  97 142 179 230 291 347 412
#     4  11  23  45  70 101 144 180 235 279 363 415
#     4  11  23  46  67 103 138 176 245 282 343 421
#     4  11  25  43  73  99 139 188 227 291 349 415
#     4  11  23  44  66 103 134 182 231 288 345 416
#     4  11  22  44  70 100 140 182 227 299 337 429
#     4  11  25  44  70 100 133 184 233 275 361 418
#     4  11  25  45  67 103 142 185 226 289 351 420
#
# _framework density 21.884578999999999
#
# number of rings (size 3 to 8) (size 9 to 14) (size 15 to 20)
#    0.000    1.000    5.000    1.500    5.250    0.000 
#    9.000    0.000    0.000    0.000    0.000    0.000 
#    0.000    0.000    0.000    0.000    0.000    0.000 
#
# Total GULP energy -396485.044917 kJ/mol
# GULP energy per Si atom -12390.157654 kJ/mol
# Density = 2.183477 g / cm^3
# Si number density = 21.884579 Si / 1000 Ang^3
#
#
#
# Elastic Constant Matrix: (Units=GPa)
#
#
# Indices 1 2 3 4 5 6 
#
# 1 106.2490 45.0781 29.6894 0.0000 0.0000 0.0000
# 2 45.0781 79.9730 21.4621 0.0000 0.0000 0.0000
# 3 29.6894 21.4621 100.2644 0.0000 0.0000 0.0000
# 4 0.0000 0.0000 0.0000 32.6533 0.0000 0.0000
# 5 0.0000 0.0000 0.0000 0.0000 29.2313 0.0000
# 6 0.0000 0.0000 0.0000 0.0000 0.0000 25.6983
#
#
#
# Elastic Compliance Matrix: (Units=1/GPa)
#
#
# Indices 1 2 3 4 5 6 
#
# 1 0.012892 -0.006623 -0.002400 0.000000 0.000000 0.000000
# 2 -0.006623 0.016669 -0.001607 0.000000 0.000000 0.000000
# 3 -0.002400 -0.001607 0.011028 0.000000 0.000000 0.000000
# 4 0.000000 0.000000 0.000000 0.030625 0.000000 0.000000
# 5 0.000000 0.000000 0.000000 0.000000 0.034210 0.000000
# 6 0.000000 0.000000 0.000000 0.000000 0.000000 0.038913
#
#
# Mechanical properties :
#
#
# Convention : Reuss Voigt Hill
#
# Bulk Modulus (GPa) = 51.73373 53.21618 52.47496
# Shear Modulus (GPa) = 29.06308 30.20037 29.63172
#
# Velocity S-wave (km/s) = 3.64815 3.71884 3.68367
# Velocity P-wave (km/s) = 6.43708 6.54288 6.49020
#
# Compressibility (1/GPa) = 0.01932975
#
# Stress axis : x y z
#
# Youngs Moduli (GPa) = 77.56525 59.99311 90.67646
#
# Poissons Ratio (x) = 0.39733 0.21761
# Poissons Ratio (y) = 0.51371 0.14571
# Poissons Ratio (z) = 0.18615 0.09640
#
# Static dielectric constant tensor:
#      x y z
#    x 4.043030 0.000000 0.000000 
#    y 0.000000 4.127970 0.000000 
#    z 0.000000 0.000000 3.949250 
# 
# 
# High freq. dielectric constant tensor:
#      x y z
#    x 1.859720 0.000000 0.000000 
#    y 0.000000 1.860590 0.000000 
#    z 0.000000 0.000000 1.854890 
# 
# From -- ./inp_files/3519.got.cif
#   From: 2010.03.12/outbox.cif.g09.slc.cpg/sg29_2_cif.got.tgz:3519.got - 2010.04.14 03:43:10.
