data_PCOD8169162
_publ_section_title
;
Structure prediction by ZEFSAII (Michael W. Deem and Ramdas Pophale) SiO2 
 PCOD8169162
Probable space group: P C A 21
;
_chemical_formula_sum "Si O2"
_cell_formula_units_Z 32
_cell_length_a 18.578844
_cell_length_b 6.512952
_cell_length_c 12.430116
_cell_angle_alpha 90.000000
_cell_angle_beta 90.000000
_cell_angle_gamma 90.000000
_cell_volume 1504.082808
_symmetry_space_group_name_H-M "P C A 21"
_symmetry_group_IT_number 29
_symmetry_cell_setting 'orthorhombic'
loop_
_space_group_symop_operation_xyz
x,y,z
-x,-y,1/2+z
1/2-x,y,1/2+z
1/2+x,-y,z
loop_
_atom_site_type_symbol
_atom_site_label
_atom_site_fract_x
_atom_site_fract_y
_atom_site_fract_z
Si Si1 0.730777 0.535972 0.595870
Si Si2 0.565046 0.415467 0.329687
Si Si3 0.924729 0.034076 0.980239
Si Si4 0.180487 0.282367 0.396824
Si Si5 0.452748 0.728865 0.407148
Si Si6 0.369597 0.726381 0.624513
Si Si7 0.870566 0.222859 0.187963
Si Si8 0.734272 0.945365 0.199617
O O1 0.722936 0.543844 0.465698
O O2 0.800542 0.418466 0.636731
O O3 0.655906 0.448763 0.647669
O O4 0.740496 0.773832 0.618505
O O5 0.622621 0.597244 0.326252
O O6 0.491775 0.513321 0.377211
O O7 0.564919 0.338711 0.205086
O O8 0.588676 0.224373 0.401475
O O9 0.858058 0.879580 0.975390
O O10 0.996901 0.915360 0.946324
O O11 0.925542 0.121103 0.101910
O O12 0.230701 0.154174 0.317701
O O13 0.396614 0.699579 0.503286
O O14 0.411171 0.788917 0.300061
O O15 0.341212 0.954238 0.657547
O O16 0.795499 0.112441 0.202987
#
# Coordination Sequence:
#
# PCOD8169162 Si02
#       8
#     4   4   4   4   4   4   4   4
#     4  11  24  41  71  99 137 172 214 288 333 406
#     4  11  24  45  66  91 133 180 220 273 327 401
#     4  11  24  45  66  91 133 180 220 273 327 401
#     4  11  22  42  68 102 128 175 220 266 352 391
#     4  11  30  42  68  96 132 183 222 278 322 405
#     4  11  26  45  65 103 135 172 230 274 340 397
#     4  11  26  45  65 103 135 172 230 274 340 397
#     4  11  24  41  71  99 137 172 214 288 333 406
#
# _framework density 21.275424000000001
#
# number of rings (size 3 to 8) (size 9 to 14) (size 15 to 20)
#    0.000    1.000    5.000    0.000    7.000    2.000 
#    0.000    0.000    0.000    0.000    0.000    0.000 
#    0.000    0.000    0.000    0.000    0.000    0.000 
#
# Total GULP energy -396600.215510 kJ/mol
# GULP energy per Si atom -12393.756735 kJ/mol
# Density = 2.122700 g / cm^3
# Si number density = 21.275424 Si / 1000 Ang^3
#
#
#
# Elastic Constant Matrix: (Units=GPa)
#
#
# Indices 1 2 3 4 5 6 
#
# 1 79.0040 31.0996 46.0059 0.0000 0.0000 0.0000
# 2 31.0996 94.2057 29.3620 0.0000 0.0000 0.0000
# 3 46.0059 29.3620 155.7957 0.0000 0.0000 0.0000
# 4 0.0000 0.0000 0.0000 20.5743 0.0000 0.0000
# 5 0.0000 0.0000 0.0000 0.0000 34.7730 0.0000
# 6 0.0000 0.0000 0.0000 0.0000 0.0000 7.6610
#
#
#
# Elastic Compliance Matrix: (Units=1/GPa)
#
#
# Indices 1 2 3 4 5 6 
#
# 1 0.016738 -0.004234 -0.004145 0.000000 0.000000 0.000000
# 2 -0.004234 0.012348 -0.001077 0.000000 0.000000 0.000000
# 3 -0.004145 -0.001077 0.007846 0.000000 0.000000 0.000000
# 4 0.000000 0.000000 0.000000 0.048604 0.000000 0.000000
# 5 0.000000 0.000000 0.000000 0.000000 0.028758 0.000000
# 6 0.000000 0.000000 0.000000 0.000000 0.000000 0.130531
#
#
# Mechanical properties :
#
#
# Convention : Reuss Voigt Hill
#
# Bulk Modulus (GPa) = 55.49141 60.21562 57.85351
# Shear Modulus (GPa) = 18.53618 27.43752 22.98685
#
# Velocity S-wave (km/s) = 2.95489 3.59504 3.29057
# Velocity P-wave (km/s) = 6.14662 6.75254 6.45669
#
# Compressibility (1/GPa) = 0.01802081
#
# Stress axis : x y z
#
# Youngs Moduli (GPa) = 59.74533 80.98205 127.46070
#
# Poissons Ratio (x) = 0.34285 0.52828
# Poissons Ratio (y) = 0.25294 0.13728
# Poissons Ratio (z) = 0.24763 0.08722
#
# Static dielectric constant tensor:
#      x y z
#    x 3.779290 0.000000 0.000000 
#    y 0.000000 4.248440 0.000000 
#    z 0.000000 0.000000 3.849780 
# 
# 
# High freq. dielectric constant tensor:
#      x y z
#    x 1.819860 0.000000 0.000000 
#    y 0.000000 1.846840 0.000000 
#    z 0.000000 0.000000 1.845250 
# 
# From -- ./inp_files/3834.got.cif
#   From: 2010.03.12/outbox.cif.g09.slc.cpg/sg29_2_cif.got.tgz:3834.got - 2010.04.14 03:43:10.
