data_PCOD8169429
_publ_section_title
;
Structure prediction by ZEFSAII (Michael W. Deem and Ramdas Pophale) SiO2 
 PCOD8169429
Probable space group: P N C 2
;
_chemical_formula_sum "Si O2"
_cell_formula_units_Z 28
_cell_length_a 13.172191
_cell_length_b 18.178806
_cell_length_c 5.194405
_cell_angle_alpha 90.000000
_cell_angle_beta 90.000000
_cell_angle_gamma 90.000000
_cell_volume 1243.824716
_symmetry_space_group_name_H-M "P N C 2"
_symmetry_group_IT_number 30
_symmetry_cell_setting 'orthorhombic'
loop_
_space_group_symop_operation_xyz
x,y,z
-x,-y,z
-x,1/2+y,1/2+z
x,1/2-y,1/2+z
loop_
_atom_site_type_symbol
_atom_site_label
_atom_site_fract_x
_atom_site_fract_y
_atom_site_fract_z
Si Si1 0.853098 0.550478 0.366670
Si Si2 0.423206 0.202941 0.372214
Si Si3 0.035588 0.296686 0.861782
Si Si4 0.939301 0.107335 0.740646
Si Si5 0.770771 0.887643 0.367665
Si Si6 0.258521 0.668779 0.405754
Si Si7 0.653476 0.168170 0.403891
O O1 0.885245 0.470831 0.264856
O O2 0.800184 0.552904 0.645736
O O3 0.952335 0.603958 0.389261
O O4 0.775196 0.577990 0.151146
O O5 0.407591 0.235032 0.656668
O O6 0.343624 0.138296 0.320227
O O7 0.534640 0.168676 0.348260
O O8 0.009079 0.262531 0.586541
O O9 0.154306 0.317600 0.858710
O O10 0.966410 0.368560 0.943405
O O11 0.862942 0.167055 0.866184
O O12 0.298993 0.750991 0.453571
O O13 0.289958 0.626724 0.669040
O O14 0.317460 0.627569 0.170855
#
# Coordination Sequence:
#
# PCOD8169429 Si02
#       7
#     4   4   4   4   4   4   4
#     4  10  24  44  59  92 118 174 227 245 289 385
#     4  12  20  37  65  92 120 162 192 260 324 380
#     4  11  23  37  56  96 129 153 197 257 320 390
#     4  10  24  40  67  84 130 173 207 257 310 360
#     4  11  23  40  63  86 128 162 212 260 305 369
#     4  10  20  35  57  87 120 155 192 251 299 375
#     4  10  20  36  55  93 121 147 199 243 316 391
#
# _framework density 22.511210999999999
#
# number of rings (size 3 to 8) (size 9 to 14) (size 15 to 20)
#    0.000    1.429    2.857    3.429    4.000    9.143 
#    0.000    0.000    0.000    5.143    0.000    0.000 
#    0.000    0.000    0.000    0.000    0.000    0.000 
#
# Total GULP energy -346998.180433 kJ/mol
# GULP energy per Si atom -12392.792158 kJ/mol
# Density = 2.245997 g / cm^3
# Si number density = 22.511211 Si / 1000 Ang^3
#
#
#
# Elastic Constant Matrix: (Units=GPa)
#
#
# Indices 1 2 3 4 5 6 
#
# 1 109.5436 28.4621 10.2310 0.0000 0.0000 0.0000
# 2 28.4621 46.8268 9.9054 0.0000 0.0000 0.0000
# 3 10.2310 9.9054 123.9681 0.0000 0.0000 0.0000
# 4 0.0000 0.0000 0.0000 21.2611 0.0000 0.0000
# 5 0.0000 0.0000 0.0000 0.0000 30.6500 0.0000
# 6 0.0000 0.0000 0.0000 0.0000 0.0000 21.9701
#
#
#
# Elastic Compliance Matrix: (Units=1/GPa)
#
#
# Indices 1 2 3 4 5 6 
#
# 1 0.010858 -0.006520 -0.000375 0.000000 0.000000 0.000000
# 2 -0.006520 0.025638 -0.001510 0.000000 0.000000 0.000000
# 3 -0.000375 -0.001510 0.008218 0.000000 0.000000 0.000000
# 4 0.000000 0.000000 0.000000 0.047034 0.000000 0.000000
# 5 0.000000 0.000000 0.000000 0.000000 0.032626 0.000000
# 6 0.000000 0.000000 0.000000 0.000000 0.000000 0.045516
#
#
# Mechanical properties :
#
#
# Convention : Reuss Voigt Hill
#
# Bulk Modulus (GPa) = 35.83914 41.94839 38.89377
# Shear Modulus (GPa) = 25.50974 30.22558 27.86766
#
# Velocity S-wave (km/s) = 3.36996 3.66825 3.52226
# Velocity P-wave (km/s) = 5.57649 6.05114 5.81866
#
# Compressibility (1/GPa) = 0.02790245
#
# Stress axis : x y z
#
# Youngs Moduli (GPa) = 92.09843 39.00473 121.68057
#
# Poissons Ratio (x) = 0.25432 0.04564
# Poissons Ratio (y) = 0.60051 0.18379
# Poissons Ratio (z) = 0.03455 0.05891
#
# Static dielectric constant tensor:
#      x y z
#    x 4.086650 0.000000 0.000000 
#    y 0.000000 3.825760 0.000000 
#    z 0.000000 0.000000 4.845020 
# 
# 
# High freq. dielectric constant tensor:
#      x y z
#    x 1.884200 0.000000 0.000000 
#    y 0.000000 1.841400 0.000000 
#    z 0.000000 0.000000 1.914890 
# 
# From -- ./inp_files/765.got.cif
#   From: 2010.03.12/outbox.cif.g09.slc.cpg/sg30_1_cif.got.tgz:765.got - 2010.04.14 01:38:02.
