data_PCOD8169874
_publ_section_title
;
Structure prediction by ZEFSAII (Michael W. Deem and Ramdas Pophale) SiO2 
 PCOD8169874
Probable space group: P M N 21
;
_chemical_formula_sum "Si O2"
_cell_formula_units_Z 32
_cell_length_a 8.848814
_cell_length_b 11.405575
_cell_length_c 15.786045
_cell_angle_alpha 90.000000
_cell_angle_beta 90.000000
_cell_angle_gamma 90.000000
_cell_volume 1593.219406
_symmetry_space_group_name_H-M "P M N 21"
_symmetry_group_IT_number 31
_symmetry_cell_setting 'orthorhombic'
loop_
_space_group_symop_operation_xyz
x,y,z
1/2-x,-y,1/2+z
-x,y,z
1/2+x,-y,1/2+z
loop_
_atom_site_type_symbol
_atom_site_label
_atom_site_fract_x
_atom_site_fract_y
_atom_site_fract_z
Si Si1 0.679464 0.105596 0.505430
Si Si2 0.820903 0.124322 0.332961
Si Si3 0.321030 0.918218 0.644181
Si Si4 0.324966 0.371046 0.314996
Si Si5 0.834996 0.300950 0.039986
Si Si6 0.834806 0.533655 0.437862
Si Si7 0.334786 0.505293 0.672028
Si Si8 0.667021 0.666766 0.072927
O O1 0.500000 0.108389 0.498839
O O2 0.744460 0.059968 0.414427
O O3 0.741641 0.234782 0.522510
O O4 0.733707 0.024626 0.584191
O O5 0.761518 0.072115 0.242021
O O6 0.777931 0.260689 0.338993
O O7 0.000000 0.111708 0.341505
O O8 0.500000 0.913028 0.650153
O O9 0.261850 0.798344 0.600692
O O10 0.500000 0.335838 0.321714
O O11 0.287522 0.480837 0.374321
O O12 0.283501 0.414946 0.222237
O O13 0.862130 0.423782 0.086420
O O14 0.000000 0.256408 0.006560
O O15 0.722178 0.335187 0.963626
O O16 0.853130 0.447740 0.516688
O O17 0.000000 0.548978 0.395007
O O18 0.500000 0.488938 0.716554
O O19 0.263468 0.376152 0.654596
O O20 0.500000 0.713412 0.099344
#
# Coordination Sequence:
#
# PCOD8169874 Si02
#       8
#     4   4   4   4   4   4   4   4
#     4  11  22  38  61  89 118 156 202 249 300 356
#     4  11  21  39  61  85 115 153 200 250 298 354
#     4   9  20  39  62  85 116 158 201 243 299 360
#     4  12  22  33  54  86 118 150 192 241 293 356
#     4   9  17  34  56  79 108 147 188 231 289 350
#     4  10  20  33  52  80 115 148 184 232 287 345
#     4  10  19  33  56  82 113 147 185 233 292 350
#     4  10  20  35  54  80 115 151 190 235 286 345
#
# _framework density 20.085118000000001
#
# number of rings (size 3 to 8) (size 9 to 14) (size 15 to 20)
#    0.000    1.750    2.500    3.000    0.000    1.500 
#    0.000    5.000    0.000    3.000    0.000    0.000 
#    0.000    0.000    0.000    0.000    0.000    0.000 
#
# Total GULP energy -396516.762058 kJ/mol
# GULP energy per Si atom -12391.148814 kJ/mol
# Density = 2.003940 g / cm^3
# Si number density = 20.085118 Si / 1000 Ang^3
#
#
#
# Elastic Constant Matrix: (Units=GPa)
#
#
# Indices 1 2 3 4 5 6 
#
# 1 99.6150 24.1401 34.8107 0.0000 0.0000 0.0000
# 2 24.1401 56.3643 33.8547 0.0000 0.0000 0.0000
# 3 34.8107 33.8547 77.3393 0.0000 0.0000 0.0000
# 4 0.0000 0.0000 0.0000 35.3853 0.0000 0.0000
# 5 0.0000 0.0000 0.0000 0.0000 27.8192 0.0000
# 6 0.0000 0.0000 0.0000 0.0000 0.0000 14.4733
#
#
#
# Elastic Compliance Matrix: (Units=1/GPa)
#
#
# Indices 1 2 3 4 5 6 
#
# 1 0.012189 -0.002612 -0.004343 0.000000 0.000000 0.000000
# 2 -0.002612 0.024630 -0.009606 0.000000 0.000000 0.000000
# 3 -0.004343 -0.009606 0.019090 0.000000 0.000000 0.000000
# 4 0.000000 0.000000 0.000000 0.028260 0.000000 0.000000
# 5 0.000000 0.000000 0.000000 0.000000 0.035946 0.000000
# 6 0.000000 0.000000 0.000000 0.000000 0.000000 0.069093
#
#
# Mechanical properties :
#
#
# Convention : Reuss Voigt Hill
#
# Bulk Modulus (GPa) = 43.88422 46.54773 45.21597
# Shear Modulus (GPa) = 21.74606 24.90310 23.32458
#
# Velocity S-wave (km/s) = 3.29400 3.52501 3.41146
# Velocity P-wave (km/s) = 6.03024 6.30818 6.17078
#
# Compressibility (1/GPa) = 0.02278724
#
# Stress axis : x y z
#
# Youngs Moduli (GPa) = 82.03907 40.60071 52.38387
#
# Poissons Ratio (x) = 0.10604 0.22751
# Poissons Ratio (y) = 0.21427 0.50320
# Poissons Ratio (z) = 0.35631 0.39001
#
# Static dielectric constant tensor:
#      x y z
#    x 3.919990 0.000000 0.000000 
#    y 0.000000 3.409640 0.000000 
#    z 0.000000 0.000000 3.768100 
# 
# 
# High freq. dielectric constant tensor:
#      x y z
#    x 1.784490 0.000000 0.000000 
#    y 0.000000 1.751780 0.000000 
#    z 0.000000 0.000000 1.775400 
# 
# From -- ./inp_files/4961.got.cif
#   From: 2010.03.12/outbox.cif.g09.slc.cpg/sg31_3_cif.got.tgz:4961.got - 2010.04.14 01:42:59.
