data_PCOD8169793
_publ_section_title
;
Structure prediction by ZEFSAII (Michael W. Deem and Ramdas Pophale) SiO2 
 PCOD8169793
Probable space group: P M N 21
;
_chemical_formula_sum "Si O2"
_cell_formula_units_Z 32
_cell_length_a 9.249840
_cell_length_b 24.476945
_cell_length_c 7.707607
_cell_angle_alpha 90.000000
_cell_angle_beta 90.000000
_cell_angle_gamma 90.000000
_cell_volume 1745.062536
_symmetry_space_group_name_H-M "P M N 21"
_symmetry_group_IT_number 31
_symmetry_cell_setting 'orthorhombic'
loop_
_space_group_symop_operation_xyz
x,y,z
1/2-x,-y,1/2+z
-x,y,z
1/2+x,-y,1/2+z
loop_
_atom_site_type_symbol
_atom_site_label
_atom_site_fract_x
_atom_site_fract_y
_atom_site_fract_z
Si Si1 0.669501 0.554527 0.425060
Si Si2 0.827479 0.244276 0.621003
Si Si3 0.835934 0.172602 0.313013
Si Si4 0.669215 0.554747 0.821030
Si Si5 0.332448 0.060809 0.945419
Si Si6 0.828889 0.366393 0.624004
Si Si7 0.163668 0.053287 0.282163
Si Si8 0.328635 0.835027 0.422296
O O1 0.500000 0.544309 0.399385
O O2 0.705460 0.571534 0.622998
O O3 0.748683 0.499417 0.374714
O O4 0.725609 0.601983 0.296116
O O5 0.760640 0.212713 0.453235
O O6 0.762803 0.305462 0.624146
O O7 0.000000 0.244478 0.610597
O O8 0.779662 0.214177 0.797820
O O9 0.828893 0.110356 0.389117
O O10 0.770023 0.177474 0.117914
O O11 0.000000 0.192172 0.295732
O O12 0.500000 0.543343 0.845331
O O13 0.721858 0.603057 0.948553
O O14 0.500000 0.073607 0.921594
O O15 0.287433 0.061247 0.143116
O O16 0.243001 0.108802 0.849459
O O17 0.291398 0.999882 0.887215
O O18 0.000000 0.362241 0.628584
O O19 0.000000 0.047012 0.205216
O O20 0.500000 0.844287 0.422256
#
# Coordination Sequence:
#
# PCOD8169793 Si02
#       8
#     4   4   4   4   4   4   4   4
#     4  10  19  31  50  75 105 136 168 209 254 304
#     4   9  17  29  51  75  98 134 170 208 257 298
#     4   8  15  29  46  68  96 124 162 207 245 296
#     4  10  19  31  50  74 103 138 168 206 256 301
#     4  10  20  32  50  75 103 133 165 209 260 307
#     4   9  18  31  46  75 107 128 168 218 254 298
#     4   9  19  33  48  72 102 129 166 209 253 307
#     4   9  18  32  51  72  98 132 169 210 255 305
#
# _framework density 18.337451000000001
#
# number of rings (size 3 to 8) (size 9 to 14) (size 15 to 20)
#    0.000    2.750    1.250    1.125    1.750    2.000 
#    0.000    5.000    0.000    1.500    0.000    3.500 
#    0.000    0.000    0.000    0.000    0.000    0.000 
#
# Total GULP energy -396505.856217 kJ/mol
# GULP energy per Si atom -12390.808007 kJ/mol
# Density = 1.829571 g / cm^3
# Si number density = 18.337451 Si / 1000 Ang^3
#
#
#
# Elastic Constant Matrix: (Units=GPa)
#
#
# Indices 1 2 3 4 5 6 
#
# 1 23.4188 28.0240 19.7903 0.0000 0.0000 0.0000
# 2 28.0240 180.9649 90.2762 0.0000 0.0000 0.0000
# 3 19.7903 90.2762 136.2703 0.0000 0.0000 0.0000
# 4 0.0000 0.0000 0.0000 35.4893 0.0000 0.0000
# 5 0.0000 0.0000 0.0000 0.0000 14.8629 0.0000
# 6 0.0000 0.0000 0.0000 0.0000 0.0000 22.0645
#
#
#
# Elastic Compliance Matrix: (Units=1/GPa)
#
#
# Indices 1 2 3 4 5 6 
#
# 1 0.053450 -0.006579 -0.003404 0.000000 0.000000 0.000000
# 2 -0.006579 0.009063 -0.005049 0.000000 0.000000 0.000000
# 3 -0.003404 -0.005049 0.011177 0.000000 0.000000 0.000000
# 4 0.000000 0.000000 0.000000 0.028177 0.000000 0.000000
# 5 0.000000 0.000000 0.000000 0.000000 0.067282 0.000000
# 6 0.000000 0.000000 0.000000 0.000000 0.000000 0.045322
#
#
# Mechanical properties :
#
#
# Convention : Reuss Voigt Hill
#
# Bulk Modulus (GPa) = 22.92150 68.53722 45.72936
# Shear Modulus (GPa) = 19.29918 27.98756 23.64337
#
# Velocity S-wave (km/s) = 3.24766 3.91097 3.59465
# Velocity P-wave (km/s) = 5.15655 7.60598 6.49773
#
# Compressibility (1/GPa) = 0.04362716
#
# Stress axis : x y z
#
# Youngs Moduli (GPa) = 18.70903 110.33323 89.46569
#
# Poissons Ratio (x) = 0.72590 0.30453
# Poissons Ratio (y) = 0.12309 0.45170
# Poissons Ratio (z) = 0.06368 0.55706
#
# Static dielectric constant tensor:
#      x y z
#    x 3.033990 0.000000 0.000000 
#    y 0.000000 3.822590 0.000000 
#    z 0.000000 0.000000 3.641600 
# 
# 
# High freq. dielectric constant tensor:
#      x y z
#    x 1.662080 0.000000 0.000000 
#    y 0.000000 1.717120 0.000000 
#    z 0.000000 0.000000 1.712910 
# 
# From -- ./inp_files/1894.got.cif
#   From: 2010.03.12/outbox.cif.g09.slc.cpg/sg31_1_cif.got.tgz:1894.got - 2010.04.14 01:42:59.
