data_PCOD8169798
_publ_section_title
;
Structure prediction by ZEFSAII (Michael W. Deem and Ramdas Pophale) SiO2 
 PCOD8169798
Probable space group: P M N 21
;
_chemical_formula_sum "Si O2"
_cell_formula_units_Z 32
_cell_length_a 8.627134
_cell_length_b 10.257705
_cell_length_c 19.240301
_cell_angle_alpha 90.000000
_cell_angle_beta 90.000000
_cell_angle_gamma 90.000000
_cell_volume 1702.662656
_symmetry_space_group_name_H-M "P M N 21"
_symmetry_group_IT_number 31
_symmetry_cell_setting 'orthorhombic'
loop_
_space_group_symop_operation_xyz
x,y,z
1/2-x,-y,1/2+z
-x,y,z
1/2+x,-y,1/2+z
loop_
_atom_site_type_symbol
_atom_site_label
_atom_site_fract_x
_atom_site_fract_y
_atom_site_fract_z
Si Si1 0.316650 0.783134 0.803520
Si Si2 0.819369 0.859740 0.943122
Si Si3 0.182390 0.511056 0.305755
Si Si4 0.819420 0.768416 0.659563
Si Si5 0.181666 0.513827 0.151523
Si Si6 0.818694 0.895430 0.515885
Si Si7 0.816415 0.640030 0.441014
Si Si8 0.181000 0.382682 0.520426
O O1 0.500000 0.790112 0.793943
O O2 0.265845 0.871881 0.868497
O O3 0.255640 0.635902 0.817690
O O4 0.239208 0.832846 0.731631
O O5 0.000000 0.863482 0.928459
O O6 0.776228 0.727459 0.981782
O O7 0.772384 0.977117 0.993223
O O8 0.225740 0.561466 0.229240
O O9 0.250324 0.610278 0.363563
O O10 0.000000 0.503127 0.316130
O O11 0.727668 0.636529 0.642340
O O12 0.788205 0.870559 0.597547
O O13 0.000000 0.732879 0.664137
O O14 0.275837 0.611194 0.101670
O O15 0.000000 0.527461 0.136827
O O16 0.749543 0.774712 0.470963
O O17 0.000000 0.916169 0.501315
O O18 0.766241 0.521366 0.490091
O O19 0.000000 0.651419 0.441074
O O20 0.000000 0.353735 0.509759
#
# Coordination Sequence:
#
# PCOD8169798 Si02
#       8
#     4   4   4   4   4   4   4   4
#     4  10  19  35  59  84 113 151 191 234 290 348
#     4  12  25  39  56  84 118 153 195 245 291 343
#     4   8  15  29  53  83 112 143 181 230 280 336
#     4  10  19  34  57  86 116 148 193 241 287 340
#     4  10  19  31  52  85 120 151 189 237 291 343
#     4  10  21  38  59  83 113 154 195 236 288 347
#     4   9  16  32  58  84 107 139 188 234 282 338
#     4  11  20  36  60  83 111 149 192 239 289 345
#
# _framework density 18.794093
#
# number of rings (size 3 to 8) (size 9 to 14) (size 15 to 20)
#    0.000    2.000    2.500    3.375    0.000    1.000 
#    0.000    1.250    0.000    4.500    0.000    0.000 
#    0.000    0.000    0.000    0.000    0.000    0.000 
#
# Total GULP energy -396757.834703 kJ/mol
# GULP energy per Si atom -12398.682334 kJ/mol
# Density = 1.875132 g / cm^3
# Si number density = 18.794093 Si / 1000 Ang^3
#
#
#
# Elastic Constant Matrix: (Units=GPa)
#
#
# Indices 1 2 3 4 5 6 
#
# 1 43.9391 17.8923 28.6637 0.0000 0.0000 0.0000
# 2 17.8923 46.4530 30.8519 0.0000 0.0000 0.0000
# 3 28.6637 30.8519 138.6806 0.0000 0.0000 0.0000
# 4 0.0000 0.0000 0.0000 26.8359 0.0000 0.0000
# 5 0.0000 0.0000 0.0000 0.0000 29.0913 0.0000
# 6 0.0000 0.0000 0.0000 0.0000 0.0000 21.0734
#
#
#
# Elastic Compliance Matrix: (Units=1/GPa)
#
#
# Indices 1 2 3 4 5 6 
#
# 1 0.028848 -0.008391 -0.004096 0.000000 0.000000 0.000000
# 2 -0.008391 0.027700 -0.004428 0.000000 0.000000 0.000000
# 3 -0.004096 -0.004428 0.009042 0.000000 0.000000 0.000000
# 4 0.000000 0.000000 0.000000 0.037264 0.000000 0.000000
# 5 0.000000 0.000000 0.000000 0.000000 0.034374 0.000000
# 6 0.000000 0.000000 0.000000 0.000000 0.000000 0.047453
#
#
# Mechanical properties :
#
#
# Convention : Reuss Voigt Hill
#
# Bulk Modulus (GPa) = 31.48573 42.65429 37.07001
# Shear Modulus (GPa) = 21.82477 25.51112 23.66795
#
# Velocity S-wave (km/s) = 3.41142 3.68829 3.55255
# Velocity P-wave (km/s) = 5.68387 6.39397 6.04935
#
# Compressibility (1/GPa) = 0.03176042
#
# Stress axis : x y z
#
# Youngs Moduli (GPa) = 34.66503 36.10108 110.58961
#
# Poissons Ratio (x) = 0.30293 0.45295
# Poissons Ratio (y) = 0.29088 0.48969
# Poissons Ratio (z) = 0.14198 0.15986
#
# Static dielectric constant tensor:
#      x y z
#    x 3.269090 0.000000 0.000000 
#    y 0.000000 3.286700 0.000000 
#    z 0.000000 0.000000 3.870490 
# 
# 
# High freq. dielectric constant tensor:
#      x y z
#    x 1.714710 0.000000 0.000000 
#    y 0.000000 1.696620 0.000000 
#    z 0.000000 0.000000 1.750830 
# 
# From -- ./inp_files/5838.got.cif
#   From: 2010.03.12/outbox.cif.g09.slc.cpg/sg31_3_cif.got.tgz:5838.got - 2010.04.14 01:42:59.
