data_PCOD8169177
_publ_section_title
;
Structure prediction by ZEFSAII (Michael W. Deem and Ramdas Pophale) SiO2 
 PCOD8169177
Probable space group: P C A 21
;
_chemical_formula_sum "Si O2"
_cell_formula_units_Z 24
_cell_length_a 10.758512
_cell_length_b 5.515855
_cell_length_c 17.307820
_cell_angle_alpha 90.000000
_cell_angle_beta 90.000000
_cell_angle_gamma 90.000000
_cell_volume 1027.087443
_symmetry_space_group_name_H-M "P C A 21"
_symmetry_group_IT_number 29
_symmetry_cell_setting 'orthorhombic'
loop_
_space_group_symop_operation_xyz
x,y,z
-x,-y,1/2+z
1/2-x,y,1/2+z
1/2+x,-y,z
loop_
_atom_site_type_symbol
_atom_site_label
_atom_site_fract_x
_atom_site_fract_y
_atom_site_fract_z
Si Si1 0.453936 0.462830 0.991590
Si Si2 0.360801 0.828077 0.401603
Si Si3 0.774098 0.906732 0.026989
Si Si4 0.548697 0.917230 0.276914
Si Si5 0.855379 0.406614 0.837537
Si Si6 0.482106 0.142125 0.600560
O O1 0.543652 0.239751 0.969711
O O2 0.442670 0.625194 0.913919
O O3 0.314628 0.373876 0.015369
O O4 0.517811 0.588045 0.065078
O O5 0.431693 0.961457 0.332397
O O6 0.288911 0.598343 0.363942
O O7 0.255949 0.998899 0.440499
O O8 0.656615 0.956078 0.082243
O O9 0.899102 0.021591 0.061026
O O10 0.622600 0.669240 0.298522
O O11 0.497760 0.873796 0.191279
O O12 0.625436 0.170426 0.281939
#
# Coordination Sequence:
#
# PCOD8169177 Si02
#       6
#     4   4   4   4   4   4
#     4  11  24  46  76 111 145 200 262 321 376 467
#     4  11  22  47  77 107 148 200 266 310 386 457
#     4  12  25  48  78 108 153 198 268 318 384 466
#     4  11  29  45  72 110 159 200 251 321 390 458
#     4  11  24  46  71 106 146 200 253 311 379 458
#     4  12  28  46  74 114 155 204 252 321 397 454
#
# _framework density 23.367045999999998
#
# number of rings (size 3 to 8) (size 9 to 14) (size 15 to 20)
#    0.000    0.667    3.333    4.000    4.667    5.333 
#    0.000    0.000    0.000    0.000    0.000    0.000 
#    0.000    0.000    0.000    0.000    0.000    0.000 
#
# Total GULP energy -297329.647195 kJ/mol
# GULP energy per Si atom -12388.735300 kJ/mol
# Density = 2.331386 g / cm^3
# Si number density = 23.367046 Si / 1000 Ang^3
#
#
#
# Elastic Constant Matrix: (Units=GPa)
#
#
# Indices 1 2 3 4 5 6 
#
# 1 148.6762 30.9581 49.6030 0.0000 0.0000 0.0000
# 2 30.9581 100.0649 41.1109 0.0000 0.0000 0.0000
# 3 49.6030 41.1109 142.9155 0.0000 0.0000 0.0000
# 4 0.0000 0.0000 0.0000 21.1979 0.0000 0.0000
# 5 0.0000 0.0000 0.0000 0.0000 24.1076 0.0000
# 6 0.0000 0.0000 0.0000 0.0000 0.0000 24.4211
#
#
#
# Elastic Compliance Matrix: (Units=1/GPa)
#
#
# Indices 1 2 3 4 5 6 
#
# 1 0.007794 -0.001474 -0.002281 0.000000 0.000000 0.000000
# 2 -0.001474 0.011612 -0.002829 0.000000 0.000000 0.000000
# 3 -0.002281 -0.002829 0.008603 0.000000 0.000000 0.000000
# 4 0.000000 0.000000 0.000000 0.047175 0.000000 0.000000
# 5 0.000000 0.000000 0.000000 0.000000 0.041481 0.000000
# 6 0.000000 0.000000 0.000000 0.000000 0.000000 0.040948
#
#
# Mechanical properties :
#
#
# Convention : Reuss Voigt Hill
#
# Bulk Modulus (GPa) = 67.38259 70.55564 68.96912
# Shear Modulus (GPa) = 28.45335 31.94427 30.19881
#
# Velocity S-wave (km/s) = 3.49330 3.70140 3.59885
# Velocity P-wave (km/s) = 6.72087 6.96614 6.84460
#
# Compressibility (1/GPa) = 0.01484063
#
# Stress axis : x y z
#
# Youngs Moduli (GPa) = 128.30338 86.12018 116.24499
#
# Poissons Ratio (x) = 0.12695 0.26517
# Poissons Ratio (y) = 0.18914 0.32881
# Poissons Ratio (z) = 0.29267 0.24360
#
# Static dielectric constant tensor:
#      x y z
#    x 4.374260 0.000000 0.000000 
#    y 0.000000 4.277930 0.000000 
#    z 0.000000 0.000000 4.091210 
# 
# 
# High freq. dielectric constant tensor:
#      x y z
#    x 1.938620 0.000000 0.000000 
#    y 0.000000 1.918450 0.000000 
#    z 0.000000 0.000000 1.912820 
# 
# From -- ./inp_files/5058.got.cif
#   From: 2010.03.12/outbox.cif.g09.slc.cpg/sg29_3_cif.got.tgz:5058.got - 2010.04.14 03:43:10.
