data_PCOD8169929
_publ_section_title
;
Structure prediction by ZEFSAII (Michael W. Deem and Ramdas Pophale) SiO2 
 PCOD8169929
Probable space group: P M N 21
;
_chemical_formula_sum "Si O2"
_cell_formula_units_Z 20
_cell_length_a 18.906465
_cell_length_b 10.358079
_cell_length_c 5.186044
_cell_angle_alpha 90.000000
_cell_angle_beta 90.000000
_cell_angle_gamma 90.000000
_cell_volume 1015.607154
_symmetry_space_group_name_H-M "P M N 21"
_symmetry_group_IT_number 31
_symmetry_cell_setting 'orthorhombic'
loop_
_space_group_symop_operation_xyz
x,y,z
1/2-x,-y,1/2+z
-x,y,z
1/2+x,-y,1/2+z
loop_
_atom_site_type_symbol
_atom_site_label
_atom_site_fract_x
_atom_site_fract_y
_atom_site_fract_z
Si Si1 0.415638 0.115389 0.753220
Si Si2 0.801169 0.354029 0.226765
Si Si3 0.659111 0.518501 0.226563
Si Si4 0.581651 0.265315 0.249631
Si Si5 0.787143 0.053372 0.200628
O O1 0.500000 0.084450 0.753775
O O2 0.391673 0.209012 0.520500
O O3 0.370360 0.984488 0.724726
O O4 0.386045 0.186754 0.008700
O O5 0.729753 0.434855 0.229086
O O6 0.847806 0.392910 0.474015
O O7 0.780691 0.205453 0.239661
O O8 0.845742 0.386579 0.971139
O O9 0.595062 0.417705 0.233062
O O10 0.500000 0.240983 0.225136
O O11 0.740804 0.983000 0.417874
#
# Coordination Sequence:
#
# PCOD8169929 Si02
#       5
#     4   4   4   4   4
#     4  10  21  37  57  82 112 144 182 231 281 327
#     4  10  21  33  53  78 105 139 172 216 273 317
#     4  10  19  35  52  76 108 134 171 220 266 317
#     4  10  20  36  59  82 105 142 186 225 272 329
#     4  12  23  37  58  84 112 147 193 232 274 334
#
# _framework density 19.692653
#
# number of rings (size 3 to 8) (size 9 to 14) (size 15 to 20)
#    0.000    1.600    0.000    6.000    0.000    3.200 
#    0.000    2.000    0.000    0.000    0.000    0.000 
#    0.000    0.000    0.000    0.000    0.000    0.000 
#
# Total GULP energy -248017.279307 kJ/mol
# GULP energy per Si atom -12400.863965 kJ/mol
# Density = 1.964783 g / cm^3
# Si number density = 19.692653 Si / 1000 Ang^3
#
#
#
# Elastic Constant Matrix: (Units=GPa)
#
#
# Indices 1 2 3 4 5 6 
#
# 1 36.1864 13.7638 19.3226 0.0000 0.0000 0.0000
# 2 13.7638 69.7850 25.6051 0.0000 0.0000 0.0000
# 3 19.3226 25.6051 134.8963 0.0000 0.0000 0.0000
# 4 0.0000 0.0000 0.0000 33.3558 0.0000 0.0000
# 5 0.0000 0.0000 0.0000 0.0000 13.2298 0.0000
# 6 0.0000 0.0000 0.0000 0.0000 0.0000 33.6467
#
#
#
# Elastic Compliance Matrix: (Units=1/GPa)
#
#
# Indices 1 2 3 4 5 6 
#
# 1 0.031399 -0.004883 -0.003571 0.000000 0.000000 0.000000
# 2 -0.004883 0.016162 -0.002368 0.000000 0.000000 0.000000
# 3 -0.003571 -0.002368 0.008374 0.000000 0.000000 0.000000
# 4 0.000000 0.000000 0.000000 0.029980 0.000000 0.000000
# 5 0.000000 0.000000 0.000000 0.000000 0.075587 0.000000
# 6 0.000000 0.000000 0.000000 0.000000 0.000000 0.029721
#
#
# Mechanical properties :
#
#
# Convention : Reuss Voigt Hill
#
# Bulk Modulus (GPa) = 29.16219 39.80563 34.48391
# Shear Modulus (GPa) = 22.29204 28.19154 25.24179
#
# Velocity S-wave (km/s) = 3.36817 3.78772 3.58409
# Velocity P-wave (km/s) = 5.47420 6.27586 5.88869
#
# Compressibility (1/GPa) = 0.03429098
#
# Stress axis : x y z
#
# Youngs Moduli (GPa) = 31.84858 61.87462 119.41558
#
# Poissons Ratio (x) = 0.30211 0.42640
# Poissons Ratio (y) = 0.15551 0.28281
# Poissons Ratio (z) = 0.11372 0.14654
#
# Static dielectric constant tensor:
#      x y z
#    x 3.396650 0.000000 0.000000 
#    y 0.000000 3.750140 0.000000 
#    z 0.000000 0.000000 4.303370 
# 
# 
# High freq. dielectric constant tensor:
#      x y z
#    x 1.745580 0.000000 0.000000 
#    y 0.000000 1.758980 0.000000 
#    z 0.000000 0.000000 1.794290 
# 
# From -- ./inp_files/764.got.cif
#   From: 2010.03.12/outbox.cif.g09.slc.cpg/sg31_1_cif.got.tgz:764.got - 2010.04.14 01:42:59.
