data_PCOD8169524
_publ_section_title
;
Structure prediction by ZEFSAII (Michael W. Deem and Ramdas Pophale) SiO2 
 PCOD8169524
Probable space group: P N C 2
;
_chemical_formula_sum "Si O2"
_cell_formula_units_Z 32
_cell_length_a 9.242839
_cell_length_b 14.175951
_cell_length_c 11.737818
_cell_angle_alpha 90.000000
_cell_angle_beta 90.000000
_cell_angle_gamma 90.000000
_cell_volume 1537.959726
_symmetry_space_group_name_H-M "P N C 2"
_symmetry_group_IT_number 30
_symmetry_cell_setting 'orthorhombic'
loop_
_space_group_symop_operation_xyz
x,y,z
-x,-y,z
-x,1/2+y,1/2+z
x,1/2-y,1/2+z
loop_
_atom_site_type_symbol
_atom_site_label
_atom_site_fract_x
_atom_site_fract_y
_atom_site_fract_z
Si Si1 0.759593 0.338250 0.558090
Si Si2 0.863609 0.942152 0.362213
Si Si3 0.467818 0.739479 0.917911
Si Si4 0.401949 0.409022 0.285074
Si Si5 0.156585 0.473681 0.445358
Si Si6 0.922286 0.670149 0.638688
Si Si7 0.617411 0.073529 0.265894
Si Si8 0.715636 0.829199 0.564091
O O1 0.685349 0.259648 0.478993
O O2 0.763236 0.432120 0.483078
O O3 0.658291 0.354963 0.666378
O O4 0.915340 0.303098 0.600918
O O5 0.915675 0.866660 0.267857
O O6 0.794342 0.888670 0.467435
O O7 0.755891 0.017600 0.308657
O O8 0.000000 0.000000 0.408714
O O9 0.507175 0.818000 0.824255
O O10 0.456073 0.635576 0.864595
O O11 0.595625 0.738782 0.009926
O O12 0.500000 0.500000 0.302939
O O13 0.252356 0.418120 0.354494
O O14 0.360139 0.399709 0.152891
O O15 0.137707 0.411444 0.557969
O O16 0.000000 0.500000 0.391515
O O17 0.829073 0.764595 0.631549
O O18 0.500000 0.000000 0.219087
#
# Coordination Sequence:
#
# PCOD8169524 Si02
#       8
#     4   4   4   4   4   4   4   4
#     4  11  24  42  72 105 135 176 235 292 347 415
#     4  12  25  49  73  99 139 187 238 291 353 419
#     4  12  26  45  67 106 138 188 233 286 351 417
#     4  12  26  46  67 101 144 185 227 287 348 423
#     4  10  21  43  70  98 131 176 229 283 341 411
#     4  11  23  45  72 105 134 174 240 294 343 416
#     4  12  26  44  70 101 141 184 236 289 342 422
#     4  12  28  44  70 100 143 184 230 288 354 420
#
# _framework density 20.806785999999999
#
# number of rings (size 3 to 8) (size 9 to 14) (size 15 to 20)
#    0.000    0.500    6.250    1.875    7.000    0.500 
#    2.250    0.000    0.000    0.000    0.000    0.000 
#    0.000    0.000    0.000    0.000    0.000    0.000 
#
# Total GULP energy -397000.098872 kJ/mol
# GULP energy per Si atom -12406.253090 kJ/mol
# Density = 2.075943 g / cm^3
# Si number density = 20.806786 Si / 1000 Ang^3
#
#
#
# Elastic Constant Matrix: (Units=GPa)
#
#
# Indices 1 2 3 4 5 6 
#
# 1 112.7007 29.4173 40.4789 0.0000 0.0000 0.0000
# 2 29.4173 55.3522 23.3962 0.0000 0.0000 0.0000
# 3 40.4789 23.3962 105.0414 0.0000 0.0000 0.0000
# 4 0.0000 0.0000 0.0000 8.1079 0.0000 0.0000
# 5 0.0000 0.0000 0.0000 0.0000 26.0563 0.0000
# 6 0.0000 0.0000 0.0000 0.0000 0.0000 37.3574
#
#
#
# Elastic Compliance Matrix: (Units=1/GPa)
#
#
# Indices 1 2 3 4 5 6 
#
# 1 0.011261 -0.004582 -0.003319 0.000000 0.000000 0.000000
# 2 -0.004582 0.021808 -0.003092 0.000000 0.000000 0.000000
# 3 -0.003319 -0.003092 0.011488 0.000000 0.000000 0.000000
# 4 0.000000 0.000000 0.000000 0.123336 0.000000 0.000000
# 5 0.000000 0.000000 0.000000 0.000000 0.038378 0.000000
# 6 0.000000 0.000000 0.000000 0.000000 0.000000 0.026768
#
#
# Mechanical properties :
#
#
# Convention : Reuss Voigt Hill
#
# Bulk Modulus (GPa) = 44.30352 51.07545 47.68948
# Shear Modulus (GPa) = 19.04408 26.29111 22.66759
#
# Velocity S-wave (km/s) = 3.02864 3.55855 3.30424
# Velocity P-wave (km/s) = 5.79390 6.44090 6.12595
#
# Compressibility (1/GPa) = 0.02257157
#
# Stress axis : x y z
#
# Youngs Moduli (GPa) = 88.80085 45.85469 87.04949
#
# Poissons Ratio (x) = 0.21010 0.28892
# Poissons Ratio (y) = 0.40688 0.26913
# Poissons Ratio (z) = 0.29474 0.14177
#
# Static dielectric constant tensor:
#      x y z
#    x 4.121250 0.000000 0.000000 
#    y 0.000000 3.717990 0.000000 
#    z 0.000000 0.000000 3.742380 
# 
# 
# High freq. dielectric constant tensor:
#      x y z
#    x 1.832780 0.000000 0.000000 
#    y 0.000000 1.813710 0.000000 
#    z 0.000000 0.000000 1.811780 
# 
# From -- ./inp_files/3776.got.cif
#   From: 2010.03.12/outbox.cif.g09.slc.cpg/sg30_2_cif.got.tgz:3776.got - 2010.04.14 01:38:02.
