data_PCOD8169845
_publ_section_title
;
Structure prediction by ZEFSAII (Michael W. Deem and Ramdas Pophale) SiO2 
 PCOD8169845
Probable space group: P M N 21
;
_chemical_formula_sum "Si O2"
_cell_formula_units_Z 32
_cell_length_a 9.346489
_cell_length_b 14.469890
_cell_length_c 12.205525
_cell_angle_alpha 90.000000
_cell_angle_beta 90.000000
_cell_angle_gamma 90.000000
_cell_volume 1650.707762
_symmetry_space_group_name_H-M "P M N 21"
_symmetry_group_IT_number 31
_symmetry_cell_setting 'orthorhombic'
loop_
_space_group_symop_operation_xyz
x,y,z
1/2-x,-y,1/2+z
-x,y,z
1/2+x,-y,1/2+z
loop_
_atom_site_type_symbol
_atom_site_label
_atom_site_fract_x
_atom_site_fract_y
_atom_site_fract_z
Si Si1 0.656697 0.840916 0.141920
Si Si2 0.831405 0.329756 0.928011
Si Si3 0.664217 0.358602 0.147181
Si Si4 0.332158 0.222822 0.336896
Si Si5 0.335419 0.560599 0.212927
Si Si6 0.662585 0.945296 0.921990
Si Si7 0.338943 0.880373 0.382064
Si Si8 0.832784 0.682476 0.061078
O O1 0.500000 0.791098 0.137227
O O2 0.668984 0.898199 0.252700
O O3 0.781779 0.765686 0.139137
O O4 0.671669 0.913328 0.045923
O O5 0.758121 0.364933 0.038483
O O6 0.000000 0.341968 0.942410
O O7 0.778085 0.391570 0.824831
O O8 0.788355 0.223323 0.909287
O O9 0.500000 0.347701 0.110990
O O10 0.710535 0.272357 0.223453
O O11 0.684491 0.450427 0.220777
O O12 0.500000 0.199975 0.343185
O O13 0.247170 0.126264 0.343854
O O14 0.290100 0.292028 0.436380
O O15 0.500000 0.588176 0.195369
O O16 0.248160 0.591922 0.104647
O O17 0.500000 0.951892 0.878830
O O18 0.731274 0.046078 0.932239
O O19 0.500000 0.897179 0.426259
O O20 0.000000 0.666105 0.074246
#
# Coordination Sequence:
#
# PCOD8169845 Si02
#       8
#     4   4   4   4   4   4   4   4
#     4   9  18  36  56  76 108 150 190 230 291 350
#     4  10  22  40  62  86 118 155 194 240 292 350
#     4  10  23  40  60  85 119 160 197 237 291 350
#     4   9  20  39  58  81 116 156 193 235 292 350
#     4  10  21  39  60  83 116 156 191 232 293 355
#     4  10  21  35  57  87 114 147 195 248 289 338
#     4  10  20  37  59  81 112 156 192 230 293 357
#     4  10  19  32  58  87 109 140 190 246 285 330
#
# _framework density 19.385624
#
# number of rings (size 3 to 8) (size 9 to 14) (size 15 to 20)
#    0.000    2.250    1.250    0.750    1.750    4.500 
#    0.000    3.750    0.000    0.000    0.000    0.000 
#    0.000    0.000    0.000    0.000    0.000    0.000 
#
# Total GULP energy -396753.140775 kJ/mol
# GULP energy per Si atom -12398.535649 kJ/mol
# Density = 1.934150 g / cm^3
# Si number density = 19.385624 Si / 1000 Ang^3
#
#
#
# Elastic Constant Matrix: (Units=GPa)
#
#
# Indices 1 2 3 4 5 6 
#
# 1 67.1497 40.8577 33.1383 0.0000 0.0000 0.0000
# 2 40.8577 104.0876 34.5637 0.0000 0.0000 0.0000
# 3 33.1383 34.5637 81.4794 0.0000 0.0000 0.0000
# 4 0.0000 0.0000 0.0000 19.3030 0.0000 0.0000
# 5 0.0000 0.0000 0.0000 0.0000 29.3233 0.0000
# 6 0.0000 0.0000 0.0000 0.0000 0.0000 31.6809
#
#
#
# Elastic Compliance Matrix: (Units=1/GPa)
#
#
# Indices 1 2 3 4 5 6 
#
# 1 0.021911 -0.006566 -0.006126 0.000000 0.000000 0.000000
# 2 -0.006566 0.013150 -0.002908 0.000000 0.000000 0.000000
# 3 -0.006126 -0.002908 0.015998 0.000000 0.000000 0.000000
# 4 0.000000 0.000000 0.000000 0.051805 0.000000 0.000000
# 5 0.000000 0.000000 0.000000 0.000000 0.034103 0.000000
# 6 0.000000 0.000000 0.000000 0.000000 0.000000 0.031565
#
#
# Mechanical properties :
#
#
# Convention : Reuss Voigt Hill
#
# Bulk Modulus (GPa) = 50.35509 52.20400 51.27955
# Shear Modulus (GPa) = 24.23055 25.67190 24.95123
#
# Velocity S-wave (km/s) = 3.53926 3.64301 3.59151
# Velocity P-wave (km/s) = 6.53710 6.68454 6.61123
#
# Compressibility (1/GPa) = 0.01985896
#
# Stress axis : x y z
#
# Youngs Moduli (GPa) = 45.64019 76.04326 62.50825
#
# Poissons Ratio (x) = 0.49934 0.38290
# Poissons Ratio (y) = 0.29969 0.18176
# Poissons Ratio (z) = 0.27958 0.22112
#
# Static dielectric constant tensor:
#      x y z
#    x 3.574210 0.000000 0.000000 
#    y 0.000000 3.451010 0.000000 
#    z 0.000000 0.000000 3.502000 
# 
# 
# High freq. dielectric constant tensor:
#      x y z
#    x 1.749200 0.000000 0.000000 
#    y 0.000000 1.753850 0.000000 
#    z 0.000000 0.000000 1.750280 
# 
# From -- ./inp_files/3672.got.cif
#   From: 2010.03.12/outbox.cif.g09.slc.cpg/sg31_2_cif.got.tgz:3672.got - 2010.04.14 01:42:59.
