data_PCOD8169904
_publ_section_title
;
Structure prediction by ZEFSAII (Michael W. Deem and Ramdas Pophale) SiO2 
 PCOD8169904
Probable space group: P M N 21
;
_chemical_formula_sum "Si O2"
_cell_formula_units_Z 32
_cell_length_a 9.130627
_cell_length_b 11.233433
_cell_length_c 15.996705
_cell_angle_alpha 90.000000
_cell_angle_beta 90.000000
_cell_angle_gamma 90.000000
_cell_volume 1640.754624
_symmetry_space_group_name_H-M "P M N 21"
_symmetry_group_IT_number 31
_symmetry_cell_setting 'orthorhombic'
loop_
_space_group_symop_operation_xyz
x,y,z
1/2-x,-y,1/2+z
-x,y,z
1/2+x,-y,1/2+z
loop_
_atom_site_type_symbol
_atom_site_label
_atom_site_fract_x
_atom_site_fract_y
_atom_site_fract_z
Si Si1 0.167784 0.784212 0.910730
Si Si2 0.173409 0.575677 0.223221
Si Si3 0.339334 0.811260 0.208676
Si Si4 0.331533 0.057100 0.254056
Si Si5 0.826777 0.146827 0.094214
Si Si6 0.838101 0.065442 0.532986
Si Si7 0.327711 0.485315 0.388743
Si Si8 0.826623 0.416436 0.067430
O O1 0.204416 0.875341 0.838315
O O2 0.264275 0.822982 0.988411
O O3 0.212230 0.652864 0.882438
O O4 0.000000 0.786600 0.939484
O O5 0.215387 0.711852 0.203002
O O6 0.245658 0.546458 0.311903
O O7 0.233049 0.493097 0.146920
O O8 0.000000 0.564785 0.231864
O O9 0.500000 0.752617 0.225396
O O10 0.303236 0.916253 0.275576
O O11 0.346377 0.894510 0.127910
O O12 0.500000 0.079209 0.225749
O O13 0.221426 0.112452 0.186920
O O14 0.772746 0.280889 0.075581
O O15 0.000000 0.136061 0.085756
O O16 0.754306 0.057151 0.026679
O O17 0.000000 0.041910 0.496393
O O18 0.500000 0.510388 0.379270
O O19 0.269109 0.533502 0.478392
O O20 0.000000 0.426080 0.069111
#
# Coordination Sequence:
#
# PCOD8169904 Si02
#       8
#     4   4   4   4   4   4   4   4
#     4  10  20  35  57  81 106 142 184 223 270 331
#     4  11  22  37  58  84 113 144 185 234 276 321
#     4   9  19  36  54  74 105 143 178 216 271 330
#     4   9  19  35  54  79 109 138 174 225 278 326
#     4  10  19  34  56  78 103 140 183 220 267 330
#     4  10  21  36  55  80 110 140 175 227 279 322
#     4  10  21  38  58  81 111 148 189 227 272 335
#     4   9  20  37  56  79 111 149 182 222 275 327
#
# _framework density 19.503222000000001
#
# number of rings (size 3 to 8) (size 9 to 14) (size 15 to 20)
#    0.000    2.250    0.000    3.375    0.000    5.500 
#    0.000    9.375    0.000    0.000    0.000    0.000 
#    0.000    0.000    0.000    0.000    0.000    0.000 
#
# Total GULP energy -396696.293634 kJ/mol
# GULP energy per Si atom -12396.759176 kJ/mol
# Density = 1.945883 g / cm^3
# Si number density = 19.503222 Si / 1000 Ang^3
#
#
#
# Elastic Constant Matrix: (Units=GPa)
#
#
# Indices 1 2 3 4 5 6 
#
# 1 65.2300 42.5058 25.3018 0.0000 0.0000 0.0000
# 2 42.5058 127.6909 36.8863 0.0000 0.0000 0.0000
# 3 25.3018 36.8863 81.8987 0.0000 0.0000 0.0000
# 4 0.0000 0.0000 0.0000 32.7156 0.0000 0.0000
# 5 0.0000 0.0000 0.0000 0.0000 29.0201 0.0000
# 6 0.0000 0.0000 0.0000 0.0000 0.0000 29.3464
#
#
#
# Elastic Compliance Matrix: (Units=1/GPa)
#
#
# Indices 1 2 3 4 5 6 
#
# 1 0.020534 -0.005751 -0.003754 0.000000 0.000000 0.000000
# 2 -0.005751 0.010613 -0.003003 0.000000 0.000000 0.000000
# 3 -0.003754 -0.003003 0.014723 0.000000 0.000000 0.000000
# 4 0.000000 0.000000 0.000000 0.030566 0.000000 0.000000
# 5 0.000000 0.000000 0.000000 0.000000 0.034459 0.000000
# 6 0.000000 0.000000 0.000000 0.000000 0.000000 0.034076
#
#
# Mechanical properties :
#
#
# Convention : Reuss Voigt Hill
#
# Bulk Modulus (GPa) = 47.95291 53.80085 50.87688
# Shear Modulus (GPa) = 28.25845 29.55812 28.90828
#
# Velocity S-wave (km/s) = 3.81059 3.89723 3.85415
# Velocity P-wave (km/s) = 6.63335 6.92075 6.77857
#
# Compressibility (1/GPa) = 0.02085379
#
# Stress axis : x y z
#
# Youngs Moduli (GPa) = 48.70008 94.22028 67.92304
#
# Poissons Ratio (x) = 0.54186 0.25495
# Poissons Ratio (y) = 0.28008 0.20400
# Poissons Ratio (z) = 0.18280 0.28299
#
# Static dielectric constant tensor:
#      x y z
#    x 3.451430 0.000000 0.000000 
#    y 0.000000 3.802250 0.000000 
#    z 0.000000 0.000000 3.559520 
# 
# 
# High freq. dielectric constant tensor:
#      x y z
#    x 1.745120 0.000000 0.000000 
#    y 0.000000 1.774410 0.000000 
#    z 0.000000 0.000000 1.754100 
# 
# From -- ./inp_files/4918.got.cif
#   From: 2010.03.12/outbox.cif.g09.slc.cpg/sg31_3_cif.got.tgz:4918.got - 2010.04.14 01:42:59.
