data_PCOD8169306
_publ_section_title
;
Structure prediction by ZEFSAII (Michael W. Deem and Ramdas Pophale) SiO2 
 PCOD8169306
Probable space group: P C A 21
;
_chemical_formula_sum "Si O2"
_cell_formula_units_Z 32
_cell_length_a 10.029628
_cell_length_b 6.581719
_cell_length_c 21.454383
_cell_angle_alpha 90.000000
_cell_angle_beta 90.000000
_cell_angle_gamma 90.000000
_cell_volume 1416.250875
_symmetry_space_group_name_H-M "P C A 21"
_symmetry_group_IT_number 29
_symmetry_cell_setting 'orthorhombic'
loop_
_space_group_symop_operation_xyz
x,y,z
-x,-y,1/2+z
1/2-x,y,1/2+z
1/2+x,-y,z
loop_
_atom_site_type_symbol
_atom_site_label
_atom_site_fract_x
_atom_site_fract_y
_atom_site_fract_z
Si Si1 0.277457 0.114542 0.090640
Si Si2 0.642614 0.385672 0.756989
Si Si3 0.496518 0.305155 0.406189
Si Si4 0.496534 0.194846 0.544566
Si Si5 0.722529 0.614546 0.360119
Si Si6 0.642597 0.114356 0.193764
Si Si7 0.964703 0.566323 0.133868
Si Si8 0.535274 0.933684 0.316888
O O1 0.154306 0.104957 0.041730
O O2 0.333496 0.343065 0.099879
O O3 0.394159 0.960578 0.070711
O O4 0.219220 0.063491 0.158390
O O5 0.719199 0.563530 0.792373
O O6 0.750028 0.250079 0.725365
O O7 0.550300 0.481845 0.703897
O O8 0.565008 0.255767 0.809425
O O9 0.542496 0.250008 0.475377
O O10 0.605821 0.460571 0.380034
O O11 0.345673 0.395035 0.409033
O O12 0.482997 0.109883 0.361602
O O13 0.483022 0.390114 0.589156
O O14 0.666472 0.843058 0.350881
O O15 0.564957 0.244184 0.141320
O O16 0.550310 0.018181 0.246865
#
# Coordination Sequence:
#
# PCOD8169306 Si02
#       8
#     4   4   4   4   4   4   4   4
#     4  12  26  51  71 111 147 192 250 302 375 434
#     4  12  22  43  75 108 149 188 236 302 377 436
#     4  12  30  48  76 106 146 203 251 302 359 437
#     4  12  30  48  76 106 146 203 251 302 359 437
#     4  12  26  51  71 111 147 192 250 302 375 434
#     4  12  22  43  75 108 149 188 236 302 377 436
#     4  12  25  46  74 111 149 192 244 304 372 439
#     4  12  25  46  74 111 149 192 244 304 372 439
#
# _framework density 22.594867000000001
#
# number of rings (size 3 to 8) (size 9 to 14) (size 15 to 20)
#    0.000    0.000    5.000    5.250    3.500    0.000 
#    0.000    0.000    0.000    0.000    0.000    0.000 
#    0.000    0.000    0.000    0.000    0.000    0.000 
#
# Total GULP energy -396783.938024 kJ/mol
# GULP energy per Si atom -12399.498063 kJ/mol
# Density = 2.254344 g / cm^3
# Si number density = 22.594867 Si / 1000 Ang^3
#
#
#
# Elastic Constant Matrix: (Units=GPa)
#
#
# Indices 1 2 3 4 5 6 
#
# 1 127.1596 44.3555 28.7068 0.0000 0.0000 0.0000
# 2 44.3555 95.0124 33.1324 0.0000 0.0000 0.0000
# 3 28.7068 33.1324 115.6485 0.0000 0.0000 0.0000
# 4 0.0000 0.0000 0.0000 18.4348 0.0000 0.0000
# 5 0.0000 0.0000 0.0000 0.0000 27.5688 0.0000
# 6 0.0000 0.0000 0.0000 0.0000 0.0000 30.8301
#
#
#
# Elastic Compliance Matrix: (Units=1/GPa)
#
#
# Indices 1 2 3 4 5 6 
#
# 1 0.009545 -0.004033 -0.001214 0.000000 0.000000 0.000000
# 2 -0.004033 0.013397 -0.002837 0.000000 0.000000 0.000000
# 3 -0.001214 -0.002837 0.009761 0.000000 0.000000 0.000000
# 4 0.000000 0.000000 0.000000 0.054245 0.000000 0.000000
# 5 0.000000 0.000000 0.000000 0.000000 0.036273 0.000000
# 6 0.000000 0.000000 0.000000 0.000000 0.000000 0.032436
#
#
# Mechanical properties :
#
#
# Convention : Reuss Voigt Hill
#
# Bulk Modulus (GPa) = 60.47622 61.13446 60.80534
# Shear Modulus (GPa) = 28.19510 30.80845 29.50178
#
# Velocity S-wave (km/s) = 3.53633 3.69659 3.61735
# Velocity P-wave (km/s) = 6.59528 6.73314 6.66457
#
# Compressibility (1/GPa) = 0.01653542
#
# Stress axis : x y z
#
# Youngs Moduli (GPa) = 104.76889 74.64442 102.44809
#
# Poissons Ratio (x) = 0.30101 0.12437
# Poissons Ratio (y) = 0.42249 0.29066
# Poissons Ratio (z) = 0.12719 0.21177
#
# Static dielectric constant tensor:
#      x y z
#    x 4.148300 0.000000 0.000000 
#    y 0.000000 4.122400 0.000000 
#    z 0.000000 0.000000 3.687570 
# 
# 
# High freq. dielectric constant tensor:
#      x y z
#    x 1.908260 0.000000 0.000000 
#    y 0.000000 1.902030 0.000000 
#    z 0.000000 0.000000 1.881030 
# 
# From -- ./inp_files/5542.got.cif
#   From: 2010.03.12/outbox.cif.g09.slc.cpg/sg29_3_cif.got.tgz:5542.got - 2010.04.14 03:43:10.
