data_PCOD8169252
_publ_section_title
;
Structure prediction by ZEFSAII (Michael W. Deem and Ramdas Pophale) SiO2 
 PCOD8169252
Probable space group: P C A 21
;
_chemical_formula_sum "Si O2"
_cell_formula_units_Z 32
_cell_length_a 8.640603
_cell_length_b 14.815566
_cell_length_c 11.084524
_cell_angle_alpha 90.000000
_cell_angle_beta 90.000000
_cell_angle_gamma 90.000000
_cell_volume 1418.990040
_symmetry_space_group_name_H-M "P C A 21"
_symmetry_group_IT_number 29
_symmetry_cell_setting 'orthorhombic'
loop_
_space_group_symop_operation_xyz
x,y,z
-x,-y,1/2+z
1/2-x,y,1/2+z
1/2+x,-y,z
loop_
_atom_site_type_symbol
_atom_site_label
_atom_site_fract_x
_atom_site_fract_y
_atom_site_fract_z
Si Si1 0.717046 0.779324 0.277150
Si Si2 0.248472 0.662813 0.638582
Si Si3 0.333661 0.907207 0.903149
Si Si4 0.188146 0.567074 0.383272
Si Si5 0.471482 0.233862 0.559581
Si Si6 0.660300 0.617677 0.886971
Si Si7 0.973385 0.899424 0.950780
Si Si8 0.530949 0.177980 0.193684
O O1 0.650786 0.812996 0.148874
O O2 0.739117 0.670026 0.284604
O O3 0.609662 0.818259 0.381793
O O4 0.894231 0.812124 0.292347
O O5 0.245441 0.623270 0.500993
O O6 0.236364 0.594890 0.753615
O O7 0.400921 0.725823 0.649802
O O8 0.093128 0.720179 0.650379
O O9 0.156224 0.900708 0.935247
O O10 0.338099 0.878985 0.762594
O O11 0.395076 0.007571 0.915804
O O12 0.435673 0.838502 0.981337
O O13 0.229461 0.465472 0.421785
O O14 0.006657 0.576957 0.353431
O O15 0.369908 0.308227 0.490110
O O16 0.951190 0.880389 0.090639
#
# Coordination Sequence:
#
# PCOD8169252 Si02
#       8
#     4   4   4   4   4   4   4   4
#     4  12  26  46  76 108 149 193 252 305 384 446
#     4  11  24  49  75 106 148 204 251 312 383 456
#     4  12  27  51  72 114 151 195 257 307 383 454
#     4  11  27  45  74 108 152 197 256 318 377 461
#     4  11  25  47  73 105 149 195 248 312 374 454
#     4  11  26  47  69 113 150 193 252 312 380 448
#     4  12  30  45  80 110 148 203 247 314 379 462
#     4  12  25  48  77 104 155 198 249 316 376 459
#
# _framework density 22.55125
#
# number of rings (size 3 to 8) (size 9 to 14) (size 15 to 20)
#    0.000    0.500    3.750    3.000    8.750    2.000 
#    0.000    0.000    0.000    0.000    0.000    0.000 
#    0.000    0.000    0.000    0.000    0.000    0.000 
#
# Total GULP energy -396456.872768 kJ/mol
# GULP energy per Si atom -12389.277274 kJ/mol
# Density = 2.249992 g / cm^3
# Si number density = 22.551250 Si / 1000 Ang^3
#
#
#
# Elastic Constant Matrix: (Units=GPa)
#
#
# Indices 1 2 3 4 5 6 
#
# 1 120.3957 59.6291 43.4538 0.0000 0.0000 0.0000
# 2 59.6291 126.9049 38.3704 0.0000 0.0000 0.0000
# 3 43.4538 38.3704 109.9254 0.0000 0.0000 0.0000
# 4 0.0000 0.0000 0.0000 21.9709 0.0000 0.0000
# 5 0.0000 0.0000 0.0000 0.0000 93.7343 0.0000
# 6 0.0000 0.0000 0.0000 0.0000 0.0000 53.5770
#
#
#
# Elastic Compliance Matrix: (Units=1/GPa)
#
#
# Indices 1 2 3 4 5 6 
#
# 1 0.011655 -0.004565 -0.003014 0.000000 0.000000 0.000000
# 2 -0.004565 0.010598 -0.001895 0.000000 0.000000 0.000000
# 3 -0.003014 -0.001895 0.010950 0.000000 0.000000 0.000000
# 4 0.000000 0.000000 0.000000 0.045515 0.000000 0.000000
# 5 0.000000 0.000000 0.000000 0.000000 0.010668 0.000000
# 6 0.000000 0.000000 0.000000 0.000000 0.000000 0.018665
#
#
# Mechanical properties :
#
#
# Convention : Reuss Voigt Hill
#
# Bulk Modulus (GPa) = 70.14862 71.12585 70.63723
# Shear Modulus (GPa) = 37.95117 48.24131 43.09624
#
# Velocity S-wave (km/s) = 4.10675 4.63015 4.37628
# Velocity P-wave (km/s) = 7.32537 7.75838 7.54498
#
# Compressibility (1/GPa) = 0.01425545
#
# Stress axis : x y z
#
# Youngs Moduli (GPa) = 85.80333 94.35982 91.32644
#
# Poissons Ratio (x) = 0.43075 0.27523
# Poissons Ratio (y) = 0.39169 0.17303
# Poissons Ratio (z) = 0.25858 0.17878
#
# Static dielectric constant tensor:
#      x y z
#    x 4.004910 0.000000 0.000000 
#    y 0.000000 4.064380 0.000000 
#    z 0.000000 0.000000 4.128150 
# 
# 
# High freq. dielectric constant tensor:
#      x y z
#    x 1.908270 0.000000 0.000000 
#    y 0.000000 1.884900 0.000000 
#    z 0.000000 0.000000 1.897160 
# 
# From -- ./inp_files/2967.got.cif
#   From: 2010.03.12/outbox.cif.g09.slc.cpg/sg29_2_cif.got.tgz:2967.got - 2010.04.14 03:43:10.
