data_PCOD8169665
_publ_section_title
;
Structure prediction by ZEFSAII (Michael W. Deem and Ramdas Pophale) SiO2 
 PCOD8169665
Probable space group: P N C 2
;
_chemical_formula_sum "Si O2"
_cell_formula_units_Z 20
_cell_length_a 7.456031
_cell_length_b 11.165318
_cell_length_c 8.887333
_cell_angle_alpha 90.000000
_cell_angle_beta 90.000000
_cell_angle_gamma 90.000000
_cell_volume 739.861204
_symmetry_space_group_name_H-M "P N C 2"
_symmetry_group_IT_number 30
_symmetry_cell_setting 'orthorhombic'
loop_
_space_group_symop_operation_xyz
x,y,z
-x,-y,z
-x,1/2+y,1/2+z
x,1/2-y,1/2+z
loop_
_atom_site_type_symbol
_atom_site_label
_atom_site_fract_x
_atom_site_fract_y
_atom_site_fract_z
Si Si1 0.208930 0.163087 0.272830
Si Si2 0.363797 0.599862 0.431252
Si Si3 0.500000 0.000000 0.379373
Si Si4 0.670435 0.172277 0.601970
Si Si5 0.059207 0.365469 0.104903
Si Si6 0.000000 0.500000 0.545914
O O1 0.203580 0.304903 0.222691
O O2 0.133216 0.146245 0.438431
O O3 0.405251 0.100487 0.274621
O O4 0.085109 0.100515 0.150386
O O5 0.500000 0.500000 0.485854
O O6 0.424037 0.710241 0.536551
O O7 0.411256 0.637334 0.261628
O O8 0.155726 0.559003 0.442856
O O9 0.350472 0.938666 0.485967
O O10 0.877212 0.210283 0.616160
O O11 0.000000 0.500000 0.151011
#
# Coordination Sequence:
#
# PCOD8169665 Si02
#       6
#     4   4   2   4   4   2
#     4  12  28  51  85 130 172 237 289 368 442 536
#     4  12  31  55  87 127 170 232 288 361 442 524
#     4  12  28  50  88 124 184 222 292 368 446 528
#     4  12  27  55  83 123 174 222 291 362 434 537
#     4  12  26  52  87 123 174 233 291 352 451 529
#     4  12  28  52  86 124 172 226 296 358 436 530
#
# _framework density 27.032095999999999
#
# number of rings (size 3 to 8) (size 9 to 14) (size 15 to 20)
#    0.000    0.000    6.000    1.200    5.600    4.800 
#    0.000    0.000    0.000    0.000    0.000    0.000 
#    0.000    0.000    0.000    0.000    0.000    0.000 
#
# Total GULP energy -247993.282105 kJ/mol
# GULP energy per Si atom -12399.664105 kJ/mol
# Density = 2.697057 g / cm^3
# Si number density = 27.032096 Si / 1000 Ang^3
#
#
#
# Elastic Constant Matrix: (Units=GPa)
#
#
# Indices 1 2 3 4 5 6 
#
# 1 89.7117 34.9403 55.4075 0.0000 0.0000 0.0000
# 2 34.9403 179.0207 100.9745 0.0000 0.0000 0.0000
# 3 55.4075 100.9745 131.3597 0.0000 0.0000 0.0000
# 4 0.0000 0.0000 0.0000 18.7098 0.0000 0.0000
# 5 0.0000 0.0000 0.0000 0.0000 8.9671 0.0000
# 6 0.0000 0.0000 0.0000 0.0000 0.0000 44.6979
#
#
#
# Elastic Compliance Matrix: (Units=1/GPa)
#
#
# Indices 1 2 3 4 5 6 
#
# 1 0.015206 0.001147 -0.007296 0.000000 0.000000 0.000000
# 2 0.001147 0.009948 -0.008131 0.000000 0.000000 0.000000
# 3 -0.007296 -0.008131 0.016940 0.000000 0.000000 0.000000
# 4 0.000000 0.000000 0.000000 0.053448 0.000000 0.000000
# 5 0.000000 0.000000 0.000000 0.000000 0.111518 0.000000
# 6 0.000000 0.000000 0.000000 0.000000 0.000000 0.022372
#
#
# Mechanical properties :
#
#
# Convention : Reuss Voigt Hill
#
# Bulk Modulus (GPa) = 73.88005 86.97073 80.42539
# Shear Modulus (GPa) = 19.04733 28.39294 23.72014
#
# Velocity S-wave (km/s) = 2.65735 3.24441 2.96544
# Velocity P-wave (km/s) = 6.06672 6.80279 6.44527
#
# Compressibility (1/GPa) = 0.01353545
#
# Stress axis : x y z
#
# Youngs Moduli (GPa) = 65.76359 100.52066 59.03120
#
# Poissons Ratio (x) = -0.11532 0.43068
# Poissons Ratio (y) = -0.07545 0.47998
# Poissons Ratio (z) = 0.47980 0.81733
#
# Static dielectric constant tensor:
#      x y z
#    x 4.992720 0.000000 0.000000 
#    y 0.000000 5.243600 0.000000 
#    z 0.000000 0.000000 4.770830 
# 
# 
# High freq. dielectric constant tensor:
#      x y z
#    x 2.086400 0.000000 0.000000 
#    y 0.000000 2.104400 0.000000 
#    z 0.000000 0.000000 2.095200 
# 
# From -- ./inp_files/1732.got.cif
#   From: 2010.03.12/outbox.cif.g09.slc.cpg/sg30_1_cif.got.tgz:1732.got - 2010.04.14 01:38:02.
