data_PCOD8169948
_publ_section_title
;
Structure prediction by ZEFSAII (Michael W. Deem and Ramdas Pophale) SiO2 
 PCOD8169948
Probable space group: P M N 21
;
_chemical_formula_sum "Si O2"
_cell_formula_units_Z 32
_cell_length_a 8.937972
_cell_length_b 11.845247
_cell_length_c 15.381327
_cell_angle_alpha 90.000000
_cell_angle_beta 90.000000
_cell_angle_gamma 90.000000
_cell_volume 1628.459328
_symmetry_space_group_name_H-M "P M N 21"
_symmetry_group_IT_number 31
_symmetry_cell_setting 'orthorhombic'
loop_
_space_group_symop_operation_xyz
x,y,z
1/2-x,-y,1/2+z
-x,y,z
1/2+x,-y,1/2+z
loop_
_atom_site_type_symbol
_atom_site_label
_atom_site_fract_x
_atom_site_fract_y
_atom_site_fract_z
Si Si1 0.677065 0.755718 0.942630
Si Si2 0.672302 0.780621 0.443046
Si Si3 0.173691 0.626227 0.098715
Si Si4 0.176866 0.999219 0.500412
Si Si5 0.826352 0.243275 0.749588
Si Si6 0.322848 0.238418 0.265125
Si Si7 0.322935 0.002457 0.195058
Si Si8 0.826622 0.362545 0.108334
O O1 0.500000 0.745476 0.937286
O O2 0.748185 0.713673 0.852478
O O3 0.731249 0.883524 0.959092
O O4 0.732996 0.678184 0.020436
O O5 0.500000 0.813263 0.454268
O O6 0.762735 0.896849 0.443396
O O7 0.698776 0.720927 0.349786
O O8 0.725429 0.696248 0.518589
O O9 0.228122 0.675003 0.190602
O O10 0.204233 0.493934 0.098156
O O11 0.000000 0.654873 0.086002
O O12 0.000000 0.993394 0.502392
O O13 0.243385 0.990533 0.597760
O O14 0.770474 0.114014 0.738784
O O15 0.000000 0.253938 0.721755
O O16 0.500000 0.244346 0.274935
O O17 0.274945 0.316807 0.185582
O O18 0.264121 0.110340 0.249040
O O19 0.500000 0.007991 0.190524
O O20 0.000000 0.337262 0.128586
#
# Coordination Sequence:
#
# PCOD8169948 Si02
#       8
#     4   4   4   4   4   4   4   4
#     4  11  23  40  62  88 123 159 191 238 299 355
#     4  10  21  37  61  88 116 152 192 240 294 352
#     4  11  24  41  60  84 117 156 204 253 289 342
#     4  10  19  35  59  87 120 155 190 235 292 354
#     4  10  20  38  61  86 118 154 193 238 297 354
#     4  11  22  38  63  91 119 154 198 243 290 352
#     4   9  17  33  57  86 120 152 187 237 292 351
#     4  10  23  42  59  84 121 156 197 248 297 342
#
# _framework density 19.650475
#
# number of rings (size 3 to 8) (size 9 to 14) (size 15 to 20)
#    0.000    1.750    2.500    1.875    0.000    4.500 
#    0.000    2.500    0.000    0.000    0.000    0.000 
#    0.000    0.000    0.000    0.000    0.000    0.000 
#
# Total GULP energy -396902.905481 kJ/mol
# GULP energy per Si atom -12403.215796 kJ/mol
# Density = 1.960575 g / cm^3
# Si number density = 19.650475 Si / 1000 Ang^3
#
#
#
# Elastic Constant Matrix: (Units=GPa)
#
#
# Indices 1 2 3 4 5 6 
#
# 1 59.6620 43.8034 42.1110 0.0000 0.0000 0.0000
# 2 43.8034 107.8649 46.9845 0.0000 0.0000 0.0000
# 3 42.1110 46.9845 142.7683 0.0000 0.0000 0.0000
# 4 0.0000 0.0000 0.0000 6.9046 0.0000 0.0000
# 5 0.0000 0.0000 0.0000 0.0000 30.1227 0.0000
# 6 0.0000 0.0000 0.0000 0.0000 0.0000 26.3456
#
#
#
# Elastic Compliance Matrix: (Units=1/GPa)
#
#
# Indices 1 2 3 4 5 6 
#
# 1 0.026641 -0.008633 -0.005017 0.000000 0.000000 0.000000
# 2 -0.008633 0.013620 -0.001936 0.000000 0.000000 0.000000
# 3 -0.005017 -0.001936 0.009121 0.000000 0.000000 0.000000
# 4 0.000000 0.000000 0.000000 0.144830 0.000000 0.000000
# 5 0.000000 0.000000 0.000000 0.000000 0.033198 0.000000
# 6 0.000000 0.000000 0.000000 0.000000 0.000000 0.037957
#
#
# Mechanical properties :
#
#
# Convention : Reuss Voigt Hill
#
# Bulk Modulus (GPa) = 54.91494 64.01035 59.46265
# Shear Modulus (GPa) = 16.52300 24.50100 20.51200
#
# Velocity S-wave (km/s) = 2.90288 3.53489 3.23436
# Velocity P-wave (km/s) = 6.26435 7.02181 6.65387
#
# Compressibility (1/GPa) = 0.01820998
#
# Stress axis : x y z
#
# Youngs Moduli (GPa) = 37.53668 73.42113 109.63532
#
# Poissons Ratio (x) = 0.63388 0.55001
# Poissons Ratio (y) = 0.32407 0.21223
# Poissons Ratio (z) = 0.18831 0.14213
#
# Static dielectric constant tensor:
#      x y z
#    x 3.403400 0.000000 0.000000 
#    y 0.000000 3.572110 0.000000 
#    z 0.000000 0.000000 3.738240 
# 
# 
# High freq. dielectric constant tensor:
#      x y z
#    x 1.751200 0.000000 0.000000 
#    y 0.000000 1.761830 0.000000 
#    z 0.000000 0.000000 1.781480 
# 
# From -- ./inp_files/4989.got.cif
#   From: 2010.03.12/outbox.cif.g09.slc.cpg/sg31_3_cif.got.tgz:4989.got - 2010.04.14 01:42:59.
