data_PCOD8169210
_publ_section_title
;
Structure prediction by ZEFSAII (Michael W. Deem and Ramdas Pophale) SiO2 
 PCOD8169210
Probable space group: P C A 21
;
_chemical_formula_sum "Si O2"
_cell_formula_units_Z 32
_cell_length_a 11.624784
_cell_length_b 9.368277
_cell_length_c 14.204344
_cell_angle_alpha 90.000000
_cell_angle_beta 90.000000
_cell_angle_gamma 90.000000
_cell_volume 1546.912671
_symmetry_space_group_name_H-M "P C A 21"
_symmetry_group_IT_number 29
_symmetry_cell_setting 'orthorhombic'
loop_
_space_group_symop_operation_xyz
x,y,z
-x,-y,1/2+z
1/2-x,y,1/2+z
1/2+x,-y,z
loop_
_atom_site_type_symbol
_atom_site_label
_atom_site_fract_x
_atom_site_fract_y
_atom_site_fract_z
Si Si1 0.751857 0.928762 0.403940
Si Si2 0.903524 0.395412 0.822266
Si Si3 0.508948 0.440517 0.993612
Si Si4 0.188978 0.259390 0.568868
Si Si5 0.964700 0.861416 0.774267
Si Si6 0.567733 0.845098 0.751640
Si Si7 0.391632 0.392605 0.657451
Si Si8 0.824155 0.247149 0.392053
O O1 0.754942 0.856211 0.505677
O O2 0.632103 0.896773 0.351697
O O3 0.855473 0.862254 0.344364
O O4 0.773379 0.095832 0.425941
O O5 0.875543 0.527209 0.755321
O O6 0.780433 0.331882 0.846648
O O7 0.977200 0.449723 0.910828
O O8 0.977947 0.281416 0.765483
O O9 0.625493 0.349334 0.974374
O O10 0.409548 0.324975 0.004328
O O11 0.516484 0.530105 0.090253
O O12 0.145660 0.182210 0.661930
O O13 0.273719 0.387234 0.598621
O O14 0.923874 0.769191 0.685047
O O15 0.072443 0.777334 0.818796
O O16 0.000611 0.010530 0.729102
#
# Coordination Sequence:
#
# PCOD8169210 Si02
#       8
#     4   4   4   4   4   4   4   4
#     4  11  23  48  74  99 143 185 238 295 354 410
#     4  12  25  45  72 101 143 186 231 288 357 420
#     4  12  26  44  68 108 140 183 238 290 354 426
#     4  12  25  44  69 105 140 185 235 295 351 423
#     4  11  23  48  71 102 136 188 236 292 350 416
#     4  11  25  45  74 102 141 184 243 288 350 421
#     4  12  26  43  70 102 145 183 234 289 356 419
#     4  11  25  45  74 101 140 188 235 291 348 425
#
# _framework density 20.686364999999999
#
# number of rings (size 3 to 8) (size 9 to 14) (size 15 to 20)
#    0.000    0.500    6.250    1.500    3.500    2.000 
#    4.500    0.000    0.000    0.000    0.000    0.000 
#    0.000    0.000    0.000    0.000    0.000    0.000 
#
# Total GULP energy -396910.525640 kJ/mol
# GULP energy per Si atom -12403.453926 kJ/mol
# Density = 2.063928 g / cm^3
# Si number density = 20.686365 Si / 1000 Ang^3
#
#
#
# Elastic Constant Matrix: (Units=GPa)
#
#
# Indices 1 2 3 4 5 6 
#
# 1 98.5806 48.0093 34.4342 0.0000 0.0000 0.0000
# 2 48.0093 113.4892 48.3729 0.0000 0.0000 0.0000
# 3 34.4342 48.3729 94.3540 0.0000 0.0000 0.0000
# 4 0.0000 0.0000 0.0000 20.7958 0.0000 0.0000
# 5 0.0000 0.0000 0.0000 0.0000 36.5570 0.0000
# 6 0.0000 0.0000 0.0000 0.0000 0.0000 43.7793
#
#
#
# Elastic Compliance Matrix: (Units=1/GPa)
#
#
# Indices 1 2 3 4 5 6 
#
# 1 0.013223 -0.004526 -0.002505 0.000000 0.000000 0.000000
# 2 -0.004526 0.012824 -0.004923 0.000000 0.000000 0.000000
# 3 -0.002505 -0.004923 0.014037 0.000000 0.000000 0.000000
# 4 0.000000 0.000000 0.000000 0.048087 0.000000 0.000000
# 5 0.000000 0.000000 0.000000 0.000000 0.027355 0.000000
# 6 0.000000 0.000000 0.000000 0.000000 0.000000 0.022842
#
#
# Mechanical properties :
#
#
# Convention : Reuss Voigt Hill
#
# Bulk Modulus (GPa) = 61.82190 63.11742 62.46966
# Shear Modulus (GPa) = 29.82086 31.93359 30.87722
#
# Velocity S-wave (km/s) = 3.80092 3.93326 3.86766
# Velocity P-wave (km/s) = 7.01519 7.15578 7.08583
#
# Compressibility (1/GPa) = 0.01617550
#
# Stress axis : x y z
#
# Youngs Moduli (GPa) = 75.62403 77.97655 71.24202
#
# Poissons Ratio (x) = 0.35292 0.17850
# Poissons Ratio (y) = 0.34227 0.35072
# Poissons Ratio (z) = 0.18947 0.38388
#
# Static dielectric constant tensor:
#      x y z
#    x 3.875880 0.000000 0.000000 
#    y 0.000000 3.980740 0.000000 
#    z 0.000000 0.000000 3.704150 
# 
# 
# High freq. dielectric constant tensor:
#      x y z
#    x 1.820710 0.000000 0.000000 
#    y 0.000000 1.826570 0.000000 
#    z 0.000000 0.000000 1.807020 
# 
# From -- ./inp_files/4540.got.cif
#   From: 2010.03.12/outbox.cif.g09.slc.cpg/sg29_3_cif.got.tgz:4540.got - 2010.04.14 03:43:10.
