data_PCOD8169603
_publ_section_title
;
Structure prediction by ZEFSAII (Michael W. Deem and Ramdas Pophale) SiO2 
 PCOD8169603
Probable space group: P N C 2
;
_chemical_formula_sum "Si O2"
_cell_formula_units_Z 32
_cell_length_a 10.909358
_cell_length_b 9.825236
_cell_length_c 14.090781
_cell_angle_alpha 90.000000
_cell_angle_beta 90.000000
_cell_angle_gamma 90.000000
_cell_volume 1510.348782
_symmetry_space_group_name_H-M "P N C 2"
_symmetry_group_IT_number 30
_symmetry_cell_setting 'orthorhombic'
loop_
_space_group_symop_operation_xyz
x,y,z
-x,-y,z
-x,1/2+y,1/2+z
x,1/2-y,1/2+z
loop_
_atom_site_type_symbol
_atom_site_label
_atom_site_fract_x
_atom_site_fract_y
_atom_site_fract_z
Si Si1 0.165280 0.083539 0.707930
Si Si2 0.248302 0.666829 0.573335
Si Si3 0.862608 0.633082 0.994815
Si Si4 0.499357 0.157586 0.172499
Si Si5 0.082444 0.717410 0.232396
Si Si6 0.315797 0.128674 0.008335
Si Si7 0.418571 0.124430 0.807267
Si Si8 0.867981 0.350755 0.929383
O O1 0.178676 0.073215 0.595569
O O2 0.286352 0.128208 0.760403
O O3 0.064386 0.200848 0.727913
O O4 0.134652 0.933728 0.744833
O O5 0.373846 0.704668 0.625637
O O6 0.134647 0.698155 0.643220
O O7 0.248958 0.511026 0.537705
O O8 0.236152 0.761396 0.480515
O O9 0.788114 0.768780 0.971390
O O10 0.829825 0.509978 0.922886
O O11 0.006870 0.665833 0.990327
O O12 0.483748 0.237913 0.271144
O O13 0.500000 0.000000 0.199281
O O14 0.390245 0.188275 0.097744
O O15 0.117398 0.804177 0.322915
O O16 0.410467 0.112234 0.921192
O O17 0.500000 0.000000 0.768838
#
# Coordination Sequence:
#
# PCOD8169603 Si02
#       8
#     4   4   4   4   4   4   4   4
#     4  11  21  43  70  97 136 179 222 279 345 403
#     4  11  22  42  66  98 133 174 227 286 334 405
#     4  11  22  45  65  93 140 177 213 281 341 405
#     4  10  24  43  64  92 134 172 222 287 342 397
#     4  11  22  40  69 100 135 179 222 280 334 409
#     4  11  25  44  66  96 138 174 222 286 344 402
#     4  12  24  42  71  99 127 179 233 274 339 414
#     4  11  23  41  66  98 134 175 226 272 337 408
#
# _framework density 21.187159000000001
#
# number of rings (size 3 to 8) (size 9 to 14) (size 15 to 20)
#    0.000    1.000    3.750    4.125    0.000    4.500 
#    4.500    0.625    0.000    0.000    0.000    0.000 
#    0.000    0.000    0.000    0.000    0.000    0.000 
#
# Total GULP energy -396836.773390 kJ/mol
# GULP energy per Si atom -12401.149168 kJ/mol
# Density = 2.113894 g / cm^3
# Si number density = 21.187159 Si / 1000 Ang^3
#
#
#
# Elastic Constant Matrix: (Units=GPa)
#
#
# Indices 1 2 3 4 5 6 
#
# 1 88.3271 58.8763 18.2975 0.0000 0.0000 0.0000
# 2 58.8763 139.7969 56.8425 0.0000 0.0000 0.0000
# 3 18.2975 56.8425 108.6676 0.0000 0.0000 0.0000
# 4 0.0000 0.0000 0.0000 32.2163 0.0000 0.0000
# 5 0.0000 0.0000 0.0000 0.0000 29.6527 0.0000
# 6 0.0000 0.0000 0.0000 0.0000 0.0000 37.1254
#
#
#
# Elastic Compliance Matrix: (Units=1/GPa)
#
#
# Indices 1 2 3 4 5 6 
#
# 1 0.015833 -0.007093 0.001044 0.000000 0.000000 0.000000
# 2 -0.007093 0.012263 -0.005220 0.000000 0.000000 0.000000
# 3 0.001044 -0.005220 0.011757 0.000000 0.000000 0.000000
# 4 0.000000 0.000000 0.000000 0.031040 0.000000 0.000000
# 5 0.000000 0.000000 0.000000 0.000000 0.033724 0.000000
# 6 0.000000 0.000000 0.000000 0.000000 0.000000 0.026936
#
#
# Mechanical properties :
#
#
# Convention : Reuss Voigt Hill
#
# Bulk Modulus (GPa) = 57.75189 67.20267 62.47728
# Shear Modulus (GPa) = 31.27685 33.31724 32.29704
#
# Velocity S-wave (km/s) = 3.84633 3.96980 3.90855
# Velocity P-wave (km/s) = 6.85877 7.26635 7.06550
#
# Compressibility (1/GPa) = 0.01731545
#
# Stress axis : x y z
#
# Youngs Moduli (GPa) = 63.15893 81.54605 85.05393
#
# Poissons Ratio (x) = 0.57839 -0.08881
# Poissons Ratio (y) = 0.44797 0.44401
# Poissons Ratio (z) = -0.06595 0.42570
#
# Static dielectric constant tensor:
#      x y z
#    x 3.926330 0.000000 0.000000 
#    y 0.000000 3.936990 0.000000 
#    z 0.000000 0.000000 3.888840 
# 
# 
# High freq. dielectric constant tensor:
#      x y z
#    x 1.830420 0.000000 0.000000 
#    y 0.000000 1.836120 0.000000 
#    z 0.000000 0.000000 1.832880 
# 
# From -- ./inp_files/5529.got.cif
#   From: 2010.03.12/outbox.cif.g09.slc.cpg/sg30_3_cif.got.tgz:5529.got - 2010.04.14 01:38:02.
