data_PCOD8169192
_publ_section_title
;
Structure prediction by ZEFSAII (Michael W. Deem and Ramdas Pophale) SiO2 
 PCOD8169192
Probable space group: P C A 21
;
_chemical_formula_sum "Si O2"
_cell_formula_units_Z 24
_cell_length_a 9.796273
_cell_length_b 6.395860
_cell_length_c 17.207218
_cell_angle_alpha 90.000000
_cell_angle_beta 90.000000
_cell_angle_gamma 90.000000
_cell_volume 1078.128407
_symmetry_space_group_name_H-M "P C A 21"
_symmetry_group_IT_number 29
_symmetry_cell_setting 'orthorhombic'
loop_
_space_group_symop_operation_xyz
x,y,z
-x,-y,1/2+z
1/2-x,y,1/2+z
1/2+x,-y,z
loop_
_atom_site_type_symbol
_atom_site_label
_atom_site_fract_x
_atom_site_fract_y
_atom_site_fract_z
Si Si1 0.068037 0.233362 0.320750
Si Si2 0.609354 0.395286 0.213190
Si Si3 0.042935 0.043060 0.623440
Si Si4 0.404607 0.360742 0.564853
Si Si5 0.374975 0.348928 0.994768
Si Si6 0.700360 0.070385 0.762925
O O1 0.034804 0.429268 0.264786
O O2 0.079346 0.315380 0.407445
O O3 0.438452 0.921774 0.313646
O O4 0.206445 0.116144 0.295715
O O5 0.511994 0.205905 0.187593
O O6 0.661514 0.502511 0.134015
O O7 0.726962 0.297080 0.267544
O O8 0.088317 0.143544 0.543248
O O9 0.172215 0.951263 0.670092
O O10 0.932579 0.867688 0.600464
O O11 0.545514 0.451573 0.530110
O O12 0.288972 0.371549 0.498288
#
# Coordination Sequence:
#
# PCOD8169192 Si02
#       6
#     4   4   4   4   4   4
#     4  12  29  45  72 108 146 192 242 311 374 435
#     4  11  23  43  75 100 137 185 246 293 364 431
#     4  11  23  46  76 104 137 194 243 297 353 447
#     4  11  24  48  71 103 144 188 250 296 370 439
#     4  11  28  43  72 106 147 191 236 305 373 435
#     4  12  25  47  72 103 141 186 249 302 364 439
#
# _framework density 22.260797
#
# number of rings (size 3 to 8) (size 9 to 14) (size 15 to 20)
#    0.000    0.667    3.333    3.000    9.333    2.667 
#    0.000    0.000    0.000    0.000    0.000    0.000 
#    0.000    0.000    0.000    0.000    0.000    0.000 
#
# Total GULP energy -297570.390320 kJ/mol
# GULP energy per Si atom -12398.766263 kJ/mol
# Density = 2.221013 g / cm^3
# Si number density = 22.260797 Si / 1000 Ang^3
#
#
#
# Elastic Constant Matrix: (Units=GPa)
#
#
# Indices 1 2 3 4 5 6 
#
# 1 115.6546 45.6414 26.1546 0.0000 0.0000 0.0000
# 2 45.6414 113.8715 35.2824 0.0000 0.0000 0.0000
# 3 26.1546 35.2824 119.0260 0.0000 0.0000 0.0000
# 4 0.0000 0.0000 0.0000 25.6164 0.0000 0.0000
# 5 0.0000 0.0000 0.0000 0.0000 32.7554 0.0000
# 6 0.0000 0.0000 0.0000 0.0000 0.0000 31.4311
#
#
#
# Elastic Compliance Matrix: (Units=1/GPa)
#
#
# Indices 1 2 3 4 5 6 
#
# 1 0.010414 -0.003815 -0.001157 0.000000 0.000000 0.000000
# 2 -0.003815 0.011068 -0.002442 0.000000 0.000000 0.000000
# 3 -0.001157 -0.002442 0.009380 0.000000 0.000000 0.000000
# 4 0.000000 0.000000 0.000000 0.039037 0.000000 0.000000
# 5 0.000000 0.000000 0.000000 0.000000 0.030529 0.000000
# 6 0.000000 0.000000 0.000000 0.000000 0.000000 0.031816
#
#
# Mechanical properties :
#
#
# Convention : Reuss Voigt Hill
#
# Bulk Modulus (GPa) = 62.37830 62.52320 62.45075
# Shear Modulus (GPa) = 32.80451 34.05884 33.43168
#
# Velocity S-wave (km/s) = 3.84297 3.91575 3.87953
# Velocity P-wave (km/s) = 6.91185 6.97078 6.94138
#
# Compressibility (1/GPa) = 0.01603122
#
# Stress axis : x y z
#
# Youngs Moduli (GPa) = 96.02575 90.35151 106.61176
#
# Poissons Ratio (x) = 0.34473 0.12339
# Poissons Ratio (y) = 0.36638 0.26039
# Poissons Ratio (z) = 0.11113 0.22068
#
# Static dielectric constant tensor:
#      x y z
#    x 4.003740 0.000000 0.000000 
#    y 0.000000 4.279800 0.000000 
#    z 0.000000 0.000000 3.867000 
# 
# 
# High freq. dielectric constant tensor:
#      x y z
#    x 1.879500 0.000000 0.000000 
#    y 0.000000 1.888170 0.000000 
#    z 0.000000 0.000000 1.868100 
# 
# From -- ./inp_files/4468.got.cif
#   From: 2010.03.12/outbox.cif.g09.slc.cpg/sg29_3_cif.got.tgz:4468.got - 2010.04.14 03:43:10.
