data_PCOD8169418
_publ_section_title
;
Structure prediction by ZEFSAII (Michael W. Deem and Ramdas Pophale) SiO2 
 PCOD8169418
Probable space group: P N C 2
;
_chemical_formula_sum "Si O2"
_cell_formula_units_Z 30
_cell_length_a 8.056676
_cell_length_b 12.526948
_cell_length_c 14.090770
_cell_angle_alpha 90.000000
_cell_angle_beta 90.000000
_cell_angle_gamma 90.000000
_cell_volume 1422.118871
_symmetry_space_group_name_H-M "P N C 2"
_symmetry_group_IT_number 30
_symmetry_cell_setting 'orthorhombic'
loop_
_space_group_symop_operation_xyz
x,y,z
-x,-y,z
-x,1/2+y,1/2+z
x,1/2-y,1/2+z
loop_
_atom_site_type_symbol
_atom_site_label
_atom_site_fract_x
_atom_site_fract_y
_atom_site_fract_z
Si Si1 0.440162 0.611200 0.288690
Si Si2 0.081190 0.890584 0.858296
Si Si3 0.001626 0.206017 0.471899
Si Si4 0.373833 0.244075 0.428187
Si Si5 0.601528 0.730642 0.138010
Si Si6 0.346110 0.077323 0.268118
Si Si7 0.063674 0.120957 0.666354
Si Si8 0.000000 0.000000 0.343642
O O1 0.500000 0.500000 0.247841
O O2 0.257195 0.581772 0.317228
O O3 0.553623 0.652308 0.375903
O O4 0.445453 0.696968 0.203190
O O5 0.115940 0.802970 0.939655
O O6 0.975054 0.835936 0.772131
O O7 0.000000 0.000000 0.897268
O O8 0.181064 0.258104 0.451893
O O9 0.968704 0.184659 0.582755
O O10 0.966691 0.100708 0.411080
O O11 0.464773 0.235842 0.530341
O O12 0.397877 0.138193 0.364973
O O13 0.674560 0.842297 0.178684
O O14 0.740799 0.637210 0.147598
O O15 0.167314 0.017750 0.280686
O O16 0.500000 0.000000 0.244589
O O17 0.000000 0.000000 0.662135
#
# Coordination Sequence:
#
# PCOD8169418 Si02
#       8
#     4   4   4   4   4   4   4   2
#     4  11  22  38  60  84 117 163 205 248 313 367
#     4  11  23  38  61  87 123 163 207 256 309 385
#     4  10  20  37  63  90 122 156 209 257 322 377
#     4   9  21  40  61  86 123 162 204 264 313 378
#     4  10  22  41  61  93 125 163 206 272 317 385
#     4  10  22  40  64  94 132 169 217 264 334 393
#     4  10  19  38  64  91 122 159 207 261 318 379
#     4  10  20  36  64  92 126 166 202 272 322 380
#
# _framework density 21.095283999999999
#
# number of rings (size 3 to 8) (size 9 to 14) (size 15 to 20)
#    0.000    1.867    0.667    4.800    3.733    2.133 
#    0.000    0.000   22.000    0.000    0.000    0.000 
#    0.000    0.000    0.000    0.000    0.000    0.000 
#
# Total GULP energy -371811.180302 kJ/mol
# GULP energy per Si atom -12393.706010 kJ/mol
# Density = 2.104727 g / cm^3
# Si number density = 21.095284 Si / 1000 Ang^3
#
#
#
# Elastic Constant Matrix: (Units=GPa)
#
#
# Indices 1 2 3 4 5 6 
#
# 1 59.2113 24.3805 -0.0731 0.0000 0.0000 0.0000
# 2 24.3805 103.2705 40.4200 0.0000 0.0000 0.0000
# 3 -0.0731 40.4200 115.4107 0.0000 0.0000 0.0000
# 4 0.0000 0.0000 0.0000 11.0904 0.0000 0.0000
# 5 0.0000 0.0000 0.0000 0.0000 17.1169 0.0000
# 6 0.0000 0.0000 0.0000 0.0000 0.0000 39.3647
#
#
#
# Elastic Compliance Matrix: (Units=1/GPa)
#
#
# Indices 1 2 3 4 5 6 
#
# 1 0.019038 -0.005214 0.001838 0.000000 0.000000 0.000000
# 2 -0.005214 0.012650 -0.004434 0.000000 0.000000 0.000000
# 3 0.001838 -0.004434 0.010219 0.000000 0.000000 0.000000
# 4 0.000000 0.000000 0.000000 0.090168 0.000000 0.000000
# 5 0.000000 0.000000 0.000000 0.000000 0.058422 0.000000
# 6 0.000000 0.000000 0.000000 0.000000 0.000000 0.025403
#
#
# Mechanical properties :
#
#
# Convention : Reuss Voigt Hill
#
# Bulk Modulus (GPa) = 38.04125 45.26081 41.65103
# Shear Modulus (GPa) = 20.80900 27.72540 24.26720
#
# Velocity S-wave (km/s) = 3.14415 3.62925 3.39538
# Velocity P-wave (km/s) = 5.59045 6.25012 5.92946
#
# Compressibility (1/GPa) = 0.02628725
#
# Stress axis : x y z
#
# Youngs Moduli (GPa) = 52.52705 79.05433 97.86057
#
# Poissons Ratio (x) = 0.41219 -0.17988
# Poissons Ratio (y) = 0.27387 0.43387
# Poissons Ratio (z) = -0.09655 0.35049
#
# Static dielectric constant tensor:
#      x y z
#    x 3.772270 0.000000 0.000000 
#    y 0.000000 3.717680 0.000000 
#    z 0.000000 0.000000 4.210910 
# 
# 
# High freq. dielectric constant tensor:
#      x y z
#    x 1.816560 0.000000 0.000000 
#    y 0.000000 1.824600 0.000000 
#    z 0.000000 0.000000 1.825350 
# 
# From -- ./inp_files/5193.got.cif
#   From: 2010.03.12/outbox.cif.g09.slc.cpg/sg30_3_cif.got.tgz:5193.got - 2010.04.14 01:38:02.
