data_PCOD8169040
_publ_section_title
;
Structure prediction by ZEFSAII (Michael W. Deem and Ramdas Pophale) SiO2 
 PCOD8169040
Probable space group: P C A 21
;
_chemical_formula_sum "Si O2"
_cell_formula_units_Z 28
_cell_length_a 10.469920
_cell_length_b 9.883722
_cell_length_c 12.451041
_cell_angle_alpha 90.000000
_cell_angle_beta 90.000000
_cell_angle_gamma 90.000000
_cell_volume 1288.455869
_symmetry_space_group_name_H-M "P C A 21"
_symmetry_group_IT_number 29
_symmetry_cell_setting 'orthorhombic'
loop_
_space_group_symop_operation_xyz
x,y,z
-x,-y,1/2+z
1/2-x,y,1/2+z
1/2+x,-y,z
loop_
_atom_site_type_symbol
_atom_site_label
_atom_site_fract_x
_atom_site_fract_y
_atom_site_fract_z
Si Si1 0.104035 0.836017 0.373300
Si Si2 0.701432 0.654020 0.230601
Si Si3 0.682539 0.959536 0.213579
Si Si4 0.034625 0.277446 0.674870
Si Si5 0.569950 0.998710 0.585909
Si Si6 0.574193 0.504884 0.057597
Si Si7 0.820336 0.457388 0.925165
O O1 0.049379 0.917033 0.476360
O O2 0.183619 0.702004 0.400629
O O3 0.992053 0.792794 0.290290
O O4 0.196936 0.939920 0.313720
O O5 0.710291 0.811696 0.261874
O O6 0.844808 0.621282 0.189603
O O7 0.655709 0.554760 0.324313
O O8 0.603111 0.634654 0.131946
O O9 0.540584 0.951714 0.165775
O O10 0.785748 0.018960 0.129344
O O11 0.918888 0.371002 0.632983
O O12 0.055943 0.165150 0.580749
O O13 0.682235 0.496897 0.968143
O O14 0.435247 0.517957 0.007002
#
# Coordination Sequence:
#
# PCOD8169040 Si02
#       7
#     4   4   4   4   4   4   4
#     4  11  24  43  69 104 137 175 231 284 338 413
#     4  11  24  47  70  98 141 182 229 282 351 413
#     4  10  25  44  69  99 137 178 224 279 340 410
#     4  10  23  48  67 102 140 181 224 293 341 416
#     4  10  24  43  69  98 136 180 222 278 346 405
#     4  12  25  45  68 101 139 177 236 286 339 408
#     4  12  27  40  74 102 134 185 228 280 347 405
#
# _framework density 21.731439999999999
#
# number of rings (size 3 to 8) (size 9 to 14) (size 15 to 20)
#    0.000    1.143    2.857    1.714    6.000    4.571 
#    0.000    0.000    0.000    0.000    0.000    0.000 
#    0.000    0.000    0.000    0.000    0.000    0.000 
#
# Total GULP energy -346990.675901 kJ/mol
# GULP energy per Si atom -12392.524139 kJ/mol
# Density = 2.168198 g / cm^3
# Si number density = 21.731440 Si / 1000 Ang^3
#
#
#
# Elastic Constant Matrix: (Units=GPa)
#
#
# Indices 1 2 3 4 5 6 
#
# 1 73.1804 30.7619 22.7011 0.0000 0.0000 0.0000
# 2 30.7619 117.6200 62.5501 0.0000 0.0000 0.0000
# 3 22.7011 62.5501 104.6196 0.0000 0.0000 0.0000
# 4 0.0000 0.0000 0.0000 37.5802 0.0000 0.0000
# 5 0.0000 0.0000 0.0000 0.0000 32.1105 0.0000
# 6 0.0000 0.0000 0.0000 0.0000 0.0000 31.9989
#
#
#
# Elastic Compliance Matrix: (Units=1/GPa)
#
#
# Indices 1 2 3 4 5 6 
#
# 1 0.015487 -0.003318 -0.001376 0.000000 0.000000 0.000000
# 2 -0.003318 0.013176 -0.007158 0.000000 0.000000 0.000000
# 3 -0.001376 -0.007158 0.014137 0.000000 0.000000 0.000000
# 4 0.000000 0.000000 0.000000 0.026610 0.000000 0.000000
# 5 0.000000 0.000000 0.000000 0.000000 0.031142 0.000000
# 6 0.000000 0.000000 0.000000 0.000000 0.000000 0.031251
#
#
# Mechanical properties :
#
#
# Convention : Reuss Voigt Hill
#
# Bulk Modulus (GPa) = 52.37125 58.60515 55.48820
# Shear Modulus (GPa) = 30.88839 32.29839 31.59339
#
# Velocity S-wave (km/s) = 3.77419 3.85938 3.81702
# Velocity P-wave (km/s) = 6.56844 6.84735 6.70934
#
# Compressibility (1/GPa) = 0.01909444
#
# Stress axis : x y z
#
# Youngs Moduli (GPa) = 64.57139 75.89348 70.73812
#
# Poissons Ratio (x) = 0.25184 0.09737
# Poissons Ratio (y) = 0.21427 0.50633
# Poissons Ratio (z) = 0.08888 0.54323
#
# Static dielectric constant tensor:
#      x y z
#    x 3.861950 0.000000 0.000000 
#    y 0.000000 4.150150 0.000000 
#    z 0.000000 0.000000 3.881450 
# 
# 
# High freq. dielectric constant tensor:
#      x y z
#    x 1.853680 0.000000 0.000000 
#    y 0.000000 1.868760 0.000000 
#    z 0.000000 0.000000 1.848710 
# 
# From -- ./inp_files/3156.got.cif
#   From: 2010.03.12/outbox.cif.g09.slc.cpg/sg29_2_cif.got.tgz:3156.got - 2010.04.14 03:43:10.
