data_PCOD8169645
_publ_section_title
;
Structure prediction by ZEFSAII (Michael W. Deem and Ramdas Pophale) SiO2 
 PCOD8169645
Probable space group: P N C 2
;
_chemical_formula_sum "Si O2"
_cell_formula_units_Z 22
_cell_length_a 9.078899
_cell_length_b 7.755423
_cell_length_c 14.516556
_cell_angle_alpha 90.000000
_cell_angle_beta 90.000000
_cell_angle_gamma 90.000000
_cell_volume 1022.120900
_symmetry_space_group_name_H-M "P N C 2"
_symmetry_group_IT_number 30
_symmetry_cell_setting 'orthorhombic'
loop_
_space_group_symop_operation_xyz
x,y,z
-x,-y,z
-x,1/2+y,1/2+z
x,1/2-y,1/2+z
loop_
_atom_site_type_symbol
_atom_site_label
_atom_site_fract_x
_atom_site_fract_y
_atom_site_fract_z
Si Si1 0.673176 0.022932 0.990180
Si Si2 0.000000 0.500000 0.800878
Si Si3 0.500000 0.000000 0.357578
Si Si4 0.611482 0.154251 0.797915
Si Si5 0.786852 0.645938 0.942675
Si Si6 0.825079 0.284943 0.661075
Si Si7 0.000000 0.500000 0.081576
O O1 0.751864 0.841114 0.971155
O O2 0.500000 0.000000 0.013390
O O3 0.692559 0.136356 0.897119
O O4 0.754433 0.118919 0.073585
O O5 0.088337 0.358722 0.862228
O O6 0.128046 0.579323 0.738364
O O7 0.472495 0.836333 0.292499
O O8 0.639291 0.957484 0.420478
O O9 0.716430 0.148565 0.709711
O O10 0.500000 0.000000 0.785341
O O11 0.851324 0.536768 0.026392
O O12 0.969599 0.175002 0.637184
#
# Coordination Sequence:
#
# PCOD8169645 Si02
#       7
#     4   2   2   4   4   4   2
#     4  11  25  47  75 108 142 196 248 307 369 433
#     4  11  26  46  71 110 142 200 233 306 375 438
#     4  12  20  46  78 102 144 188 244 300 360 438
#     4  11  25  46  72 112 146 191 245 306 370 425
#     4  11  24  46  76  99 149 190 242 304 373 432
#     4  12  27  45  72 106 150 190 251 298 367 452
#     4  11  28  44  63 112 138 198 237 296 371 438
#
# _framework density 21.523872999999998
#
# number of rings (size 3 to 8) (size 9 to 14) (size 15 to 20)
#    0.000    0.727    5.455    2.182    6.364    1.455 
#    1.636    0.000    0.000    0.000    0.000    0.000 
#    0.000    0.000    0.000    0.000    0.000    0.000 
#
# Total GULP energy -272775.169796 kJ/mol
# GULP energy per Si atom -12398.871354 kJ/mol
# Density = 2.147488 g / cm^3
# Si number density = 21.523873 Si / 1000 Ang^3
#
#
#
# Elastic Constant Matrix: (Units=GPa)
#
#
# Indices 1 2 3 4 5 6 
#
# 1 116.4345 45.3338 58.5318 0.0000 0.0000 0.0000
# 2 45.3338 129.5917 52.3905 0.0000 0.0000 0.0000
# 3 58.5318 52.3905 121.5857 0.0000 0.0000 0.0000
# 4 0.0000 0.0000 0.0000 -13.7925 0.0000 0.0000
# 5 0.0000 0.0000 0.0000 0.0000 17.0420 0.0000
# 6 0.0000 0.0000 0.0000 0.0000 0.0000 42.1791
#
#
#
# Elastic Compliance Matrix: (Units=1/GPa)
#
#
# Indices 1 2 3 4 5 6 
#
# 1 0.011838 -0.002225 -0.004740 0.000000 0.000000 0.000000
# 2 -0.002225 0.009762 -0.003136 0.000000 0.000000 0.000000
# 3 -0.004740 -0.003136 0.011858 0.000000 0.000000 0.000000
# 4 0.000000 0.000000 0.000000 -0.072503 0.000000 0.000000
# 5 0.000000 0.000000 0.000000 0.000000 0.058678 0.000000
# 6 0.000000 0.000000 0.000000 0.000000 0.000000 0.023708
#
#
# Mechanical properties :
#
#
# Convention : Reuss Voigt Hill
#
# Bulk Modulus (GPa) = 75.43222 75.56932 75.50077
# Shear Modulus (GPa) = 73.57169 23.17611 48.37390
#
# Velocity S-wave (km/s) = 5.85283 3.28497 4.74587
# Velocity P-wave (km/s) = 8.98867 7.04086 8.07372
#
# Compressibility (1/GPa) = 0.01325693
#
# Stress axis : x y z
#
# Youngs Moduli (GPa) = 84.47705 102.43348 84.33408
#
# Poissons Ratio (x) = 0.22789 0.39974
# Poissons Ratio (y) = 0.18794 0.26444
# Poissons Ratio (z) = 0.40042 0.32119
#
# Static dielectric constant tensor:
#      x y z
#    x 4.021000 0.000000 0.000000 
#    y 0.000000 4.228100 0.000000 
#    z 0.000000 0.000000 4.003250 
# 
# 
# High freq. dielectric constant tensor:
#      x y z
#    x 1.854210 0.000000 0.000000 
#    y 0.000000 1.855500 0.000000 
#    z 0.000000 0.000000 1.846610 
# 
# From -- ./inp_files/4984.got.cif
#   From: 2010.03.12/outbox.cif.g09.slc.cpg/sg30_3_cif.got.tgz:4984.got - 2010.04.14 01:38:02.
