data_PCOD8169605
_publ_section_title
;
Structure prediction by ZEFSAII (Michael W. Deem and Ramdas Pophale) SiO2 
 PCOD8169605
Probable space group: P N C 2
;
_chemical_formula_sum "Si O2"
_cell_formula_units_Z 32
_cell_length_a 15.134676
_cell_length_b 10.620943
_cell_length_c 9.217943
_cell_angle_alpha 90.000000
_cell_angle_beta 90.000000
_cell_angle_gamma 90.000000
_cell_volume 1481.733925
_symmetry_space_group_name_H-M "P N C 2"
_symmetry_group_IT_number 30
_symmetry_cell_setting 'orthorhombic'
loop_
_space_group_symop_operation_xyz
x,y,z
-x,-y,z
-x,1/2+y,1/2+z
x,1/2-y,1/2+z
loop_
_atom_site_type_symbol
_atom_site_label
_atom_site_fract_x
_atom_site_fract_y
_atom_site_fract_z
Si Si1 0.099190 0.026178 0.299880
Si Si2 0.804786 0.778164 0.777142
Si Si3 0.502863 0.356855 0.573658
Si Si4 0.237831 0.895340 0.109406
Si Si5 0.245059 0.660487 0.285133
Si Si6 0.436863 0.618018 0.260062
Si Si7 0.692672 0.853655 0.050370
Si Si8 0.896448 0.006892 0.626942
O O1 0.121956 0.173734 0.314677
O O2 0.150810 0.964777 0.166948
O O3 0.118393 0.966058 0.456949
O O4 0.000000 0.000000 0.254376
O O5 0.722149 0.722691 0.691166
O O6 0.852515 0.878230 0.676704
O O7 0.764054 0.839504 0.921667
O O8 0.500000 0.500000 0.642175
O O9 0.562702 0.356099 0.431306
O O10 0.537894 0.248612 0.681084
O O11 0.406463 0.312785 0.514442
O O12 0.270079 0.799321 0.231046
O O13 0.314154 0.999093 0.091882
O O14 0.221616 0.830861 0.954404
O O15 0.332785 0.579306 0.238719
O O16 0.154675 0.618662 0.207643
O O17 0.500000 0.500000 0.214551
O O18 0.000000 0.000000 0.667108
#
# Coordination Sequence:
#
# PCOD8169605 Si02
#       8
#     4   4   4   4   4   4   4   4
#     4  10  24  44  65  97 136 168 224 283 336 402
#     4  11  22  41  68  96 129 176 224 277 337 404
#     4  11  24  42  67  98 137 176 225 282 339 411
#     4  11  24  42  66  95 128 183 219 277 344 405
#     4  12  24  44  67  93 140 176 226 276 342 405
#     4  11  25  42  67 100 135 177 225 282 339 407
#     4  11  22  42  68  95 131 175 226 278 340 401
#     4  11  25  43  66  98 132 177 223 279 336 403
#
# _framework density 21.596319999999999
#
# number of rings (size 3 to 8) (size 9 to 14) (size 15 to 20)
#    0.000    1.000    2.500    4.500    3.500    1.000 
#    0.000    2.500    0.000    0.000    0.000    0.000 
#    0.000    0.000    0.000    0.000    0.000    0.000 
#
# Total GULP energy -396660.042446 kJ/mol
# GULP energy per Si atom -12395.626326 kJ/mol
# Density = 2.154717 g / cm^3
# Si number density = 21.596320 Si / 1000 Ang^3
#
#
#
# Elastic Constant Matrix: (Units=GPa)
#
#
# Indices 1 2 3 4 5 6 
#
# 1 121.6381 27.3886 31.0652 0.0000 0.0000 0.0000
# 2 27.3886 111.3368 41.8371 0.0000 0.0000 0.0000
# 3 31.0652 41.8371 100.5691 0.0000 0.0000 0.0000
# 4 0.0000 0.0000 0.0000 40.7437 0.0000 0.0000
# 5 0.0000 0.0000 0.0000 0.0000 11.9696 0.0000
# 6 0.0000 0.0000 0.0000 0.0000 0.0000 12.4396
#
#
#
# Elastic Compliance Matrix: (Units=1/GPa)
#
#
# Indices 1 2 3 4 5 6 
#
# 1 0.009106 -0.001402 -0.002229 0.000000 0.000000 0.000000
# 2 -0.001402 0.010862 -0.004085 0.000000 0.000000 0.000000
# 3 -0.002229 -0.004085 0.012332 0.000000 0.000000 0.000000
# 4 0.000000 0.000000 0.000000 0.024544 0.000000 0.000000
# 5 0.000000 0.000000 0.000000 0.000000 0.083545 0.000000
# 6 0.000000 0.000000 0.000000 0.000000 0.000000 0.080388
#
#
# Mechanical properties :
#
#
# Convention : Reuss Voigt Hill
#
# Bulk Modulus (GPa) = 59.29332 59.34730 59.32031
# Shear Modulus (GPa) = 20.67544 28.58080 24.62812
#
# Velocity S-wave (km/s) = 3.09748 3.64182 3.38062
# Velocity P-wave (km/s) = 6.34881 6.72486 6.53954
#
# Compressibility (1/GPa) = 0.01686531
#
# Stress axis : x y z
#
# Youngs Moduli (GPa) = 109.81459 92.06481 81.09217
#
# Poissons Ratio (x) = 0.12911 0.18079
# Poissons Ratio (y) = 0.15400 0.33130
# Poissons Ratio (z) = 0.24483 0.37612
#
# Static dielectric constant tensor:
#      x y z
#    x 4.372890 0.000000 0.000000 
#    y 0.000000 4.036360 0.000000 
#    z 0.000000 0.000000 3.868680 
# 
# 
# High freq. dielectric constant tensor:
#      x y z
#    x 1.861740 0.000000 0.000000 
#    y 0.000000 1.851380 0.000000 
#    z 0.000000 0.000000 1.847050 
# 
# From -- ./inp_files/2696.got.cif
#   From: 2010.03.12/outbox.cif.g09.slc.cpg/sg30_2_cif.got.tgz:2696.got - 2010.04.14 01:38:02.
