data_PCOD8169462
_publ_section_title
;
Structure prediction by ZEFSAII (Michael W. Deem and Ramdas Pophale) SiO2 
 PCOD8169462
Probable space group: P N C 2
;
_chemical_formula_sum "Si O2"
_cell_formula_units_Z 32
_cell_length_a 8.914702
_cell_length_b 11.401237
_cell_length_c 13.938223
_cell_angle_alpha 90.000000
_cell_angle_beta 90.000000
_cell_angle_gamma 90.000000
_cell_volume 1416.661894
_symmetry_space_group_name_H-M "P N C 2"
_symmetry_group_IT_number 30
_symmetry_cell_setting 'orthorhombic'
loop_
_space_group_symop_operation_xyz
x,y,z
-x,-y,z
-x,1/2+y,1/2+z
x,1/2-y,1/2+z
loop_
_atom_site_type_symbol
_atom_site_label
_atom_site_fract_x
_atom_site_fract_y
_atom_site_fract_z
Si Si1 0.887637 0.590287 0.619320
Si Si2 0.665319 0.722081 0.738093
Si Si3 0.179494 0.027608 0.758471
Si Si4 0.291262 0.327702 0.943839
Si Si5 0.975377 0.232679 0.490600
Si Si6 0.474238 0.777059 0.063666
Si Si7 0.243662 0.931758 0.958039
Si Si8 0.741204 0.436175 0.055087
O O1 0.755767 0.613996 0.692736
O O2 0.972827 0.710668 0.591822
O O3 0.836705 0.530827 0.519729
O O4 0.000000 0.500000 0.672442
O O5 0.771506 0.837397 0.740379
O O6 0.619556 0.679391 0.844025
O O7 0.508807 0.727096 0.678000
O O8 0.273183 0.985099 0.852448
O O9 0.243840 0.958289 0.667886
O O10 0.000000 0.000000 0.770287
O O11 0.118404 0.294222 0.923836
O O12 0.361895 0.229211 0.014026
O O13 0.309723 0.451740 0.995365
O O14 0.863462 0.320515 0.436976
O O15 0.900320 0.108778 0.515591
O O16 0.382616 0.661892 0.036353
O O17 0.389924 0.890788 0.019835
#
# Coordination Sequence:
#
# PCOD8169462 Si02
#       8
#     4   4   4   4   4   4   4   4
#     4  10  20  42  66  97 135 176 223 290 342 405
#     4  12  26  42  69 100 137 182 235 285 351 424
#     4  12  23  41  76 109 133 180 239 294 352 413
#     4  12  23  43  69  96 139 179 227 287 346 406
#     4  10  20  42  70 100 140 173 228 288 350 404
#     4  11  26  48  62  99 141 185 229 280 344 427
#     4  10  24  43  69  98 138 179 228 286 344 415
#     4  11  24  43  69  99 145 184 223 289 350 415
#
# _framework density 22.588311000000001
#
# number of rings (size 3 to 8) (size 9 to 14) (size 15 to 20)
#    0.000    1.000    2.500    4.875    1.750    1.500 
#    4.500    2.500    0.000    0.000    0.000    0.000 
#    0.000    0.000    0.000    0.000    0.000    0.000 
#
# Total GULP energy -396679.310815 kJ/mol
# GULP energy per Si atom -12396.228463 kJ/mol
# Density = 2.253690 g / cm^3
# Si number density = 22.588311 Si / 1000 Ang^3
#
#
#
# Elastic Constant Matrix: (Units=GPa)
#
#
# Indices 1 2 3 4 5 6 
#
# 1 93.2998 29.9746 32.4460 0.0000 0.0000 0.0000
# 2 29.9746 71.2498 36.0557 0.0000 0.0000 0.0000
# 3 32.4460 36.0557 133.8867 0.0000 0.0000 0.0000
# 4 0.0000 0.0000 0.0000 30.7861 0.0000 0.0000
# 5 0.0000 0.0000 0.0000 0.0000 33.8695 0.0000
# 6 0.0000 0.0000 0.0000 0.0000 0.0000 34.0626
#
#
#
# Elastic Compliance Matrix: (Units=1/GPa)
#
#
# Indices 1 2 3 4 5 6 
#
# 1 0.012803 -0.004418 -0.001913 0.000000 0.000000 0.000000
# 2 -0.004418 0.017774 -0.003716 0.000000 0.000000 0.000000
# 3 -0.001913 -0.003716 0.008933 0.000000 0.000000 0.000000
# 4 0.000000 0.000000 0.000000 0.032482 0.000000 0.000000
# 5 0.000000 0.000000 0.000000 0.000000 0.029525 0.000000
# 6 0.000000 0.000000 0.000000 0.000000 0.000000 0.029358
#
#
# Mechanical properties :
#
#
# Convention : Reuss Voigt Hill
#
# Bulk Modulus (GPa) = 51.50245 55.04321 53.27283
# Shear Modulus (GPa) = 31.75791 33.07431 32.41611
#
# Velocity S-wave (km/s) = 3.75366 3.83067 3.79236
# Velocity P-wave (km/s) = 6.45264 6.63221 6.54304
#
# Compressibility (1/GPa) = 0.01941655
#
# Stress axis : x y z
#
# Youngs Moduli (GPa) = 78.10822 56.26116 111.94133
#
# Poissons Ratio (x) = 0.24857 0.21412
# Poissons Ratio (y) = 0.34509 0.41597
# Poissons Ratio (z) = 0.14941 0.20906
#
# Static dielectric constant tensor:
#      x y z
#    x 4.211190 0.000000 0.000000 
#    y 0.000000 4.182120 0.000000 
#    z 0.000000 0.000000 3.940810 
# 
# 
# High freq. dielectric constant tensor:
#      x y z
#    x 1.891260 0.000000 0.000000 
#    y 0.000000 1.901000 0.000000 
#    z 0.000000 0.000000 1.878840 
# 
# From -- ./inp_files/5207.got.cif
#   From: 2010.03.12/outbox.cif.g09.slc.cpg/sg30_3_cif.got.tgz:5207.got - 2010.04.14 01:38:02.
