data_PCOD8169644
_publ_section_title
;
Structure prediction by ZEFSAII (Michael W. Deem and Ramdas Pophale) SiO2 
 PCOD8169644
Probable space group: P N C 2
;
_chemical_formula_sum "Si O2"
_cell_formula_units_Z 18
_cell_length_a 11.707060
_cell_length_b 4.976863
_cell_length_c 13.604457
_cell_angle_alpha 90.000000
_cell_angle_beta 90.000000
_cell_angle_gamma 90.000000
_cell_volume 792.655984
_symmetry_space_group_name_H-M "P N C 2"
_symmetry_group_IT_number 30
_symmetry_cell_setting 'orthorhombic'
loop_
_space_group_symop_operation_xyz
x,y,z
-x,-y,z
-x,1/2+y,1/2+z
x,1/2-y,1/2+z
loop_
_atom_site_type_symbol
_atom_site_label
_atom_site_fract_x
_atom_site_fract_y
_atom_site_fract_z
Si Si1 0.268569 0.340123 0.674070
Si Si2 0.078363 0.254405 0.817273
Si Si3 0.500000 0.000000 0.382773
Si Si4 0.356182 0.870818 0.776540
Si Si5 0.278128 0.216344 0.948596
O O1 0.154350 0.203138 0.718928
O O2 0.288927 0.621021 0.728344
O O3 0.262832 0.390030 0.558545
O O4 0.366928 0.118220 0.699447
O O5 0.159159 0.342696 0.909956
O O6 0.000000 0.500000 0.790298
O O7 0.000000 0.000000 0.842618
O O8 0.520906 0.258220 0.312409
O O9 0.386412 0.076362 0.444916
O O10 0.292880 0.961285 0.876779
#
# Coordination Sequence:
#
# PCOD8169644 Si02
#       5
#     4   4   2   4   4
#     4  11  26  46  75 103 144 187 246 286 365 423
#     4  11  24  46  73 102 146 188 240 303 353 421
#     4  12  24  48  72 104 158 184 238 292 376 426
#     4  11  24  47  67 104 148 186 227 298 351 434
#     4  11  27  46  75 110 143 191 240 298 363 434
#
# _framework density 22.708465
#
# number of rings (size 3 to 8) (size 9 to 14) (size 15 to 20)
#    0.000    0.889    4.444    3.333    3.111    3.556 
#    0.000    0.000    0.000    0.000    0.000    0.000 
#    0.000    0.000    0.000    0.000    0.000    0.000 
#
# Total GULP energy -223031.536260 kJ/mol
# GULP energy per Si atom -12390.640903 kJ/mol
# Density = 2.265678 g / cm^3
# Si number density = 22.708465 Si / 1000 Ang^3
#
#
#
# Elastic Constant Matrix: (Units=GPa)
#
#
# Indices 1 2 3 4 5 6 
#
# 1 104.2245 21.5384 37.2246 0.0000 0.0000 0.0000
# 2 21.5384 127.1236 43.9163 0.0000 0.0000 0.0000
# 3 37.2246 43.9163 180.6969 0.0000 0.0000 0.0000
# 4 0.0000 0.0000 0.0000 31.8684 0.0000 0.0000
# 5 0.0000 0.0000 0.0000 0.0000 17.9494 0.0000
# 6 0.0000 0.0000 0.0000 0.0000 0.0000 42.0296
#
#
#
# Elastic Compliance Matrix: (Units=1/GPa)
#
#
# Indices 1 2 3 4 5 6 
#
# 1 0.010502 -0.001127 -0.001890 0.000000 0.000000 0.000000
# 2 -0.001127 0.008708 -0.001884 0.000000 0.000000 0.000000
# 3 -0.001890 -0.001884 0.006381 0.000000 0.000000 0.000000
# 4 0.000000 0.000000 0.000000 0.031379 0.000000 0.000000
# 5 0.000000 0.000000 0.000000 0.000000 0.055712 0.000000
# 6 0.000000 0.000000 0.000000 0.000000 0.000000 0.023793
#
#
# Mechanical properties :
#
#
# Convention : Reuss Voigt Hill
#
# Bulk Modulus (GPa) = 63.32853 68.60039 65.96446
# Shear Modulus (GPa) = 32.99437 38.99385 35.99411
#
# Velocity S-wave (km/s) = 3.81590 4.14835 3.98559
# Velocity P-wave (km/s) = 6.88208 7.29519 7.09164
#
# Compressibility (1/GPa) = 0.01579067
#
# Stress axis : x y z
#
# Youngs Moduli (GPa) = 95.21612 114.83424 156.70540
#
# Poissons Ratio (x) = 0.12937 0.29614
# Poissons Ratio (y) = 0.10727 0.29529
# Poissons Ratio (z) = 0.17994 0.21639
#
# Static dielectric constant tensor:
#      x y z
#    x 4.219870 0.000000 0.000000 
#    y 0.000000 3.932540 0.000000 
#    z 0.000000 0.000000 3.887580 
# 
# 
# High freq. dielectric constant tensor:
#      x y z
#    x 1.902930 0.000000 0.000000 
#    y 0.000000 1.913120 0.000000 
#    z 0.000000 0.000000 1.872090 
# 
# From -- ./inp_files/5315.got.cif
#   From: 2010.03.12/outbox.cif.g09.slc.cpg/sg30_3_cif.got.tgz:5315.got - 2010.04.14 01:38:02.
