data_PCOD8169616
_publ_section_title
;
Structure prediction by ZEFSAII (Michael W. Deem and Ramdas Pophale) SiO2 
 PCOD8169616
Probable space group: P N C 2
;
_chemical_formula_sum "Si O2"
_cell_formula_units_Z 26
_cell_length_a 11.241759
_cell_length_b 11.645564
_cell_length_c 8.707728
_cell_angle_alpha 90.000000
_cell_angle_beta 90.000000
_cell_angle_gamma 90.000000
_cell_volume 1139.986352
_symmetry_space_group_name_H-M "P N C 2"
_symmetry_group_IT_number 30
_symmetry_cell_setting 'orthorhombic'
loop_
_space_group_symop_operation_xyz
x,y,z
-x,-y,z
-x,1/2+y,1/2+z
x,1/2-y,1/2+z
loop_
_atom_site_type_symbol
_atom_site_label
_atom_site_fract_x
_atom_site_fract_y
_atom_site_fract_z
Si Si1 0.288296 0.559177 0.487250
Si Si2 0.328292 0.142127 0.571368
Si Si3 0.282882 0.128144 0.233500
Si Si4 0.859660 0.489682 0.215548
Si Si5 0.983524 0.630252 0.833364
Si Si6 0.500000 0.000000 0.784048
Si Si7 0.872649 0.248301 0.084050
O O1 0.300628 0.493963 0.650070
O O2 0.192681 0.487450 0.385243
O O3 0.411923 0.569711 0.395865
O O4 0.242585 0.689261 0.508553
O O5 0.359876 0.129445 0.390903
O O6 0.325235 0.275712 0.614036
O O7 0.429665 0.086315 0.675038
O O8 0.199281 0.081105 0.598841
O O9 0.149038 0.157611 0.282624
O O10 0.823043 0.360599 0.169199
O O11 0.000000 0.500000 0.218141
O O12 0.071306 0.650542 0.691240
O O13 0.000000 0.500000 0.893453
O O14 0.023924 0.718023 0.964914
#
# Coordination Sequence:
#
# PCOD8169616 Si02
#       7
#     4   4   4   4   4   2   4
#     4  11  26  46  73 103 145 198 252 309 374 439
#     4  11  25  46  73 106 141 195 248 311 372 449
#     4  12  24  45  75 109 145 192 250 300 386 456
#     4  11  23  42  66 102 152 191 237 299 374 444
#     4  12  24  41  69 112 158 194 241 295 381 475
#     4  10  26  54  70 106 144 190 268 306 368 436
#     4  12  24  42  65 107 148 195 233 300 367 441
#
# _framework density 22.807289999999998
#
# number of rings (size 3 to 8) (size 9 to 14) (size 15 to 20)
#    0.000    0.615    3.077    6.000    2.154    0.615 
#   11.077    0.000    0.000    0.000    0.000    0.000 
#    0.000    0.000    0.000    0.000    0.000    0.000 
#
# Total GULP energy -322520.584938 kJ/mol
# GULP energy per Si atom -12404.637882 kJ/mol
# Density = 2.275538 g / cm^3
# Si number density = 22.807290 Si / 1000 Ang^3
#
#
#
# Elastic Constant Matrix: (Units=GPa)
#
#
# Indices 1 2 3 4 5 6 
#
# 1 102.1343 24.1047 32.1801 0.0000 0.0000 0.0000
# 2 24.1047 104.9878 30.4254 0.0000 0.0000 0.0000
# 3 32.1801 30.4254 138.9410 0.0000 0.0000 0.0000
# 4 0.0000 0.0000 0.0000 30.6296 0.0000 0.0000
# 5 0.0000 0.0000 0.0000 0.0000 27.9232 0.0000
# 6 0.0000 0.0000 0.0000 0.0000 0.0000 28.2860
#
#
#
# Elastic Compliance Matrix: (Units=1/GPa)
#
#
# Indices 1 2 3 4 5 6 
#
# 1 0.010903 -0.001891 -0.002111 0.000000 0.000000 0.000000
# 2 -0.001891 0.010498 -0.001861 0.000000 0.000000 0.000000
# 3 -0.002111 -0.001861 0.008094 0.000000 0.000000 0.000000
# 4 0.000000 0.000000 0.000000 0.032648 0.000000 0.000000
# 5 0.000000 0.000000 0.000000 0.000000 0.035813 0.000000
# 6 0.000000 0.000000 0.000000 0.000000 0.000000 0.035353
#
#
# Mechanical properties :
#
#
# Convention : Reuss Voigt Hill
#
# Bulk Modulus (GPa) = 56.28032 57.72038 57.00035
# Shear Modulus (GPa) = 33.12184 34.65796 33.88990
#
# Velocity S-wave (km/s) = 3.81497 3.90243 3.85895
# Velocity P-wave (km/s) = 6.64345 6.75782 6.70088
#
# Compressibility (1/GPa) = 0.01776820
#
# Stress axis : x y z
#
# Youngs Moduli (GPa) = 91.72180 95.25207 123.55265
#
# Poissons Ratio (x) = 0.18016 0.26081
# Poissons Ratio (y) = 0.17348 0.22992
# Poissons Ratio (z) = 0.19362 0.17725
#
# Static dielectric constant tensor:
#      x y z
#    x 3.944980 0.000000 0.000000 
#    y 0.000000 4.034970 0.000000 
#    z 0.000000 0.000000 4.462390 
# 
# 
# High freq. dielectric constant tensor:
#      x y z
#    x 1.883630 0.000000 0.000000 
#    y 0.000000 1.897050 0.000000 
#    z 0.000000 0.000000 1.923200 
# 
# From -- ./inp_files/2381.got.cif
#   From: 2010.03.12/outbox.cif.g09.slc.cpg/sg30_2_cif.got.tgz:2381.got - 2010.04.14 01:38:02.
