data_PCOD8169587
_publ_section_title
;
Structure prediction by ZEFSAII (Michael W. Deem and Ramdas Pophale) SiO2 
 PCOD8169587
Probable space group: P N C 2
;
_chemical_formula_sum "Si O2"
_cell_formula_units_Z 32
_cell_length_a 10.475246
_cell_length_b 15.857808
_cell_length_c 9.602482
_cell_angle_alpha 90.000000
_cell_angle_beta 90.000000
_cell_angle_gamma 90.000000
_cell_volume 1595.110918
_symmetry_space_group_name_H-M "P N C 2"
_symmetry_group_IT_number 30
_symmetry_cell_setting 'orthorhombic'
loop_
_space_group_symop_operation_xyz
x,y,z
-x,-y,z
-x,1/2+y,1/2+z
x,1/2-y,1/2+z
loop_
_atom_site_type_symbol
_atom_site_label
_atom_site_fract_x
_atom_site_fract_y
_atom_site_fract_z
Si Si1 0.759198 0.808900 0.277020
Si Si2 0.243729 0.153727 0.589959
Si Si3 0.647205 0.389463 0.296129
Si Si4 0.547625 0.201678 0.284810
Si Si5 0.390511 0.938880 0.092496
Si Si6 0.141965 0.012356 0.779039
Si Si7 0.516036 0.409194 0.024800
Si Si8 0.859709 0.537610 0.593253
O O1 0.810957 0.821972 0.435583
O O2 0.801996 0.722086 0.203985
O O3 0.605704 0.803910 0.277725
O O4 0.823170 0.881140 0.183362
O O5 0.201386 0.064219 0.651234
O O6 0.395189 0.146127 0.572359
O O7 0.617772 0.290752 0.289757
O O8 0.580362 0.431307 0.428823
O O9 0.795548 0.418694 0.297069
O O10 0.594281 0.434296 0.160159
O O11 0.599543 0.155784 0.148488
O O12 0.595113 0.149863 0.419834
O O13 0.500000 0.000000 0.155797
O O14 0.248641 0.969363 0.129569
O O15 0.148674 0.060610 0.928620
O O16 0.000000 0.000000 0.729844
O O17 0.500000 0.500000 0.948292
O O18 0.000000 0.500000 0.630807
#
# Coordination Sequence:
#
# PCOD8169587 Si02
#       8
#     4   4   4   4   4   4   4   4
#     4  11  23  38  64  96 128 164 211 270 326 387
#     4  11  23  38  64  92 128 164 210 267 324 384
#     4  11  22  37  61  93 123 164 208 268 327 384
#     4  11  23  36  58  94 133 156 204 273 329 385
#     4  11  22  37  65  90 121 167 209 264 321 382
#     4  10  23  44  66  86 125 175 223 262 318 396
#     4  11  21  35  58  90 127 164 203 266 334 392
#     4  10  23  43  64  89 128 172 222 263 321 392
#
# _framework density 20.061301
#
# number of rings (size 3 to 8) (size 9 to 14) (size 15 to 20)
#    0.000    1.250    3.750    2.250    5.250    0.500 
#    2.250    0.000    0.000    0.000    0.000    0.000 
#    0.000    0.000    0.000    0.000    0.000    0.000 
#
# Total GULP energy -396454.248029 kJ/mol
# GULP energy per Si atom -12389.195251 kJ/mol
# Density = 2.001564 g / cm^3
# Si number density = 20.061301 Si / 1000 Ang^3
#
#
#
# Elastic Constant Matrix: (Units=GPa)
#
#
# Indices 1 2 3 4 5 6 
#
# 1 97.0166 50.2115 41.8050 0.0000 0.0000 0.0000
# 2 50.2115 138.8689 45.7051 0.0000 0.0000 0.0000
# 3 41.8050 45.7051 108.2670 0.0000 0.0000 0.0000
# 4 0.0000 0.0000 0.0000 32.9061 0.0000 0.0000
# 5 0.0000 0.0000 0.0000 0.0000 13.5388 0.0000
# 6 0.0000 0.0000 0.0000 0.0000 0.0000 24.3944
#
#
#
# Elastic Compliance Matrix: (Units=1/GPa)
#
#
# Indices 1 2 3 4 5 6 
#
# 1 0.013888 -0.003782 -0.003766 0.000000 0.000000 0.000000
# 2 -0.003782 0.009393 -0.002505 0.000000 0.000000 0.000000
# 3 -0.003766 -0.002505 0.011748 0.000000 0.000000 0.000000
# 4 0.000000 0.000000 0.000000 0.030389 0.000000 0.000000
# 5 0.000000 0.000000 0.000000 0.000000 0.073862 0.000000
# 6 0.000000 0.000000 0.000000 0.000000 0.000000 0.040993
#
#
# Mechanical properties :
#
#
# Convention : Reuss Voigt Hill
#
# Bulk Modulus (GPa) = 67.01036 68.84397 67.92716
# Shear Modulus (GPa) = 24.34836 27.92993 26.13914
#
# Velocity S-wave (km/s) = 3.48760 3.73531 3.61357
# Velocity P-wave (km/s) = 7.04933 7.27974 7.16546
#
# Compressibility (1/GPa) = 0.01492307
#
# Stress axis : x y z
#
# Youngs Moduli (GPa) = 72.00655 106.46297 85.12105
#
# Poissons Ratio (x) = 0.40264 0.32055
# Poissons Ratio (y) = 0.27233 0.21322
# Poissons Ratio (z) = 0.27116 0.26668
#
# Static dielectric constant tensor:
#      x y z
#    x 3.467850 0.000000 0.000000 
#    y 0.000000 3.736470 0.000000 
#    z 0.000000 0.000000 4.016200 
# 
# 
# High freq. dielectric constant tensor:
#      x y z
#    x 1.748860 0.000000 0.000000 
#    y 0.000000 1.787010 0.000000 
#    z 0.000000 0.000000 1.803270 
# 
# From -- ./inp_files/2490.got.cif
#   From: 2010.03.12/outbox.cif.g09.slc.cpg/sg30_2_cif.got.tgz:2490.got - 2010.04.14 01:38:02.
