data_PCOD8169782
_publ_section_title
;
Structure prediction by ZEFSAII (Michael W. Deem and Ramdas Pophale) SiO2 
 PCOD8169782
Probable space group: P M N 21
;
_chemical_formula_sum "Si O2"
_cell_formula_units_Z 32
_cell_length_a 9.006584
_cell_length_b 10.389259
_cell_length_c 19.182039
_cell_angle_alpha 90.000000
_cell_angle_beta 90.000000
_cell_angle_gamma 90.000000
_cell_volume 1794.896649
_symmetry_space_group_name_H-M "P M N 21"
_symmetry_group_IT_number 31
_symmetry_cell_setting 'orthorhombic'
loop_
_space_group_symop_operation_xyz
x,y,z
1/2-x,-y,1/2+z
-x,y,z
1/2+x,-y,1/2+z
loop_
_atom_site_type_symbol
_atom_site_label
_atom_site_fract_x
_atom_site_fract_y
_atom_site_fract_z
Si Si1 0.323404 0.623337 0.428160
Si Si2 0.328938 0.239749 0.143252
Si Si3 0.174880 0.509267 0.302670
Si Si4 0.174526 0.627161 0.009186
Si Si5 0.327173 0.496209 0.646584
Si Si6 0.673943 0.134303 0.999131
Si Si7 0.673433 0.114382 0.439075
Si Si8 0.671645 0.241625 0.298404
O O1 0.500000 0.634357 0.427176
O O2 0.260627 0.612374 0.349875
O O3 0.263541 0.497259 0.468595
O O4 0.258394 0.749275 0.463203
O O5 0.500000 0.276607 0.141771
O O6 0.245528 0.370168 0.124827
O O7 0.292559 0.135752 0.082789
O O8 0.286202 0.188055 0.220992
O O9 0.217573 0.549260 0.223664
O O10 0.229532 0.364641 0.317565
O O11 0.000000 0.516513 0.316627
O O12 0.218469 0.613797 0.090846
O O13 0.000000 0.630306 0.997406
O O14 0.238306 0.759578 0.978422
O O15 0.500000 0.524898 0.641730
O O16 0.500000 0.147268 0.983957
O O17 0.731845 0.003128 0.966736
O O18 0.500000 0.090962 0.455334
O O19 0.700468 0.131078 0.355874
O O20 0.500000 0.285866 0.301885
#
# Coordination Sequence:
#
# PCOD8169782 Si02
#       8
#     4   4   4   4   4   4   4   4
#     4  11  20  35  58  79 104 142 183 222 261 317
#     4   9  18  32  52  77 107 138 172 220 270 320
#     4  10  19  30  50  82 115 141 171 222 278 316
#     4   9  17  32  55  80 103 133 179 221 257 308
#     4   9  17  31  52  79 110 140 174 219 266 317
#     4  11  23  37  52  79 113 143 176 223 277 323
#     4  10  20  36  56  78 104 142 184 222 261 316
#     4   9  17  33  55  78 104 139 183 221 262 323
#
# _framework density 17.828326000000001
#
# number of rings (size 3 to 8) (size 9 to 14) (size 15 to 20)
#    0.000    2.250    2.500    1.125    0.000    1.500 
#    0.000    1.875    0.000    3.000    0.000    0.000 
#    0.000    0.000    0.000    0.000    0.000    0.000 
#
# Total GULP energy -396680.260824 kJ/mol
# GULP energy per Si atom -12396.258151 kJ/mol
# Density = 1.778775 g / cm^3
# Si number density = 17.828326 Si / 1000 Ang^3
#
#
#
# Elastic Constant Matrix: (Units=GPa)
#
#
# Indices 1 2 3 4 5 6 
#
# 1 57.7034 37.4003 44.0158 0.0000 0.0000 0.0000
# 2 37.4003 105.3043 68.1030 0.0000 0.0000 0.0000
# 3 44.0158 68.1030 142.0794 0.0000 0.0000 0.0000
# 4 0.0000 0.0000 0.0000 27.4581 0.0000 0.0000
# 5 0.0000 0.0000 0.0000 0.0000 24.1323 0.0000
# 6 0.0000 0.0000 0.0000 0.0000 0.0000 26.6088
#
#
#
# Elastic Compliance Matrix: (Units=1/GPa)
#
#
# Indices 1 2 3 4 5 6 
#
# 1 0.024746 -0.005552 -0.005005 0.000000 0.000000 0.000000
# 2 -0.005552 0.015008 -0.005474 0.000000 0.000000 0.000000
# 3 -0.005005 -0.005474 0.011213 0.000000 0.000000 0.000000
# 4 0.000000 0.000000 0.000000 0.036419 0.000000 0.000000
# 5 0.000000 0.000000 0.000000 0.000000 0.041438 0.000000
# 6 0.000000 0.000000 0.000000 0.000000 0.000000 0.037582
#
#
# Mechanical properties :
#
#
# Convention : Reuss Voigt Hill
#
# Bulk Modulus (GPa) = 52.89547 67.12503 60.01025
# Shear Modulus (GPa) = 24.41759 26.01104 25.21431
#
# Velocity S-wave (km/s) = 3.70482 3.82379 3.76478
# Velocity P-wave (km/s) = 6.93070 7.56490 7.25474
#
# Compressibility (1/GPa) = 0.01890521
#
# Stress axis : x y z
#
# Youngs Moduli (GPa) = 40.40987 66.62962 89.18476
#
# Poissons Ratio (x) = 0.36994 0.44637
# Poissons Ratio (y) = 0.22436 0.48819
# Poissons Ratio (z) = 0.20225 0.36472
#
# Static dielectric constant tensor:
#      x y z
#    x 3.241260 0.000000 0.000000 
#    y 0.000000 3.119910 0.000000 
#    z 0.000000 0.000000 3.848180 
# 
# 
# High freq. dielectric constant tensor:
#      x y z
#    x 1.682400 0.000000 0.000000 
#    y 0.000000 1.655460 0.000000 
#    z 0.000000 0.000000 1.711620 
# 
# From -- ./inp_files/5928.got.cif
#   From: 2010.03.12/outbox.cif.g09.slc.cpg/sg31_3_cif.got.tgz:5928.got - 2010.04.14 01:42:59.
