data_PCOD8169101
_publ_section_title
;
Structure prediction by ZEFSAII (Michael W. Deem and Ramdas Pophale) SiO2 
 PCOD8169101
Probable space group: P C A 21
;
_chemical_formula_sum "Si O2"
_cell_formula_units_Z 28
_cell_length_a 13.076469
_cell_length_b 11.718062
_cell_length_c 8.849527
_cell_angle_alpha 90.000000
_cell_angle_beta 90.000000
_cell_angle_gamma 90.000000
_cell_volume 1356.020761
_symmetry_space_group_name_H-M "P C A 21"
_symmetry_group_IT_number 29
_symmetry_cell_setting 'orthorhombic'
loop_
_space_group_symop_operation_xyz
x,y,z
-x,-y,1/2+z
1/2-x,y,1/2+z
1/2+x,-y,z
loop_
_atom_site_type_symbol
_atom_site_label
_atom_site_fract_x
_atom_site_fract_y
_atom_site_fract_z
Si Si1 0.872244 0.407556 0.936010
Si Si2 0.518326 0.981940 0.094708
Si Si3 0.210389 0.977486 0.267408
Si Si4 0.594755 0.889102 0.812577
Si Si5 0.162607 0.841673 0.555078
Si Si6 0.107138 0.359911 0.931565
Si Si7 0.755708 0.536807 0.683433
O O1 0.822281 0.442577 0.775008
O O2 0.995931 0.422764 0.928974
O O3 0.836286 0.280799 0.978583
O O4 0.825172 0.484073 0.067700
O O5 0.444927 0.873668 0.133850
O O6 0.623168 0.957466 0.178470
O O7 0.468782 0.102204 0.154746
O O8 0.542887 0.988195 0.916479
O O9 0.174367 0.939932 0.430604
O O10 0.248892 0.862945 0.178831
O O11 0.289498 0.080672 0.280791
O O12 0.581783 0.772093 0.902970
O O13 0.183993 0.394646 0.798199
O O14 0.163567 0.383174 0.091937
#
# Coordination Sequence:
#
# PCOD8169101 Si02
#       7
#     4   4   4   4   4   4   4
#     4  11  21  43  64  88 124 159 210 272 313 365
#     4  11  21  40  56  91 123 162 198 248 296 373
#     4  11  22  37  56  90 125 158 204 245 302 374
#     4  11  24  38  63  86 127 162 200 247 302 373
#     4  11  22  36  62  85 120 164 200 251 313 364
#     4  11  23  43  64  91 126 165 207 262 317 366
#     4  10  25  41  65  93 119 162 219 259 319 371
#
# _framework density 20.648651000000001
#
# number of rings (size 3 to 8) (size 9 to 14) (size 15 to 20)
#    0.000    1.143    4.286    1.714    2.000    0.000 
#    0.000    0.000    0.000    0.000    0.000    0.000 
#    0.000    0.000    0.000    0.000    0.000    0.000 
#
# Total GULP energy -346932.183923 kJ/mol
# GULP energy per Si atom -12390.435140 kJ/mol
# Density = 2.060165 g / cm^3
# Si number density = 20.648651 Si / 1000 Ang^3
#
#
#
# Elastic Constant Matrix: (Units=GPa)
#
#
# Indices 1 2 3 4 5 6 
#
# 1 144.7491 40.8725 54.5733 0.0000 0.0000 0.0000
# 2 40.8725 79.8841 44.6471 0.0000 0.0000 0.0000
# 3 54.5733 44.6471 97.9645 0.0000 0.0000 0.0000
# 4 0.0000 0.0000 0.0000 34.5755 0.0000 0.0000
# 5 0.0000 0.0000 0.0000 0.0000 41.0556 0.0000
# 6 0.0000 0.0000 0.0000 0.0000 0.0000 20.9407
#
#
#
# Elastic Compliance Matrix: (Units=1/GPa)
#
#
# Indices 1 2 3 4 5 6 
#
# 1 0.009087 -0.002442 -0.003949 0.000000 0.000000 0.000000
# 2 -0.002442 0.017453 -0.006594 0.000000 0.000000 0.000000
# 3 -0.003949 -0.006594 0.015413 0.000000 0.000000 0.000000
# 4 0.000000 0.000000 0.000000 0.028922 0.000000 0.000000
# 5 0.000000 0.000000 0.000000 0.000000 0.024357 0.000000
# 6 0.000000 0.000000 0.000000 0.000000 0.000000 0.047754
#
#
# Mechanical properties :
#
#
# Convention : Reuss Voigt Hill
#
# Bulk Modulus (GPa) = 62.56737 66.97595 64.77166
# Shear Modulus (GPa) = 28.68892 31.48134 30.08513
#
# Velocity S-wave (km/s) = 3.73149 3.90887 3.82121
# Velocity P-wave (km/s) = 6.99515 7.27178 7.13480
#
# Compressibility (1/GPa) = 0.01598277
#
# Stress axis : x y z
#
# Youngs Moduli (GPa) = 110.04750 57.29721 64.88144
#
# Poissons Ratio (x) = 0.13993 0.25622
# Poissons Ratio (y) = 0.26876 0.42780
# Poissons Ratio (z) = 0.43459 0.37780
#
# Static dielectric constant tensor:
#      x y z
#    x 4.151290 0.000000 0.000000 
#    y 0.000000 3.411080 0.000000 
#    z 0.000000 0.000000 4.022720 
# 
# 
# High freq. dielectric constant tensor:
#      x y z
#    x 1.837090 0.000000 0.000000 
#    y 0.000000 1.771710 0.000000 
#    z 0.000000 0.000000 1.822990 
# 
# From -- ./inp_files/1454.got.cif
#   From: 2010.03.12/outbox.cif.g09.slc.cpg/sg29_1_cif.got.tgz:1454.got - 2010.04.14 03:43:10.
