data_PCOD8169641
_publ_section_title
;
Structure prediction by ZEFSAII (Michael W. Deem and Ramdas Pophale) SiO2 
 PCOD8169641
Probable space group: P N C 2
;
_chemical_formula_sum "Si O2"
_cell_formula_units_Z 24
_cell_length_a 8.215859
_cell_length_b 13.320409
_cell_length_c 9.165742
_cell_angle_alpha 90.000000
_cell_angle_beta 90.000000
_cell_angle_gamma 90.000000
_cell_volume 1003.085992
_symmetry_space_group_name_H-M "P N C 2"
_symmetry_group_IT_number 30
_symmetry_cell_setting 'orthorhombic'
loop_
_space_group_symop_operation_xyz
x,y,z
-x,-y,z
-x,1/2+y,1/2+z
x,1/2-y,1/2+z
loop_
_atom_site_type_symbol
_atom_site_label
_atom_site_fract_x
_atom_site_fract_y
_atom_site_fract_z
Si Si1 0.737967 0.642108 0.628450
Si Si2 0.822135 0.029836 0.925717
Si Si3 0.447028 0.746701 0.733092
Si Si4 0.131078 0.175170 0.449221
Si Si5 0.643956 0.563162 0.162829
Si Si6 0.778806 0.239530 0.485836
O O1 0.768579 0.530060 0.571329
O O2 0.543804 0.655416 0.655031
O O3 0.803979 0.717556 0.504156
O O4 0.831933 0.661139 0.779423
O O5 0.704036 0.009360 0.791096
O O6 0.826205 0.145857 0.963802
O O7 0.000000 0.000000 0.873430
O O8 0.578010 0.836450 0.741640
O O9 0.282723 0.778587 0.649424
O O10 0.380785 0.710886 0.889760
O O11 0.216339 0.087813 0.544776
O O12 0.935097 0.168581 0.463125
O O13 0.500000 0.500000 0.083321
#
# Coordination Sequence:
#
# PCOD8169641 Si02
#       6
#     4   4   4   4   4   4
#     4  11  23  46  72 106 142 195 236 297 363 433
#     4  12  26  45  75 105 144 188 243 301 367 435
#     4  11  24  42  72 100 143 190 241 288 360 436
#     4  11  24  44  76 100 151 187 243 296 367 430
#     4  11  24  47  73 105 142 193 245 295 355 431
#     4  12  25  44  71 107 139 190 240 301 366 433
#
# _framework density 23.926162000000001
#
# number of rings (size 3 to 8) (size 9 to 14) (size 15 to 20)
#    0.000    0.667    3.333    6.000    2.333    0.000 
#    6.000    0.833    0.000    0.000    0.000    0.000 
#    0.000    0.000    0.000    0.000    0.000    0.000 
#
# Total GULP energy -297668.667724 kJ/mol
# GULP energy per Si atom -12402.861155 kJ/mol
# Density = 2.387171 g / cm^3
# Si number density = 23.926162 Si / 1000 Ang^3
#
#
#
# Elastic Constant Matrix: (Units=GPa)
#
#
# Indices 1 2 3 4 5 6 
#
# 1 130.3328 27.3344 14.6472 0.0000 0.0000 0.0000
# 2 27.3344 61.7398 28.8460 0.0000 0.0000 0.0000
# 3 14.6472 28.8460 82.0846 0.0000 0.0000 0.0000
# 4 0.0000 0.0000 0.0000 12.3353 0.0000 0.0000
# 5 0.0000 0.0000 0.0000 0.0000 37.4182 0.0000
# 6 0.0000 0.0000 0.0000 0.0000 0.0000 43.6764
#
#
#
# Elastic Compliance Matrix: (Units=1/GPa)
#
#
# Indices 1 2 3 4 5 6 
#
# 1 0.008462 -0.003638 -0.000231 0.000000 0.000000 0.000000
# 2 -0.003638 0.020943 -0.006711 0.000000 0.000000 0.000000
# 3 -0.000231 -0.006711 0.014582 0.000000 0.000000 0.000000
# 4 0.000000 0.000000 0.000000 0.081068 0.000000 0.000000
# 5 0.000000 0.000000 0.000000 0.000000 0.026725 0.000000
# 6 0.000000 0.000000 0.000000 0.000000 0.000000 0.022896
#
#
# Mechanical properties :
#
#
# Convention : Reuss Voigt Hill
#
# Bulk Modulus (GPa) = 43.80868 46.20140 45.00504
# Shear Modulus (GPa) = 24.57668 32.24126 28.40897
#
# Velocity S-wave (km/s) = 3.20846 3.67486 3.44955
# Velocity P-wave (km/s) = 5.66350 6.11212 5.89208
#
# Compressibility (1/GPa) = 0.02282653
#
# Stress axis : x y z
#
# Youngs Moduli (GPa) = 118.17956 47.74847 68.57739
#
# Poissons Ratio (x) = 0.17372 0.01587
# Poissons Ratio (y) = 0.42996 0.46019
# Poissons Ratio (z) = 0.02734 0.32042
#
# Static dielectric constant tensor:
#      x y z
#    x 4.633170 0.000000 0.000000 
#    y 0.000000 4.173630 0.000000 
#    z 0.000000 0.000000 4.218500 
# 
# 
# High freq. dielectric constant tensor:
#      x y z
#    x 1.967840 0.000000 0.000000 
#    y 0.000000 1.932920 0.000000 
#    z 0.000000 0.000000 1.950040 
# 
# From -- ./inp_files/1815.got.cif
#   From: 2010.03.12/outbox.cif.g09.slc.cpg/sg30_1_cif.got.tgz:1815.got - 2010.04.14 01:38:02.
