data_PCOD8169607
_publ_section_title
;
Structure prediction by ZEFSAII (Michael W. Deem and Ramdas Pophale) SiO2 
 PCOD8169607
Probable space group: P N C 2
;
_chemical_formula_sum "Si O2"
_cell_formula_units_Z 20
_cell_length_a 7.622180
_cell_length_b 10.894239
_cell_length_c 9.683007
_cell_angle_alpha 90.000000
_cell_angle_beta 90.000000
_cell_angle_gamma 90.000000
_cell_volume 804.056089
_symmetry_space_group_name_H-M "P N C 2"
_symmetry_group_IT_number 30
_symmetry_cell_setting 'orthorhombic'
loop_
_space_group_symop_operation_xyz
x,y,z
-x,-y,z
-x,1/2+y,1/2+z
x,1/2-y,1/2+z
loop_
_atom_site_type_symbol
_atom_site_label
_atom_site_fract_x
_atom_site_fract_y
_atom_site_fract_z
Si Si1 0.500000 0.000000 0.229550
Si Si2 0.840708 0.282209 0.387423
Si Si3 0.349270 0.396797 0.151402
Si Si4 0.441646 0.238406 0.389779
Si Si5 0.860672 0.397332 0.660508
Si Si6 0.000000 0.500000 0.214802
O O1 0.581712 0.896324 0.326639
O O2 0.338123 0.948264 0.138568
O O3 0.633494 0.293055 0.369984
O O4 0.887472 0.285558 0.550489
O O5 0.897972 0.154796 0.314222
O O6 0.929400 0.395361 0.314033
O O7 0.500000 0.500000 0.139026
O O8 0.326763 0.338252 0.305540
O O9 0.160395 0.456133 0.116752
O O10 0.386412 0.280040 0.049776
O O11 0.000000 0.500000 0.625867
#
# Coordination Sequence:
#
# PCOD8169607 Si02
#       6
#     2   4   4   4   4   2
#     4  10  24  46  78 112 142 204 252 316 374 454
#     4  11  25  50  76 109 155 201 254 323 378 460
#     4  12  27  52  76 117 154 207 260 327 389 468
#     4  11  24  50  80 107 158 204 257 315 390 459
#     4  11  26  49  74 111 152 197 256 311 379 454
#     4  12  28  46  78 116 160 202 264 326 392 458
#
# _framework density 24.873887
#
# number of rings (size 3 to 8) (size 9 to 14) (size 15 to 20)
#    0.000    0.800    4.000    2.400    2.800    4.800 
#    5.400    0.000    0.000    1.200    0.000    0.000 
#    0.000    0.000    0.000    0.000    0.000    0.000 
#
# Total GULP energy -247961.938868 kJ/mol
# GULP energy per Si atom -12398.096943 kJ/mol
# Density = 2.481727 g / cm^3
# Si number density = 24.873887 Si / 1000 Ang^3
#
#
#
# Elastic Constant Matrix: (Units=GPa)
#
#
# Indices 1 2 3 4 5 6 
#
# 1 139.4535 58.6548 43.5669 0.0000 0.0000 0.0000
# 2 58.6548 89.3015 44.5387 0.0000 0.0000 0.0000
# 3 43.5669 44.5387 126.4755 0.0000 0.0000 0.0000
# 4 0.0000 0.0000 0.0000 47.3481 0.0000 0.0000
# 5 0.0000 0.0000 0.0000 0.0000 16.8666 0.0000
# 6 0.0000 0.0000 0.0000 0.0000 0.0000 40.5081
#
#
#
# Elastic Compliance Matrix: (Units=1/GPa)
#
#
# Indices 1 2 3 4 5 6 
#
# 1 0.010105 -0.005945 -0.001387 0.000000 0.000000 0.000000
# 2 -0.005945 0.017082 -0.003967 0.000000 0.000000 0.000000
# 3 -0.001387 -0.003967 0.009782 0.000000 0.000000 0.000000
# 4 0.000000 0.000000 0.000000 0.021120 0.000000 0.000000
# 5 0.000000 0.000000 0.000000 0.000000 0.059289 0.000000
# 6 0.000000 0.000000 0.000000 0.000000 0.000000 0.024686
#
#
# Mechanical properties :
#
#
# Convention : Reuss Voigt Hill
#
# Bulk Modulus (GPa) = 69.59643 72.08347 70.83995
# Shear Modulus (GPa) = 29.50681 34.84258 32.17470
#
# Velocity S-wave (km/s) = 3.44794 3.74675 3.60045
# Velocity P-wave (km/s) = 6.62507 6.91086 6.76947
#
# Compressibility (1/GPa) = 0.01436855
#
# Stress axis : x y z
#
# Youngs Moduli (GPa) = 98.96299 58.54239 102.23221
#
# Poissons Ratio (x) = 0.34804 0.14181
# Poissons Ratio (y) = 0.58835 0.40560
# Poissons Ratio (z) = 0.13728 0.23226
#
# Static dielectric constant tensor:
#      x y z
#    x 4.494330 0.000000 0.000000 
#    y 0.000000 4.456560 0.000000 
#    z 0.000000 0.000000 4.523940 
# 
# 
# High freq. dielectric constant tensor:
#      x y z
#    x 1.992220 0.000000 0.000000 
#    y 0.000000 1.995400 0.000000 
#    z 0.000000 0.000000 1.983870 
# 
# From -- ./inp_files/1725.got.cif
#   From: 2010.03.12/outbox.cif.g09.slc.cpg/sg30_1_cif.got.tgz:1725.got - 2010.04.14 01:38:02.
