data_PCOD8169744
_publ_section_title
;
Structure prediction by ZEFSAII (Michael W. Deem and Ramdas Pophale) SiO2 
 PCOD8169744
Probable space group: P M N 21
;
_chemical_formula_sum "Si O2"
_cell_formula_units_Z 28
_cell_length_a 27.987610
_cell_length_b 5.357840
_cell_length_c 8.705901
_cell_angle_alpha 90.000000
_cell_angle_beta 90.000000
_cell_angle_gamma 90.000000
_cell_volume 1305.477160
_symmetry_space_group_name_H-M "P M N 21"
_symmetry_group_IT_number 31
_symmetry_cell_setting 'orthorhombic'
loop_
_space_group_symop_operation_xyz
x,y,z
1/2-x,-y,1/2+z
-x,y,z
1/2+x,-y,1/2+z
loop_
_atom_site_type_symbol
_atom_site_label
_atom_site_fract_x
_atom_site_fract_y
_atom_site_fract_z
Si Si1 0.327946 0.246113 0.219130
Si Si2 0.898245 0.434031 0.517434
Si Si3 0.399177 0.872141 0.313670
Si Si4 0.500000 0.917733 0.266825
Si Si5 0.317144 0.632492 0.456304
Si Si6 0.273030 0.085096 0.945938
Si Si7 0.000000 0.580569 0.574359
Si Si8 0.315457 0.589116 0.808079
O O1 0.363639 0.372013 0.098966
O O2 0.362640 0.097658 0.332772
O O3 0.297904 0.436012 0.327613
O O4 0.291283 0.068332 0.123651
O O5 0.870654 0.359224 0.360543
O O6 0.950822 0.547566 0.476791
O O7 0.904228 0.199421 0.632804
O O8 0.452386 0.941468 0.372588
O O9 0.373772 0.663223 0.418678
O O10 0.500000 0.140884 0.143161
O O11 0.500000 0.634998 0.202730
O O12 0.284707 0.883906 0.439763
O O13 0.312615 0.532822 0.627912
O O14 0.294660 0.343147 0.884639
O O15 0.286263 0.837919 0.853396
#
# Coordination Sequence:
#
# PCOD8169744 Si02
#       8
#     4   4   4   2   4   4   2   4
#     4  10  20  39  61  88 121 164 209 256 304 373
#     4   9  19  37  60  90 122 160 206 261 306 373
#     4  10  20  38  63  90 123 159 212 258 314 368
#     4  10  20  36  63  93 118 158 210 264 308 370
#     4  11  26  37  62  93 128 167 209 263 316 378
#     4  11  25  42  63  85 130 170 217 251 314 375
#     4  10  18  32  63  95 116 154 212 260 310 368
#     4  11  25  42  61  93 127 169 206 263 315 380
#
# _framework density 21.448098000000002
#
# number of rings (size 3 to 8) (size 9 to 14) (size 15 to 20)
#    0.000    1.714    2.857    0.857    6.000    0.000 
#    0.000    0.714    0.000    0.000    0.000    0.000 
#    0.000    0.000    0.000    0.000    0.000    0.000 
#
# Total GULP energy -346881.296927 kJ/mol
# GULP energy per Si atom -12388.617747 kJ/mol
# Density = 2.139928 g / cm^3
# Si number density = 21.448098 Si / 1000 Ang^3
#
#
#
# Elastic Constant Matrix: (Units=GPa)
#
#
# Indices 1 2 3 4 5 6 
#
# 1 146.9901 20.6032 33.3684 0.0000 0.0000 0.0000
# 2 20.6032 85.3114 5.7435 0.0000 0.0000 0.0000
# 3 33.3684 5.7435 67.4801 0.0000 0.0000 0.0000
# 4 0.0000 0.0000 0.0000 10.0296 0.0000 0.0000
# 5 0.0000 0.0000 0.0000 0.0000 22.5683 0.0000
# 6 0.0000 0.0000 0.0000 0.0000 0.0000 27.0794
#
#
#
# Elastic Compliance Matrix: (Units=1/GPa)
#
#
# Indices 1 2 3 4 5 6 
#
# 1 0.007888 -0.001652 -0.003760 0.000000 0.000000 0.000000
# 2 -0.001652 0.012135 -0.000216 0.000000 0.000000 0.000000
# 3 -0.003760 -0.000216 0.016697 0.000000 0.000000 0.000000
# 4 0.000000 0.000000 0.000000 0.099705 0.000000 0.000000
# 5 0.000000 0.000000 0.000000 0.000000 0.044310 0.000000
# 6 0.000000 0.000000 0.000000 0.000000 0.000000 0.036928
#
#
# Mechanical properties :
#
#
# Convention : Reuss Voigt Hill
#
# Bulk Modulus (GPa) = 39.27056 46.57910 42.92483
# Shear Modulus (GPa) = 21.06080 27.93991 24.50035
#
# Velocity S-wave (km/s) = 3.13700 3.61318 3.38347
# Velocity P-wave (km/s) = 5.60984 6.25867 5.94312
#
# Compressibility (1/GPa) = 0.02546437
#
# Stress axis : x y z
#
# Youngs Moduli (GPa) = 126.76989 82.40448 59.89136
#
# Poissons Ratio (x) = 0.13613 0.22520
# Poissons Ratio (y) = 0.20942 0.01294
# Poissons Ratio (z) = 0.47667 0.01780
#
# Static dielectric constant tensor:
#      x y z
#    x 4.505250 0.000000 0.000000 
#    y 0.000000 3.833700 0.000000 
#    z 0.000000 0.000000 3.770600 
# 
# 
# High freq. dielectric constant tensor:
#      x y z
#    x 1.861030 0.000000 0.000000 
#    y 0.000000 1.845030 0.000000 
#    z 0.000000 0.000000 1.794520 
# 
# From -- ./inp_files/3142.got.cif
#   From: 2010.03.12/outbox.cif.g09.slc.cpg/sg31_2_cif.got.tgz:3142.got - 2010.04.14 01:42:59.
