data_PCOD8169148
_publ_section_title
;
Structure prediction by ZEFSAII (Michael W. Deem and Ramdas Pophale) SiO2 
 PCOD8169148
Probable space group: P C A 21
;
_chemical_formula_sum "Si O2"
_cell_formula_units_Z 32
_cell_length_a 16.205076
_cell_length_b 6.598844
_cell_length_c 14.590704
_cell_angle_alpha 90.000000
_cell_angle_beta 90.000000
_cell_angle_gamma 90.000000
_cell_volume 1560.253555
_symmetry_space_group_name_H-M "P C A 21"
_symmetry_group_IT_number 29
_symmetry_cell_setting 'orthorhombic'
loop_
_space_group_symop_operation_xyz
x,y,z
-x,-y,1/2+z
1/2-x,y,1/2+z
1/2+x,-y,z
loop_
_atom_site_type_symbol
_atom_site_label
_atom_site_fract_x
_atom_site_fract_y
_atom_site_fract_z
Si Si1 0.160658 0.301469 0.434590
Si Si2 0.037986 0.123186 0.677423
Si Si3 0.781250 0.013133 0.523689
Si Si4 0.534443 0.875185 0.020176
Si Si5 0.570708 0.050046 0.347164
Si Si6 0.684503 0.162843 0.685876
Si Si7 0.232369 0.696398 0.368961
Si Si8 0.566581 0.473510 0.589793
O O1 0.211269 0.146350 0.496872
O O2 0.223259 0.454830 0.383443
O O3 0.097743 0.421831 0.497905
O O4 0.107863 0.175225 0.360237
O O5 0.045823 0.366224 0.670007
O O6 0.965501 0.060630 0.745736
O O7 0.124352 0.025046 0.709738
O O8 0.013191 0.047558 0.576654
O O9 0.868264 0.902646 0.521738
O O10 0.762816 0.086399 0.627140
O O11 0.780221 0.203604 0.454561
O O12 0.514743 0.655247 0.063937
O O13 0.502415 0.894945 0.916843
O O14 0.641187 0.215782 0.359344
O O15 0.714438 0.264672 0.778839
O O16 0.637768 0.326486 0.624808
#
# Coordination Sequence:
#
# PCOD8169148 Si02
#       8
#     4   4   4   4   4   4   4   4
#     4  11  21  45  68  89 131 178 220 272 338 400
#     4  11  23  43  66  94 133 174 216 280 338 399
#     4  11  23  42  65  95 133 176 221 277 337 401
#     4  11  23  41  64  98 131 174 228 273 336 400
#     4  11  23  41  66  93 133 173 217 278 338 397
#     4  11  23  41  66  96 131 171 226 275 339 401
#     4  11  23  41  65  97 131 173 224 277 334 402
#     4  11  21  44  68  90 133 179 220 278 334 400
#
# _framework density 20.509487
#
# number of rings (size 3 to 8) (size 9 to 14) (size 15 to 20)
#    0.000    1.000    5.000    3.000    0.000    6.000 
#    6.750    0.000    0.000    0.000    0.000    0.000 
#    0.000    0.000    0.000    0.000    0.000    0.000 
#
# Total GULP energy -396969.168596 kJ/mol
# GULP energy per Si atom -12405.286519 kJ/mol
# Density = 2.046281 g / cm^3
# Si number density = 20.509487 Si / 1000 Ang^3
#
#
#
# Elastic Constant Matrix: (Units=GPa)
#
#
# Indices 1 2 3 4 5 6 
#
# 1 87.8884 27.5338 18.6184 0.0000 0.0000 0.0000
# 2 27.5338 125.7209 27.5891 0.0000 0.0000 0.0000
# 3 18.6184 27.5891 74.1693 0.0000 0.0000 0.0000
# 4 0.0000 0.0000 0.0000 31.9035 0.0000 0.0000
# 5 0.0000 0.0000 0.0000 0.0000 43.3059 0.0000
# 6 0.0000 0.0000 0.0000 0.0000 0.0000 24.6450
#
#
#
# Elastic Compliance Matrix: (Units=1/GPa)
#
#
# Indices 1 2 3 4 5 6 
#
# 1 0.012573 -0.002244 -0.002321 0.000000 0.000000 0.000000
# 2 -0.002244 0.009062 -0.002807 0.000000 0.000000 0.000000
# 3 -0.002321 -0.002807 0.015110 0.000000 0.000000 0.000000
# 4 0.000000 0.000000 0.000000 0.031345 0.000000 0.000000
# 5 0.000000 0.000000 0.000000 0.000000 0.023092 0.000000
# 6 0.000000 0.000000 0.000000 0.000000 0.000000 0.040576
#
#
# Mechanical properties :
#
#
# Convention : Reuss Voigt Hill
#
# Bulk Modulus (GPa) = 45.45770 48.36236 46.91003
# Shear Modulus (GPa) = 32.50235 34.24002 33.37119
#
# Velocity S-wave (km/s) = 3.98521 4.09035 4.03812
# Velocity P-wave (km/s) = 6.58697 6.77788 6.68311
#
# Compressibility (1/GPa) = 0.02199847
#
# Stress axis : x y z
#
# Youngs Moduli (GPa) = 79.53637 110.35475 66.18285
#
# Poissons Ratio (x) = 0.24765 0.15363
# Poissons Ratio (y) = 0.17849 0.18580
# Poissons Ratio (z) = 0.18463 0.30981
#
# Static dielectric constant tensor:
#      x y z
#    x 3.632140 0.000000 0.000000 
#    y 0.000000 3.971360 0.000000 
#    z 0.000000 0.000000 3.740840 
# 
# 
# High freq. dielectric constant tensor:
#      x y z
#    x 1.799880 0.000000 0.000000 
#    y 0.000000 1.809680 0.000000 
#    z 0.000000 0.000000 1.804120 
# 
# From -- ./inp_files/4824.got.cif
#   From: 2010.03.12/outbox.cif.g09.slc.cpg/sg29_3_cif.got.tgz:4824.got - 2010.04.14 03:43:10.
