data_PCOD8169102
_publ_section_title
;
Structure prediction by ZEFSAII (Michael W. Deem and Ramdas Pophale) SiO2 
 PCOD8169102
Probable space group: P C A 21
;
_chemical_formula_sum "Si O2"
_cell_formula_units_Z 24
_cell_length_a 20.519154
_cell_length_b 5.264597
_cell_length_c 9.180779
_cell_angle_alpha 90.000000
_cell_angle_beta 90.000000
_cell_angle_gamma 90.000000
_cell_volume 991.754355
_symmetry_space_group_name_H-M "P C A 21"
_symmetry_group_IT_number 29
_symmetry_cell_setting 'orthorhombic'
loop_
_space_group_symop_operation_xyz
x,y,z
-x,-y,1/2+z
1/2-x,y,1/2+z
1/2+x,-y,z
loop_
_atom_site_type_symbol
_atom_site_label
_atom_site_fract_x
_atom_site_fract_y
_atom_site_fract_z
Si Si1 0.583589 0.521304 0.791320
Si Si2 0.745946 0.949253 0.959701
Si Si3 0.815198 0.645950 0.714001
Si Si4 0.206360 0.730367 0.699464
Si Si5 0.459936 0.251940 0.726660
Si Si6 0.048815 0.962422 0.938966
O O1 0.649612 0.483835 0.696038
O O2 0.583705 0.806459 0.850963
O O3 0.518088 0.458427 0.696579
O O4 0.587797 0.305733 0.920172
O O5 0.800570 0.097410 0.055107
O O6 0.694844 0.824830 0.072983
O O7 0.702585 0.118680 0.851356
O O8 0.785138 0.747790 0.864236
O O9 0.779192 0.382451 0.683847
O O10 0.891772 0.601384 0.738630
O O11 0.476524 0.090776 0.872198
O O12 0.459178 0.036682 0.604233
#
# Coordination Sequence:
#
# PCOD8169102 Si02
#       6
#     4   4   4   4   4   4
#     4  10  26  42  76  99 143 181 237 286 367 414
#     4  10  25  42  67 103 137 187 234 298 354 424
#     4  11  24  45  71  99 145 182 243 292 363 426
#     4  11  24  44  69 103 139 186 237 298 352 430
#     4  10  26  45  72 103 140 189 237 298 357 430
#     4  10  25  46  71 103 140 185 234 292 359 428
#
# _framework density 24.199541
#
# number of rings (size 3 to 8) (size 9 to 14) (size 15 to 20)
#    1.000    0.667    0.000    2.000   14.000    2.667 
#    6.000    0.000    0.000    0.000    0.000    0.000 
#    0.000    0.000    0.000    0.000    0.000    0.000 
#
# Total GULP energy -297405.012775 kJ/mol
# GULP energy per Si atom -12391.875532 kJ/mol
# Density = 2.414446 g / cm^3
# Si number density = 24.199541 Si / 1000 Ang^3
#
#
#
# Elastic Constant Matrix: (Units=GPa)
#
#
# Indices 1 2 3 4 5 6 
#
# 1 107.5821 -9.6055 12.7688 0.0000 0.0000 0.0000
# 2 -9.6055 63.7300 -5.4959 0.0000 0.0000 0.0000
# 3 12.7688 -5.4959 75.1147 0.0000 0.0000 0.0000
# 4 0.0000 0.0000 0.0000 15.1957 0.0000 0.0000
# 5 0.0000 0.0000 0.0000 0.0000 19.4159 0.0000
# 6 0.0000 0.0000 0.0000 0.0000 0.0000 32.9416
#
#
#
# Elastic Compliance Matrix: (Units=1/GPa)
#
#
# Indices 1 2 3 4 5 6 
#
# 1 0.009595 0.001314 -0.001535 0.000000 0.000000 0.000000
# 2 0.001314 0.015971 0.000945 0.000000 0.000000 0.000000
# 3 -0.001535 0.000945 0.013643 0.000000 0.000000 0.000000
# 4 0.000000 0.000000 0.000000 0.065808 0.000000 0.000000
# 5 0.000000 0.000000 0.000000 0.000000 0.051504 0.000000
# 6 0.000000 0.000000 0.000000 0.000000 0.000000 0.030357
#
#
# Mechanical properties :
#
#
# Convention : Reuss Voigt Hill
#
# Bulk Modulus (GPa) = 24.59623 26.86239 25.72931
# Shear Modulus (GPa) = 25.12794 30.09458 27.61126
#
# Velocity S-wave (km/s) = 3.22586 3.53030 3.38151
# Velocity P-wave (km/s) = 4.90519 5.26705 5.08934
#
# Compressibility (1/GPa) = 0.04065664
#
# Stress axis : x y z
#
# Youngs Moduli (GPa) = 104.22419 62.61454 73.29738
#
# Poissons Ratio (x) = -0.08226 0.11250
# Poissons Ratio (y) = -0.13693 -0.06928
# Poissons Ratio (z) = 0.15997 -0.05918
#
# Static dielectric constant tensor:
#      x y z
#    x 4.248500 0.000000 0.000000 
#    y 0.000000 4.182990 0.000000 
#    z 0.000000 0.000000 4.274820 
# 
# 
# High freq. dielectric constant tensor:
#      x y z
#    x 1.958360 0.000000 0.000000 
#    y 0.000000 1.956860 0.000000 
#    z 0.000000 0.000000 1.953170 
# 
# From -- ./inp_files/2394.got.cif
#   From: 2010.03.12/outbox.cif.g09.slc.cpg/sg29_2_cif.got.tgz:2394.got - 2010.04.14 03:43:10.
