data_PCOD8169292
_publ_section_title
;
Structure prediction by ZEFSAII (Michael W. Deem and Ramdas Pophale) SiO2 
 PCOD8169292
Probable space group: P C A 21
;
_chemical_formula_sum "Si O2"
_cell_formula_units_Z 28
_cell_length_a 10.593666
_cell_length_b 11.966421
_cell_length_c 9.553737
_cell_angle_alpha 90.000000
_cell_angle_beta 90.000000
_cell_angle_gamma 90.000000
_cell_volume 1211.110686
_symmetry_space_group_name_H-M "P C A 21"
_symmetry_group_IT_number 29
_symmetry_cell_setting 'orthorhombic'
loop_
_space_group_symop_operation_xyz
x,y,z
-x,-y,1/2+z
1/2-x,y,1/2+z
1/2+x,-y,z
loop_
_atom_site_type_symbol
_atom_site_label
_atom_site_fract_x
_atom_site_fract_y
_atom_site_fract_z
Si Si1 0.973794 0.617065 0.473390
Si Si2 0.237398 0.248939 0.383960
Si Si3 0.200670 0.098162 0.638105
Si Si4 0.882888 0.188651 0.281864
Si Si5 0.946654 0.002346 0.758198
Si Si6 0.981387 0.594278 0.788508
Si Si7 0.852300 0.178696 0.965388
O O1 0.854098 0.694862 0.459614
O O2 0.959201 0.563378 0.626834
O O3 0.978340 0.518838 0.362327
O O4 0.095863 0.695612 0.448132
O O5 0.201152 0.139644 0.477080
O O6 0.279927 0.207982 0.231866
O O7 0.133563 0.346123 0.368452
O O8 0.063590 0.044194 0.663308
O O9 0.315855 0.010530 0.670918
O O10 0.783443 0.158690 0.399132
O O11 0.901643 0.320872 0.290542
O O12 0.014210 0.122636 0.312244
O O13 0.835973 0.151453 0.128193
O O14 0.940325 0.086873 0.889592
#
# Coordination Sequence:
#
# PCOD8169292 Si02
#       7
#     4   4   4   4   4   4   4
#     4  11  26  48  75 106 143 190 248 305 376 439
#     4  12  25  50  71 106 148 198 249 303 379 448
#     4  12  27  43  77 105 158 198 253 306 369 451
#     4  11  26  47  69 107 147 189 244 299 370 432
#     4  12  25  44  73 112 147 199 247 302 369 442
#     4  11  27  48  75 105 143 190 246 310 370 447
#     4  11  26  46  70 105 148 188 241 305 363 439
#
# _framework density 23.119273
#
# number of rings (size 3 to 8) (size 9 to 14) (size 15 to 20)
#    0.000    0.571    5.714    0.857    6.000    3.429 
#    0.000    0.000    0.000    0.000    0.000    0.000 
#    0.000    0.000    0.000    0.000    0.000    0.000 
#
# Total GULP energy -347159.753077 kJ/mol
# GULP energy per Si atom -12398.562610 kJ/mol
# Density = 2.306665 g / cm^3
# Si number density = 23.119273 Si / 1000 Ang^3
#
#
#
# Elastic Constant Matrix: (Units=GPa)
#
#
# Indices 1 2 3 4 5 6 
#
# 1 95.0420 8.9896 29.5012 0.0000 0.0000 0.0000
# 2 8.9896 97.9420 35.6834 0.0000 0.0000 0.0000
# 3 29.5012 35.6834 112.2624 0.0000 0.0000 0.0000
# 4 0.0000 0.0000 0.0000 53.1936 0.0000 0.0000
# 5 0.0000 0.0000 0.0000 0.0000 28.4544 0.0000
# 6 0.0000 0.0000 0.0000 0.0000 0.0000 27.3491
#
#
#
# Elastic Compliance Matrix: (Units=1/GPa)
#
#
# Indices 1 2 3 4 5 6 
#
# 1 0.011456 0.000051 -0.003027 0.000000 0.000000 0.000000
# 2 0.000051 0.011548 -0.003684 0.000000 0.000000 0.000000
# 3 -0.003027 -0.003684 0.010874 0.000000 0.000000 0.000000
# 4 0.000000 0.000000 0.000000 0.018799 0.000000 0.000000
# 5 0.000000 0.000000 0.000000 0.000000 0.035144 0.000000
# 6 0.000000 0.000000 0.000000 0.000000 0.000000 0.036564
#
#
# Mechanical properties :
#
#
# Convention : Reuss Voigt Hill
#
# Bulk Modulus (GPa) = 48.64071 50.39942 49.52007
# Shear Modulus (GPa) = 34.58828 37.20424 35.89626
#
# Velocity S-wave (km/s) = 3.87212 4.01587 3.94465
# Velocity P-wave (km/s) = 6.40904 6.58408 6.49715
#
# Compressibility (1/GPa) = 0.02055891
#
# Stress axis : x y z
#
# Youngs Moduli (GPa) = 87.28769 86.59803 91.96155
#
# Poissons Ratio (x) = -0.00444 0.27836
# Poissons Ratio (y) = -0.00447 0.33878
# Poissons Ratio (z) = 0.26421 0.31902
#
# Static dielectric constant tensor:
#      x y z
#    x 4.170180 0.000000 0.000000 
#    y 0.000000 4.147640 0.000000 
#    z 0.000000 0.000000 4.114500 
# 
# 
# High freq. dielectric constant tensor:
#      x y z
#    x 1.919990 0.000000 0.000000 
#    y 0.000000 1.922740 0.000000 
#    z 0.000000 0.000000 1.921890 
# 
# From -- ./inp_files/1470.got.cif
#   From: 2010.03.12/outbox.cif.g09.slc.cpg/sg29_1_cif.got.tgz:1470.got - 2010.04.14 03:43:10.
