data_PCOD8169028
_publ_section_title
;
Structure prediction by ZEFSAII (Michael W. Deem and Ramdas Pophale) SiO2 
 PCOD8169028
Probable space group: P C A 21
;
_chemical_formula_sum "Si O2"
_cell_formula_units_Z 32
_cell_length_a 7.884463
_cell_length_b 14.205483
_cell_length_c 13.007665
_cell_angle_alpha 90.000000
_cell_angle_beta 90.000000
_cell_angle_gamma 90.000000
_cell_volume 1456.892366
_symmetry_space_group_name_H-M "P C A 21"
_symmetry_group_IT_number 29
_symmetry_cell_setting 'orthorhombic'
loop_
_space_group_symop_operation_xyz
x,y,z
-x,-y,1/2+z
1/2-x,y,1/2+z
1/2+x,-y,z
loop_
_atom_site_type_symbol
_atom_site_label
_atom_site_fract_x
_atom_site_fract_y
_atom_site_fract_z
Si Si1 0.580964 0.907568 0.223710
Si Si2 0.312548 0.290967 0.680043
Si Si3 0.908165 0.494928 0.930130
Si Si4 0.197796 0.973027 0.586177
Si Si5 0.659586 0.535232 0.780097
Si Si6 0.838854 0.373882 0.116820
Si Si7 0.981926 0.109567 0.453617
Si Si8 0.505143 0.687946 0.528383
O O1 0.695569 0.813774 0.225870
O O2 0.436900 0.900289 0.134918
O O3 0.507304 0.927832 0.337404
O O4 0.695794 0.994579 0.186137
O O5 0.243419 0.363730 0.763366
O O6 0.512426 0.308099 0.659741
O O7 0.184459 0.301039 0.585357
O O8 0.712409 0.509540 0.899096
O O9 0.961540 0.463421 0.811256
O O10 0.917953 0.411107 0.010637
O O11 0.994348 0.591596 0.966415
O O12 0.298513 0.919364 0.496799
O O13 0.119057 0.064779 0.530864
O O14 0.696298 0.465066 0.686866
O O15 0.661001 0.317184 0.103736
O O16 0.989975 0.222930 0.452851
#
# Coordination Sequence:
#
# PCOD8169028 Si02
#       8
#     4   4   4   4   4   4   4   4
#     4  11  23  43  71 100 133 179 224 284 351 422
#     4  12  24  43  67 100 137 176 229 283 338 405
#     4  12  23  41  66  92 131 184 226 272 338 395
#     4  10  23  45  70 101 133 174 223 280 362 414
#     4  12  23  41  66  92 131 183 225 276 336 397
#     4  12  25  43  64  93 139 179 226 282 335 395
#     4  11  23  43  71  97 136 174 220 286 342 422
#     4  12  24  43  65  99 136 175 225 285 334 400
#
# _framework density 21.964559999999999
#
# number of rings (size 3 to 8) (size 9 to 14) (size 15 to 20)
#    0.000    0.500    5.000    4.500    0.000    0.000 
#    0.000    0.000    2.750    0.000    0.000    0.000 
#    0.000    0.000    0.000    0.000    0.000    0.000 
#
# Total GULP energy -396517.006838 kJ/mol
# GULP energy per Si atom -12391.156464 kJ/mol
# Density = 2.191457 g / cm^3
# Si number density = 21.964560 Si / 1000 Ang^3
#
#
#
# Elastic Constant Matrix: (Units=GPa)
#
#
# Indices 1 2 3 4 5 6 
#
# 1 85.4230 24.6547 23.8478 0.0000 0.0000 0.0000
# 2 24.6547 77.5112 18.7431 0.0000 0.0000 0.0000
# 3 23.8478 18.7431 105.1604 0.0000 0.0000 0.0000
# 4 0.0000 0.0000 0.0000 26.9146 0.0000 0.0000
# 5 0.0000 0.0000 0.0000 0.0000 40.1456 0.0000
# 6 0.0000 0.0000 0.0000 0.0000 0.0000 22.8780
#
#
#
# Elastic Compliance Matrix: (Units=1/GPa)
#
#
# Indices 1 2 3 4 5 6 
#
# 1 0.013441 -0.003697 -0.002389 0.000000 0.000000 0.000000
# 2 -0.003697 0.014500 -0.001746 0.000000 0.000000 0.000000
# 3 -0.002389 -0.001746 0.010362 0.000000 0.000000 0.000000
# 4 0.000000 0.000000 0.000000 0.037155 0.000000 0.000000
# 5 0.000000 0.000000 0.000000 0.000000 0.024909 0.000000
# 6 0.000000 0.000000 0.000000 0.000000 0.000000 0.043710
#
#
# Mechanical properties :
#
#
# Convention : Reuss Voigt Hill
#
# Bulk Modulus (GPa) = 44.17382 44.73173 44.45278
# Shear Modulus (GPa) = 29.88878 31.37758 30.63318
#
# Velocity S-wave (km/s) = 3.69287 3.78372 3.73857
# Velocity P-wave (km/s) = 6.19178 6.28477 6.23845
#
# Compressibility (1/GPa) = 0.02263784
#
# Stress axis : x y z
#
# Youngs Moduli (GPa) = 74.40174 68.96738 96.50452
#
# Poissons Ratio (x) = 0.25501 0.23055
# Poissons Ratio (y) = 0.27510 0.16848
# Poissons Ratio (z) = 0.17774 0.12040
#
# Static dielectric constant tensor:
#      x y z
#    x 4.237730 0.000000 0.000000 
#    y 0.000000 3.794540 0.000000 
#    z 0.000000 0.000000 3.805540 
# 
# 
# High freq. dielectric constant tensor:
#      x y z
#    x 1.889450 0.000000 0.000000 
#    y 0.000000 1.852030 0.000000 
#    z 0.000000 0.000000 1.864960 
# 
# From -- ./inp_files/2958.got.cif
#   From: 2010.03.12/outbox.cif.g09.slc.cpg/sg29_2_cif.got.tgz:2958.got - 2010.04.14 03:43:10.
