data_PCOD8169536
_publ_section_title
;
Structure prediction by ZEFSAII (Michael W. Deem and Ramdas Pophale) SiO2 
 PCOD8169536
Probable space group: P N C 2
;
_chemical_formula_sum "Si O2"
_cell_formula_units_Z 32
_cell_length_a 8.587533
_cell_length_b 15.659926
_cell_length_c 12.052090
_cell_angle_alpha 90.000000
_cell_angle_beta 90.000000
_cell_angle_gamma 90.000000
_cell_volume 1620.766646
_symmetry_space_group_name_H-M "P N C 2"
_symmetry_group_IT_number 30
_symmetry_cell_setting 'orthorhombic'
loop_
_space_group_symop_operation_xyz
x,y,z
-x,-y,z
-x,1/2+y,1/2+z
x,1/2-y,1/2+z
loop_
_atom_site_type_symbol
_atom_site_label
_atom_site_fract_x
_atom_site_fract_y
_atom_site_fract_z
Si Si1 0.878000 0.267974 0.500000
Si Si2 0.176182 0.034939 0.058869
Si Si3 0.334359 0.155672 0.219385
Si Si4 0.317519 0.622289 0.646487
Si Si5 0.847880 0.398608 0.875634
Si Si6 0.158840 0.311031 0.136636
Si Si7 0.952122 0.596431 0.354600
Si Si8 0.794955 0.582640 0.929878
O O1 0.742787 0.293832 0.584909
O O2 0.799693 0.188464 0.436629
O O3 0.031698 0.243400 0.569388
O O4 0.916468 0.345566 0.415508
O O5 0.205385 0.097367 0.160854
O O6 0.300746 0.958264 0.063600
O O7 0.192420 0.086782 0.942017
O O8 0.000000 0.000000 0.066492
O O9 0.505613 0.133050 0.180048
O O10 0.295858 0.252985 0.187727
O O11 0.323097 0.135052 0.350373
O O12 0.205684 0.603437 0.749560
O O13 0.765154 0.480579 0.933463
O O14 0.033608 0.402789 0.881049
O O15 0.085035 0.358908 0.240132
O O16 0.230295 0.381225 0.053382
O O17 0.000000 0.500000 0.325019
#
# Coordination Sequence:
#
# PCOD8169536 Si02
#       8
#     4   4   4   4   4   4   4   4
#     4  11  21  40  63  94 126 169 214 267 315 386
#     4  11  20  40  64  91 122 158 212 269 312 371
#     4  12  24  38  64  94 126 164 214 264 324 391
#     4  12  23  39  61  95 126 167 211 263 328 383
#     4  10  22  38  62  93 121 163 215 262 312 379
#     4  11  23  40  65  95 127 168 215 267 333 385
#     4  11  22  38  67  96 130 163 216 276 327 382
#     4  10  22  40  65  92 124 162 213 271 317 378
#
# _framework density 19.743742999999998
#
# number of rings (size 3 to 8) (size 9 to 14) (size 15 to 20)
#    0.000    1.000    5.000    4.125    3.500    1.000 
#    0.000    0.000    0.000    0.000    6.500    0.000 
#    0.000    0.000    0.000    0.000    0.000    0.000 
#
# Total GULP energy -396666.501196 kJ/mol
# GULP energy per Si atom -12395.828162 kJ/mol
# Density = 1.969880 g / cm^3
# Si number density = 19.743743 Si / 1000 Ang^3
#
#
#
# Elastic Constant Matrix: (Units=GPa)
#
#
# Indices 1 2 3 4 5 6 
#
# 1 64.4665 34.0267 34.3740 0.0000 0.0000 0.0000
# 2 34.0267 135.4761 51.4581 0.0000 0.0000 0.0000
# 3 34.3740 51.4581 111.4004 0.0000 0.0000 0.0000
# 4 0.0000 0.0000 0.0000 41.2556 0.0000 0.0000
# 5 0.0000 0.0000 0.0000 0.0000 16.7268 0.0000
# 6 0.0000 0.0000 0.0000 0.0000 0.0000 18.9083
#
#
#
# Elastic Compliance Matrix: (Units=1/GPa)
#
#
# Indices 1 2 3 4 5 6 
#
# 1 0.019642 -0.003191 -0.004587 0.000000 0.000000 0.000000
# 2 -0.003191 0.009470 -0.003390 0.000000 0.000000 0.000000
# 3 -0.004587 -0.003390 0.011958 0.000000 0.000000 0.000000
# 4 0.000000 0.000000 0.000000 0.024239 0.000000 0.000000
# 5 0.000000 0.000000 0.000000 0.000000 0.059784 0.000000
# 6 0.000000 0.000000 0.000000 0.000000 0.000000 0.052887
#
#
# Mechanical properties :
#
#
# Convention : Reuss Voigt Hill
#
# Bulk Modulus (GPa) = 53.37716 61.22896 57.30306
# Shear Modulus (GPa) = 24.20592 28.14376 26.17484
#
# Velocity S-wave (km/s) = 3.50523 3.77961 3.64501
# Velocity P-wave (km/s) = 6.59362 7.08000 6.84114
#
# Compressibility (1/GPa) = 0.01873461
#
# Stress axis : x y z
#
# Youngs Moduli (GPa) = 50.91145 105.59130 83.62753
#
# Poissons Ratio (x) = 0.33696 0.38358
# Poissons Ratio (y) = 0.16247 0.28349
# Poissons Ratio (z) = 0.23352 0.35795
#
# Static dielectric constant tensor:
#      x y z
#    x 3.174570 0.000000 0.000000 
#    y 0.000000 4.086380 0.000000 
#    z 0.000000 0.000000 3.804880 
# 
# 
# High freq. dielectric constant tensor:
#      x y z
#    x 1.727580 0.000000 0.000000 
#    y 0.000000 1.792130 0.000000 
#    z 0.000000 0.000000 1.775670 
# 
# From -- ./inp_files/3845.got.cif
#   From: 2010.03.12/outbox.cif.g09.slc.cpg/sg30_2_cif.got.tgz:3845.got - 2010.04.14 01:38:02.
