data_PCOD8169029
_publ_section_title
;
Structure prediction by ZEFSAII (Michael W. Deem and Ramdas Pophale) SiO2 
 PCOD8169029
Probable space group: P C A 21
;
_chemical_formula_sum "Si O2"
_cell_formula_units_Z 24
_cell_length_a 13.600575
_cell_length_b 8.689084
_cell_length_c 8.075734
_cell_angle_alpha 90.000000
_cell_angle_beta 90.000000
_cell_angle_gamma 90.000000
_cell_volume 954.362291
_symmetry_space_group_name_H-M "P C A 21"
_symmetry_group_IT_number 29
_symmetry_cell_setting 'orthorhombic'
loop_
_space_group_symop_operation_xyz
x,y,z
-x,-y,1/2+z
1/2-x,y,1/2+z
1/2+x,-y,z
loop_
_atom_site_type_symbol
_atom_site_label
_atom_site_fract_x
_atom_site_fract_y
_atom_site_fract_z
Si Si1 0.679341 0.684409 0.970130
Si Si2 0.425145 0.565743 0.609432
Si Si3 0.326082 0.753721 0.324231
Si Si4 0.357741 0.462028 0.123668
Si Si5 0.894759 0.165242 0.812637
Si Si6 0.071750 0.013267 0.976117
O O1 0.640011 0.632637 0.792916
O O2 0.661987 0.865900 0.984353
O O3 0.618091 0.606519 0.122352
O O4 0.791137 0.628135 0.991449
O O5 0.350974 0.645945 0.479451
O O6 0.535369 0.552403 0.542184
O O7 0.419186 0.652848 0.785987
O O8 0.330070 0.644025 0.159461
O O9 0.221060 0.839883 0.351722
O O10 0.405513 0.893578 0.324753
O O11 0.964570 0.093839 0.954886
O O12 0.926560 0.080549 0.645017
#
# Coordination Sequence:
#
# PCOD8169029 Si02
#       6
#     4   4   4   4   4   4
#     4  11  25  44  71 108 140 193 245 321 367 461
#     4  10  23  45  72 104 142 197 250 311 380 459
#     4  10  25  46  72 107 152 204 245 319 391 456
#     4  11  24  46  75 105 148 189 260 311 384 450
#     4  11  24  49  71 106 153 200 253 314 397 458
#     4  11  27  44  73 108 149 203 251 318 387 470
#
# _framework density 25.147680000000001
#
# number of rings (size 3 to 8) (size 9 to 14) (size 15 to 20)
#    0.000    1.333    3.333    0.000    4.667   10.667 
#    0.000    0.000    0.000    0.000    0.000    0.000 
#    0.000    0.000    0.000    0.000    0.000    0.000 
#
# Total GULP energy -297381.375595 kJ/mol
# GULP energy per Si atom -12390.890650 kJ/mol
# Density = 2.509044 g / cm^3
# Si number density = 25.147680 Si / 1000 Ang^3
#
#
#
# Elastic Constant Matrix: (Units=GPa)
#
#
# Indices 1 2 3 4 5 6 
#
# 1 147.2268 -1.1139 15.2695 0.0000 0.0000 0.0000
# 2 -1.1139 93.8238 13.2664 0.0000 0.0000 0.0000
# 3 15.2695 13.2664 51.0066 0.0000 0.0000 0.0000
# 4 0.0000 0.0000 0.0000 27.4199 0.0000 0.0000
# 5 0.0000 0.0000 0.0000 0.0000 37.3139 0.0000
# 6 0.0000 0.0000 0.0000 0.0000 0.0000 47.4085
#
#
#
# Elastic Compliance Matrix: (Units=1/GPa)
#
#
# Indices 1 2 3 4 5 6 
#
# 1 0.007024 0.000395 -0.002206 0.000000 0.000000 0.000000
# 2 0.000395 0.011087 -0.003002 0.000000 0.000000 0.000000
# 3 -0.002206 -0.003002 0.021046 0.000000 0.000000 0.000000
# 4 0.000000 0.000000 0.000000 0.036470 0.000000 0.000000
# 5 0.000000 0.000000 0.000000 0.000000 0.026800 0.000000
# 6 0.000000 0.000000 0.000000 0.000000 0.000000 0.021093
#
#
# Mechanical properties :
#
#
# Convention : Reuss Voigt Hill
#
# Bulk Modulus (GPa) = 33.86032 38.54459 36.20245
# Shear Modulus (GPa) = 34.96755 40.07080 37.51918
#
# Velocity S-wave (km/s) = 3.73297 3.99610 3.86677
# Velocity P-wave (km/s) = 5.66338 6.05411 5.86200
#
# Compressibility (1/GPa) = 0.02953309
#
# Stress axis : x y z
#
# Youngs Moduli (GPa) = 142.36953 90.19202 47.51408
#
# Poissons Ratio (x) = -0.03565 0.10479
# Poissons Ratio (y) = -0.05627 0.14264
# Poissons Ratio (z) = 0.31400 0.27076
#
# Static dielectric constant tensor:
#      x y z
#    x 4.610790 0.000000 0.000000 
#    y 0.000000 5.133300 0.000000 
#    z 0.000000 0.000000 4.234240 
# 
# 
# High freq. dielectric constant tensor:
#      x y z
#    x 2.010600 0.000000 0.000000 
#    y 0.000000 2.011230 0.000000 
#    z 0.000000 0.000000 1.979580 
# 
# From -- ./inp_files/1723.got.cif
#   From: 2010.03.12/outbox.cif.g09.slc.cpg/sg29_1_cif.got.tgz:1723.got - 2010.04.14 03:43:10.
