data_PCOD8169721
_publ_section_title
;
Structure prediction by ZEFSAII (Michael W. Deem and Ramdas Pophale) SiO2 
 PCOD8169721
Probable space group: P M N 21
;
_chemical_formula_sum "Si O2"
_cell_formula_units_Z 24
_cell_length_a 13.213365
_cell_length_b 10.038577
_cell_length_c 11.438921
_cell_angle_alpha 90.000000
_cell_angle_beta 90.000000
_cell_angle_gamma 90.000000
_cell_volume 1517.297168
_symmetry_space_group_name_H-M "P M N 21"
_symmetry_group_IT_number 31
_symmetry_cell_setting 'orthorhombic'
loop_
_space_group_symop_operation_xyz
x,y,z
1/2-x,-y,1/2+z
-x,y,z
1/2+x,-y,1/2+z
loop_
_atom_site_type_symbol
_atom_site_label
_atom_site_fract_x
_atom_site_fract_y
_atom_site_fract_z
Si Si1 0.747514 0.129812 0.304640
Si Si2 0.116701 0.641914 0.380971
Si Si3 0.880660 0.361947 0.268953
Si Si4 0.886213 0.901000 0.242766
Si Si5 0.765779 0.244360 0.068479
Si Si6 0.883961 0.997476 0.987255
O O1 0.820415 0.251555 0.346163
O O2 0.709178 0.160257 0.171908
O O3 0.652395 0.105061 0.387558
O O4 0.813185 0.996167 0.314727
O O5 0.149290 0.503876 0.322025
O O6 0.134692 0.749984 0.280002
O O7 0.185477 0.672181 0.493674
O O8 0.000000 0.638626 0.422640
O O9 0.844047 0.346638 0.133091
O O10 0.000000 0.335095 0.274861
O O11 0.866850 0.915791 0.105640
O O12 0.000000 0.944193 0.274352
O O13 0.826191 0.139206 0.987933
O O14 0.000000 0.031620 0.963684
#
# Coordination Sequence:
#
# PCOD8169721 Si02
#       6
#     4   4   4   4   4   4
#     4   9  18  31  51  77 100 133 170 212 261 300
#     4  10  19  33  54  78 105 137 173 211 259 309
#     4   9  19  34  53  76 102 138 175 209 251 309
#     4   9  17  30  50  75 101 130 173 213 247 306
#     4   9  19  33  51  78 104 138 165 217 257 304
#     4  10  18  31  53  78 106 134 172 222 261 302
#
# _framework density 15.817600000000001
#
# number of rings (size 3 to 8) (size 9 to 14) (size 15 to 20)
#    1.000    1.667    1.667    1.000    0.000    2.000 
#    0.000    0.000    0.000    3.000    0.000    0.000 
#    0.000    0.000    0.000    0.000    0.000    0.000 
#
# Total GULP energy -297367.739376 kJ/mol
# GULP energy per Si atom -12390.322474 kJ/mol
# Density = 1.578160 g / cm^3
# Si number density = 15.817600 Si / 1000 Ang^3
#
#
#
# Elastic Constant Matrix: (Units=GPa)
#
#
# Indices 1 2 3 4 5 6 
#
# 1 74.7521 52.8348 46.7787 0.0000 0.0000 0.0000
# 2 52.8348 113.8603 46.8727 0.0000 0.0000 0.0000
# 3 46.7787 46.8727 65.2264 0.0000 0.0000 0.0000
# 4 0.0000 0.0000 0.0000 28.5290 0.0000 0.0000
# 5 0.0000 0.0000 0.0000 0.0000 32.2750 0.0000
# 6 0.0000 0.0000 0.0000 0.0000 0.0000 16.5762
#
#
#
# Elastic Compliance Matrix: (Units=1/GPa)
#
#
# Indices 1 2 3 4 5 6 
#
# 1 0.027325 -0.006550 -0.014890 0.000000 0.000000 0.000000
# 2 -0.006550 0.014042 -0.005394 0.000000 0.000000 0.000000
# 3 -0.014890 -0.005394 0.029886 0.000000 0.000000 0.000000
# 4 0.000000 0.000000 0.000000 0.035052 0.000000 0.000000
# 5 0.000000 0.000000 0.000000 0.000000 0.030984 0.000000
# 6 0.000000 0.000000 0.000000 0.000000 0.000000 0.060328
#
#
# Mechanical properties :
#
#
# Convention : Reuss Voigt Hill
#
# Bulk Modulus (GPa) = 56.86259 60.75680 58.80970
# Shear Modulus (GPa) = 19.44427 22.63289 21.03858
#
# Velocity S-wave (km/s) = 3.50991 3.78678 3.65097
# Velocity P-wave (km/s) = 7.24244 7.59038 7.41845
#
# Compressibility (1/GPa) = 0.01758625
#
# Stress axis : x y z
#
# Youngs Moduli (GPa) = 36.59677 71.21253 33.46075
#
# Poissons Ratio (x) = 0.46644 0.49822
# Poissons Ratio (y) = 0.23971 0.18048
# Poissons Ratio (z) = 0.54492 0.38410
#
# Static dielectric constant tensor:
#      x y z
#    x 2.898540 0.000000 0.000000 
#    y 0.000000 3.012150 0.000000 
#    z 0.000000 0.000000 2.817010 
# 
# 
# High freq. dielectric constant tensor:
#      x y z
#    x 1.600630 0.000000 0.000000 
#    y 0.000000 1.608900 0.000000 
#    z 0.000000 0.000000 1.590690 
# 
# From -- ./inp_files/3967.got.cif
#   From: 2010.03.12/outbox.cif.g09.slc.cpg/sg31_2_cif.got.tgz:3967.got - 2010.04.14 01:42:59.
