data_PCOD8169565
_publ_section_title
;
Structure prediction by ZEFSAII (Michael W. Deem and Ramdas Pophale) SiO2 
 PCOD8169565
Probable space group: P N C 2
;
_chemical_formula_sum "Si O2"
_cell_formula_units_Z 22
_cell_length_a 13.611669
_cell_length_b 7.465350
_cell_length_c 10.554473
_cell_angle_alpha 90.000000
_cell_angle_beta 90.000000
_cell_angle_gamma 90.000000
_cell_volume 1072.501990
_symmetry_space_group_name_H-M "P N C 2"
_symmetry_group_IT_number 30
_symmetry_cell_setting 'orthorhombic'
loop_
_space_group_symop_operation_xyz
x,y,z
-x,-y,z
-x,1/2+y,1/2+z
x,1/2-y,1/2+z
loop_
_atom_site_type_symbol
_atom_site_label
_atom_site_fract_x
_atom_site_fract_y
_atom_site_fract_z
Si Si1 0.403979 0.882903 0.260370
Si Si2 0.243086 0.089158 0.138354
Si Si3 0.000000 0.000000 0.701030
Si Si4 0.330689 0.723096 0.506363
Si Si5 0.808786 0.944915 0.540931
Si Si6 0.074458 0.352772 0.809384
O O1 0.390810 0.740001 0.374998
O O2 0.406479 0.773184 0.126496
O O3 0.500000 0.000000 0.282764
O O4 0.312662 0.022745 0.254113
O O5 0.260402 0.300531 0.113323
O O6 0.128671 0.077126 0.181287
O O7 0.267089 0.962322 0.015726
O O8 0.098986 0.980151 0.619914
O O9 0.012794 0.172270 0.790206
O O10 0.256230 0.886195 0.509058
O O11 0.845120 0.831732 0.419415
O O12 0.000000 0.500000 0.858617
#
# Coordination Sequence:
#
# PCOD8169565 Si02
#       6
#     4   4   2   4   4   4
#     4  10  23  46  67  99 131 167 222 276 338 403
#     4   9  23  40  63  96 127 168 223 274 325 400
#     4  10  24  36  58  96 130 174 222 262 332 376
#     4  10  22  43  70  92 133 171 217 279 336 388
#     4  11  20  40  65  93 130 177 219 271 330 393
#     4  11  21  39  60  91 134 169 221 270 319 393
#
# _framework density 20.512782000000001
#
# number of rings (size 3 to 8) (size 9 to 14) (size 15 to 20)
#    1.091    0.727    2.727    1.091    0.000    5.818 
#    6.545    0.909    0.000    0.000    0.000    0.000 
#    0.000    0.000    0.000    0.000    0.000    0.000 
#
# Total GULP energy -272557.262358 kJ/mol
# GULP energy per Si atom -12388.966471 kJ/mol
# Density = 2.046609 g / cm^3
# Si number density = 20.512782 Si / 1000 Ang^3
#
#
#
# Elastic Constant Matrix: (Units=GPa)
#
#
# Indices 1 2 3 4 5 6 
#
# 1 65.4462 50.0172 31.0259 0.0000 0.0000 0.0000
# 2 50.0172 111.5411 37.9138 0.0000 0.0000 0.0000
# 3 31.0259 37.9138 101.0853 0.0000 0.0000 0.0000
# 4 0.0000 0.0000 0.0000 -3.6152 0.0000 0.0000
# 5 0.0000 0.0000 0.0000 0.0000 21.7772 0.0000
# 6 0.0000 0.0000 0.0000 0.0000 0.0000 37.6401
#
#
#
# Elastic Compliance Matrix: (Units=1/GPa)
#
#
# Indices 1 2 3 4 5 6 
#
# 1 0.024517 -0.009669 -0.003899 0.000000 0.000000 0.000000
# 2 -0.009669 0.014088 -0.002316 0.000000 0.000000 0.000000
# 3 -0.003899 -0.002316 0.011958 0.000000 0.000000 0.000000
# 4 0.000000 0.000000 0.000000 -0.276612 0.000000 0.000000
# 5 0.000000 0.000000 0.000000 0.000000 0.045920 0.000000
# 6 0.000000 0.000000 0.000000 0.000000 0.000000 0.026567
#
#
# Mechanical properties :
#
#
# Convention : Reuss Voigt Hill
#
# Bulk Modulus (GPa) = 53.20290 57.33183 55.26736
# Shear Modulus (GPa) = -43.27969 21.76814 -10.75578
#
# Velocity S-wave (km/s) = -4.59834 3.26114 -2.29234
# Velocity P-wave (km/s) = 1.48329 6.49539 4.47157
#
# Compressibility (1/GPa) = 0.01879597
#
# Stress axis : x y z
#
# Youngs Moduli (GPa) = 40.78744 70.98032 83.62579
#
# Poissons Ratio (x) = 0.68630 0.32602
# Poissons Ratio (y) = 0.39437 0.19372
# Poissons Ratio (z) = 0.15901 0.16442
#
# Static dielectric constant tensor:
#      x y z
#    x 3.479770 0.000000 0.000000 
#    y 0.000000 3.614070 0.000000 
#    z 0.000000 0.000000 3.755120 
# 
# 
# High freq. dielectric constant tensor:
#      x y z
#    x 1.787890 0.000000 0.000000 
#    y 0.000000 1.796780 0.000000 
#    z 0.000000 0.000000 1.799010 
# 
# From -- ./inp_files/2622.got.cif
#   From: 2010.03.12/outbox.cif.g09.slc.cpg/sg30_2_cif.got.tgz:2622.got - 2010.04.14 01:38:02.
