data_PCOD8169553
_publ_section_title
;
Structure prediction by ZEFSAII (Michael W. Deem and Ramdas Pophale) SiO2 
 PCOD8169553
Probable space group: P N C 2
;
_chemical_formula_sum "Si O2"
_cell_formula_units_Z 18
_cell_length_a 9.097454
_cell_length_b 9.099329
_cell_length_c 11.238704
_cell_angle_alpha 90.000000
_cell_angle_beta 90.000000
_cell_angle_gamma 90.000000
_cell_volume 930.348088
_symmetry_space_group_name_H-M "P N C 2"
_symmetry_group_IT_number 30
_symmetry_cell_setting 'orthorhombic'
loop_
_space_group_symop_operation_xyz
x,y,z
-x,-y,z
-x,1/2+y,1/2+z
x,1/2-y,1/2+z
loop_
_atom_site_type_symbol
_atom_site_label
_atom_site_fract_x
_atom_site_fract_y
_atom_site_fract_z
Si Si1 0.328122 0.019275 0.755180
Si Si2 0.150881 0.213978 0.319435
Si Si3 0.000000 0.000000 0.135002
Si Si4 0.833423 0.482370 0.016394
Si Si5 0.131663 0.831424 0.925395
O O1 0.287765 0.190163 0.774768
O O2 0.500000 0.000000 0.767258
O O3 0.278851 0.972187 0.624141
O O4 0.255049 0.915964 0.853205
O O5 0.023781 0.330573 0.355606
O O6 0.096689 0.107910 0.215052
O O7 0.203837 0.120491 0.432670
O O8 0.111183 0.905267 0.054466
O O9 0.000000 0.500000 0.065134
O O10 0.815863 0.336102 0.938521
#
# Coordination Sequence:
#
# PCOD8169553 Si02
#       5
#     4   4   2   4   4
#     4  12  26  41  60  92 138 173 203 250 328 402
#     4  11  21  42  69  98 119 163 219 274 317 367
#     4  12  20  36  74  98 122 158 222 282 314 360
#     4  10  22  41  69  93 120 160 218 272 314 362
#     4  11  21  40  67  94 124 160 217 269 318 368
#
# _framework density 19.347598999999999
#
# number of rings (size 3 to 8) (size 9 to 14) (size 15 to 20)
#    0.000    0.889    5.556    5.333    0.000    1.778 
#    0.000    0.000    0.000    0.000    0.000    0.000 
#    0.000    0.000    0.000    0.000    0.000    0.000 
#
# Total GULP energy -223298.526439 kJ/mol
# GULP energy per Si atom -12405.473691 kJ/mol
# Density = 1.930356 g / cm^3
# Si number density = 19.347599 Si / 1000 Ang^3
#
#
#
# Elastic Constant Matrix: (Units=GPa)
#
#
# Indices 1 2 3 4 5 6 
#
# 1 123.2826 66.3827 53.9847 0.0000 0.0000 0.0000
# 2 66.3827 105.3481 36.3022 0.0000 0.0000 0.0000
# 3 53.9847 36.3022 101.9734 0.0000 0.0000 0.0000
# 4 0.0000 0.0000 0.0000 36.6325 0.0000 0.0000
# 5 0.0000 0.0000 0.0000 0.0000 20.7162 0.0000
# 6 0.0000 0.0000 0.0000 0.0000 0.0000 24.8442
#
#
#
# Elastic Compliance Matrix: (Units=1/GPa)
#
#
# Indices 1 2 3 4 5 6 
#
# 1 0.014157 -0.007224 -0.004923 0.000000 0.000000 0.000000
# 2 -0.007224 0.014506 -0.001340 0.000000 0.000000 0.000000
# 3 -0.004923 -0.001340 0.012890 0.000000 0.000000 0.000000
# 4 0.000000 0.000000 0.000000 0.027298 0.000000 0.000000
# 5 0.000000 0.000000 0.000000 0.000000 0.048272 0.000000
# 6 0.000000 0.000000 0.000000 0.000000 0.000000 0.040251
#
#
# Mechanical properties :
#
#
# Convention : Reuss Voigt Hill
#
# Bulk Modulus (GPa) = 68.59117 71.54926 70.07022
# Shear Modulus (GPa) = 26.42605 28.03421 27.23013
#
# Velocity S-wave (km/s) = 3.69976 3.81067 3.75562
# Velocity P-wave (km/s) = 7.33348 7.51151 7.42303
#
# Compressibility (1/GPa) = 0.01457914
#
# Stress axis : x y z
#
# Youngs Moduli (GPa) = 70.63514 68.93574 77.58206
#
# Poissons Ratio (x) = 0.49802 0.38193
# Poissons Ratio (y) = 0.51030 0.10393
# Poissons Ratio (z) = 0.34773 0.09234
#
# Static dielectric constant tensor:
#      x y z
#    x 3.204840 0.000000 0.000000 
#    y 0.000000 3.834670 0.000000 
#    z 0.000000 0.000000 3.664970 
# 
# 
# High freq. dielectric constant tensor:
#      x y z
#    x 1.709290 0.000000 0.000000 
#    y 0.000000 1.778830 0.000000 
#    z 0.000000 0.000000 1.769150 
# 
# From -- ./inp_files/1671.got.cif
#   From: 2010.03.12/outbox.cif.g09.slc.cpg/sg30_1_cif.got.tgz:1671.got - 2010.04.14 01:38:02.
