data_PCOD8169190
_publ_section_title
;
Structure prediction by ZEFSAII (Michael W. Deem and Ramdas Pophale) SiO2 
 PCOD8169190
Probable space group: P C A 21
;
_chemical_formula_sum "Si O2"
_cell_formula_units_Z 32
_cell_length_a 8.863338
_cell_length_b 11.175160
_cell_length_c 14.511419
_cell_angle_alpha 90.000000
_cell_angle_beta 90.000000
_cell_angle_gamma 90.000000
_cell_volume 1437.344737
_symmetry_space_group_name_H-M "P C A 21"
_symmetry_group_IT_number 29
_symmetry_cell_setting 'orthorhombic'
loop_
_space_group_symop_operation_xyz
x,y,z
-x,-y,1/2+z
1/2-x,y,1/2+z
1/2+x,-y,z
loop_
_atom_site_type_symbol
_atom_site_label
_atom_site_fract_x
_atom_site_fract_y
_atom_site_fract_z
Si Si1 0.470293 0.075837 0.951490
Si Si2 0.657398 0.884664 0.878319
Si Si3 0.291255 0.129326 0.684637
Si Si4 0.600114 0.083669 0.610162
Si Si5 0.666731 0.267636 0.038465
Si Si6 0.829768 0.496478 0.975445
Si Si7 0.095353 0.348245 0.650758
Si Si8 0.906897 0.626840 0.366778
O O1 0.289106 0.090932 0.953176
O O2 0.545436 0.999065 0.867281
O O3 0.559182 0.199177 0.965218
O O4 0.503105 0.986208 0.036293
O O5 0.758274 0.854573 0.790964
O O6 0.558344 0.765147 0.894298
O O7 0.472409 0.134617 0.678409
O O8 0.215832 0.241893 0.632229
O O9 0.220931 0.002234 0.657189
O O10 0.685219 0.194764 0.564929
O O11 0.713585 0.388287 0.987910
O O12 0.571081 0.295103 0.130846
O O13 0.871596 0.546786 0.076997
O O14 0.755748 0.596208 0.909877
O O15 0.973727 0.455137 0.918284
O O16 0.095055 0.396199 0.755988
#
# Coordination Sequence:
#
# PCOD8169190 Si02
#       8
#     4   4   4   4   4   4   4   4
#     4  12  22  42  69  99 139 179 230 274 354 421
#     4  11  25  43  67 101 139 181 226 292 342 417
#     4  11  23  43  66 102 140 177 230 287 349 418
#     4  12  22  40  70  99 135 181 221 276 352 425
#     4  12  25  43  70 102 135 186 233 288 352 427
#     4  12  27  49  73 102 140 188 240 295 360 414
#     4  11  26  50  73 100 145 186 243 300 350 425
#     4  11  28  48  74 105 141 186 243 298 355 423
#
# _framework density 22.263276000000001
#
# number of rings (size 3 to 8) (size 9 to 14) (size 15 to 20)
#    0.000    0.500    5.000    2.250    5.250    1.000 
#    4.500    0.000    0.000    0.000    0.000    0.000 
#    0.000    0.000    0.000    0.000    0.000    0.000 
#
# Total GULP energy -396751.722999 kJ/mol
# GULP energy per Si atom -12398.491344 kJ/mol
# Density = 2.221260 g / cm^3
# Si number density = 22.263276 Si / 1000 Ang^3
#
#
#
# Elastic Constant Matrix: (Units=GPa)
#
#
# Indices 1 2 3 4 5 6 
#
# 1 100.1640 26.8749 27.0878 0.0000 0.0000 0.0000
# 2 26.8749 100.5610 41.7016 0.0000 0.0000 0.0000
# 3 27.0878 41.7016 95.6536 0.0000 0.0000 0.0000
# 4 0.0000 0.0000 0.0000 34.6567 0.0000 0.0000
# 5 0.0000 0.0000 0.0000 0.0000 30.9598 0.0000
# 6 0.0000 0.0000 0.0000 0.0000 0.0000 45.3853
#
#
#
# Elastic Compliance Matrix: (Units=1/GPa)
#
#
# Indices 1 2 3 4 5 6 
#
# 1 0.011144 -0.002038 -0.002267 0.000000 0.000000 0.000000
# 2 -0.002038 0.012511 -0.004877 0.000000 0.000000 0.000000
# 3 -0.002267 -0.004877 0.013223 0.000000 0.000000 0.000000
# 4 0.000000 0.000000 0.000000 0.028854 0.000000 0.000000
# 5 0.000000 0.000000 0.000000 0.000000 0.032300 0.000000
# 6 0.000000 0.000000 0.000000 0.000000 0.000000 0.022034
#
#
# Mechanical properties :
#
#
# Convention : Reuss Voigt Hill
#
# Bulk Modulus (GPa) = 54.01712 54.18970 54.10341
# Shear Modulus (GPa) = 34.57769 35.58132 35.07951
#
# Velocity S-wave (km/s) = 3.94525 4.00209 3.97377
# Velocity P-wave (km/s) = 6.71334 6.76380 6.73861
#
# Compressibility (1/GPa) = 0.01851265
#
# Stress axis : x y z
#
# Youngs Moduli (GPa) = 89.73787 79.92672 75.62678
#
# Poissons Ratio (x) = 0.16288 0.17147
# Poissons Ratio (y) = 0.18288 0.36886
# Poissons Ratio (z) = 0.20346 0.38984
#
# Static dielectric constant tensor:
#      x y z
#    x 4.070330 0.000000 0.000000 
#    y 0.000000 4.155510 0.000000 
#    z 0.000000 0.000000 4.009520 
# 
# 
# High freq. dielectric constant tensor:
#      x y z
#    x 1.887870 0.000000 0.000000 
#    y 0.000000 1.882880 0.000000 
#    z 0.000000 0.000000 1.871530 
# 
# From -- ./inp_files/4306.got.cif
#   From: 2010.03.12/outbox.cif.g09.slc.cpg/sg29_3_cif.got.tgz:4306.got - 2010.04.14 03:43:10.
