data_PCOD8169667
_publ_section_title
;
Structure prediction by ZEFSAII (Michael W. Deem and Ramdas Pophale) SiO2 
 PCOD8169667
Probable space group: P N C 2
;
_chemical_formula_sum "Si O2"
_cell_formula_units_Z 14
_cell_length_a 5.765982
_cell_length_b 19.797209
_cell_length_c 4.742420
_cell_angle_alpha 90.000000
_cell_angle_beta 90.000000
_cell_angle_gamma 90.000000
_cell_volume 541.348906
_symmetry_space_group_name_H-M "P N C 2"
_symmetry_group_IT_number 30
_symmetry_cell_setting 'orthorhombic'
loop_
_space_group_symop_operation_xyz
x,y,z
-x,-y,z
-x,1/2+y,1/2+z
x,1/2-y,1/2+z
loop_
_atom_site_type_symbol
_atom_site_label
_atom_site_fract_x
_atom_site_fract_y
_atom_site_fract_z
Si Si1 0.500000 0.500000 0.508491
Si Si2 0.135547 0.403979 0.253534
Si Si3 0.821348 0.105484 0.285206
Si Si4 0.545370 0.704450 0.952327
O O1 0.301950 0.466044 0.322235
O O2 0.393487 0.559400 0.694821
O O3 0.996532 0.376492 0.528141
O O4 0.262726 0.344905 0.079911
O O5 0.956283 0.434717 0.028362
O O6 0.710936 0.170764 0.445042
O O7 0.570811 0.725411 0.624407
#
# Coordination Sequence:
#
# PCOD8169667 Si02
#       4
#     2   4   4   4
#     4  12  28  50  76 112 154 186 246 308 364 444
#     4  12  28  48  76 109 146 195 243 301 372 435
#     4  12  28  48  76 109 146 195 243 301 372 435
#     4  12  27  49  74 107 149 192 248 304 356 434
#
# _framework density 25.861329999999999
#
# number of rings (size 3 to 8) (size 9 to 14) (size 15 to 20)
#    0.000    0.000    0.000    9.429    0.000   24.000 
#    0.000    0.000    0.000    0.000    0.000    0.000 
#    0.000    0.000    0.000    0.000    0.000    0.000 
#
# Total GULP energy -173516.027063 kJ/mol
# GULP energy per Si atom -12394.001933 kJ/mol
# Density = 2.580247 g / cm^3
# Si number density = 25.861330 Si / 1000 Ang^3
#
#
#
# Elastic Constant Matrix: (Units=GPa)
#
#
# Indices 1 2 3 4 5 6 
#
# 1 122.1808 34.0379 60.6536 0.0000 0.0000 0.0000
# 2 34.0379 89.0804 32.1540 0.0000 0.0000 0.0000
# 3 60.6536 32.1540 155.3599 0.0000 0.0000 0.0000
# 4 0.0000 0.0000 0.0000 23.3569 0.0000 0.0000
# 5 0.0000 0.0000 0.0000 0.0000 49.8175 0.0000
# 6 0.0000 0.0000 0.0000 0.0000 0.0000 23.6621
#
#
#
# Elastic Compliance Matrix: (Units=1/GPa)
#
#
# Indices 1 2 3 4 5 6 
#
# 1 0.010764 -0.002806 -0.003622 0.000000 0.000000 0.000000
# 2 -0.002806 0.012863 -0.001567 0.000000 0.000000 0.000000
# 3 -0.003622 -0.001567 0.008175 0.000000 0.000000 0.000000
# 4 0.000000 0.000000 0.000000 0.042814 0.000000 0.000000
# 5 0.000000 0.000000 0.000000 0.000000 0.020073 0.000000
# 6 0.000000 0.000000 0.000000 0.000000 0.000000 0.042262
#
#
# Mechanical properties :
#
#
# Convention : Reuss Voigt Hill
#
# Bulk Modulus (GPa) = 63.23585 68.92358 66.07972
# Shear Modulus (GPa) = 31.60328 35.35232 33.47780
#
# Velocity S-wave (km/s) = 3.49954 3.70130 3.60184
# Velocity P-wave (km/s) = 6.39015 6.70636 6.55016
#
# Compressibility (1/GPa) = 0.01581381
#
# Stress axis : x y z
#
# Youngs Moduli (GPa) = 92.90104 77.73950 122.32559
#
# Poissons Ratio (x) = 0.21812 0.44303
# Poissons Ratio (y) = 0.26066 0.19167
# Poissons Ratio (z) = 0.33646 0.12181
#
# Static dielectric constant tensor:
#      x y z
#    x 5.054300 0.000000 0.000000 
#    y 0.000000 4.435610 0.000000 
#    z 0.000000 0.000000 5.028960 
# 
# 
# High freq. dielectric constant tensor:
#      x y z
#    x 2.050980 0.000000 0.000000 
#    y 0.000000 2.028980 0.000000 
#    z 0.000000 0.000000 2.058950 
# 
# From -- ./inp_files/103.got.cif
#   From: 2010.03.12/outbox.cif.g09.slc.cpg/sg30_1_cif.got.tgz:103.got - 2010.04.14 01:38:02.
