data_PCOD8169155
_publ_section_title
;
Structure prediction by ZEFSAII (Michael W. Deem and Ramdas Pophale) SiO2 
 PCOD8169155
Probable space group: P C A 21
;
_chemical_formula_sum "Si O2"
_cell_formula_units_Z 24
_cell_length_a 9.206926
_cell_length_b 15.038828
_cell_length_c 8.286940
_cell_angle_alpha 90.000000
_cell_angle_beta 90.000000
_cell_angle_gamma 90.000000
_cell_volume 1147.421120
_symmetry_space_group_name_H-M "P C A 21"
_symmetry_group_IT_number 29
_symmetry_cell_setting 'orthorhombic'
loop_
_space_group_symop_operation_xyz
x,y,z
-x,-y,1/2+z
1/2-x,y,1/2+z
1/2+x,-y,z
loop_
_atom_site_type_symbol
_atom_site_label
_atom_site_fract_x
_atom_site_fract_y
_atom_site_fract_z
Si Si1 0.099049 0.250140 0.248620
Si Si2 0.141588 0.437071 0.103030
Si Si3 0.078040 0.907387 0.629427
Si Si4 0.085793 0.229211 0.626731
Si Si5 0.446534 0.416557 0.238003
Si Si6 0.099531 0.930362 0.250260
O O1 0.074582 0.350026 0.186804
O O2 0.094280 0.252326 0.439951
O O3 0.253059 0.209949 0.192483
O O4 0.968763 0.192015 0.176199
O O5 0.315191 0.437915 0.115707
O O6 0.084259 0.525135 0.190595
O O7 0.101894 0.439095 0.917083
O O8 0.080779 0.914889 0.438470
O O9 0.232697 0.928397 0.705504
O O10 0.959986 0.973356 0.704549
O O11 0.014058 0.312180 0.722254
O O12 0.987152 0.143264 0.649871
#
# Coordination Sequence:
#
# PCOD8169155 Si02
#       6
#     4   4   4   4   4   4
#     4  11  22  40  63  90 121 159 200 246 298 355
#     4  11  22  39  61  89 121 159 201 248 299 355
#     4  12  25  43  64  91 122 158 199 246 297 354
#     4  11  22  40  63  90 121 159 200 246 298 355
#     4  11  22  39  61  89 121 159 201 248 299 355
#     4  12  25  43  64  91 122 158 199 246 297 354
#
# _framework density 20.91647
#
# number of rings (size 3 to 8) (size 9 to 14) (size 15 to 20)
#    0.000    0.667    0.000   12.000    0.000    1.333 
#    0.000    6.667    0.000    0.000    0.000    0.000 
#    0.000    0.000    0.000    0.000    0.000    0.000 
#
# Total GULP energy -297786.839430 kJ/mol
# GULP energy per Si atom -12407.784976 kJ/mol
# Density = 2.086886 g / cm^3
# Si number density = 20.916470 Si / 1000 Ang^3
#
#
#
# Elastic Constant Matrix: (Units=GPa)
#
#
# Indices 1 2 3 4 5 6 
#
# 1 81.6616 25.1596 3.8761 0.0000 0.0000 0.0000
# 2 25.1596 53.4637 10.8734 0.0000 0.0000 0.0000
# 3 3.8761 10.8734 99.2699 0.0000 0.0000 0.0000
# 4 0.0000 0.0000 0.0000 36.9836 0.0000 0.0000
# 5 0.0000 0.0000 0.0000 0.0000 35.3015 0.0000
# 6 0.0000 0.0000 0.0000 0.0000 0.0000 44.0465
#
#
#
# Elastic Compliance Matrix: (Units=1/GPa)
#
#
# Indices 1 2 3 4 5 6 
#
# 1 0.014325 -0.006779 0.000183 0.000000 0.000000 0.000000
# 2 -0.006779 0.022338 -0.002182 0.000000 0.000000 0.000000
# 3 0.000183 -0.002182 0.010305 0.000000 0.000000 0.000000
# 4 0.000000 0.000000 0.000000 0.027039 0.000000 0.000000
# 5 0.000000 0.000000 0.000000 0.000000 0.028327 0.000000
# 6 0.000000 0.000000 0.000000 0.000000 0.000000 0.022703
#
#
# Mechanical properties :
#
#
# Convention : Reuss Voigt Hill
#
# Bulk Modulus (GPa) = 33.99781 34.91259 34.45520
# Shear Modulus (GPa) = 32.80870 36.23205 34.52037
#
# Velocity S-wave (km/s) = 3.96480 4.16652 4.06691
# Velocity P-wave (km/s) = 6.10319 6.31460 6.20979
#
# Compressibility (1/GPa) = 0.02941366
#
# Stress axis : x y z
#
# Youngs Moduli (GPa) = 69.80574 44.76655 97.03646
#
# Poissons Ratio (x) = 0.30346 -0.01777
# Poissons Ratio (y) = 0.47319 0.21174
# Poissons Ratio (z) = -0.01278 0.09768
#
# Static dielectric constant tensor:
#      x y z
#    x 3.595320 0.000000 0.000000 
#    y 0.000000 4.813300 0.000000 
#    z 0.000000 0.000000 4.014340 
# 
# 
# High freq. dielectric constant tensor:
#      x y z
#    x 1.812830 0.000000 0.000000 
#    y 0.000000 1.831550 0.000000 
#    z 0.000000 0.000000 1.843990 
# 
# From -- ./inp_files/1178.got.cif
#   From: 2010.03.12/outbox.cif.g09.slc.cpg/sg29_1_cif.got.tgz:1178.got - 2010.04.14 03:43:10.
