data_PCOD8169655
_publ_section_title
;
Structure prediction by ZEFSAII (Michael W. Deem and Ramdas Pophale) SiO2 
 PCOD8169655
Probable space group: P N C 2
;
_chemical_formula_sum "Si O2"
_cell_formula_units_Z 24
_cell_length_a 11.182475
_cell_length_b 18.574156
_cell_length_c 4.892796
_cell_angle_alpha 90.000000
_cell_angle_beta 90.000000
_cell_angle_gamma 90.000000
_cell_volume 1016.258365
_symmetry_space_group_name_H-M "P N C 2"
_symmetry_group_IT_number 30
_symmetry_cell_setting 'orthorhombic'
loop_
_space_group_symop_operation_xyz
x,y,z
-x,-y,z
-x,1/2+y,1/2+z
x,1/2-y,1/2+z
loop_
_atom_site_type_symbol
_atom_site_label
_atom_site_fract_x
_atom_site_fract_y
_atom_site_fract_z
Si Si1 0.373465 0.029003 0.012530
Si Si2 0.802797 0.407898 0.355505
Si Si3 0.139349 0.202078 0.461217
Si Si4 0.380797 0.797420 0.612022
Si Si5 0.373908 0.124952 0.535066
Si Si6 0.958009 0.422515 0.844181
O O1 0.393841 0.063547 0.308922
O O2 0.500000 0.000000 0.901643
O O3 0.319781 0.087556 0.804231
O O4 0.280775 0.963908 0.016523
O O5 0.730260 0.344267 0.211154
O O6 0.887684 0.380525 0.601690
O O7 0.879762 0.441631 0.110889
O O8 0.105666 0.235034 0.752250
O O9 0.280740 0.184886 0.432713
O O10 0.068565 0.128022 0.422896
O O11 0.375589 0.775019 0.294306
O O12 0.503542 0.840310 0.641116
O O13 0.000000 0.500000 0.728025
#
# Coordination Sequence:
#
# PCOD8169655 Si02
#       6
#     4   4   4   4   4   4
#     4  12  24  42  72 105 142 183 231 297 368 441
#     4  12  26  45  71 105 139 185 237 295 373 432
#     4  12  26  47  74 105 141 196 250 303 368 442
#     4  12  26  44  68 101 145 189 231 288 360 440
#     4  12  25  45  71 104 146 183 238 300 363 439
#     4  12  27  48  74 104 145 190 250 311 368 437
#
# _framework density 23.616042
#
# number of rings (size 3 to 8) (size 9 to 14) (size 15 to 20)
#    0.000    0.000    1.667    9.000    2.333    4.000 
#    0.000    0.000    0.000    0.000    0.000    0.000 
#    0.000    0.000    0.000    0.000    0.000    0.000 
#
# Total GULP energy -297713.292252 kJ/mol
# GULP energy per Si atom -12404.720510 kJ/mol
# Density = 2.356229 g / cm^3
# Si number density = 23.616042 Si / 1000 Ang^3
#
#
#
# Elastic Constant Matrix: (Units=GPa)
#
#
# Indices 1 2 3 4 5 6 
#
# 1 103.5546 36.2474 36.0543 0.0000 0.0000 0.0000
# 2 36.2474 99.9244 20.0366 0.0000 0.0000 0.0000
# 3 36.0543 20.0366 120.3597 0.0000 0.0000 0.0000
# 4 0.0000 0.0000 0.0000 46.8424 0.0000 0.0000
# 5 0.0000 0.0000 0.0000 0.0000 40.5372 0.0000
# 6 0.0000 0.0000 0.0000 0.0000 0.0000 30.0285
#
#
#
# Elastic Compliance Matrix: (Units=1/GPa)
#
#
# Indices 1 2 3 4 5 6 
#
# 1 0.012007 -0.003760 -0.002971 0.000000 0.000000 0.000000
# 2 -0.003760 0.011530 -0.000793 0.000000 0.000000 0.000000
# 3 -0.002971 -0.000793 0.009330 0.000000 0.000000 0.000000
# 4 0.000000 0.000000 0.000000 0.021348 0.000000 0.000000
# 5 0.000000 0.000000 0.000000 0.000000 0.024669 0.000000
# 6 0.000000 0.000000 0.000000 0.000000 0.000000 0.033302
#
#
# Mechanical properties :
#
#
# Convention : Reuss Voigt Hill
#
# Bulk Modulus (GPa) = 56.11631 56.50172 56.30901
# Shear Modulus (GPa) = 37.54467 38.91498 38.22983
#
# Velocity S-wave (km/s) = 3.99155 4.06374 4.02781
# Velocity P-wave (km/s) = 6.71244 6.78201 6.74732
#
# Compressibility (1/GPa) = 0.01782013
#
# Stress axis : x y z
#
# Youngs Moduli (GPa) = 83.28355 86.72652 107.17625
#
# Poissons Ratio (x) = 0.32608 0.31841
# Poissons Ratio (y) = 0.31313 0.08502
# Poissons Ratio (z) = 0.24743 0.06879
#
# Static dielectric constant tensor:
#      x y z
#    x 4.321440 0.000000 0.000000 
#    y 0.000000 4.116320 0.000000 
#    z 0.000000 0.000000 4.355670 
# 
# 
# High freq. dielectric constant tensor:
#      x y z
#    x 1.942080 0.000000 0.000000 
#    y 0.000000 1.935700 0.000000 
#    z 0.000000 0.000000 1.952600 
# 
# From -- ./inp_files/702.got.cif
#   From: 2010.03.12/outbox.cif.g09.slc.cpg/sg30_1_cif.got.tgz:702.got - 2010.04.14 01:38:02.
