data_PCOD8169179
_publ_section_title
;
Structure prediction by ZEFSAII (Michael W. Deem and Ramdas Pophale) SiO2 
 PCOD8169179
Probable space group: P C A 21
;
_chemical_formula_sum "Si O2"
_cell_formula_units_Z 32
_cell_length_a 9.089054
_cell_length_b 20.281597
_cell_length_c 8.630850
_cell_angle_alpha 90.000000
_cell_angle_beta 90.000000
_cell_angle_gamma 90.000000
_cell_volume 1591.015466
_symmetry_space_group_name_H-M "P C A 21"
_symmetry_group_IT_number 29
_symmetry_cell_setting 'orthorhombic'
loop_
_space_group_symop_operation_xyz
x,y,z
-x,-y,1/2+z
1/2-x,y,1/2+z
1/2+x,-y,z
loop_
_atom_site_type_symbol
_atom_site_label
_atom_site_fract_x
_atom_site_fract_y
_atom_site_fract_z
Si Si1 0.440066 0.823807 0.360180
Si Si2 0.365921 0.443633 0.813126
Si Si3 0.365921 0.056367 0.813126
Si Si4 0.559934 0.323807 0.860180
Si Si5 0.555265 0.942842 0.955427
Si Si6 0.641209 0.324025 0.508157
Si Si7 0.555265 0.557158 0.955427
Si Si8 0.641209 0.175975 0.508157
O O1 0.575782 0.873526 0.376930
O O2 0.497357 0.750000 0.398461
O O3 0.371278 0.827419 0.190994
O O4 0.308616 0.845651 0.473773
O O5 0.424218 0.373526 0.876930
O O6 0.394510 0.452976 0.631766
O O7 0.441549 0.500456 0.912237
O O8 0.192127 0.446165 0.839530
O O9 0.394510 0.047024 0.631766
O O10 0.192127 0.053835 0.839529
O O11 0.441548 0.999544 0.912236
O O12 0.628722 0.327419 0.690994
O O13 0.691383 0.345651 0.973773
O O14 0.475816 0.872710 0.929183
O O15 0.524184 0.372711 0.429183
O O16 0.611248 0.250000 0.444413
#
# Coordination Sequence:
#
# PCOD8169179 Si02
#       8
#     4   4   4   4   4   4   4   4
#     4   9  19  36  57  81 109 142 180 222 269 321
#     4  11  23  38  57  81 111 145 183 227 274 325
#     4  11  23  38  57  81 111 145 183 227 274 325
#     4   9  19  36  57  81 109 142 180 222 269 321
#     4  11  23  38  57  81 111 145 183 227 274 325
#     4   9  19  36  57  81 109 142 180 222 269 321
#     4  11  23  38  57  81 111 145 183 227 274 325
#     4   9  19  36  57  81 109 142 180 222 269 321
#
# _framework density 20.112940999999999
#
# number of rings (size 3 to 8) (size 9 to 14) (size 15 to 20)
#    0.000    2.000    0.000    3.000    0.000    9.000 
#    0.000    0.000    0.000    0.000    0.000    0.000 
#    0.000    0.000    0.000    0.000    0.000    0.000 
#
# Total GULP energy -396899.926931 kJ/mol
# GULP energy per Si atom -12403.122717 kJ/mol
# Density = 2.006716 g / cm^3
# Si number density = 20.112941 Si / 1000 Ang^3
#
#
#
# Elastic Constant Matrix: (Units=GPa)
#
#
# Indices 1 2 3 4 5 6 
#
# 1 58.5121 29.9509 -3.4750 0.0000 0.0000 0.0000
# 2 29.9509 98.7237 20.7950 0.0000 0.0000 0.0000
# 3 -3.4750 20.7950 28.7999 0.0000 0.0000 0.0000
# 4 0.0000 0.0000 0.0000 27.8505 0.0000 0.0000
# 5 0.0000 0.0000 0.0000 0.0000 35.1296 0.0000
# 6 0.0000 0.0000 0.0000 0.0000 0.0000 38.4759
#
#
#
# Elastic Compliance Matrix: (Units=1/GPa)
#
#
# Indices 1 2 3 4 5 6 
#
# 1 0.021975 -0.008521 0.008804 0.000000 0.000000 0.000000
# 2 -0.008521 0.015251 -0.012040 0.000000 0.000000 0.000000
# 3 0.008804 -0.012040 0.044478 0.000000 0.000000 0.000000
# 4 0.000000 0.000000 0.000000 0.035906 0.000000 0.000000
# 5 0.000000 0.000000 0.000000 0.000000 0.028466 0.000000
# 6 0.000000 0.000000 0.000000 0.000000 0.000000 0.025990
#
#
# Mechanical properties :
#
#
# Convention : Reuss Voigt Hill
#
# Bulk Modulus (GPa) = 17.18503 31.17529 24.18016
# Shear Modulus (GPa) = 23.25831 29.54217 26.40024
#
# Velocity S-wave (km/s) = 3.40426 3.83667 3.62691
# Velocity P-wave (km/s) = 4.90049 5.92963 5.43945
#
# Compressibility (1/GPa) = 0.05819018
#
# Stress axis : x y z
#
# Youngs Moduli (GPa) = 45.50560 65.57114 22.48298
#
# Poissons Ratio (x) = 0.55876 -0.19795
# Poissons Ratio (y) = 0.38777 0.27069
# Poissons Ratio (z) = -0.40065 0.78947
#
# Static dielectric constant tensor:
#      x y z
#    x 3.605800 0.000000 0.000000 
#    y 0.000000 4.121820 0.000000 
#    z 0.000000 0.000000 3.568350 
# 
# 
# High freq. dielectric constant tensor:
#      x y z
#    x 1.780120 0.000000 0.000000 
#    y 0.000000 1.800140 0.000000 
#    z 0.000000 0.000000 1.783540 
# 
# From -- ./inp_files/1258.got.cif
#   From: 2010.03.12/outbox.cif.g09.slc.cpg/sg29_1_cif.got.tgz:1258.got - 2010.04.14 03:43:10.
