data_PCOD8169183
_publ_section_title
;
Structure prediction by ZEFSAII (Michael W. Deem and Ramdas Pophale) SiO2 
 PCOD8169183
Probable space group: P C A 21
;
_chemical_formula_sum "Si O2"
_cell_formula_units_Z 24
_cell_length_a 13.690794
_cell_length_b 9.303435
_cell_length_c 8.925149
_cell_angle_alpha 90.000000
_cell_angle_beta 90.000000
_cell_angle_gamma 90.000000
_cell_volume 1136.808831
_symmetry_space_group_name_H-M "P C A 21"
_symmetry_group_IT_number 29
_symmetry_cell_setting 'orthorhombic'
loop_
_space_group_symop_operation_xyz
x,y,z
-x,-y,1/2+z
1/2-x,y,1/2+z
1/2+x,-y,z
loop_
_atom_site_type_symbol
_atom_site_label
_atom_site_fract_x
_atom_site_fract_y
_atom_site_fract_z
Si Si1 0.670353 0.023817 0.045800
Si Si2 0.518935 0.807766 0.591730
Si Si3 0.132716 0.401871 0.769954
Si Si4 0.178439 0.307986 0.097904
Si Si5 0.011721 0.683000 0.769891
Si Si6 0.640309 0.061083 0.694078
O O1 0.581228 0.108901 0.120950
O O2 0.763734 0.112756 0.105199
O O3 0.677154 0.864311 0.114870
O O4 0.663192 0.022050 0.866572
O O5 0.537902 0.690802 0.721390
O O6 0.522324 0.727234 0.434401
O O7 0.606164 0.922187 0.601475
O O8 0.221923 0.380083 0.655174
O O9 0.097417 0.565696 0.777031
O O10 0.172392 0.351124 0.927178
O O11 0.084230 0.372463 0.183726
O O12 0.057613 0.817965 0.682331
#
# Coordination Sequence:
#
# PCOD8169183 Si02
#       6
#     4   4   4   4   4   4
#     4  11  23  40  70 101 128 178 225 278 333 391
#     4  11  23  44  68  99 137 177 230 281 333 404
#     4  12  26  44  69 101 137 181 225 277 349 412
#     4  12  23  43  71  93 134 181 224 277 342 402
#     4  11  27  44  67 103 138 179 225 283 343 407
#     4  11  24  41  67  99 132 172 229 278 328 400
#
# _framework density 21.111730000000001
#
# number of rings (size 3 to 8) (size 9 to 14) (size 15 to 20)
#    0.000    0.667    5.000    2.000    2.333    5.333 
#    0.000    0.000    0.000    0.000    0.000    0.000 
#    0.000    0.000    0.000    0.000    0.000    0.000 
#
# Total GULP energy -297676.752004 kJ/mol
# GULP energy per Si atom -12403.198000 kJ/mol
# Density = 2.106368 g / cm^3
# Si number density = 21.111730 Si / 1000 Ang^3
#
#
#
# Elastic Constant Matrix: (Units=GPa)
#
#
# Indices 1 2 3 4 5 6 
#
# 1 132.2436 33.2293 66.4313 0.0000 0.0000 0.0000
# 2 33.2293 79.1664 50.5667 0.0000 0.0000 0.0000
# 3 66.4313 50.5667 115.7834 0.0000 0.0000 0.0000
# 4 0.0000 0.0000 0.0000 -7.9435 0.0000 0.0000
# 5 0.0000 0.0000 0.0000 0.0000 47.0294 0.0000
# 6 0.0000 0.0000 0.0000 0.0000 0.0000 37.5568
#
#
#
# Elastic Compliance Matrix: (Units=1/GPa)
#
#
# Indices 1 2 3 4 5 6 
#
# 1 0.010659 -0.000787 -0.005772 0.000000 0.000000 0.000000
# 2 -0.000787 0.017577 -0.007225 0.000000 0.000000 0.000000
# 3 -0.005772 -0.007225 0.015104 0.000000 0.000000 0.000000
# 4 0.000000 0.000000 0.000000 -0.125889 0.000000 0.000000
# 5 0.000000 0.000000 0.000000 0.000000 0.021263 0.000000
# 6 0.000000 0.000000 0.000000 0.000000 0.000000 0.026626
#
#
# Mechanical properties :
#
#
# Convention : Reuss Voigt Hill
#
# Bulk Modulus (GPa) = 63.40400 69.73868 66.57134
# Shear Modulus (GPa) = -2725.41816 27.12626 -1349.14595
#
# Velocity S-wave (km/s) = -35.96877 3.58843 -25.30687
# Velocity P-wave (km/s) = 41.16923 7.09041 28.67605
#
# Compressibility (1/GPa) = 0.01577187
#
# Stress axis : x y z
#
# Youngs Moduli (GPa) = 93.81679 56.89320 66.20883
#
# Poissons Ratio (x) = 0.04479 0.38215
# Poissons Ratio (y) = 0.07387 0.47834
# Poissons Ratio (z) = 0.54150 0.41104
#
# Static dielectric constant tensor:
#      x y z
#    x 3.991340 0.000000 0.000000 
#    y 0.000000 3.866110 0.000000 
#    z 0.000000 0.000000 3.744910 
# 
# 
# High freq. dielectric constant tensor:
#      x y z
#    x 1.844520 0.000000 0.000000 
#    y 0.000000 1.822330 0.000000 
#    z 0.000000 0.000000 1.830030 
# 
# From -- ./inp_files/1393.got.cif
#   From: 2010.03.12/outbox.cif.g09.slc.cpg/sg29_1_cif.got.tgz:1393.got - 2010.04.14 03:43:10.
