data_PCOD8169128
_publ_section_title
;
Structure prediction by ZEFSAII (Michael W. Deem and Ramdas Pophale) SiO2 
 PCOD8169128
Probable space group: P C A 21
;
_chemical_formula_sum "Si O2"
_cell_formula_units_Z 24
_cell_length_a 17.582043
_cell_length_b 13.542745
_cell_length_c 4.987536
_cell_angle_alpha 90.000000
_cell_angle_beta 90.000000
_cell_angle_gamma 90.000000
_cell_volume 1187.577833
_symmetry_space_group_name_H-M "P C A 21"
_symmetry_group_IT_number 29
_symmetry_cell_setting 'orthorhombic'
loop_
_space_group_symop_operation_xyz
x,y,z
-x,-y,1/2+z
1/2-x,y,1/2+z
1/2+x,-y,z
loop_
_atom_site_type_symbol
_atom_site_label
_atom_site_fract_x
_atom_site_fract_y
_atom_site_fract_z
Si Si1 0.534388 0.948744 0.119390
Si Si2 0.151730 0.776229 0.069567
Si Si3 0.796896 0.010423 0.640873
Si Si4 0.551924 0.241746 0.581790
Si Si5 0.204972 0.566850 0.981472
Si Si6 0.035616 0.545503 0.805939
O O1 0.516784 0.835474 0.039545
O O2 0.484674 0.979346 0.374736
O O3 0.622707 0.958651 0.192156
O O4 0.197469 0.870904 0.171749
O O5 0.093421 0.738978 0.299204
O O6 0.207305 0.686357 0.992558
O O7 0.108110 0.807241 0.798718
O O8 0.763784 0.974873 0.359285
O O9 0.520525 0.344703 0.696357
O O10 0.232569 0.527610 0.269113
O O11 0.121962 0.527790 0.902779
O O12 0.018260 0.470423 0.563376
#
# Coordination Sequence:
#
# PCOD8169128 Si02
#       6
#     4   4   4   4   4   4
#     4  12  22  40  61  85 120 166 214 241 295 373
#     4  11  20  35  57  88 125 155 193 237 314 380
#     4  12  23  35  55  86 126 161 200 253 301 352
#     4  11  21  38  62  88 115 162 207 251 296 362
#     4  11  21  36  58  89 124 156 188 246 315 383
#     4  11  23  40  63  90 122 158 208 258 311 360
#
# _framework density 20.209202999999999
#
# number of rings (size 3 to 8) (size 9 to 14) (size 15 to 20)
#    0.000    0.667    3.333    8.000    0.000    0.000 
#    0.000    0.000    0.000    6.000    0.000    0.000 
#    0.000    0.000    0.000    0.000    0.000    0.000 
#
# Total GULP energy -297666.511441 kJ/mol
# GULP energy per Si atom -12402.771310 kJ/mol
# Density = 2.016321 g / cm^3
# Si number density = 20.209203 Si / 1000 Ang^3
#
#
#
# Elastic Constant Matrix: (Units=GPa)
#
#
# Indices 1 2 3 4 5 6 
#
# 1 90.9764 30.5605 24.5909 0.0000 0.0000 0.0000
# 2 30.5605 61.7169 29.9901 0.0000 0.0000 0.0000
# 3 24.5909 29.9901 126.5819 0.0000 0.0000 0.0000
# 4 0.0000 0.0000 0.0000 20.8538 0.0000 0.0000
# 5 0.0000 0.0000 0.0000 0.0000 47.0031 0.0000
# 6 0.0000 0.0000 0.0000 0.0000 0.0000 31.3742
#
#
#
# Elastic Compliance Matrix: (Units=1/GPa)
#
#
# Indices 1 2 3 4 5 6 
#
# 1 0.013334 -0.006039 -0.001160 0.000000 0.000000 0.000000
# 2 -0.006039 0.021046 -0.003813 0.000000 0.000000 0.000000
# 3 -0.001160 -0.003813 0.009029 0.000000 0.000000 0.000000
# 4 0.000000 0.000000 0.000000 0.047953 0.000000 0.000000
# 5 0.000000 0.000000 0.000000 0.000000 0.021275 0.000000
# 6 0.000000 0.000000 0.000000 0.000000 0.000000 0.031873
#
#
# Mechanical properties :
#
#
# Convention : Reuss Voigt Hill
#
# Bulk Modulus (GPa) = 46.76102 49.95091 48.35596
# Shear Modulus (GPa) = 28.79147 32.78846 30.78996
#
# Velocity S-wave (km/s) = 3.77858 4.03234 3.90752
# Velocity P-wave (km/s) = 6.49812 6.81544 6.65867
#
# Compressibility (1/GPa) = 0.02138533
#
# Stress axis : x y z
#
# Youngs Moduli (GPa) = 74.99654 47.51413 110.75775
#
# Poissons Ratio (x) = 0.28694 0.12843
# Poissons Ratio (y) = 0.45291 0.42234
# Poissons Ratio (z) = 0.08696 0.18118
#
# Static dielectric constant tensor:
#      x y z
#    x 3.571870 0.000000 0.000000 
#    y 0.000000 3.343900 0.000000 
#    z 0.000000 0.000000 3.920440 
# 
# 
# High freq. dielectric constant tensor:
#      x y z
#    x 1.782810 0.000000 0.000000 
#    y 0.000000 1.748280 0.000000 
#    z 0.000000 0.000000 1.820070 
# 
# From -- ./inp_files/209.got.cif
#   From: 2010.03.12/outbox.cif.g09.slc.cpg/sg29_1_cif.got.tgz:209.got - 2010.04.14 03:43:10.
