data_PCOD8169298
_publ_section_title
;
Structure prediction by ZEFSAII (Michael W. Deem and Ramdas Pophale) SiO2 
 PCOD8169298
Probable space group: P C A 21
;
_chemical_formula_sum "Si O2"
_cell_formula_units_Z 24
_cell_length_a 8.942128
_cell_length_b 12.930377
_cell_length_c 9.054952
_cell_angle_alpha 90.000000
_cell_angle_beta 90.000000
_cell_angle_gamma 90.000000
_cell_volume 1046.979606
_symmetry_space_group_name_H-M "P C A 21"
_symmetry_group_IT_number 29
_symmetry_cell_setting 'orthorhombic'
loop_
_space_group_symop_operation_xyz
x,y,z
-x,-y,1/2+z
1/2-x,y,1/2+z
1/2+x,-y,z
loop_
_atom_site_type_symbol
_atom_site_label
_atom_site_fract_x
_atom_site_fract_y
_atom_site_fract_z
Si Si1 0.397556 0.552092 0.060960
Si Si2 0.671020 0.558642 0.863303
Si Si3 0.889880 0.213077 0.068499
Si Si4 0.419688 0.093257 0.789639
Si Si5 0.922018 0.104354 0.585534
Si Si6 0.881707 0.789383 0.305834
O O1 0.389636 0.501886 0.221500
O O2 0.335189 0.668346 0.075167
O O3 0.568362 0.554634 0.009176
O O4 0.322066 0.490540 0.925360
O O5 0.692097 0.676209 0.810521
O O6 0.742365 0.145128 0.048834
O O7 0.981603 0.183633 0.215155
O O8 0.998341 0.191643 0.932713
O O9 0.251683 0.129447 0.822125
O O10 0.409234 0.990878 0.694711
O O11 0.500243 0.061477 0.939744
O O12 0.028234 0.194405 0.652858
#
# Coordination Sequence:
#
# PCOD8169298 Si02
#       6
#     4   4   4   4   4   4
#     4  11  27  45  73 108 150 196 248 303 369 440
#     4  11  27  45  73 108 150 196 248 303 369 440
#     4  11  27  46  74 109 143 195 241 300 369 434
#     4  12  27  48  76 105 148 189 245 304 367 441
#     4  12  27  48  76 105 148 189 245 304 367 441
#     4  11  27  46  74 109 143 195 241 300 369 434
#
# _framework density 22.923082999999998
#
# number of rings (size 3 to 8) (size 9 to 14) (size 15 to 20)
#    0.000    0.667    0.000    5.000   18.667    4.000 
#    0.000    1.667    0.000    0.000    0.000    0.000 
#    0.000    0.000    0.000    0.000    0.000    0.000 
#
# Total GULP energy -297730.383346 kJ/mol
# GULP energy per Si atom -12405.432639 kJ/mol
# Density = 2.287091 g / cm^3
# Si number density = 22.923083 Si / 1000 Ang^3
#
#
#
# Elastic Constant Matrix: (Units=GPa)
#
#
# Indices 1 2 3 4 5 6 
#
# 1 113.9688 50.3211 28.9126 0.0000 0.0000 0.0000
# 2 50.3211 136.9429 50.7229 0.0000 0.0000 0.0000
# 3 28.9126 50.7229 115.0271 0.0000 0.0000 0.0000
# 4 0.0000 0.0000 0.0000 56.8364 0.0000 0.0000
# 5 0.0000 0.0000 0.0000 0.0000 38.2209 0.0000
# 6 0.0000 0.0000 0.0000 0.0000 0.0000 -38.5659
#
#
#
# Elastic Compliance Matrix: (Units=1/GPa)
#
#
# Indices 1 2 3 4 5 6 
#
# 1 0.010595 -0.003474 -0.001131 0.000000 0.000000 0.000000
# 2 -0.003474 0.009867 -0.003478 0.000000 0.000000 0.000000
# 3 -0.001131 -0.003478 0.010511 0.000000 0.000000 0.000000
# 4 0.000000 0.000000 0.000000 0.017594 0.000000 0.000000
# 5 0.000000 0.000000 0.000000 0.000000 0.026164 0.000000
# 6 0.000000 0.000000 0.000000 0.000000 0.000000 -0.025930
#
#
# Mechanical properties :
#
#
# Convention : Reuss Voigt Hill
#
# Bulk Modulus (GPa) = 67.53361 69.53912 68.53637
# Shear Modulus (GPa) = 71.52594 27.03045 49.27819
#
# Velocity S-wave (km/s) = 5.59199 3.43764 4.64154
# Velocity P-wave (km/s) = 8.43912 6.79399 7.66084
#
# Compressibility (1/GPa) = 0.01480744
#
# Stress axis : x y z
#
# Youngs Moduli (GPa) = 94.38102 101.34624 95.13410
#
# Poissons Ratio (x) = 0.35212 0.10761
# Poissons Ratio (y) = 0.32792 0.33085
# Poissons Ratio (z) = 0.10675 0.35246
#
# Static dielectric constant tensor:
#      x y z
#    x 4.196640 0.000000 0.000000 
#    y 0.000000 4.238020 0.000000 
#    z 0.000000 0.000000 4.644360 
# 
# 
# High freq. dielectric constant tensor:
#      x y z
#    x 1.916420 0.000000 0.000000 
#    y 0.000000 1.916950 0.000000 
#    z 0.000000 0.000000 1.919750 
# 
# From -- ./inp_files/1138.got.cif
#   From: 2010.03.12/outbox.cif.g09.slc.cpg/sg29_1_cif.got.tgz:1138.got - 2010.04.14 03:43:10.
