data_PCOD8169209
_publ_section_title
;
Structure prediction by ZEFSAII (Michael W. Deem and Ramdas Pophale) SiO2 
 PCOD8169209
Probable space group: P C A 21
;
_chemical_formula_sum "Si O2"
_cell_formula_units_Z 32
_cell_length_a 18.172325
_cell_length_b 6.313891
_cell_length_c 12.168595
_cell_angle_alpha 90.000000
_cell_angle_beta 90.000000
_cell_angle_gamma 90.000000
_cell_volume 1396.201218
_symmetry_space_group_name_H-M "P C A 21"
_symmetry_group_IT_number 29
_symmetry_cell_setting 'orthorhombic'
loop_
_space_group_symop_operation_xyz
x,y,z
-x,-y,1/2+z
1/2-x,y,1/2+z
1/2+x,-y,z
loop_
_atom_site_type_symbol
_atom_site_label
_atom_site_fract_x
_atom_site_fract_y
_atom_site_fract_z
Si Si1 0.565573 0.987314 0.068240
Si Si2 0.486885 0.683564 0.407753
Si Si3 0.312861 0.740697 0.651954
Si Si4 0.698910 0.926990 0.680029
Si Si5 0.246208 0.430812 0.328853
Si Si6 0.072322 0.770475 0.679376
Si Si7 0.633764 0.591971 0.518864
Si Si8 0.134079 0.418033 0.987023
O O1 0.490981 0.905607 0.121177
O O2 0.605712 0.150856 0.153607
O O3 0.627612 0.815162 0.037171
O O4 0.544123 0.094612 0.952725
O O5 0.469442 0.652670 0.279068
O O6 0.572880 0.662001 0.430481
O O7 0.449274 0.499424 0.479801
O O8 0.286120 0.634479 0.765752
O O9 0.312837 0.550650 0.566222
O O10 0.253933 0.916856 0.615071
O O11 0.751954 0.791812 0.762129
O O12 0.652505 0.780764 0.599879
O O13 0.635312 0.077782 0.732409
O O14 0.204940 0.433541 0.444308
O O15 0.332069 0.446616 0.364430
O O16 0.110478 0.610321 0.592257
#
# Coordination Sequence:
#
# PCOD8169209 Si02
#       8
#     4   4   4   4   4   4   4   4
#     4  11  24  46  72 105 147 195 250 306 369 454
#     4  11  25  43  73 107 145 200 241 301 376 437
#     4  11  26  44  70 105 140 190 245 304 371 440
#     4  12  25  48  70 106 147 191 247 311 370 445
#     4  12  26  44  73 104 144 194 245 309 378 438
#     4  12  26  46  75 109 153 196 252 309 374 454
#     4  12  27  47  73 111 151 191 253 311 371 453
#     4  11  23  48  68 101 145 187 241 301 367 443
#
# _framework density 22.919333999999999
#
# number of rings (size 3 to 8) (size 9 to 14) (size 15 to 20)
#    0.000    0.500    2.500    6.000    3.500    5.000 
#    2.250    0.000    0.000    0.000    0.000    0.000 
#    0.000    0.000    0.000    0.000    0.000    0.000 
#
# Total GULP energy -396523.888129 kJ/mol
# GULP energy per Si atom -12391.371504 kJ/mol
# Density = 2.286717 g / cm^3
# Si number density = 22.919334 Si / 1000 Ang^3
#
#
#
# Elastic Constant Matrix: (Units=GPa)
#
#
# Indices 1 2 3 4 5 6 
#
# 1 91.8384 41.3163 31.0357 0.0000 0.0000 0.0000
# 2 41.3163 114.1093 33.1969 0.0000 0.0000 0.0000
# 3 31.0357 33.1969 91.1416 0.0000 0.0000 0.0000
# 4 0.0000 0.0000 0.0000 31.6484 0.0000 0.0000
# 5 0.0000 0.0000 0.0000 0.0000 40.6813 0.0000
# 6 0.0000 0.0000 0.0000 0.0000 0.0000 47.7015
#
#
#
# Elastic Compliance Matrix: (Units=1/GPa)
#
#
# Indices 1 2 3 4 5 6 
#
# 1 0.013804 -0.004061 -0.003222 0.000000 0.000000 0.000000
# 2 -0.004061 0.010997 -0.002623 0.000000 0.000000 0.000000
# 3 -0.003222 -0.002623 0.013024 0.000000 0.000000 0.000000
# 4 0.000000 0.000000 0.000000 0.031597 0.000000 0.000000
# 5 0.000000 0.000000 0.000000 0.000000 0.024581 0.000000
# 6 0.000000 0.000000 0.000000 0.000000 0.000000 0.020964
#
#
# Mechanical properties :
#
#
# Convention : Reuss Voigt Hill
#
# Bulk Modulus (GPa) = 55.50876 56.46522 55.98699
# Shear Modulus (GPa) = 35.51570 36.77562 36.14566
#
# Velocity S-wave (km/s) = 3.94076 4.01005 3.97556
# Velocity P-wave (km/s) = 6.70656 6.79196 6.74939
#
# Compressibility (1/GPa) = 0.01801517
#
# Stress axis : x y z
#
# Youngs Moduli (GPa) = 72.44101 90.93483 76.78035
#
# Poissons Ratio (x) = 0.36929 0.24735
# Poissons Ratio (y) = 0.29418 0.20136
# Poissons Ratio (z) = 0.23337 0.23848
#
# Static dielectric constant tensor:
#      x y z
#    x 4.270940 0.000000 0.000000 
#    y 0.000000 4.282320 0.000000 
#    z 0.000000 0.000000 3.928150 
# 
# 
# High freq. dielectric constant tensor:
#      x y z
#    x 1.927840 0.000000 0.000000 
#    y 0.000000 1.913220 0.000000 
#    z 0.000000 0.000000 1.891340 
# 
# From -- ./inp_files/3894.got.cif
#   From: 2010.03.12/outbox.cif.g09.slc.cpg/sg29_2_cif.got.tgz:3894.got - 2010.04.14 03:43:10.
