data_PCOD8169235
_publ_section_title
;
Structure prediction by ZEFSAII (Michael W. Deem and Ramdas Pophale) SiO2 
 PCOD8169235
Probable space group: P C A 21
;
_chemical_formula_sum "Si O2"
_cell_formula_units_Z 16
_cell_length_a 15.380566
_cell_length_b 6.628121
_cell_length_c 6.721743
_cell_angle_alpha 90.000000
_cell_angle_beta 90.000000
_cell_angle_gamma 90.000000
_cell_volume 685.243066
_symmetry_space_group_name_H-M "P C A 21"
_symmetry_group_IT_number 29
_symmetry_cell_setting 'orthorhombic'
loop_
_space_group_symop_operation_xyz
x,y,z
-x,-y,1/2+z
1/2-x,y,1/2+z
1/2+x,-y,z
loop_
_atom_site_type_symbol
_atom_site_label
_atom_site_fract_x
_atom_site_fract_y
_atom_site_fract_z
Si Si1 0.171406 0.729074 0.559010
Si Si2 0.059036 0.690489 0.177679
Si Si3 0.125033 0.396332 0.838661
Si Si4 0.157118 0.961818 0.922490
O O1 0.106292 0.665965 0.387271
O O2 0.188506 0.528249 0.695855
O O3 0.125778 0.893724 0.702811
O O4 0.258823 0.826783 0.474706
O O5 0.956575 0.676688 0.207677
O O6 0.092688 0.519280 0.028748
O O7 0.082094 0.909781 0.082766
O O8 0.176930 0.200279 0.919639
#
# Coordination Sequence:
#
# PCOD8169235 Si02
#       4
#     4   4   4   4
#     4  11  24  49  65 108 147 180 248 293 357 447
#     4  11  24  46  69 106 144 183 250 291 360 438
#     4  11  26  45  77 102 145 195 231 314 364 422
#     4  11  26  44  71 106 142 190 239 300 367 435
#
# _framework density 23.349378999999999
#
# number of rings (size 3 to 8) (size 9 to 14) (size 15 to 20)
#    0.000    1.000    5.000    0.000    3.500    6.000 
#    0.000    0.000    0.000    0.000    0.000    0.000 
#    0.000    0.000    0.000    0.000    0.000    0.000 
#
# Total GULP energy -198327.611105 kJ/mol
# GULP energy per Si atom -12395.475694 kJ/mol
# Density = 2.329623 g / cm^3
# Si number density = 23.349379 Si / 1000 Ang^3
#
#
#
# Elastic Constant Matrix: (Units=GPa)
#
#
# Indices 1 2 3 4 5 6 
#
# 1 86.9004 35.5610 19.3064 0.0000 0.0000 0.0000
# 2 35.5610 165.8362 42.0878 0.0000 0.0000 0.0000
# 3 19.3064 42.0878 116.8582 0.0000 0.0000 0.0000
# 4 0.0000 0.0000 0.0000 25.4960 0.0000 0.0000
# 5 0.0000 0.0000 0.0000 0.0000 36.4433 0.0000
# 6 0.0000 0.0000 0.0000 0.0000 0.0000 27.0617
#
#
#
# Elastic Compliance Matrix: (Units=1/GPa)
#
#
# Indices 1 2 3 4 5 6 
#
# 1 0.012775 -0.002425 -0.001237 0.000000 0.000000 0.000000
# 2 -0.002425 0.007097 -0.002155 0.000000 0.000000 0.000000
# 3 -0.001237 -0.002155 0.009538 0.000000 0.000000 0.000000
# 4 0.000000 0.000000 0.000000 0.039222 0.000000 0.000000
# 5 0.000000 0.000000 0.000000 0.000000 0.027440 0.000000
# 6 0.000000 0.000000 0.000000 0.000000 0.000000 0.036953
#
#
# Mechanical properties :
#
#
# Convention : Reuss Voigt Hill
#
# Bulk Modulus (GPa) = 56.26097 62.61167 59.43632
# Shear Modulus (GPa) = 33.20391 35.97618 34.59004
#
# Velocity S-wave (km/s) = 3.77509 3.92953 3.85309
# Velocity P-wave (km/s) = 6.56882 6.88924 6.73094
#
# Compressibility (1/GPa) = 0.01777431
#
# Stress axis : x y z
#
# Youngs Moduli (GPa) = 78.27930 140.90135 104.84325
#
# Poissons Ratio (x) = 0.34174 0.12969
# Poissons Ratio (y) = 0.18986 0.22598
# Poissons Ratio (z) = 0.09683 0.30370
#
# Static dielectric constant tensor:
#      x y z
#    x 3.969250 0.000000 0.000000 
#    y 0.000000 4.371790 0.000000 
#    z 0.000000 0.000000 4.688590 
# 
# 
# High freq. dielectric constant tensor:
#      x y z
#    x 1.902270 0.000000 0.000000 
#    y 0.000000 1.925530 0.000000 
#    z 0.000000 0.000000 1.949490 
# 
# From -- ./inp_files/304.got.cif
#   From: 2010.03.12/outbox.cif.g09.slc.cpg/sg29_1_cif.got.tgz:304.got - 2010.04.14 03:43:10.
