data_PCOD8169331
_publ_section_title
;
Structure prediction by ZEFSAII (Michael W. Deem and Ramdas Pophale) SiO2 
 PCOD8169331
Probable space group: P C A 21
;
_chemical_formula_sum "Si O2"
_cell_formula_units_Z 32
_cell_length_a 11.380242
_cell_length_b 6.887683
_cell_length_c 18.018401
_cell_angle_alpha 90.000000
_cell_angle_beta 90.000000
_cell_angle_gamma 90.000000
_cell_volume 1412.345323
_symmetry_space_group_name_H-M "P C A 21"
_symmetry_group_IT_number 29
_symmetry_cell_setting 'orthorhombic'
loop_
_space_group_symop_operation_xyz
x,y,z
-x,-y,1/2+z
1/2-x,y,1/2+z
1/2+x,-y,z
loop_
_atom_site_type_symbol
_atom_site_label
_atom_site_fract_x
_atom_site_fract_y
_atom_site_fract_z
Si Si1 0.108954 0.099686 0.228000
Si Si2 0.804342 0.419885 0.536436
Si Si3 0.206743 0.378103 0.669689
Si Si4 0.252518 0.987240 0.357553
Si Si5 0.402998 0.650287 0.285502
Si Si6 0.888605 0.148501 0.991953
Si Si7 0.997170 0.157187 0.600314
Si Si8 0.098741 0.340024 0.903605
O O1 0.234399 0.190617 0.206497
O O2 0.010690 0.263438 0.238860
O O3 0.136438 0.993244 0.305779
O O4 0.071510 0.943598 0.167331
O O5 0.801816 0.554828 0.608770
O O6 0.675058 0.324976 0.533552
O O7 0.906642 0.260645 0.544642
O O8 0.822571 0.548160 0.463584
O O9 0.187250 0.550327 0.728582
O O10 0.083441 0.317631 0.633799
O O11 0.337844 0.817455 0.330849
O O12 0.209818 0.950422 0.440891
O O13 0.321163 0.190663 0.357764
O O14 0.452670 0.492953 0.344076
O O15 0.994633 0.227955 0.943458
O O16 0.931148 0.998841 0.053409
#
# Coordination Sequence:
#
# PCOD8169331 Si02
#       8
#     4   4   4   4   4   4   4   4
#     4  12  26  44  76 103 151 192 243 309 373 436
#     4  12  25  47  74 106 149 193 246 305 372 439
#     4  12  25  47  74 106 149 193 246 305 372 439
#     4  12  26  48  70 108 148 196 242 308 376 438
#     4  12  27  46  71 111 144 195 249 303 364 452
#     4  12  26  44  76 103 151 192 243 309 373 436
#     4  12  26  48  74 114 146 194 256 308 370 454
#     4  12  27  46  71 111 144 195 249 303 364 452
#
# _framework density 22.657347999999999
#
# number of rings (size 3 to 8) (size 9 to 14) (size 15 to 20)
#    0.000    0.000    2.500    7.500    7.000    0.000 
#    0.000    0.000    0.000    0.000    0.000    0.000 
#    0.000    0.000    0.000    0.000    0.000    0.000 
#
# Total GULP energy -397093.085427 kJ/mol
# GULP energy per Si atom -12409.158920 kJ/mol
# Density = 2.260578 g / cm^3
# Si number density = 22.657348 Si / 1000 Ang^3
#
#
#
# Elastic Constant Matrix: (Units=GPa)
#
#
# Indices 1 2 3 4 5 6 
#
# 1 88.6394 32.0492 22.4927 0.0000 0.0000 0.0000
# 2 32.0492 108.5209 33.7723 0.0000 0.0000 0.0000
# 3 22.4927 33.7723 87.9642 0.0000 0.0000 0.0000
# 4 0.0000 0.0000 0.0000 41.7138 0.0000 0.0000
# 5 0.0000 0.0000 0.0000 0.0000 48.4599 0.0000
# 6 0.0000 0.0000 0.0000 0.0000 0.0000 42.9129
#
#
#
# Elastic Compliance Matrix: (Units=1/GPa)
#
#
# Indices 1 2 3 4 5 6 
#
# 1 0.012962 -0.003176 -0.002095 0.000000 0.000000 0.000000
# 2 -0.003176 0.011243 -0.003505 0.000000 0.000000 0.000000
# 3 -0.002095 -0.003505 0.013249 0.000000 0.000000 0.000000
# 4 0.000000 0.000000 0.000000 0.023973 0.000000 0.000000
# 5 0.000000 0.000000 0.000000 0.000000 0.020636 0.000000
# 6 0.000000 0.000000 0.000000 0.000000 0.000000 0.023303
#
#
# Mechanical properties :
#
#
# Convention : Reuss Voigt Hill
#
# Bulk Modulus (GPa) = 50.24257 51.30588 50.77423
# Shear Modulus (GPa) = 38.59467 39.73800 39.16634
#
# Velocity S-wave (km/s) = 4.13171 4.19246 4.16220
# Velocity P-wave (km/s) = 6.70705 6.79184 6.74958
#
# Compressibility (1/GPa) = 0.01990344
#
# Stress axis : x y z
#
# Youngs Moduli (GPa) = 77.15097 88.94099 75.47467
#
# Poissons Ratio (x) = 0.28247 0.15812
# Poissons Ratio (y) = 0.24503 0.26451
# Poissons Ratio (z) = 0.16163 0.31170
#
# Static dielectric constant tensor:
#      x y z
#    x 3.997240 0.000000 0.000000 
#    y 0.000000 4.161660 0.000000 
#    z 0.000000 0.000000 4.261870 
# 
# 
# High freq. dielectric constant tensor:
#      x y z
#    x 1.896390 0.000000 0.000000 
#    y 0.000000 1.906150 0.000000 
#    z 0.000000 0.000000 1.914920 
# 
# From -- ./inp_files/5569.got.cif
#   From: 2010.03.12/outbox.cif.g09.slc.cpg/sg29_3_cif.got.tgz:5569.got - 2010.04.14 03:43:10.
