data_PCOD8169921
_publ_section_title
;
Structure prediction by ZEFSAII (Michael W. Deem and Ramdas Pophale) SiO2 
 PCOD8169921
Probable space group: P M N 21
;
_chemical_formula_sum "Si O2"
_cell_formula_units_Z 32
_cell_length_a 8.659027
_cell_length_b 16.224764
_cell_length_c 11.074193
_cell_angle_alpha 90.000000
_cell_angle_beta 90.000000
_cell_angle_gamma 90.000000
_cell_volume 1555.820789
_symmetry_space_group_name_H-M "P M N 21"
_symmetry_group_IT_number 31
_symmetry_cell_setting 'orthorhombic'
loop_
_space_group_symop_operation_xyz
x,y,z
1/2-x,-y,1/2+z
-x,y,z
1/2+x,-y,1/2+z
loop_
_atom_site_type_symbol
_atom_site_label
_atom_site_fract_x
_atom_site_fract_y
_atom_site_fract_z
Si Si1 0.180098 0.167692 0.916440
Si Si2 0.824868 0.167746 0.576651
Si Si3 0.818963 0.459977 0.676681
Si Si4 0.823885 0.027855 0.744326
Si Si5 0.676825 0.144654 0.164500
Si Si6 0.178142 0.708996 0.251260
Si Si7 0.683341 0.441813 0.415424
Si Si8 0.825104 0.744725 0.878369
O O1 0.251431 0.088310 0.844972
O O2 0.266877 0.251866 0.877852
O O3 0.000000 0.178136 0.885972
O O4 0.206232 0.155927 0.056198
O O5 0.803235 0.071917 0.612815
O O6 0.703418 0.222480 0.650123
O O7 0.782475 0.185271 0.438731
O O8 0.000000 0.195242 0.605594
O O9 0.782279 0.367634 0.714567
O O10 0.746999 0.479979 0.542772
O O11 0.756567 0.514555 0.791164
O O12 0.000000 0.474025 0.661867
O O13 0.000000 0.018651 0.782813
O O14 0.757089 0.935221 0.737813
O O15 0.500000 0.127389 0.121678
O O16 0.682506 0.229890 0.238421
O O17 0.000000 0.681998 0.257891
O O18 0.500000 0.448899 0.421678
O O19 0.738602 0.346907 0.402721
O O20 0.000000 0.751159 0.926469
#
# Coordination Sequence:
#
# PCOD8169921 Si02
#       8
#     4   4   4   4   4   4   4   4
#     4  10  21  38  57  83 119 154 198 252 303 360
#     4  10  19  34  58  85 115 149 193 244 291 347
#     4  11  23  40  64  94 127 165 208 260 315 375
#     4   8  18  35  54  79 115 154 193 243 297 351
#     4  10  21  37  56  82 119 161 201 246 301 360
#     4  11  21  37  62  87 113 150 197 244 301 364
#     4  10  23  42  62  91 128 163 208 260 313 380
#     4  10  21  37  59  85 118 158 200 245 297 363
#
# _framework density 20.567923
#
# number of rings (size 3 to 8) (size 9 to 14) (size 15 to 20)
#    0.000    2.000    1.250    3.000    1.750    2.500 
#    0.000    4.375    0.000    0.000    0.000    0.000 
#    0.000    0.000    0.000    0.000    0.000    0.000 
#
# Total GULP energy -396491.093916 kJ/mol
# GULP energy per Si atom -12390.346685 kJ/mol
# Density = 2.052111 g / cm^3
# Si number density = 20.567923 Si / 1000 Ang^3
#
#
#
# Elastic Constant Matrix: (Units=GPa)
#
#
# Indices 1 2 3 4 5 6 
#
# 1 46.2617 13.7364 28.7014 0.0000 0.0000 0.0000
# 2 13.7364 74.6648 46.5024 0.0000 0.0000 0.0000
# 3 28.7014 46.5024 129.5594 0.0000 0.0000 0.0000
# 4 0.0000 0.0000 0.0000 29.3659 0.0000 0.0000
# 5 0.0000 0.0000 0.0000 0.0000 33.4858 0.0000
# 6 0.0000 0.0000 0.0000 0.0000 0.0000 21.2493
#
#
#
# Elastic Compliance Matrix: (Units=1/GPa)
#
#
# Indices 1 2 3 4 5 6 
#
# 1 0.025189 -0.001492 -0.005044 0.000000 0.000000 0.000000
# 2 -0.001492 0.017338 -0.005892 0.000000 0.000000 0.000000
# 3 -0.005044 -0.005892 0.010951 0.000000 0.000000 0.000000
# 4 0.000000 0.000000 0.000000 0.034053 0.000000 0.000000
# 5 0.000000 0.000000 0.000000 0.000000 0.029863 0.000000
# 6 0.000000 0.000000 0.000000 0.000000 0.000000 0.047060
#
#
# Mechanical properties :
#
#
# Convention : Reuss Voigt Hill
#
# Bulk Modulus (GPa) = 34.94169 47.59626 41.26898
# Shear Modulus (GPa) = 25.14430 27.58992 26.36711
#
# Velocity S-wave (km/s) = 3.50022 3.66649 3.58432
# Velocity P-wave (km/s) = 5.77587 6.41214 6.10230
#
# Compressibility (1/GPa) = 0.02861910
#
# Stress axis : x y z
#
# Youngs Moduli (GPa) = 39.69999 57.67817 91.31680
#
# Poissons Ratio (x) = 0.08608 0.46065
# Poissons Ratio (y) = 0.05925 0.53807
# Poissons Ratio (z) = 0.20027 0.33986
#
# Static dielectric constant tensor:
#      x y z
#    x 3.519730 0.000000 0.000000 
#    y 0.000000 3.833430 0.000000 
#    z 0.000000 0.000000 3.833230 
# 
# 
# High freq. dielectric constant tensor:
#      x y z
#    x 1.784510 0.000000 0.000000 
#    y 0.000000 1.798780 0.000000 
#    z 0.000000 0.000000 1.805510 
# 
# From -- ./inp_files/3588.got.cif
#   From: 2010.03.12/outbox.cif.g09.slc.cpg/sg31_2_cif.got.tgz:3588.got - 2010.04.14 01:42:59.
