data_PCOD8169075
_publ_section_title
;
Structure prediction by ZEFSAII (Michael W. Deem and Ramdas Pophale) SiO2 
 PCOD8169075
Probable space group: P C A 21
;
_chemical_formula_sum "Si O2"
_cell_formula_units_Z 32
_cell_length_a 11.453856
_cell_length_b 13.044246
_cell_length_c 9.356635
_cell_angle_alpha 90.000000
_cell_angle_beta 90.000000
_cell_angle_gamma 90.000000
_cell_volume 1397.945973
_symmetry_space_group_name_H-M "P C A 21"
_symmetry_group_IT_number 29
_symmetry_cell_setting 'orthorhombic'
loop_
_space_group_symop_operation_xyz
x,y,z
-x,-y,1/2+z
1/2-x,y,1/2+z
1/2+x,-y,z
loop_
_atom_site_type_symbol
_atom_site_label
_atom_site_fract_x
_atom_site_fract_y
_atom_site_fract_z
Si Si1 0.296615 0.972659 0.238020
Si Si2 0.463559 0.562882 0.408758
Si Si3 0.283095 0.106011 0.513749
Si Si4 0.917720 0.754313 0.011174
Si Si5 0.524771 0.393559 0.600973
Si Si6 0.765952 0.317044 0.958056
Si Si7 0.514242 0.830253 0.205486
Si Si8 0.634798 0.199619 0.194846
O O1 0.393029 0.884882 0.239129
O O2 0.170860 0.914182 0.247886
O O3 0.310584 0.062125 0.356931
O O4 0.308122 0.027498 0.085369
O O5 0.559243 0.632291 0.494261
O O6 0.446317 0.453239 0.483949
O O7 0.502069 0.544871 0.246109
O O8 0.344200 0.625094 0.393074
O O9 0.220092 0.218226 0.530686
O O10 0.399404 0.101482 0.610475
O O11 0.939432 0.811079 0.862440
O O12 0.000169 0.796460 0.140625
O O13 0.658789 0.399605 0.547617
O O14 0.497291 0.273593 0.613670
O O15 0.846251 0.275647 0.828686
O O16 0.719187 0.227299 0.061230
#
# Coordination Sequence:
#
# PCOD8169075 Si02
#       8
#     4   4   4   4   4   4   4   4
#     4  12  25  43  70 102 135 191 247 293 361 437
#     4  10  24  43  71 103 143 189 244 305 366 451
#     4  12  27  44  70 104 146 192 238 302 376 439
#     4  10  24  47  67 102 149 187 237 307 376 437
#     4  11  24  44  72 102 141 190 243 304 373 434
#     4  11  21  43  67 107 138 188 250 301 367 432
#     4  11  25  49  67 103 152 186 250 309 363 455
#     4  11  22  43  74  99 142 189 245 311 350 437
#
# _framework density 22.890727999999999
#
# number of rings (size 3 to 8) (size 9 to 14) (size 15 to 20)
#    0.000    1.000    3.750    3.000    7.000    2.000 
#    0.000    2.500    0.000    0.000    0.000    0.000 
#    0.000    0.000    0.000    0.000    0.000    0.000 
#
# Total GULP energy -396569.492012 kJ/mol
# GULP energy per Si atom -12392.796625 kJ/mol
# Density = 2.283863 g / cm^3
# Si number density = 22.890728 Si / 1000 Ang^3
#
#
#
# Elastic Constant Matrix: (Units=GPa)
#
#
# Indices 1 2 3 4 5 6 
#
# 1 65.6192 26.1419 32.7045 0.0000 0.0000 0.0000
# 2 26.1419 84.3091 33.3733 0.0000 0.0000 0.0000
# 3 32.7045 33.3733 95.4164 0.0000 0.0000 0.0000
# 4 0.0000 0.0000 0.0000 38.7227 0.0000 0.0000
# 5 0.0000 0.0000 0.0000 0.0000 34.0380 0.0000
# 6 0.0000 0.0000 0.0000 0.0000 0.0000 21.2542
#
#
#
# Elastic Compliance Matrix: (Units=1/GPa)
#
#
# Indices 1 2 3 4 5 6 
#
# 1 0.019443 -0.003936 -0.005288 0.000000 0.000000 0.000000
# 2 -0.003936 0.014564 -0.003745 0.000000 0.000000 0.000000
# 3 -0.005288 -0.003745 0.013603 0.000000 0.000000 0.000000
# 4 0.000000 0.000000 0.000000 0.025825 0.000000 0.000000
# 5 0.000000 0.000000 0.000000 0.000000 0.029379 0.000000
# 6 0.000000 0.000000 0.000000 0.000000 0.000000 0.047050
#
#
# Mechanical properties :
#
#
# Convention : Reuss Voigt Hill
#
# Bulk Modulus (GPa) = 46.14066 47.75379 46.94723
# Shear Modulus (GPa) = 27.31902 29.01130 28.16516
#
# Velocity S-wave (km/s) = 3.45839 3.56389 3.51154
# Velocity P-wave (km/s) = 6.01232 6.15159 6.08235
#
# Compressibility (1/GPa) = 0.02167286
#
# Stress axis : x y z
#
# Youngs Moduli (GPa) = 51.43343 68.66308 73.51549
#
# Poissons Ratio (x) = 0.27023 0.38872
# Poissons Ratio (y) = 0.20242 0.27532
# Poissons Ratio (z) = 0.27196 0.25714
#
# Static dielectric constant tensor:
#      x y z
#    x 4.032630 0.000000 0.000000 
#    y 0.000000 4.025780 0.000000 
#    z 0.000000 0.000000 4.263600 
# 
# 
# High freq. dielectric constant tensor:
#      x y z
#    x 1.886790 0.000000 0.000000 
#    y 0.000000 1.893660 0.000000 
#    z 0.000000 0.000000 1.920430 
# 
# From -- ./inp_files/1545.got.cif
#   From: 2010.03.12/outbox.cif.g09.slc.cpg/sg29_1_cif.got.tgz:1545.got - 2010.04.14 03:43:10.
