data_PCOD8169242
_publ_section_title
;
Structure prediction by ZEFSAII (Michael W. Deem and Ramdas Pophale) SiO2 
 PCOD8169242
Probable space group: P C A 21
;
_chemical_formula_sum "Si O2"
_cell_formula_units_Z 32
_cell_length_a 8.956393
_cell_length_b 13.560515
_cell_length_c 11.709338
_cell_angle_alpha 90.000000
_cell_angle_beta 90.000000
_cell_angle_gamma 90.000000
_cell_volume 1422.137760
_symmetry_space_group_name_H-M "P C A 21"
_symmetry_group_IT_number 29
_symmetry_cell_setting 'orthorhombic'
loop_
_space_group_symop_operation_xyz
x,y,z
-x,-y,1/2+z
1/2-x,y,1/2+z
1/2+x,-y,z
loop_
_atom_site_type_symbol
_atom_site_label
_atom_site_fract_x
_atom_site_fract_y
_atom_site_fract_z
Si Si1 0.943879 0.554608 0.277820
Si Si2 0.292245 0.292252 0.687944
Si Si3 0.122763 0.979274 0.205773
Si Si4 0.540151 0.338022 0.502330
Si Si5 0.744822 0.387197 0.700210
Si Si6 0.643801 0.893373 0.588451
Si Si7 0.221104 0.800527 0.350582
Si Si8 0.047835 0.160089 0.353040
O O1 0.811504 0.616783 0.220066
O O2 0.877521 0.443985 0.279325
O O3 0.985259 0.586110 0.405926
O O4 0.093768 0.558578 0.200159
O O5 0.400231 0.314329 0.581934
O O6 0.182402 0.203604 0.658628
O O7 0.389932 0.260417 0.796968
O O8 0.167995 0.906614 0.307592
O O9 0.024687 0.920149 0.116186
O O10 0.259256 0.014117 0.128133
O O11 0.037867 0.073451 0.259226
O O12 0.678216 0.385601 0.572038
O O13 0.602353 0.237890 0.444055
O O14 0.766315 0.276761 0.746337
O O15 0.659487 0.873461 0.453602
O O16 0.385209 0.815279 0.404152
#
# Coordination Sequence:
#
# PCOD8169242 Si02
#       8
#     4   4   4   4   4   4   4   4
#     4  11  26  47  72 108 142 189 238 299 360 441
#     4  11  24  47  69 103 143 180 243 295 357 435
#     4  11  25  45  64 100 140 178 241 294 352 427
#     4  11  25  47  76 102 146 194 234 304 368 428
#     4  11  25  46  72 107 145 188 243 301 360 442
#     4  11  25  40  67  97 133 188 226 293 363 409
#     4  11  25  44  71 103 141 185 242 294 362 433
#     4  11  25  42  69 100 134 188 235 298 350 443
#
# _framework density 22.501338000000001
#
# number of rings (size 3 to 8) (size 9 to 14) (size 15 to 20)
#    0.000    1.000    2.500    3.000    5.250    7.000 
#    0.000    0.000    0.000    0.000    0.000    0.000 
#    0.000    0.000    0.000    0.000    0.000    0.000 
#
# Total GULP energy -396867.815382 kJ/mol
# GULP energy per Si atom -12402.119231 kJ/mol
# Density = 2.245012 g / cm^3
# Si number density = 22.501338 Si / 1000 Ang^3
#
#
#
# Elastic Constant Matrix: (Units=GPa)
#
#
# Indices 1 2 3 4 5 6 
#
# 1 112.8607 30.7576 48.4244 0.0000 0.0000 0.0000
# 2 30.7576 69.2780 19.8769 0.0000 0.0000 0.0000
# 3 48.4244 19.8769 120.0324 0.0000 0.0000 0.0000
# 4 0.0000 0.0000 0.0000 33.7200 0.0000 0.0000
# 5 0.0000 0.0000 0.0000 0.0000 43.4740 0.0000
# 6 0.0000 0.0000 0.0000 0.0000 0.0000 40.6682
#
#
#
# Elastic Compliance Matrix: (Units=1/GPa)
#
#
# Indices 1 2 3 4 5 6 
#
# 1 0.011697 -0.004031 -0.004052 0.000000 0.000000 0.000000
# 2 -0.004031 0.016544 -0.001113 0.000000 0.000000 0.000000
# 3 -0.004052 -0.001113 0.010150 0.000000 0.000000 0.000000
# 4 0.000000 0.000000 0.000000 0.029656 0.000000 0.000000
# 5 0.000000 0.000000 0.000000 0.000000 0.023002 0.000000
# 6 0.000000 0.000000 0.000000 0.000000 0.000000 0.024589
#
#
# Mechanical properties :
#
#
# Convention : Reuss Voigt Hill
#
# Bulk Modulus (GPa) = 50.00163 55.58766 52.79465
# Shear Modulus (GPa) = 35.53746 37.11324 36.32535
#
# Velocity S-wave (km/s) = 3.97841 4.06566 4.02227
# Velocity P-wave (km/s) = 6.58586 6.84085 6.71457
#
# Compressibility (1/GPa) = 0.01999935
#
# Stress axis : x y z
#
# Youngs Moduli (GPa) = 85.48928 60.44618 98.52244
#
# Poissons Ratio (x) = 0.24365 0.39917
# Poissons Ratio (y) = 0.34460 0.10970
# Poissons Ratio (z) = 0.34636 0.06730
#
# Static dielectric constant tensor:
#      x y z
#    x 4.233440 0.000000 0.000000 
#    y 0.000000 4.069510 0.000000 
#    z 0.000000 0.000000 3.883540 
# 
# 
# High freq. dielectric constant tensor:
#      x y z
#    x 1.902890 0.000000 0.000000 
#    y 0.000000 1.893770 0.000000 
#    z 0.000000 0.000000 1.876700 
# 
# From -- ./inp_files/2974.got.cif
#   From: 2010.03.12/outbox.cif.g09.slc.cpg/sg29_2_cif.got.tgz:2974.got - 2010.04.14 03:43:10.
