data_PCOD8169147
_publ_section_title
;
Structure prediction by ZEFSAII (Michael W. Deem and Ramdas Pophale) SiO2 
 PCOD8169147
Probable space group: P C A 21
;
_chemical_formula_sum "Si O2"
_cell_formula_units_Z 32
_cell_length_a 17.419575
_cell_length_b 6.692477
_cell_length_c 13.952590
_cell_angle_alpha 90.000000
_cell_angle_beta 90.000000
_cell_angle_gamma 90.000000
_cell_volume 1626.594408
_symmetry_space_group_name_H-M "P C A 21"
_symmetry_group_IT_number 29
_symmetry_cell_setting 'orthorhombic'
loop_
_space_group_symop_operation_xyz
x,y,z
-x,-y,1/2+z
1/2-x,y,1/2+z
1/2+x,-y,z
loop_
_atom_site_type_symbol
_atom_site_label
_atom_site_fract_x
_atom_site_fract_y
_atom_site_fract_z
Si Si1 0.194202 0.957696 0.312740
Si Si2 0.208106 0.621250 0.163163
Si Si3 0.290698 0.345737 0.311800
Si Si4 0.960061 0.500328 0.979814
Si Si5 0.539603 0.501003 0.178431
Si Si6 0.464367 0.243649 0.332340
Si Si7 0.284935 0.617332 0.962512
Si Si8 0.531324 0.836275 0.326873
O O1 0.192729 0.830550 0.215453
O O2 0.215897 0.819399 0.402055
O O3 0.259162 0.123460 0.301527
O O4 0.113313 0.059394 0.333193
O O5 0.264587 0.480102 0.222951
O O6 0.128162 0.505980 0.147234
O O7 0.246381 0.670509 0.062564
O O8 0.382095 0.335705 0.309867
O O9 0.263025 0.443086 0.410952
O O10 0.870023 0.464136 0.975953
O O11 0.981086 0.696262 0.918742
O O12 0.006372 0.311873 0.937034
O O13 0.984288 0.530987 0.088864
O O14 0.524918 0.324457 0.254225
O O15 0.522998 0.713434 0.228416
O O16 0.464409 0.003042 0.328665
#
# Coordination Sequence:
#
# PCOD8169147 Si02
#       8
#     4   4   4   4   4   4   4   4
#     4  11  21  44  66  90 127 172 209 261 320 376
#     4  11  23  41  65  93 130 165 214 263 318 389
#     4  11  23  41  65  91 127 171 207 263 324 378
#     4  11  23  41  66  92 129 169 211 263 321 377
#     4  11  23  41  66  92 129 169 211 263 321 377
#     4  11  23  41  65  95 127 165 219 263 320 378
#     4  11  23  41  65  93 130 165 214 263 318 389
#     4  11  21  44  66  88 129 172 211 267 320 374
#
# _framework density 19.673003999999999
#
# number of rings (size 3 to 8) (size 9 to 14) (size 15 to 20)
#    0.000    1.000    5.000    3.000    0.000    8.000 
#    4.500    0.000    0.000    0.000    0.000    0.000 
#    0.000    0.000    0.000    0.000    0.000    0.000 
#
# Total GULP energy -396990.504070 kJ/mol
# GULP energy per Si atom -12405.953252 kJ/mol
# Density = 1.962823 g / cm^3
# Si number density = 19.673004 Si / 1000 Ang^3
#
#
#
# Elastic Constant Matrix: (Units=GPa)
#
#
# Indices 1 2 3 4 5 6 
#
# 1 95.4045 23.2582 15.1557 0.0000 0.0000 0.0000
# 2 23.2582 117.1957 40.9984 0.0000 0.0000 0.0000
# 3 15.1557 40.9984 101.7759 0.0000 0.0000 0.0000
# 4 0.0000 0.0000 0.0000 13.4710 0.0000 0.0000
# 5 0.0000 0.0000 0.0000 0.0000 34.1039 0.0000
# 6 0.0000 0.0000 0.0000 0.0000 0.0000 33.6549
#
#
#
# Elastic Compliance Matrix: (Units=1/GPa)
#
#
# Indices 1 2 3 4 5 6 
#
# 1 0.011083 -0.001888 -0.000890 0.000000 0.000000 0.000000
# 2 -0.001888 0.010254 -0.003849 0.000000 0.000000 0.000000
# 3 -0.000890 -0.003849 0.011509 0.000000 0.000000 0.000000
# 4 0.000000 0.000000 0.000000 0.074233 0.000000 0.000000
# 5 0.000000 0.000000 0.000000 0.000000 0.029322 0.000000
# 6 0.000000 0.000000 0.000000 0.000000 0.000000 0.029713
#
#
# Mechanical properties :
#
#
# Convention : Reuss Voigt Hill
#
# Bulk Modulus (GPa) = 51.04365 52.57785 51.81075
# Shear Modulus (GPa) = 26.89608 31.91022 29.40315
#
# Velocity S-wave (km/s) = 3.70152 4.03181 3.87019
# Velocity P-wave (km/s) = 6.65362 6.96117 6.80913
#
# Compressibility (1/GPa) = 0.01959108
#
# Stress axis : x y z
#
# Youngs Moduli (GPa) = 90.22530 97.52163 86.89082
#
# Poissons Ratio (x) = 0.18415 0.07731
# Poissons Ratio (y) = 0.17037 0.33448
# Poissons Ratio (z) = 0.08028 0.37541
#
# Static dielectric constant tensor:
#      x y z
#    x 3.591770 0.000000 0.000000 
#    y 0.000000 3.792240 0.000000 
#    z 0.000000 0.000000 3.632750 
# 
# 
# High freq. dielectric constant tensor:
#      x y z
#    x 1.776890 0.000000 0.000000 
#    y 0.000000 1.774690 0.000000 
#    z 0.000000 0.000000 1.766280 
# 
# From -- ./inp_files/4788.got.cif
#   From: 2010.03.12/outbox.cif.g09.slc.cpg/sg29_3_cif.got.tgz:4788.got - 2010.04.14 03:43:10.
