data_PCOD8169469
_publ_section_title
;
Structure prediction by ZEFSAII (Michael W. Deem and Ramdas Pophale) SiO2 
 PCOD8169469
Probable space group: P N C 2
;
_chemical_formula_sum "Si O2"
_cell_formula_units_Z 28
_cell_length_a 8.918580
_cell_length_b 28.355890
_cell_length_c 5.054432
_cell_angle_alpha 90.000000
_cell_angle_beta 90.000000
_cell_angle_gamma 90.000000
_cell_volume 1278.236908
_symmetry_space_group_name_H-M "P N C 2"
_symmetry_group_IT_number 30
_symmetry_cell_setting 'orthorhombic'
loop_
_space_group_symop_operation_xyz
x,y,z
-x,-y,z
-x,1/2+y,1/2+z
x,1/2-y,1/2+z
loop_
_atom_site_type_symbol
_atom_site_label
_atom_site_fract_x
_atom_site_fract_y
_atom_site_fract_z
Si Si1 0.000000 0.500000 0.758880
Si Si2 0.500000 0.500000 0.758788
Si Si3 0.171987 0.220532 0.750815
Si Si4 0.253959 0.567070 0.876439
Si Si5 0.325571 0.375283 0.175875
Si Si6 0.824606 0.220509 0.768959
Si Si7 0.255353 0.067097 0.142732
Si Si8 0.671482 0.375410 0.344166
O O1 0.103773 0.536555 0.916462
O O2 0.111060 0.465925 0.599952
O O3 0.391831 0.531823 0.942208
O O4 0.601423 0.534057 0.576161
O O5 0.209529 0.263045 0.548062
O O6 0.274701 0.178357 0.641347
O O7 0.998331 0.205231 0.759796
O O8 0.285667 0.592514 0.595890
O O9 0.233901 0.606311 0.096661
O O10 0.230974 0.393579 0.423887
O O11 0.498508 0.377659 0.260026
O O12 0.283272 0.407566 0.924717
O O13 0.787095 0.236985 0.471784
O O14 0.722070 0.178290 0.878147
#
# Coordination Sequence:
#
# PCOD8169469 Si02
#       8
#     2   2   4   4   4   4   4   4
#     4  10  28  44  64  96 128 172 224 260 320 364
#     4  10  20  44  60  88 128 168 204 252 312 372
#     4  10  23  42  65  93 127 167 207 257 318 380
#     4  11  25  41  66  94 129 172 211 265 311 378
#     4  12  24  42  67  98 129 167 212 261 321 378
#     4  10  23  42  65  93 127 167 207 257 318 380
#     4  11  25  41  66  94 129 172 211 265 311 378
#     4  12  24  42  67  98 129 167 212 261 321 378
#
# _framework density 21.905170999999999
#
# number of rings (size 3 to 8) (size 9 to 14) (size 15 to 20)
#    0.000    1.143    2.857    1.714    4.000    8.000 
#    0.000    0.000    0.000    0.000    0.000    0.000 
#    0.000    0.000    0.000    0.000    0.000    0.000 
#
# Total GULP energy -346957.172125 kJ/mol
# GULP energy per Si atom -12391.327576 kJ/mol
# Density = 2.185531 g / cm^3
# Si number density = 21.905171 Si / 1000 Ang^3
#
#
#
# Elastic Constant Matrix: (Units=GPa)
#
#
# Indices 1 2 3 4 5 6 
#
# 1 84.8817 44.9485 32.9064 0.0000 0.0000 0.0000
# 2 44.9485 113.4039 39.3286 0.0000 0.0000 0.0000
# 3 32.9064 39.3286 126.2865 0.0000 0.0000 0.0000
# 4 0.0000 0.0000 0.0000 -11.4561 0.0000 0.0000
# 5 0.0000 0.0000 0.0000 0.0000 15.2893 0.0000
# 6 0.0000 0.0000 0.0000 0.0000 0.0000 9.1852
#
#
#
# Elastic Compliance Matrix: (Units=1/GPa)
#
#
# Indices 1 2 3 4 5 6 
#
# 1 0.015527 -0.005326 -0.002387 0.000000 0.000000 0.000000
# 2 -0.005326 0.011713 -0.002260 0.000000 0.000000 0.000000
# 3 -0.002387 -0.002260 0.009244 0.000000 0.000000 0.000000
# 4 0.000000 0.000000 0.000000 -0.087290 0.000000 0.000000
# 5 0.000000 0.000000 0.000000 0.000000 0.065405 0.000000
# 6 0.000000 0.000000 0.000000 0.000000 0.000000 0.108871
#
#
# Mechanical properties :
#
#
# Convention : Reuss Voigt Hill
#
# Bulk Modulus (GPa) = 60.46816 62.10435 61.28625
# Shear Modulus (GPa) = 33.57296 16.42960 25.00128
#
# Velocity S-wave (km/s) = 3.91915 2.74164 3.38204
# Velocity P-wave (km/s) = 6.93860 6.19961 6.57949
#
# Compressibility (1/GPa) = 0.01653763
#
# Stress axis : x y z
#
# Youngs Moduli (GPa) = 64.40357 85.37597 108.17525
#
# Poissons Ratio (x) = 0.45475 0.25823
# Poissons Ratio (y) = 0.34304 0.24445
# Poissons Ratio (z) = 0.15374 0.19293
#
# Static dielectric constant tensor:
#      x y z
#    x 4.251180 0.000000 0.000000 
#    y 0.000000 4.014010 0.000000 
#    z 0.000000 0.000000 3.785690 
# 
# 
# High freq. dielectric constant tensor:
#      x y z
#    x 1.864840 0.000000 0.000000 
#    y 0.000000 1.877190 0.000000 
#    z 0.000000 0.000000 1.850600 
# 
# From -- ./inp_files/526.got.cif
#   From: 2010.03.12/outbox.cif.g09.slc.cpg/sg30_1_cif.got.tgz:526.got - 2010.04.14 01:38:02.
