data_PCOD8169438
_publ_section_title
;
Structure prediction by ZEFSAII (Michael W. Deem and Ramdas Pophale) SiO2 
 PCOD8169438
Probable space group: P N C 2
;
_chemical_formula_sum "Si O2"
_cell_formula_units_Z 32
_cell_length_a 11.921678
_cell_length_b 9.251622
_cell_length_c 15.306701
_cell_angle_alpha 90.000000
_cell_angle_beta 90.000000
_cell_angle_gamma 90.000000
_cell_volume 1688.250420
_symmetry_space_group_name_H-M "P N C 2"
_symmetry_group_IT_number 30
_symmetry_cell_setting 'orthorhombic'
loop_
_space_group_symop_operation_xyz
x,y,z
-x,-y,z
-x,1/2+y,1/2+z
x,1/2-y,1/2+z
loop_
_atom_site_type_symbol
_atom_site_label
_atom_site_fract_x
_atom_site_fract_y
_atom_site_fract_z
Si Si1 0.500000 0.670511 0.667000
Si Si2 0.739231 0.833211 0.225598
Si Si3 0.127940 0.330280 0.080928
Si Si4 0.717760 0.166361 0.421122
Si Si5 0.717760 0.666361 0.921122
Si Si6 0.500000 0.171181 0.967491
Si Si7 0.260769 0.833211 0.225598
Si Si8 0.872060 0.169720 0.580928
O O1 0.500000 0.500000 0.674830
O O2 0.612829 0.729860 0.712924
O O3 0.500000 0.723066 0.567426
O O4 0.387171 0.729860 0.712924
O O5 0.826151 0.746325 0.167023
O O6 0.775657 0.815393 0.326429
O O7 0.743442 1.000000 0.195900
O O8 0.138861 0.500000 0.095741
O O9 0.000000 0.282853 0.066470
O O10 0.195882 0.280709 0.995053
O O11 0.608801 0.265624 0.421038
O O12 0.775657 0.184607 0.326429
O O13 0.804118 0.219291 0.495053
O O14 0.681948 0.000000 0.436006
O O15 0.608801 0.765624 0.921038
O O16 0.500000 0.000000 0.957991
O O17 0.173849 0.746325 0.167023
#
# Coordination Sequence:
#
# PCOD8169438 Si02
#       8
#     4   4   4   4   4   4   4   4
#     4   9  17  31  53  82 113 139 172 224 275 318
#     4  10  20  37  60  84 110 144 186 229 273 329
#     4  10  22  39  56  79 113 148 185 233 282 325
#     4  10  21  37  59  84 112 147 186 227 275 332
#     4  10  21  37  59  84 112 147 186 227 275 332
#     4  11  20  33  57  86 117 147 180 226 277 330
#     4  10  20  37  60  84 110 144 186 229 273 329
#     4  10  22  39  56  79 113 148 185 233 282 325
#
# _framework density 18.954533999999999
#
# number of rings (size 3 to 8) (size 9 to 14) (size 15 to 20)
#    0.000    2.000    2.500    1.125    0.000    4.500 
#    0.000    3.125    0.000    0.000    0.000    0.000 
#    0.000    0.000    0.000    0.000    0.000    0.000 
#
# Total GULP energy -396862.863062 kJ/mol
# GULP energy per Si atom -12401.964471 kJ/mol
# Density = 1.891139 g / cm^3
# Si number density = 18.954534 Si / 1000 Ang^3
#
#
#
# Elastic Constant Matrix: (Units=GPa)
#
#
# Indices 1 2 3 4 5 6 
#
# 1 136.2601 47.4984 56.7425 0.0000 0.0000 0.0000
# 2 47.4984 46.0499 39.9676 0.0000 0.0000 0.0000
# 3 56.7425 39.9676 121.7818 0.0000 0.0000 0.0000
# 4 0.0000 0.0000 0.0000 30.3217 0.0000 0.0000
# 5 0.0000 0.0000 0.0000 0.0000 14.5387 0.0000
# 6 0.0000 0.0000 0.0000 0.0000 0.0000 25.7832
#
#
#
# Elastic Compliance Matrix: (Units=1/GPa)
#
#
# Indices 1 2 3 4 5 6 
#
# 1 0.011834 -0.010376 -0.002109 0.000000 0.000000 0.000000
# 2 -0.010376 0.039463 -0.008117 0.000000 0.000000 0.000000
# 3 -0.002109 -0.008117 0.011858 0.000000 0.000000 0.000000
# 4 0.000000 0.000000 0.000000 0.032980 0.000000 0.000000
# 5 0.000000 0.000000 0.000000 0.000000 0.068782 0.000000
# 6 0.000000 0.000000 0.000000 0.000000 0.000000 0.038785
#
#
# Mechanical properties :
#
#
# Convention : Reuss Voigt Hill
#
# Bulk Modulus (GPa) = 45.55465 65.83432 55.69448
# Shear Modulus (GPa) = 19.82392 24.78760 22.30576
#
# Velocity S-wave (km/s) = 3.23749 3.62019 3.43418
# Velocity P-wave (km/s) = 6.16936 7.23067 6.72099
#
# Compressibility (1/GPa) = 0.02195166
#
# Stress axis : x y z
#
# Youngs Moduli (GPa) = 84.50266 25.34039 84.33390
#
# Poissons Ratio (x) = 0.26294 0.17782
# Poissons Ratio (y) = 0.87681 0.68451
# Poissons Ratio (z) = 0.17817 0.20568
#
# Static dielectric constant tensor:
#      x y z
#    x 3.519240 0.000000 0.000000 
#    y 0.000000 3.262920 0.000000 
#    z 0.000000 0.000000 3.569960 
# 
# 
# High freq. dielectric constant tensor:
#      x y z
#    x 1.732450 0.000000 0.000000 
#    y 0.000000 1.716230 0.000000 
#    z 0.000000 0.000000 1.748850 
# 
# From -- ./inp_files/5517.got.cif
#   From: 2010.03.12/outbox.cif.g09.slc.cpg/sg30_3_cif.got.tgz:5517.got - 2010.04.14 01:38:02.
