data_PCOD8169984
_publ_section_title
;
Structure prediction by ZEFSAII (Michael W. Deem and Ramdas Pophale) SiO2 
 PCOD8169984
Probable space group: P M N 21
;
_chemical_formula_sum "Si O2"
_cell_formula_units_Z 32
_cell_length_a 8.790740
_cell_length_b 11.820584
_cell_length_c 15.223978
_cell_angle_alpha 90.000000
_cell_angle_beta 90.000000
_cell_angle_gamma 90.000000
_cell_volume 1581.949139
_symmetry_space_group_name_H-M "P M N 21"
_symmetry_group_IT_number 31
_symmetry_cell_setting 'orthorhombic'
loop_
_space_group_symop_operation_xyz
x,y,z
1/2-x,-y,1/2+z
-x,y,z
1/2+x,-y,1/2+z
loop_
_atom_site_type_symbol
_atom_site_label
_atom_site_fract_x
_atom_site_fract_y
_atom_site_fract_z
Si Si1 0.320955 0.221812 0.750000
Si Si2 0.171966 0.763308 0.932602
Si Si3 0.822625 0.356208 0.590450
Si Si4 0.822045 0.401439 0.089852
Si Si5 0.174231 0.002868 0.002593
Si Si6 0.178257 0.002482 0.685555
Si Si7 0.322860 0.248734 0.232747
Si Si8 0.177995 0.241747 0.928556
O O1 0.500000 0.220227 0.746849
O O2 0.264238 0.294052 0.668203
O O3 0.265312 0.278916 0.840536
O O4 0.259635 0.093805 0.747220
O O5 0.206556 0.722173 0.834324
O O6 0.000000 0.729945 0.959913
O O7 0.287210 0.702127 0.997663
O O8 0.189793 0.899362 0.934727
O O9 0.774644 0.485632 0.586005
O O10 0.000000 0.347001 0.609771
O O11 0.779373 0.333749 0.177328
O O12 0.000000 0.430099 0.091681
O O13 0.777258 0.328361 0.004945
O O14 0.000000 0.018467 0.034555
O O15 0.278865 0.973520 0.085164
O O16 0.232859 0.116726 0.956625
O O17 0.233140 0.878110 0.712834
O O18 0.000000 0.017793 0.699365
O O19 0.500000 0.262675 0.207669
O O20 0.000000 0.243485 0.908478
#
# Coordination Sequence:
#
# PCOD8169984 Si02
#       8
#     4   4   4   4   4   4   4   4
#     4  12  25  41  64  93 126 165 210 260 311 368
#     4  10  21  39  64  92 126 165 204 249 305 369
#     4  12  26  44  65  89 121 162 209 264 314 368
#     4  11  24  43  67  92 122 163 208 258 310 368
#     4  10  19  36  63  93 128 167 201 245 307 372
#     4  11  21  36  62  95 130 166 204 249 309 371
#     4  10  22  40  64  94 129 167 204 250 305 367
#     4  10  22  41  65  94 128 165 204 251 311 373
#
# _framework density 20.228211000000002
#
# number of rings (size 3 to 8) (size 9 to 14) (size 15 to 20)
#    0.000    1.250    2.500    3.750    0.000    5.500 
#    0.000    2.500    0.000    0.000    0.000    0.000 
#    0.000    0.000    0.000    0.000    0.000    0.000 
#
# Total GULP energy -397004.308945 kJ/mol
# GULP energy per Si atom -12406.384655 kJ/mol
# Density = 2.018217 g / cm^3
# Si number density = 20.228211 Si / 1000 Ang^3
#
#
#
# Elastic Constant Matrix: (Units=GPa)
#
#
# Indices 1 2 3 4 5 6 
#
# 1 79.8947 28.0195 27.9805 0.0000 0.0000 0.0000
# 2 28.0195 99.1060 27.1015 0.0000 0.0000 0.0000
# 3 27.9805 27.1015 103.9708 0.0000 0.0000 0.0000
# 4 0.0000 0.0000 0.0000 7.0418 0.0000 0.0000
# 5 0.0000 0.0000 0.0000 0.0000 35.9641 0.0000
# 6 0.0000 0.0000 0.0000 0.0000 0.0000 32.8076
#
#
#
# Elastic Compliance Matrix: (Units=1/GPa)
#
#
# Indices 1 2 3 4 5 6 
#
# 1 0.014772 -0.003326 -0.003108 0.000000 0.000000 0.000000
# 2 -0.003326 0.011614 -0.002132 0.000000 0.000000 0.000000
# 3 -0.003108 -0.002132 0.011010 0.000000 0.000000 0.000000
# 4 0.000000 0.000000 0.000000 0.142009 0.000000 0.000000
# 5 0.000000 0.000000 0.000000 0.000000 0.027805 0.000000
# 6 0.000000 0.000000 0.000000 0.000000 0.000000 0.030481
#
#
# Mechanical properties :
#
#
# Convention : Reuss Voigt Hill
#
# Bulk Modulus (GPa) = 49.35274 49.90827 49.63050
# Shear Modulus (GPa) = 19.11476 28.48739 23.80107
#
# Velocity S-wave (km/s) = 3.07735 3.75680 3.43392
# Velocity P-wave (km/s) = 6.08915 6.59881 6.34909
#
# Compressibility (1/GPa) = 0.02026230
#
# Stress axis : x y z
#
# Youngs Moduli (GPa) = 67.69752 86.10546 90.82374
#
# Poissons Ratio (x) = 0.28641 0.28230
# Poissons Ratio (y) = 0.22518 0.19365
# Poissons Ratio (z) = 0.21042 0.18359
#
# Static dielectric constant tensor:
#      x y z
#    x 3.608200 0.000000 0.000000 
#    y 0.000000 3.751950 0.000000 
#    z 0.000000 0.000000 3.717710 
# 
# 
# High freq. dielectric constant tensor:
#      x y z
#    x 1.786430 0.000000 0.000000 
#    y 0.000000 1.791940 0.000000 
#    z 0.000000 0.000000 1.799530 
# 
# From -- ./inp_files/4996.got.cif
#   From: 2010.03.12/outbox.cif.g09.slc.cpg/sg31_3_cif.got.tgz:4996.got - 2010.04.14 01:42:59.
