data_PCOD8169366
_publ_section_title
;
Structure prediction by ZEFSAII (Michael W. Deem and Ramdas Pophale) SiO2 
 PCOD8169366
Probable space group: P N C 2
;
_chemical_formula_sum "Si O2"
_cell_formula_units_Z 32
_cell_length_a 8.132247
_cell_length_b 14.538421
_cell_length_c 12.237651
_cell_angle_alpha 90.000000
_cell_angle_beta 90.000000
_cell_angle_gamma 90.000000
_cell_volume 1446.857852
_symmetry_space_group_name_H-M "P N C 2"
_symmetry_group_IT_number 30
_symmetry_cell_setting 'orthorhombic'
loop_
_space_group_symop_operation_xyz
x,y,z
-x,-y,z
-x,1/2+y,1/2+z
x,1/2-y,1/2+z
loop_
_atom_site_type_symbol
_atom_site_label
_atom_site_fract_x
_atom_site_fract_y
_atom_site_fract_z
Si Si1 0.289103 0.847389 0.070320
Si Si2 0.401759 0.094982 0.964155
Si Si3 0.846861 0.384987 0.353367
Si Si4 0.815381 0.910358 0.778805
Si Si5 0.595452 0.903256 0.333089
Si Si6 0.189265 0.470228 0.650995
Si Si7 0.584576 0.226634 0.730713
Si Si8 0.388498 0.409940 0.083575
O O1 0.267063 0.761089 0.150217
O O2 0.297759 0.937343 0.146979
O O3 0.469153 0.833756 0.014915
O O4 0.142829 0.856769 0.981476
O O5 0.336714 0.136946 0.846659
O O6 0.500000 0.000000 0.944616
O O7 0.242094 0.087453 0.043390
O O8 0.830404 0.494036 0.344265
O O9 0.677072 0.340777 0.312836
O O10 0.014364 0.353256 0.292344
O O11 0.781438 0.928671 0.650632
O O12 0.760789 0.913730 0.260043
O O13 0.492549 0.815816 0.290388
O O14 0.648661 0.883716 0.458664
O O15 0.500000 0.000000 0.328144
O O16 0.000000 0.500000 0.652807
O O17 0.459619 0.174895 0.651402
O O18 0.500000 0.500000 0.091792
#
# Coordination Sequence:
#
# PCOD8169366 Si02
#       8
#     4   4   4   4   4   4   4   4
#     4  11  21  38  66  97 128 168 230 277 328 402
#     4  10  17  32  66  95 120 164 217 275 327 393
#     4  11  23  38  65  99 133 176 220 287 347 402
#     4  11  21  41  64  98 135 168 226 279 355 407
#     4  11  23  46  68  96 135 183 238 279 345 424
#     4  11  20  38  65  96 130 169 215 277 346 398
#     4  12  23  43  67  97 131 179 237 286 330 419
#     4  11  24  43  67  94 132 185 231 285 343 415
#
# _framework density 22.116893000000001
#
# number of rings (size 3 to 8) (size 9 to 14) (size 15 to 20)
#    0.000    1.000    6.250    3.000    0.000    0.000 
#    4.500    1.250    0.000    0.000    0.000    0.000 
#    0.000    0.000    0.000    0.000    0.000    0.000 
#
# Total GULP energy -396468.923546 kJ/mol
# GULP energy per Si atom -12389.653861 kJ/mol
# Density = 2.206655 g / cm^3
# Si number density = 22.116893 Si / 1000 Ang^3
#
#
#
# Elastic Constant Matrix: (Units=GPa)
#
#
# Indices 1 2 3 4 5 6 
#
# 1 113.4609 3.9186 47.3501 0.0000 0.0000 0.0000
# 2 3.9186 54.5444 28.0154 0.0000 0.0000 0.0000
# 3 47.3501 28.0154 169.9248 0.0000 0.0000 0.0000
# 4 0.0000 0.0000 0.0000 21.2285 0.0000 0.0000
# 5 0.0000 0.0000 0.0000 0.0000 24.9918 0.0000
# 6 0.0000 0.0000 0.0000 0.0000 0.0000 19.9763
#
#
#
# Elastic Compliance Matrix: (Units=1/GPa)
#
#
# Indices 1 2 3 4 5 6 
#
# 1 0.010004 0.000779 -0.002916 0.000000 0.000000 0.000000
# 2 0.000779 0.020090 -0.003529 0.000000 0.000000 0.000000
# 3 -0.002916 -0.003529 0.007279 0.000000 0.000000 0.000000
# 4 0.000000 0.000000 0.000000 0.047107 0.000000 0.000000
# 5 0.000000 0.000000 0.000000 0.000000 0.040013 0.000000
# 6 0.000000 0.000000 0.000000 0.000000 0.000000 0.050059
#
#
# Mechanical properties :
#
#
# Convention : Reuss Voigt Hill
#
# Bulk Modulus (GPa) = 38.40121 55.16647 46.78384
# Shear Modulus (GPa) = 25.69828 30.48238 28.09033
#
# Velocity S-wave (km/s) = 3.41241 3.71649 3.56769
# Velocity P-wave (km/s) = 5.73817 6.58891 6.17820
#
# Compressibility (1/GPa) = 0.02604085
#
# Stress axis : x y z
#
# Youngs Moduli (GPa) = 99.96385 49.77478 137.37416
#
# Poissons Ratio (x) = -0.03878 0.40058
# Poissons Ratio (y) = -0.07788 0.48485
# Poissons Ratio (z) = 0.29149 0.17567
#
# Static dielectric constant tensor:
#      x y z
#    x 4.205810 0.000000 0.000000 
#    y 0.000000 3.877910 0.000000 
#    z 0.000000 0.000000 4.449480 
# 
# 
# High freq. dielectric constant tensor:
#      x y z
#    x 1.854570 0.000000 0.000000 
#    y 0.000000 1.848520 0.000000 
#    z 0.000000 0.000000 1.889060 
# 
# From -- ./inp_files/3787.got.cif
#   From: 2010.03.12/outbox.cif.g09.slc.cpg/sg30_2_cif.got.tgz:3787.got - 2010.04.14 01:38:02.
