data_PCOD8169329
_publ_section_title
;
Structure prediction by ZEFSAII (Michael W. Deem and Ramdas Pophale) SiO2 
 PCOD8169329
Probable space group: P C A 21
;
_chemical_formula_sum "Si O2"
_cell_formula_units_Z 24
_cell_length_a 13.636003
_cell_length_b 8.534928
_cell_length_c 7.751625
_cell_angle_alpha 90.000000
_cell_angle_beta 90.000000
_cell_angle_gamma 90.000000
_cell_volume 902.151976
_symmetry_space_group_name_H-M "P C A 21"
_symmetry_group_IT_number 29
_symmetry_cell_setting 'orthorhombic'
loop_
_space_group_symop_operation_xyz
x,y,z
-x,-y,1/2+z
1/2-x,y,1/2+z
1/2+x,-y,z
loop_
_atom_site_type_symbol
_atom_site_label
_atom_site_fract_x
_atom_site_fract_y
_atom_site_fract_z
Si Si1 0.295216 0.856156 0.676680
Si Si2 0.838782 0.341928 0.982708
Si Si3 0.524741 0.078246 0.949503
Si Si4 0.963987 0.754583 0.589398
Si Si5 0.334963 0.151675 0.128929
Si Si6 0.280872 0.353945 0.420958
O O1 0.218992 0.715566 0.649789
O O2 0.345628 0.811170 0.857085
O O3 0.373045 0.849987 0.518645
O O4 0.236023 0.016880 0.703095
O O5 0.782314 0.488953 0.903659
O O6 0.950936 0.371395 0.042319
O O7 0.444522 0.090928 0.102075
O O8 0.545543 0.890284 0.939907
O O9 0.485667 0.161744 0.774828
O O10 0.862556 0.653674 0.578517
O O11 0.334419 0.314116 0.241132
O O12 0.294042 0.209820 0.945825
#
# Coordination Sequence:
#
# PCOD8169329 Si02
#       6
#     4   4   4   4   4   4
#     4  12  25  46  78 116 150 207 261 323 382 461
#     4  12  27  48  76 115 162 206 257 321 394 467
#     4  12  26  47  83 118 151 199 267 330 377 467
#     4  12  26  49  79 116 155 205 261 322 397 457
#     4  12  25  46  78 116 150 207 261 323 382 461
#     4  12  27  48  76 115 162 206 257 321 394 467
#
# _framework density 26.603055000000001
#
# number of rings (size 3 to 8) (size 9 to 14) (size 15 to 20)
#    0.000    0.000    3.333    7.000    0.000    1.333 
#    0.000    8.333    0.000    0.000    0.000    0.000 
#    0.000    0.000    0.000    0.000    0.000    0.000 
#
# Total GULP energy -297373.970021 kJ/mol
# GULP energy per Si atom -12390.582084 kJ/mol
# Density = 2.654250 g / cm^3
# Si number density = 26.603055 Si / 1000 Ang^3
#
#
#
# Elastic Constant Matrix: (Units=GPa)
#
#
# Indices 1 2 3 4 5 6 
#
# 1 134.2338 47.3301 6.1469 0.0000 0.0000 0.0000
# 2 47.3301 115.0648 22.9564 0.0000 0.0000 0.0000
# 3 6.1469 22.9564 62.8724 0.0000 0.0000 0.0000
# 4 0.0000 0.0000 0.0000 39.6085 0.0000 0.0000
# 5 0.0000 0.0000 0.0000 0.0000 -39.0553 0.0000
# 6 0.0000 0.0000 0.0000 0.0000 0.0000 48.2330
#
#
#
# Elastic Compliance Matrix: (Units=1/GPa)
#
#
# Indices 1 2 3 4 5 6 
#
# 1 0.008728 -0.003688 0.000493 0.000000 0.000000 0.000000
# 2 -0.003688 0.010932 -0.003631 0.000000 0.000000 0.000000
# 3 0.000493 -0.003631 0.017183 0.000000 0.000000 0.000000
# 4 0.000000 0.000000 0.000000 0.025247 0.000000 0.000000
# 5 0.000000 0.000000 0.000000 0.000000 -0.025605 0.000000
# 6 0.000000 0.000000 0.000000 0.000000 0.000000 0.020733
#
#
# Mechanical properties :
#
#
# Convention : Reuss Voigt Hill
#
# Bulk Modulus (GPa) = 43.12078 51.67086 47.39582
# Shear Modulus (GPa) = 63.61308 25.47307 44.54307
#
# Velocity S-wave (km/s) = 4.89529 3.09775 4.09633
# Velocity P-wave (km/s) = 6.94233 5.67977 6.34254
#
# Compressibility (1/GPa) = 0.02319068
#
# Stress axis : x y z
#
# Youngs Moduli (GPa) = 114.57894 91.47154 58.19773
#
# Poissons Ratio (x) = 0.33738 -0.02872
# Poissons Ratio (y) = 0.42261 0.21132
# Poissons Ratio (z) = -0.05654 0.33214
#
# Static dielectric constant tensor:
#      x y z
#    x 5.156240 0.000000 0.000000 
#    y 0.000000 4.586320 0.000000 
#    z 0.000000 0.000000 4.678880 
# 
# 
# High freq. dielectric constant tensor:
#      x y z
#    x 2.086290 0.000000 0.000000 
#    y 0.000000 2.043840 0.000000 
#    z 0.000000 0.000000 2.079550 
# 
# From -- ./inp_files/1757.got.cif
#   From: 2010.03.12/outbox.cif.g09.slc.cpg/sg29_1_cif.got.tgz:1757.got - 2010.04.14 03:43:10.
