data_PCOD8169787
_publ_section_title
;
Structure prediction by ZEFSAII (Michael W. Deem and Ramdas Pophale) SiO2 
 PCOD8169787
Probable space group: P M N 21
;
_chemical_formula_sum "Si O2"
_cell_formula_units_Z 32
_cell_length_a 9.443650
_cell_length_b 19.863161
_cell_length_c 9.344151
_cell_angle_alpha 90.000000
_cell_angle_beta 90.000000
_cell_angle_gamma 90.000000
_cell_volume 1752.782763
_symmetry_space_group_name_H-M "P M N 21"
_symmetry_group_IT_number 31
_symmetry_cell_setting 'orthorhombic'
loop_
_space_group_symop_operation_xyz
x,y,z
1/2-x,-y,1/2+z
-x,y,z
1/2+x,-y,1/2+z
loop_
_atom_site_type_symbol
_atom_site_label
_atom_site_fract_x
_atom_site_fract_y
_atom_site_fract_z
Si Si1 0.344793 0.786472 0.830140
Si Si2 0.332669 0.470454 0.165403
Si Si3 0.663787 0.932002 0.877248
Si Si4 0.158907 0.167523 0.004800
Si Si5 0.657219 0.283627 0.931656
Si Si6 0.665655 0.429476 0.849055
Si Si7 0.165070 0.954702 0.599856
Si Si8 0.156403 0.671978 0.758701
O O1 0.500000 0.766707 0.886047
O O2 0.290602 0.854440 0.909756
O O3 0.348753 0.803133 0.663012
O O4 0.247557 0.721529 0.859648
O O5 0.500000 0.479596 0.181892
O O6 0.252963 0.535624 0.223359
O O7 0.282671 0.404121 0.254472
O O8 0.290309 0.462028 0.000136
O O9 0.500000 0.932998 0.823061
O O10 0.763054 0.962891 0.754259
O O11 0.682053 0.973789 0.021842
O O12 0.232163 0.223275 0.902118
O O13 0.255251 0.100858 0.003715
O O14 0.000000 0.151826 0.947849
O O15 0.500000 0.261072 0.882127
O O16 0.650835 0.300677 0.098499
O O17 0.705091 0.350303 0.845989
O O18 0.500000 0.439681 0.820965
O O19 0.000000 0.934510 0.616637
O O20 0.000000 0.671671 0.825704
#
# Coordination Sequence:
#
# PCOD8169787 Si02
#       8
#     4   4   4   4   4   4   4   4
#     4   8  14  25  41  62  88 114 142 183 227 263
#     4   9  18  31  46  67  95 122 151 189 229 272
#     4   9  19  33  47  69  98 122 152 193 230 272
#     4   9  16  26  42  66  93 117 148 191 231 270
#     4   8  14  26  43  63  88 116 148 187 229 271
#     4   9  18  31  47  69  95 122 154 191 229 273
#     4  10  19  31  49  70  94 126 157 188 231 277
#     4   8  14  25  41  62  87 113 144 184 224 264
#
# _framework density 18.256684
#
# number of rings (size 3 to 8) (size 9 to 14) (size 15 to 20)
#    0.000    3.250    0.000    3.000    0.000    5.500 
#    0.000    2.500    0.000    1.500    0.000    3.500 
#    0.000    0.000    0.000    0.000    0.000    0.000 
#
# Total GULP energy -396599.639231 kJ/mol
# GULP energy per Si atom -12393.738726 kJ/mol
# Density = 1.821513 g / cm^3
# Si number density = 18.256684 Si / 1000 Ang^3
#
#
#
# Elastic Constant Matrix: (Units=GPa)
#
#
# Indices 1 2 3 4 5 6 
#
# 1 65.0146 6.3016 6.1238 0.0000 0.0000 0.0000
# 2 6.3016 20.1000 -6.7975 0.0000 0.0000 0.0000
# 3 6.1238 -6.7975 14.3131 0.0000 0.0000 0.0000
# 4 0.0000 0.0000 0.0000 22.9924 0.0000 0.0000
# 5 0.0000 0.0000 0.0000 0.0000 13.5272 0.0000
# 6 0.0000 0.0000 0.0000 0.0000 0.0000 34.7171
#
#
#
# Elastic Compliance Matrix: (Units=1/GPa)
#
#
# Indices 1 2 3 4 5 6 
#
# 1 0.017432 -0.009516 -0.011977 0.000000 0.000000 0.000000
# 2 -0.009516 0.064465 0.034687 0.000000 0.000000 0.000000
# 3 -0.011977 0.034687 0.091464 0.000000 0.000000 0.000000
# 4 0.000000 0.000000 0.000000 0.043493 0.000000 0.000000
# 5 0.000000 0.000000 0.000000 0.000000 0.073925 0.000000
# 6 0.000000 0.000000 0.000000 0.000000 0.000000 0.028804
#
#
# Mechanical properties :
#
#
# Convention : Reuss Voigt Hill
#
# Bulk Modulus (GPa) = 5.00628 12.29817 8.65223
# Shear Modulus (GPa) = 13.89746 20.50064 17.19905
#
# Velocity S-wave (km/s) = 2.76203 3.35462 3.07264
# Velocity P-wave (km/s) = 3.59442 4.66428 4.16385
#
# Compressibility (1/GPa) = 0.19974898
#
# Stress axis : x y z
#
# Youngs Moduli (GPa) = 57.36700 15.51229 10.93324
#
# Poissons Ratio (x) = 0.14761 0.13095
# Poissons Ratio (y) = 0.54588 -0.37924
# Poissons Ratio (z) = 0.68710 -0.53807
#
# Static dielectric constant tensor:
#      x y z
#    x 3.564880 0.000000 0.000000 
#    y 0.000000 3.588420 0.000000 
#    z 0.000000 0.000000 2.772860 
# 
# 
# High freq. dielectric constant tensor:
#      x y z
#    x 1.709530 0.000000 0.000000 
#    y 0.000000 1.715390 0.000000 
#    z 0.000000 0.000000 1.646220 
# 
# From -- ./inp_files/3773.got.cif
#   From: 2010.03.12/outbox.cif.g09.slc.cpg/sg31_2_cif.got.tgz:3773.got - 2010.04.14 01:42:59.
