data_PCOD8169311
_publ_section_title
;
Structure prediction by ZEFSAII (Michael W. Deem and Ramdas Pophale) SiO2 
 PCOD8169311
Probable space group: P C A 21
;
_chemical_formula_sum "Si O2"
_cell_formula_units_Z 24
_cell_length_a 9.676271
_cell_length_b 13.146228
_cell_length_c 8.445729
_cell_angle_alpha 90.000000
_cell_angle_beta 90.000000
_cell_angle_gamma 90.000000
_cell_volume 1074.351328
_symmetry_space_group_name_H-M "P C A 21"
_symmetry_group_IT_number 29
_symmetry_cell_setting 'orthorhombic'
loop_
_space_group_symop_operation_xyz
x,y,z
-x,-y,1/2+z
1/2-x,y,1/2+z
1/2+x,-y,z
loop_
_atom_site_type_symbol
_atom_site_label
_atom_site_fract_x
_atom_site_fract_y
_atom_site_fract_z
Si Si1 0.169202 0.906341 0.790710
Si Si2 0.566365 0.420610 0.699660
Si Si3 0.913418 0.191323 0.614950
Si Si4 0.941501 0.797762 0.631077
Si Si5 0.357913 0.579118 0.565090
Si Si6 0.328631 0.142522 0.300516
O O1 0.319984 0.869915 0.739107
O O2 0.057525 0.886279 0.651053
O O3 0.179770 0.023320 0.838162
O O4 0.119707 0.839820 0.937483
O O5 0.513617 0.308786 0.660752
O O6 0.446551 0.500291 0.665940
O O7 0.696990 0.446678 0.589375
O O8 0.608521 0.429048 0.881475
O O9 0.889404 0.310513 0.636932
O O10 0.071795 0.163935 0.652093
O O11 0.821087 0.814175 0.758731
O O12 0.883487 0.799460 0.454213
#
# Coordination Sequence:
#
# PCOD8169311 Si02
#       6
#     4   4   4   4   4   4
#     4  12  23  47  71 107 144 196 242 299 362 433
#     4  12  29  50  82 106 150 187 248 301 376 433
#     4  12  25  45  75 104 149 188 242 304 361 434
#     4  12  27  47  70 109 149 191 245 306 361 433
#     4  12  27  51  77 112 141 196 239 308 368 440
#     4  12  27  42  73 106 149 194 246 292 362 435
#
# _framework density 22.339058999999999
#
# number of rings (size 3 to 8) (size 9 to 14) (size 15 to 20)
#    0.000    0.000    3.333    6.000    7.000    0.000 
#    0.000    0.000    0.000    0.000    0.000    0.000 
#    0.000    0.000    0.000    0.000    0.000    0.000 
#
# Total GULP energy -297845.818723 kJ/mol
# GULP energy per Si atom -12410.242447 kJ/mol
# Density = 2.228821 g / cm^3
# Si number density = 22.339059 Si / 1000 Ang^3
#
#
#
# Elastic Constant Matrix: (Units=GPa)
#
#
# Indices 1 2 3 4 5 6 
#
# 1 142.9671 63.4159 26.2062 0.0000 0.0000 0.0000
# 2 63.4159 80.5254 32.5775 0.0000 0.0000 0.0000
# 3 26.2062 32.5775 84.7861 0.0000 0.0000 0.0000
# 4 0.0000 0.0000 0.0000 30.1274 0.0000 0.0000
# 5 0.0000 0.0000 0.0000 0.0000 39.6170 0.0000
# 6 0.0000 0.0000 0.0000 0.0000 0.0000 48.5705
#
#
#
# Elastic Compliance Matrix: (Units=1/GPa)
#
#
# Indices 1 2 3 4 5 6 
#
# 1 0.010750 -0.008433 -0.000083 0.000000 0.000000 0.000000
# 2 -0.008433 0.021319 -0.005585 0.000000 0.000000 0.000000
# 3 -0.000083 -0.005585 0.013966 0.000000 0.000000 0.000000
# 4 0.000000 0.000000 0.000000 0.033192 0.000000 0.000000
# 5 0.000000 0.000000 0.000000 0.000000 0.025242 0.000000
# 6 0.000000 0.000000 0.000000 0.000000 0.000000 0.020589
#
#
# Mechanical properties :
#
#
# Convention : Reuss Voigt Hill
#
# Bulk Modulus (GPa) = 56.07144 61.40864 58.74004
# Shear Modulus (GPa) = 31.40645 36.06825 33.73735
#
# Velocity S-wave (km/s) = 3.75360 4.02255 3.89040
# Velocity P-wave (km/s) = 6.62878 7.00882 6.82144
#
# Compressibility (1/GPa) = 0.01783439
#
# Stress axis : x y z
#
# Youngs Moduli (GPa) = 93.02124 46.90689 71.60329
#
# Poissons Ratio (x) = 0.39555 0.00592
# Poissons Ratio (y) = 0.78442 0.39990
# Poissons Ratio (z) = 0.00769 0.26197
#
# Static dielectric constant tensor:
#      x y z
#    x 4.377340 0.000000 0.000000 
#    y 0.000000 4.033390 0.000000 
#    z 0.000000 0.000000 4.008140 
# 
# 
# High freq. dielectric constant tensor:
#      x y z
#    x 1.901880 0.000000 0.000000 
#    y 0.000000 1.885650 0.000000 
#    z 0.000000 0.000000 1.891930 
# 
# From -- ./inp_files/1122.got.cif
#   From: 2010.03.12/outbox.cif.g09.slc.cpg/sg29_1_cif.got.tgz:1122.got - 2010.04.14 03:43:10.
