data_PCOD8169380
_publ_section_title
;
Structure prediction by ZEFSAII (Michael W. Deem and Ramdas Pophale) SiO2 
 PCOD8169380
Probable space group: P N C 2
;
_chemical_formula_sum "Si O2"
_cell_formula_units_Z 26
_cell_length_a 8.840054
_cell_length_b 16.834593
_cell_length_c 9.358309
_cell_angle_alpha 90.000000
_cell_angle_beta 90.000000
_cell_angle_gamma 90.000000
_cell_volume 1392.691484
_symmetry_space_group_name_H-M "P N C 2"
_symmetry_group_IT_number 30
_symmetry_cell_setting 'orthorhombic'
loop_
_space_group_symop_operation_xyz
x,y,z
-x,-y,z
-x,1/2+y,1/2+z
x,1/2-y,1/2+z
loop_
_atom_site_type_symbol
_atom_site_label
_atom_site_fract_x
_atom_site_fract_y
_atom_site_fract_z
Si Si1 0.277387 0.377879 0.585600
Si Si2 0.858177 0.855619 0.379540
Si Si3 0.594977 0.073369 0.666989
Si Si4 0.936255 0.419730 0.118254
Si Si5 0.635601 0.799181 0.608142
Si Si6 0.106955 0.318398 0.327485
Si Si7 0.500000 0.000000 0.942798
O O1 0.194506 0.399308 0.734628
O O2 0.375514 0.296378 0.598200
O O3 0.139216 0.365124 0.474323
O O4 0.387483 0.449652 0.542719
O O5 0.705617 0.836192 0.465447
O O6 0.942070 0.772286 0.350282
O O7 0.978390 0.907773 0.467067
O O8 0.758219 0.073225 0.594011
O O9 0.526295 0.159986 0.632281
O O10 0.500000 0.000000 0.596767
O O11 0.598547 0.058658 0.839481
O O12 0.000000 0.500000 0.187098
O O13 0.968907 0.352668 0.235650
O O14 0.737168 0.825550 0.741176
#
# Coordination Sequence:
#
# PCOD8169380 Si02
#       7
#     4   4   4   4   4   4   2
#     4  10  18  35  61  84 121 148 193 238 305 350
#     4   9  20  35  59  86 116 151 189 242 302 348
#     4  10  20  37  63  85 111 153 211 237 276 353
#     4  11  21  38  60  85 114 156 201 241 284 351
#     4   9  17  35  61  86 108 159 198 232 288 361
#     4   9  17  37  63  82 110 157 201 230 284 363
#     4  10  20  36  58  94 112 154 198 252 288 348
#
# _framework density 18.668889
#
# number of rings (size 3 to 8) (size 9 to 14) (size 15 to 20)
#    0.462    1.846    1.538    3.692    0.000    0.000 
#    6.923    2.308    0.000    0.000    0.000    0.000 
#    0.000    0.000    0.000    0.000    0.000    0.000 
#
# Total GULP energy -322285.175896 kJ/mol
# GULP energy per Si atom -12395.583688 kJ/mol
# Density = 1.862640 g / cm^3
# Si number density = 18.668889 Si / 1000 Ang^3
#
#
#
# Elastic Constant Matrix: (Units=GPa)
#
#
# Indices 1 2 3 4 5 6 
#
# 1 109.7308 48.5818 35.5032 0.0000 0.0000 0.0000
# 2 48.5818 82.1492 32.0585 0.0000 0.0000 0.0000
# 3 35.5032 32.0585 117.5942 0.0000 0.0000 0.0000
# 4 0.0000 0.0000 0.0000 13.2943 0.0000 0.0000
# 5 0.0000 0.0000 0.0000 0.0000 20.5137 0.0000
# 6 0.0000 0.0000 0.0000 0.0000 0.0000 30.7611
#
#
#
# Elastic Compliance Matrix: (Units=1/GPa)
#
#
# Indices 1 2 3 4 5 6 
#
# 1 0.012756 -0.006760 -0.002008 0.000000 0.000000 0.000000
# 2 -0.006760 0.017205 -0.002649 0.000000 0.000000 0.000000
# 3 -0.002008 -0.002649 0.009832 0.000000 0.000000 0.000000
# 4 0.000000 0.000000 0.000000 0.075220 0.000000 0.000000
# 5 0.000000 0.000000 0.000000 0.000000 0.048748 0.000000
# 6 0.000000 0.000000 0.000000 0.000000 0.000000 0.032509
#
#
# Mechanical properties :
#
#
# Convention : Reuss Voigt Hill
#
# Bulk Modulus (GPa) = 58.97024 60.19570 59.58297
# Shear Modulus (GPa) = 22.24624 25.80253 24.02439
#
# Velocity S-wave (km/s) = 3.45573 3.72171 3.59119
# Velocity P-wave (km/s) = 6.89774 7.12615 7.01288
#
# Compressibility (1/GPa) = 0.01695771
#
# Stress axis : x y z
#
# Youngs Moduli (GPa) = 78.39557 58.12404 101.70426
#
# Poissons Ratio (x) = 0.39291 0.20425
# Poissons Ratio (y) = 0.52994 0.26946
# Poissons Ratio (z) = 0.15744 0.15400
#
# Static dielectric constant tensor:
#      x y z
#    x 3.031480 0.000000 0.000000 
#    y 0.000000 3.477500 0.000000 
#    z 0.000000 0.000000 3.555530 
# 
# 
# High freq. dielectric constant tensor:
#      x y z
#    x 1.691020 0.000000 0.000000 
#    y 0.000000 1.724120 0.000000 
#    z 0.000000 0.000000 1.726260 
# 
# From -- ./inp_files/1969.got.cif
#   From: 2010.03.12/outbox.cif.g09.slc.cpg/sg30_1_cif.got.tgz:1969.got - 2010.04.14 01:38:02.
