data_PCOD8169849
_publ_section_title
;
Structure prediction by ZEFSAII (Michael W. Deem and Ramdas Pophale) SiO2 
 PCOD8169849
Probable space group: P M N 21
;
_chemical_formula_sum "Si O2"
_cell_formula_units_Z 32
_cell_length_a 8.933054
_cell_length_b 12.314682
_cell_length_c 14.659935
_cell_angle_alpha 90.000000
_cell_angle_beta 90.000000
_cell_angle_gamma 90.000000
_cell_volume 1612.706014
_symmetry_space_group_name_H-M "P M N 21"
_symmetry_group_IT_number 31
_symmetry_cell_setting 'orthorhombic'
loop_
_space_group_symop_operation_xyz
x,y,z
1/2-x,-y,1/2+z
-x,y,z
1/2+x,-y,1/2+z
loop_
_atom_site_type_symbol
_atom_site_label
_atom_site_fract_x
_atom_site_fract_y
_atom_site_fract_z
Si Si1 0.676304 0.050050 0.992250
Si Si2 0.674698 0.115039 0.791709
Si Si3 0.676472 0.664904 0.721457
Si Si4 0.332599 0.710929 0.179508
Si Si5 0.178228 0.402570 0.413815
Si Si6 0.322030 0.902804 0.680572
Si Si7 0.823021 0.511405 0.082695
Si Si8 0.834528 0.184249 0.492731
O O1 0.500000 0.043005 0.014970
O O2 0.707435 0.114789 0.899621
O O3 0.760286 0.100934 0.077857
O O4 0.745836 0.929884 0.974305
O O5 0.500000 0.124297 0.770409
O O6 0.752372 0.226868 0.761857
O O7 0.735962 0.005750 0.740402
O O8 0.500000 0.671688 0.727770
O O9 0.728420 0.590755 0.808288
O O10 0.737052 0.788939 0.724701
O O11 0.724957 0.602492 0.629457
O O12 0.500000 0.674326 0.208314
O O13 0.241305 0.606790 0.145963
O O14 0.341288 0.800371 0.100743
O O15 0.255615 0.491099 0.479878
O O16 0.245527 0.286257 0.446008
O O17 0.000000 0.411902 0.429543
O O18 0.500000 0.904663 0.675685
O O19 0.000000 0.525393 0.077524
O O20 0.000000 0.177752 0.448835
#
# Coordination Sequence:
#
# PCOD8169849 Si02
#       8
#     4   4   4   4   4   4   4   4
#     4  10  19  33  51  78 113 148 179 219 276 331
#     4  10  20  33  54  82 113 145 182 225 272 330
#     4   9  19  37  59  80 111 150 186 224 276 332
#     4  10  19  34  56  77 103 140 183 228 272 325
#     4   9  17  34  59  83 103 142 193 229 268 327
#     4  10  20  36  57  82 111 147 185 225 272 328
#     4  10  20  36  57  82 112 143 180 234 283 321
#     4   8  14  27  51  76 100 131 174 220 259 308
#
# _framework density 19.842428000000002
#
# number of rings (size 3 to 8) (size 9 to 14) (size 15 to 20)
#    0.000    2.500    1.250    2.250    0.000    3.500 
#    2.250    3.125    0.000    1.500    0.000    0.000 
#    0.000    0.000    0.000    0.000    0.000    0.000 
#
# Total GULP energy -396498.134066 kJ/mol
# GULP energy per Si atom -12390.566690 kJ/mol
# Density = 1.979727 g / cm^3
# Si number density = 19.842428 Si / 1000 Ang^3
#
#
#
# Elastic Constant Matrix: (Units=GPa)
#
#
# Indices 1 2 3 4 5 6 
#
# 1 45.6958 14.0059 21.1675 0.0000 0.0000 0.0000
# 2 14.0059 48.0094 17.1840 0.0000 0.0000 0.0000
# 3 21.1675 17.1840 102.4016 0.0000 0.0000 0.0000
# 4 0.0000 0.0000 0.0000 28.2090 0.0000 0.0000
# 5 0.0000 0.0000 0.0000 0.0000 29.4499 0.0000
# 6 0.0000 0.0000 0.0000 0.0000 0.0000 17.4043
#
#
#
# Elastic Compliance Matrix: (Units=1/GPa)
#
#
# Indices 1 2 3 4 5 6 
#
# 1 0.025708 -0.005955 -0.004315 0.000000 0.000000 0.000000
# 2 -0.005955 0.023540 -0.002719 0.000000 0.000000 0.000000
# 3 -0.004315 -0.002719 0.011114 0.000000 0.000000 0.000000
# 4 0.000000 0.000000 0.000000 0.035450 0.000000 0.000000
# 5 0.000000 0.000000 0.000000 0.000000 0.033956 0.000000
# 6 0.000000 0.000000 0.000000 0.000000 0.000000 0.057457
#
#
# Mechanical properties :
#
#
# Convention : Reuss Voigt Hill
#
# Bulk Modulus (GPa) = 29.08428 33.42460 31.25444
# Shear Modulus (GPa) = 22.25548 24.59595 23.42571
#
# Velocity S-wave (km/s) = 3.35268 3.52456 3.43969
# Velocity P-wave (km/s) = 5.44763 5.78316 5.61790
#
# Compressibility (1/GPa) = 0.03438284
#
# Stress axis : x y z
#
# Youngs Moduli (GPa) = 38.89852 42.48099 89.97927
#
# Poissons Ratio (x) = 0.25299 0.38823
# Poissons Ratio (y) = 0.23166 0.24467
# Poissons Ratio (z) = 0.16784 0.11551
#
# Static dielectric constant tensor:
#      x y z
#    x 3.309500 0.000000 0.000000 
#    y 0.000000 3.671420 0.000000 
#    z 0.000000 0.000000 3.747590 
# 
# 
# High freq. dielectric constant tensor:
#      x y z
#    x 1.737150 0.000000 0.000000 
#    y 0.000000 1.766840 0.000000 
#    z 0.000000 0.000000 1.777590 
# 
# From -- ./inp_files/5045.got.cif
#   From: 2010.03.12/outbox.cif.g09.slc.cpg/sg31_3_cif.got.tgz:5045.got - 2010.04.14 01:42:59.
