data_PCOD8169433
_publ_section_title
;
Structure prediction by ZEFSAII (Michael W. Deem and Ramdas Pophale) SiO2 
 PCOD8169433
Probable space group: P N C 2
;
_chemical_formula_sum "Si O2"
_cell_formula_units_Z 30
_cell_length_a 8.395151
_cell_length_b 20.760946
_cell_length_c 9.125949
_cell_angle_alpha 90.000000
_cell_angle_beta 90.000000
_cell_angle_gamma 90.000000
_cell_volume 1590.573301
_symmetry_space_group_name_H-M "P N C 2"
_symmetry_group_IT_number 30
_symmetry_cell_setting 'orthorhombic'
loop_
_space_group_symop_operation_xyz
x,y,z
-x,-y,z
-x,1/2+y,1/2+z
x,1/2-y,1/2+z
loop_
_atom_site_type_symbol
_atom_site_label
_atom_site_fract_x
_atom_site_fract_y
_atom_site_fract_z
Si Si1 0.325746 0.119760 0.375000
Si Si2 0.504226 0.264202 0.004496
Si Si3 0.197880 0.296845 0.649455
Si Si4 0.500000 0.000000 0.441594
Si Si5 0.238453 0.949112 0.652475
Si Si6 0.040527 0.302631 0.351550
Si Si7 0.888544 0.915587 0.647571
Si Si8 0.686488 0.182410 0.776722
O O1 0.455710 0.175591 0.402892
O O2 0.234500 0.134154 0.223387
O O3 0.210453 0.115020 0.515244
O O4 0.406847 0.051042 0.342644
O O5 0.353578 0.236312 0.086825
O O6 0.635408 0.289243 0.119597
O O7 0.569218 0.205717 0.904594
O O8 0.063269 0.304858 0.526451
O O9 0.139855 0.255804 0.787158
O O10 0.377164 0.956880 0.534558
O O11 0.302987 0.896373 0.770327
O O12 0.068969 0.924939 0.586055
O O13 0.196877 0.020458 0.714065
O O14 0.108949 0.368385 0.285148
O O15 0.858279 0.289351 0.314476
#
# Coordination Sequence:
#
# PCOD8169433 Si02
#       8
#     4   4   4   2   4   4   4   4
#     4  11  21  37  59  85 115 153 199 241 292 354
#     4  12  21  36  57  86 119 152 190 247 298 353
#     4  12  22  38  58  84 117 158 195 237 293 363
#     4  10  20  36  60  86 116 150 192 240 296 350
#     4   9  19  35  61  86 115 151 199 242 286 351
#     4  11  21  37  58  84 115 153 198 242 293 351
#     4   9  19  37  60  86 110 152 202 246 283 345
#     4  11  23  37  57  90 119 151 193 249 298 344
#
# _framework density 18.861122999999999
#
# number of rings (size 3 to 8) (size 9 to 14) (size 15 to 20)
#    0.000    1.333    5.333    0.800    0.000    1.067 
#    0.000    1.333    0.000   11.200    0.000    0.000 
#    0.000    0.000    0.000    0.000    0.000    0.000 
#
# Total GULP energy -371864.117277 kJ/mol
# GULP energy per Si atom -12395.470576 kJ/mol
# Density = 1.881819 g / cm^3
# Si number density = 18.861123 Si / 1000 Ang^3
#
#
#
# Elastic Constant Matrix: (Units=GPa)
#
#
# Indices 1 2 3 4 5 6 
#
# 1 80.6150 34.2410 25.9178 0.0000 0.0000 0.0000
# 2 34.2410 87.2981 32.2264 0.0000 0.0000 0.0000
# 3 25.9178 32.2264 85.3546 0.0000 0.0000 0.0000
# 4 0.0000 0.0000 0.0000 31.0515 0.0000 0.0000
# 5 0.0000 0.0000 0.0000 0.0000 6.9707 0.0000
# 6 0.0000 0.0000 0.0000 0.0000 0.0000 31.0835
#
#
#
# Elastic Compliance Matrix: (Units=1/GPa)
#
#
# Indices 1 2 3 4 5 6 
#
# 1 0.015436 -0.005024 -0.002790 0.000000 0.000000 0.000000
# 2 -0.005024 0.014946 -0.004117 0.000000 0.000000 0.000000
# 3 -0.002790 -0.004117 0.014118 0.000000 0.000000 0.000000
# 4 0.000000 0.000000 0.000000 0.032205 0.000000 0.000000
# 5 0.000000 0.000000 0.000000 0.000000 0.143458 0.000000
# 6 0.000000 0.000000 0.000000 0.000000 0.000000 0.032171
#
#
# Mechanical properties :
#
#
# Convention : Reuss Voigt Hill
#
# Bulk Modulus (GPa) = 48.46000 48.67090 48.56545
# Shear Modulus (GPa) = 17.66317 24.54664 21.10490
#
# Velocity S-wave (km/s) = 3.06352 3.61146 3.34872
# Velocity P-wave (km/s) = 6.18566 6.57656 6.38410
#
# Compressibility (1/GPa) = 0.02063558
#
# Stress axis : x y z
#
# Youngs Moduli (GPa) = 64.78474 66.90930 70.83400
#
# Poissons Ratio (x) = 0.33618 0.19763
# Poissons Ratio (y) = 0.32551 0.29164
# Poissons Ratio (z) = 0.18075 0.27548
#
# Static dielectric constant tensor:
#      x y z
#    x 3.734910 0.000000 0.000000 
#    y 0.000000 3.674960 0.000000 
#    z 0.000000 0.000000 3.285180 
# 
# 
# High freq. dielectric constant tensor:
#      x y z
#    x 1.749290 0.000000 0.000000 
#    y 0.000000 1.742130 0.000000 
#    z 0.000000 0.000000 1.701940 
# 
# From -- ./inp_files/2085.got.cif
#   From: 2010.03.12/outbox.cif.g09.slc.cpg/sg30_2_cif.got.tgz:2085.got - 2010.04.14 01:38:02.
