data_PCOD8169748
_publ_section_title
;
Structure prediction by ZEFSAII (Michael W. Deem and Ramdas Pophale) SiO2 
 PCOD8169748
Probable space group: P M N 21
;
_chemical_formula_sum "Si O2"
_cell_formula_units_Z 32
_cell_length_a 9.053529
_cell_length_b 14.739162
_cell_length_c 12.360157
_cell_angle_alpha 90.000000
_cell_angle_beta 90.000000
_cell_angle_gamma 90.000000
_cell_volume 1649.357033
_symmetry_space_group_name_H-M "P M N 21"
_symmetry_group_IT_number 31
_symmetry_cell_setting 'orthorhombic'
loop_
_space_group_symop_operation_xyz
x,y,z
1/2-x,-y,1/2+z
-x,y,z
1/2+x,-y,1/2+z
loop_
_atom_site_type_symbol
_atom_site_label
_atom_site_fract_x
_atom_site_fract_y
_atom_site_fract_z
Si Si1 0.825095 0.821177 0.297520
Si Si2 0.330930 0.943209 0.451523
Si Si3 0.830130 0.858064 0.883748
Si Si4 0.825327 0.737953 0.074583
Si Si5 0.164290 0.366428 0.111743
Si Si6 0.823750 0.168190 0.160579
Si Si7 0.823442 0.556080 0.182470
Si Si8 0.834863 0.349034 0.866059
O O1 0.764780 0.915107 0.345987
O O2 0.774640 0.803213 0.173786
O O3 0.748745 0.746244 0.372910
O O4 0.000000 0.815919 0.309394
O O5 0.500000 0.912481 0.433228
O O6 0.270793 0.898446 0.563372
O O7 0.316884 0.051613 0.457017
O O8 0.737191 0.867448 0.774359
O O9 0.000000 0.840201 0.851558
O O10 0.765195 0.776998 0.960261
O O11 0.771123 0.634511 0.097011
O O12 0.000000 0.741402 0.069122
O O13 0.241072 0.270327 0.140928
O O14 0.244533 0.456648 0.157572
O O15 0.000000 0.361705 0.160906
O O16 0.156150 0.386639 0.985658
O O17 0.000000 0.168087 0.164055
O O18 0.760627 0.579647 0.299188
O O19 0.000000 0.554891 0.185520
O O20 0.000000 0.337874 0.817318
#
# Coordination Sequence:
#
# PCOD8169748 Si02
#       8
#     4   4   4   4   4   4   4   4
#     4  10  19  33  58  83 105 140 188 237 277 328
#     4  10  21  37  57  79 110 147 183 229 285 337
#     4  10  22  38  56  81 113 149 185 231 283 336
#     4   8  17  34  54  77 108 143 179 223 282 331
#     4   9  18  34  56  77 107 149 186 223 282 342
#     4  10  21  39  58  80 111 150 186 226 285 345
#     4   9  18  34  55  80 108 146 193 237 276 331
#     4  10  18  33  54  79 110 146 184 228 284 338
#
# _framework density 19.401499999999999
#
# number of rings (size 3 to 8) (size 9 to 14) (size 15 to 20)
#    0.000    2.500    1.250    1.500    1.750    2.000 
#    0.000    6.250    0.000    0.000    0.000    0.000 
#    0.000    0.000    0.000    0.000    0.000    0.000 
#
# Total GULP energy -396554.077480 kJ/mol
# GULP energy per Si atom -12392.314921 kJ/mol
# Density = 1.935734 g / cm^3
# Si number density = 19.401500 Si / 1000 Ang^3
#
#
#
# Elastic Constant Matrix: (Units=GPa)
#
#
# Indices 1 2 3 4 5 6 
#
# 1 34.1813 20.1865 15.8769 0.0000 0.0000 0.0000
# 2 20.1865 111.0187 46.2269 0.0000 0.0000 0.0000
# 3 15.8769 46.2269 91.3681 0.0000 0.0000 0.0000
# 4 0.0000 0.0000 0.0000 26.9063 0.0000 0.0000
# 5 0.0000 0.0000 0.0000 0.0000 27.4325 0.0000
# 6 0.0000 0.0000 0.0000 0.0000 0.0000 15.3034
#
#
#
# Elastic Compliance Matrix: (Units=1/GPa)
#
#
# Indices 1 2 3 4 5 6 
#
# 1 0.033628 -0.004664 -0.003484 0.000000 0.000000 0.000000
# 2 -0.004664 0.012058 -0.005290 0.000000 0.000000 0.000000
# 3 -0.003484 -0.005290 0.014227 0.000000 0.000000 0.000000
# 4 0.000000 0.000000 0.000000 0.037166 0.000000 0.000000
# 5 0.000000 0.000000 0.000000 0.000000 0.036453 0.000000
# 6 0.000000 0.000000 0.000000 0.000000 0.000000 0.065345
#
#
# Mechanical properties :
#
#
# Convention : Reuss Voigt Hill
#
# Bulk Modulus (GPa) = 30.26902 44.57208 37.42055
# Shear Modulus (GPa) = 21.11785 24.21363 22.66574
#
# Velocity S-wave (km/s) = 3.30277 3.53658 3.42167
# Velocity P-wave (km/s) = 5.49360 6.30079 5.91099
#
# Compressibility (1/GPa) = 0.03303708
#
# Stress axis : x y z
#
# Youngs Moduli (GPa) = 29.73674 82.92976 70.29021
#
# Poissons Ratio (x) = 0.38679 0.24488
# Poissons Ratio (y) = 0.13869 0.37186
# Poissons Ratio (z) = 0.10360 0.43873
#
# Static dielectric constant tensor:
#      x y z
#    x 3.300330 0.000000 0.000000 
#    y 0.000000 3.786350 0.000000 
#    z 0.000000 0.000000 3.482520 
# 
# 
# High freq. dielectric constant tensor:
#      x y z
#    x 1.722540 0.000000 0.000000 
#    y 0.000000 1.762030 0.000000 
#    z 0.000000 0.000000 1.750230 
# 
# From -- ./inp_files/3673.got.cif
#   From: 2010.03.12/outbox.cif.g09.slc.cpg/sg31_2_cif.got.tgz:3673.got - 2010.04.14 01:42:59.
