data_PCOD8169091
_publ_section_title
;
Structure prediction by ZEFSAII (Michael W. Deem and Ramdas Pophale) SiO2 
 PCOD8169091
Probable space group: P C A 21
;
_chemical_formula_sum "Si O2"
_cell_formula_units_Z 20
_cell_length_a 18.805032
_cell_length_b 5.146863
_cell_length_c 8.981895
_cell_angle_alpha 90.000000
_cell_angle_beta 90.000000
_cell_angle_gamma 90.000000
_cell_volume 869.329983
_symmetry_space_group_name_H-M "P C A 21"
_symmetry_group_IT_number 29
_symmetry_cell_setting 'orthorhombic'
loop_
_space_group_symop_operation_xyz
x,y,z
-x,-y,1/2+z
1/2-x,y,1/2+z
1/2+x,-y,z
loop_
_atom_site_type_symbol
_atom_site_label
_atom_site_fract_x
_atom_site_fract_y
_atom_site_fract_z
Si Si1 0.200188 0.192198 0.772660
Si Si2 0.590735 0.193110 0.326394
Si Si3 0.131186 0.695616 0.639851
Si Si4 0.338299 0.141860 0.611013
Si Si5 0.026882 0.305926 0.238838
O O1 0.149487 0.415530 0.707479
O O2 0.280941 0.260910 0.727234
O O3 0.181556 0.913180 0.706472
O O4 0.195198 0.151529 0.948857
O O5 0.641302 0.284358 0.461730
O O6 0.529085 0.409010 0.310007
O O7 0.639661 0.145908 0.177173
O O8 0.548729 0.920125 0.358332
O O9 0.049152 0.759553 0.672240
O O10 0.410931 0.311510 0.611922
#
# Coordination Sequence:
#
# PCOD8169091 Si02
#       5
#     4   4   4   4   4
#     4  12  28  45  72 104 142 188 235 297 352 432
#     4  10  24  45  72  97 144 181 233 286 353 416
#     4  12  27  44  74 106 142 183 240 292 363 416
#     4  10  28  46  72  99 144 185 239 284 360 418
#     4  10  25  42  74 100 142 179 233 291 348 422
#
# _framework density 23.006222000000001
#
# number of rings (size 3 to 8) (size 9 to 14) (size 15 to 20)
#    1.200    0.000    0.000    3.600   14.000    0.000 
#    0.000    0.000    0.000    0.000    0.000    0.000 
#    0.000    0.000    0.000    0.000    0.000    0.000 
#
# Total GULP energy -247781.618086 kJ/mol
# GULP energy per Si atom -12389.080904 kJ/mol
# Density = 2.295386 g / cm^3
# Si number density = 23.006222 Si / 1000 Ang^3
#
#
#
# Elastic Constant Matrix: (Units=GPa)
#
#
# Indices 1 2 3 4 5 6 
#
# 1 96.5307 7.3199 4.5668 0.0000 0.0000 0.0000
# 2 7.3199 127.9004 32.8296 0.0000 0.0000 0.0000
# 3 4.5668 32.8296 109.0218 0.0000 0.0000 0.0000
# 4 0.0000 0.0000 0.0000 30.6238 0.0000 0.0000
# 5 0.0000 0.0000 0.0000 0.0000 27.3997 0.0000
# 6 0.0000 0.0000 0.0000 0.0000 0.0000 28.7489
#
#
#
# Elastic Compliance Matrix: (Units=1/GPa)
#
#
# Indices 1 2 3 4 5 6 
#
# 1 0.010412 -0.000524 -0.000278 0.000000 0.000000 0.000000
# 2 -0.000524 0.008500 -0.002538 0.000000 0.000000 0.000000
# 3 -0.000278 -0.002538 0.009948 0.000000 0.000000 0.000000
# 4 0.000000 0.000000 0.000000 0.032654 0.000000 0.000000
# 5 0.000000 0.000000 0.000000 0.000000 0.036497 0.000000
# 6 0.000000 0.000000 0.000000 0.000000 0.000000 0.034784
#
#
# Mechanical properties :
#
#
# Convention : Reuss Voigt Hill
#
# Bulk Modulus (GPa) = 45.08584 46.98728 46.03656
# Shear Modulus (GPa) = 34.04380 36.60357 35.32368
#
# Velocity S-wave (km/s) = 3.85094 3.99310 3.92267
# Velocity P-wave (km/s) = 6.27796 6.45971 6.36948
#
# Compressibility (1/GPa) = 0.02217991
#
# Stress axis : x y z
#
# Youngs Moduli (GPa) = 96.03991 117.64767 100.51995
#
# Poissons Ratio (x) = 0.06171 0.02797
# Poissons Ratio (y) = 0.05037 0.25508
# Poissons Ratio (z) = 0.02672 0.29854
#
# Static dielectric constant tensor:
#      x y z
#    x 4.069230 0.000000 0.000000 
#    y 0.000000 4.111610 0.000000 
#    z 0.000000 0.000000 4.037350 
# 
# 
# High freq. dielectric constant tensor:
#      x y z
#    x 1.913770 0.000000 0.000000 
#    y 0.000000 1.912320 0.000000 
#    z 0.000000 0.000000 1.893100 
# 
# From -- ./inp_files/1941.got.cif
#   From: 2010.03.12/outbox.cif.g09.slc.cpg/sg29_1_cif.got.tgz:1941.got - 2010.04.14 03:43:10.
