data_PCOD8169609
_publ_section_title
;
Structure prediction by ZEFSAII (Michael W. Deem and Ramdas Pophale) SiO2 
 PCOD8169609
Probable space group: P N C 2
;
_chemical_formula_sum "Si O2"
_cell_formula_units_Z 22
_cell_length_a 9.825412
_cell_length_b 5.125158
_cell_length_c 18.071945
_cell_angle_alpha 90.000000
_cell_angle_beta 90.000000
_cell_angle_gamma 90.000000
_cell_volume 910.045120
_symmetry_space_group_name_H-M "P N C 2"
_symmetry_group_IT_number 30
_symmetry_cell_setting 'orthorhombic'
loop_
_space_group_symop_operation_xyz
x,y,z
-x,-y,z
-x,1/2+y,1/2+z
x,1/2-y,1/2+z
loop_
_atom_site_type_symbol
_atom_site_label
_atom_site_fract_x
_atom_site_fract_y
_atom_site_fract_z
Si Si1 0.500000 0.000000 0.708431
Si Si2 0.162193 0.474556 0.894641
Si Si3 0.771745 0.030578 0.982872
Si Si4 0.000000 0.500000 0.196066
Si Si5 0.357579 0.105064 0.123295
Si Si6 0.749849 0.289399 0.747676
Si Si7 0.000000 0.500000 0.600149
O O1 0.623862 0.899274 0.653764
O O2 0.404948 0.818538 0.761251
O O3 0.198433 0.185599 0.921401
O O4 0.215182 0.501730 0.811265
O O5 0.000000 0.500000 0.900810
O O6 0.243577 0.691723 0.942634
O O7 0.646507 0.929629 0.034260
O O8 0.881604 0.077022 0.045265
O O9 0.129550 0.573477 0.247570
O O10 0.955319 0.746427 0.146698
O O11 0.500000 0.000000 0.153912
O O12 0.241093 0.945999 0.169019
#
# Coordination Sequence:
#
# PCOD8169609 Si02
#       7
#     2   4   4   2   4   4   2
#     4  10  24  50  74 104 144 194 254 318 370 442
#     4  12  28  45  69 108 154 193 238 300 377 449
#     4  12  25  46  69 104 148 190 233 304 371 443
#     4  12  26  39  80 113 140 186 262 312 372 437
#     4  10  24  47  76 105 137 192 256 312 366 444
#     4  11  27  45  75 107 151 197 250 315 376 453
#     4  12  22  41  70 111 138 186 240 306 372 439
#
# _framework density 24.174624999999999
#
# number of rings (size 3 to 8) (size 9 to 14) (size 15 to 20)
#    0.000    0.727    3.636    2.182   11.455    0.000 
#    1.636    0.000    0.000    0.000    0.000    0.000 
#    0.000    0.000    0.000    0.000    0.000    0.000 
#
# Total GULP energy -272537.282939 kJ/mol
# GULP energy per Si atom -12388.058315 kJ/mol
# Density = 2.411960 g / cm^3
# Si number density = 24.174625 Si / 1000 Ang^3
#
#
#
# Elastic Constant Matrix: (Units=GPa)
#
#
# Indices 1 2 3 4 5 6 
#
# 1 90.5350 19.5176 26.4640 0.0000 0.0000 0.0000
# 2 19.5176 94.4678 25.3450 0.0000 0.0000 0.0000
# 3 26.4640 25.3450 125.2698 0.0000 0.0000 0.0000
# 4 0.0000 0.0000 0.0000 68.5571 0.0000 0.0000
# 5 0.0000 0.0000 0.0000 0.0000 14.3008 0.0000
# 6 0.0000 0.0000 0.0000 0.0000 0.0000 36.5122
#
#
#
# Elastic Compliance Matrix: (Units=1/GPa)
#
#
# Indices 1 2 3 4 5 6 
#
# 1 0.012092 -0.001917 -0.002167 0.000000 0.000000 0.000000
# 2 -0.001917 0.011497 -0.001921 0.000000 0.000000 0.000000
# 3 -0.002167 -0.001921 0.008829 0.000000 0.000000 0.000000
# 4 0.000000 0.000000 0.000000 0.014586 0.000000 0.000000
# 5 0.000000 0.000000 0.000000 0.000000 0.069926 0.000000
# 6 0.000000 0.000000 0.000000 0.000000 0.000000 0.027388
#
#
# Mechanical properties :
#
#
# Convention : Reuss Voigt Hill
#
# Bulk Modulus (GPa) = 48.99866 50.32509 49.66187
# Shear Modulus (GPa) = 30.65010 39.80375 35.22692
#
# Velocity S-wave (km/s) = 3.56457 4.06212 3.82145
# Velocity P-wave (km/s) = 6.10362 6.54703 6.32921
#
# Compressibility (1/GPa) = 0.02040872
#
# Stress axis : x y z
#
# Youngs Moduli (GPa) = 82.69893 86.97838 113.26069
#
# Poissons Ratio (x) = 0.16674 0.24540
# Poissons Ratio (y) = 0.15853 0.21759
# Poissons Ratio (z) = 0.17918 0.16710
#
# Static dielectric constant tensor:
#      x y z
#    x 4.513500 0.000000 0.000000 
#    y 0.000000 5.205210 0.000000 
#    z 0.000000 0.000000 4.381630 
# 
# 
# High freq. dielectric constant tensor:
#      x y z
#    x 1.964520 0.000000 0.000000 
#    y 0.000000 1.966660 0.000000 
#    z 0.000000 0.000000 1.952330 
# 
# From -- ./inp_files/5418.got.cif
#   From: 2010.03.12/outbox.cif.g09.slc.cpg/sg30_3_cif.got.tgz:5418.got - 2010.04.14 01:38:02.
