data_PCOD8169986
_publ_section_title
;
Structure prediction by ZEFSAII (Michael W. Deem and Ramdas Pophale) SiO2 
 PCOD8169986
Probable space group: P M N 21
;
_chemical_formula_sum "Si O2"
_cell_formula_units_Z 32
_cell_length_a 8.958723
_cell_length_b 15.940484
_cell_length_c 10.849819
_cell_angle_alpha 90.000000
_cell_angle_beta 90.000000
_cell_angle_gamma 90.000000
_cell_volume 1549.423382
_symmetry_space_group_name_H-M "P M N 21"
_symmetry_group_IT_number 31
_symmetry_cell_setting 'orthorhombic'
loop_
_space_group_symop_operation_xyz
x,y,z
1/2-x,-y,1/2+z
-x,y,z
1/2+x,-y,1/2+z
loop_
_atom_site_type_symbol
_atom_site_label
_atom_site_fract_x
_atom_site_fract_y
_atom_site_fract_z
Si Si1 0.823272 0.437275 0.137450
Si Si2 0.331524 0.288280 0.789798
Si Si3 0.668647 0.836571 0.140166
Si Si4 0.825787 0.734590 0.695854
Si Si5 0.666200 0.141609 0.986332
Si Si6 0.669817 0.851724 0.856519
Si Si7 0.824222 0.456950 0.857177
Si Si8 0.326192 0.979649 0.326031
O O1 0.758862 0.343755 0.137513
O O2 0.755950 0.484439 0.256298
O O3 0.000000 0.434212 0.154022
O O4 0.783631 0.477934 0.002023
O O5 0.500000 0.321899 0.768786
O O6 0.271277 0.244867 0.665232
O O7 0.224056 0.362849 0.829291
O O8 0.324327 0.219168 0.894244
O O9 0.500000 0.812464 0.177611
O O10 0.721471 0.917256 0.216870
O O11 0.682772 0.863638 0.001039
O O12 0.793934 0.818604 0.617224
O O13 0.756183 0.764508 0.825405
O O14 0.000000 0.711967 0.706556
O O15 0.500000 0.102910 0.986763
O O16 0.777302 0.065835 0.953444
O O17 0.500000 0.843731 0.811275
O O18 0.742677 0.934177 0.797490
O O19 0.000000 0.466837 0.837382
O O20 0.500000 0.999527 0.331397
#
# Coordination Sequence:
#
# PCOD8169986 Si02
#       8
#     4   4   4   4   4   4   4   4
#     4  11  25  44  68  98 131 169 218 267 323 391
#     4  10  19  36  64  92 117 152 198 247 303 365
#     4   9  21  40  58  81 119 160 201 253 309 369
#     4  11  23  41  64  90 124 163 204 254 314 374
#     4   9  19  36  60  87 117 153 193 244 300 359
#     4  11  24  40  58  85 123 164 207 256 313 373
#     4  11  24  42  67  98 131 169 213 264 321 387
#     4  10  21  37  59  87 116 156 204 253 307 364
#
# _framework density 20.652843000000001
#
# number of rings (size 3 to 8) (size 9 to 14) (size 15 to 20)
#    0.000    1.750    1.250    2.250    1.750    5.500 
#    0.000    0.000    0.000    0.000    0.000    0.000 
#    0.000    0.000    0.000    0.000    0.000    0.000 
#
# Total GULP energy -396702.842121 kJ/mol
# GULP energy per Si atom -12396.963816 kJ/mol
# Density = 2.060584 g / cm^3
# Si number density = 20.652843 Si / 1000 Ang^3
#
#
#
# Elastic Constant Matrix: (Units=GPa)
#
#
# Indices 1 2 3 4 5 6 
#
# 1 112.9373 49.6667 55.7339 0.0000 0.0000 0.0000
# 2 49.6667 72.9909 46.8514 0.0000 0.0000 0.0000
# 3 55.7339 46.8514 92.3778 0.0000 0.0000 0.0000
# 4 0.0000 0.0000 0.0000 21.0328 0.0000 0.0000
# 5 0.0000 0.0000 0.0000 0.0000 27.5508 0.0000
# 6 0.0000 0.0000 0.0000 0.0000 0.0000 38.1361
#
#
#
# Elastic Compliance Matrix: (Units=1/GPa)
#
#
# Indices 1 2 3 4 5 6 
#
# 1 0.014284 -0.006209 -0.005469 0.000000 0.000000 0.000000
# 2 -0.006209 0.023012 -0.007925 0.000000 0.000000 0.000000
# 3 -0.005469 -0.007925 0.018144 0.000000 0.000000 0.000000
# 4 0.000000 0.000000 0.000000 0.047545 0.000000 0.000000
# 5 0.000000 0.000000 0.000000 0.000000 0.036297 0.000000
# 6 0.000000 0.000000 0.000000 0.000000 0.000000 0.026222
#
#
# Mechanical properties :
#
#
# Convention : Reuss Voigt Hill
#
# Bulk Modulus (GPa) = 61.59835 64.75665 63.17750
# Shear Modulus (GPa) = 23.79586 25.74755 24.77171
#
# Velocity S-wave (km/s) = 3.39807 3.53467 3.46704
# Velocity P-wave (km/s) = 6.72950 6.93408 6.83255
#
# Compressibility (1/GPa) = 0.01623420
#
# Stress axis : x y z
#
# Youngs Moduli (GPa) = 70.00896 43.45497 55.11514
#
# Poissons Ratio (x) = 0.26982 0.30141
# Poissons Ratio (y) = 0.43470 0.43679
# Poissons Ratio (z) = 0.38286 0.34438
#
# Static dielectric constant tensor:
#      x y z
#    x 3.912690 0.000000 0.000000 
#    y 0.000000 3.640490 0.000000 
#    z 0.000000 0.000000 3.890160 
# 
# 
# High freq. dielectric constant tensor:
#      x y z
#    x 1.815130 0.000000 0.000000 
#    y 0.000000 1.803190 0.000000 
#    z 0.000000 0.000000 1.811220 
# 
# From -- ./inp_files/3719.got.cif
#   From: 2010.03.12/outbox.cif.g09.slc.cpg/sg31_2_cif.got.tgz:3719.got - 2010.04.14 01:42:59.
