data_PCOD8169981
_publ_section_title
;
Structure prediction by ZEFSAII (Michael W. Deem and Ramdas Pophale) SiO2 
 PCOD8169981
Probable space group: P M N 21
;
_chemical_formula_sum "Si O2"
_cell_formula_units_Z 32
_cell_length_a 9.081507
_cell_length_b 15.908105
_cell_length_c 10.870968
_cell_angle_alpha 90.000000
_cell_angle_beta 90.000000
_cell_angle_gamma 90.000000
_cell_volume 1570.524039
_symmetry_space_group_name_H-M "P M N 21"
_symmetry_group_IT_number 31
_symmetry_cell_setting 'orthorhombic'
loop_
_space_group_symop_operation_xyz
x,y,z
1/2-x,-y,1/2+z
-x,y,z
1/2+x,-y,1/2+z
loop_
_atom_site_type_symbol
_atom_site_label
_atom_site_fract_x
_atom_site_fract_y
_atom_site_fract_z
Si Si1 0.163319 0.715103 0.620250
Si Si2 0.161436 0.856814 0.420931
Si Si3 0.664704 0.149362 0.520147
Si Si4 0.673636 0.552789 0.257609
Si Si5 0.828301 0.165950 0.279523
Si Si6 0.169897 0.727136 0.228671
Si Si7 0.332214 0.968157 0.585054
Si Si8 0.825480 0.446998 0.039497
O O1 0.148711 0.795893 0.536439
O O2 0.245674 0.747454 0.742416
O O3 0.258975 0.645710 0.550043
O O4 0.000000 0.679526 0.653248
O O5 0.234155 0.802669 0.312021
O O6 0.252934 0.938847 0.458810
O O7 0.000000 0.888175 0.378478
O O8 0.500000 0.142517 0.462735
O O9 0.789948 0.146940 0.419001
O O10 0.677613 0.237531 0.590922
O O11 0.692139 0.067663 0.607433
O O12 0.500000 0.547682 0.233304
O O13 0.725842 0.648061 0.244236
O O14 0.755265 0.501498 0.149811
O O15 0.708968 0.520928 0.398547
O O16 0.774547 0.084524 0.202019
O O17 0.000000 0.182758 0.264702
O O18 0.000000 0.704874 0.265735
O O19 0.500000 0.944933 0.563105
O O20 0.000000 0.444991 0.060205
#
# Coordination Sequence:
#
# PCOD8169981 Si02
#       8
#     4   4   4   4   4   4   4   4
#     4  10  19  36  63  89 115 150 195 242 297 359
#     4   9  18  33  59  87 111 146 192 239 288 349
#     4  10  22  38  56  82 119 159 201 251 309 366
#     4  11  25  43  66  96 129 164 211 261 316 382
#     4  10  21  37  57  83 118 155 199 251 304 363
#     4  10  21  39  62  86 118 159 200 248 305 364
#     4   9  20  36  55  81 114 154 196 246 299 352
#     4  11  24  42  66  96 128 163 206 258 314 377
#
# _framework density 20.375364999999999
#
# number of rings (size 3 to 8) (size 9 to 14) (size 15 to 20)
#    0.000    2.000    1.250    1.500    1.750    5.000 
#    0.000    1.250    0.000    0.000    0.000    0.000 
#    0.000    0.000    0.000    0.000    0.000    0.000 
#
# Total GULP energy -396593.094795 kJ/mol
# GULP energy per Si atom -12393.534212 kJ/mol
# Density = 2.032899 g / cm^3
# Si number density = 20.375365 Si / 1000 Ang^3
#
#
#
# Elastic Constant Matrix: (Units=GPa)
#
#
# Indices 1 2 3 4 5 6 
#
# 1 97.0739 39.2400 49.9849 0.0000 0.0000 0.0000
# 2 39.2400 63.6679 33.4572 0.0000 0.0000 0.0000
# 3 49.9849 33.4572 103.0530 0.0000 0.0000 0.0000
# 4 0.0000 0.0000 0.0000 29.8103 0.0000 0.0000
# 5 0.0000 0.0000 0.0000 0.0000 28.1310 0.0000
# 6 0.0000 0.0000 0.0000 0.0000 0.0000 30.2809
#
#
#
# Elastic Compliance Matrix: (Units=1/GPa)
#
#
# Indices 1 2 3 4 5 6 
#
# 1 0.015923 -0.006939 -0.005471 0.000000 0.000000 0.000000
# 2 -0.006939 0.021961 -0.003764 0.000000 0.000000 0.000000
# 3 -0.005471 -0.003764 0.013579 0.000000 0.000000 0.000000
# 4 0.000000 0.000000 0.000000 0.033545 0.000000 0.000000
# 5 0.000000 0.000000 0.000000 0.000000 0.035548 0.000000
# 6 0.000000 0.000000 0.000000 0.000000 0.000000 0.033024
#
#
# Mechanical properties :
#
#
# Convention : Reuss Voigt Hill
#
# Bulk Modulus (GPa) = 52.31202 56.57323 54.44263
# Shear Modulus (GPa) = 26.00086 27.05196 26.52641
#
# Velocity S-wave (km/s) = 3.57612 3.64769 3.61208
# Velocity P-wave (km/s) = 6.54075 6.75030 6.64635
#
# Compressibility (1/GPa) = 0.01911606
#
# Stress axis : x y z
#
# Youngs Moduli (GPa) = 62.80102 45.53457 73.64155
#
# Poissons Ratio (x) = 0.31597 0.40286
# Poissons Ratio (y) = 0.43578 0.27720
# Poissons Ratio (z) = 0.34356 0.17140
#
# Static dielectric constant tensor:
#      x y z
#    x 3.832680 0.000000 0.000000 
#    y 0.000000 3.627380 0.000000 
#    z 0.000000 0.000000 3.744300 
# 
# 
# High freq. dielectric constant tensor:
#      x y z
#    x 1.794080 0.000000 0.000000 
#    y 0.000000 1.788950 0.000000 
#    z 0.000000 0.000000 1.794920 
# 
# From -- ./inp_files/3590.got.cif
#   From: 2010.03.12/outbox.cif.g09.slc.cpg/sg31_2_cif.got.tgz:3590.got - 2010.04.14 01:42:59.
