data_PCOD8169316
_publ_section_title
;
Structure prediction by ZEFSAII (Michael W. Deem and Ramdas Pophale) SiO2 
 PCOD8169316
Probable space group: P C A 21
;
_chemical_formula_sum "Si O2"
_cell_formula_units_Z 24
_cell_length_a 13.603394
_cell_length_b 9.099428
_cell_length_c 8.556961
_cell_angle_alpha 90.000000
_cell_angle_beta 90.000000
_cell_angle_gamma 90.000000
_cell_volume 1059.207196
_symmetry_space_group_name_H-M "P C A 21"
_symmetry_group_IT_number 29
_symmetry_cell_setting 'orthorhombic'
loop_
_space_group_symop_operation_xyz
x,y,z
-x,-y,1/2+z
1/2-x,y,1/2+z
1/2+x,-y,z
loop_
_atom_site_type_symbol
_atom_site_label
_atom_site_fract_x
_atom_site_fract_y
_atom_site_fract_z
Si Si1 0.381510 0.098529 0.580140
Si Si2 0.019191 0.167890 0.579446
Si Si3 0.528316 0.652984 0.894793
Si Si4 0.129901 0.651904 0.873668
Si Si5 0.831121 0.286928 0.022851
Si Si6 0.808373 0.962823 0.914469
O O1 0.418758 0.261578 0.537749
O O2 0.307757 0.042715 0.445998
O O3 0.320728 0.092941 0.739022
O O4 0.475464 0.994773 0.595561
O O5 0.019374 0.244974 0.744901
O O6 0.130853 0.150832 0.521646
O O7 0.955988 0.255535 0.452730
O O8 0.590527 0.511826 0.847727
O O9 0.418491 0.610591 0.953711
O O10 0.160331 0.725505 0.709914
O O11 0.225355 0.643891 0.984429
O O12 0.844781 0.128629 0.941950
#
# Coordination Sequence:
#
# PCOD8169316 Si02
#       6
#     4   4   4   4   4   4
#     4  12  24  43  71 105 140 183 244 303 353 436
#     4  12  24  45  72 106 141 190 242 301 365 430
#     4  12  27  47  71 109 149 190 243 303 372 442
#     4  12  28  45  74 103 149 194 244 300 373 448
#     4  12  24  46  73 100 143 193 241 300 369 438
#     4  12  25  42  75 105 136 186 244 301 362 424
#
# _framework density 22.658456000000001
#
# number of rings (size 3 to 8) (size 9 to 14) (size 15 to 20)
#    0.000    0.000    5.000    5.000    2.333    4.000 
#    0.000    0.000    0.000    0.000    0.000    0.000 
#    0.000    0.000    0.000    0.000    0.000    0.000 
#
# Total GULP energy -297746.957105 kJ/mol
# GULP energy per Si atom -12406.123213 kJ/mol
# Density = 2.260688 g / cm^3
# Si number density = 22.658456 Si / 1000 Ang^3
#
#
#
# Elastic Constant Matrix: (Units=GPa)
#
#
# Indices 1 2 3 4 5 6 
#
# 1 101.5725 29.9490 14.1652 0.0000 0.0000 0.0000
# 2 29.9490 58.6320 11.4095 0.0000 0.0000 0.0000
# 3 14.1652 11.4095 91.3738 0.0000 0.0000 0.0000
# 4 0.0000 0.0000 0.0000 28.3375 0.0000 0.0000
# 5 0.0000 0.0000 0.0000 0.0000 44.4901 0.0000
# 6 0.0000 0.0000 0.0000 0.0000 0.0000 31.6602
#
#
#
# Elastic Compliance Matrix: (Units=1/GPa)
#
#
# Indices 1 2 3 4 5 6 
#
# 1 0.011697 -0.005762 -0.001094 0.000000 0.000000 0.000000
# 2 -0.005762 0.020318 -0.001644 0.000000 0.000000 0.000000
# 3 -0.001094 -0.001644 0.011319 0.000000 0.000000 0.000000
# 4 0.000000 0.000000 0.000000 0.035289 0.000000 0.000000
# 5 0.000000 0.000000 0.000000 0.000000 0.022477 0.000000
# 6 0.000000 0.000000 0.000000 0.000000 0.000000 0.031585
#
#
# Mechanical properties :
#
#
# Convention : Reuss Voigt Hill
#
# Bulk Modulus (GPa) = 37.97210 40.29175 39.13193
# Shear Modulus (GPa) = 31.55323 33.96787 32.76055
#
# Velocity S-wave (km/s) = 3.73575 3.87605 3.80655
# Velocity P-wave (km/s) = 5.95001 6.15244 6.05207
#
# Compressibility (1/GPa) = 0.02633513
#
# Stress axis : x y z
#
# Youngs Moduli (GPa) = 85.49505 49.21630 88.34789
#
# Poissons Ratio (x) = 0.28357 0.09664
# Poissons Ratio (y) = 0.49260 0.14523
# Poissons Ratio (z) = 0.09352 0.08091
#
# Static dielectric constant tensor:
#      x y z
#    x 4.397720 0.000000 0.000000 
#    y 0.000000 3.894010 0.000000 
#    z 0.000000 0.000000 4.185550 
# 
# 
# High freq. dielectric constant tensor:
#      x y z
#    x 1.914090 0.000000 0.000000 
#    y 0.000000 1.876190 0.000000 
#    z 0.000000 0.000000 1.909120 
# 
# From -- ./inp_files/1729.got.cif
#   From: 2010.03.12/outbox.cif.g09.slc.cpg/sg29_1_cif.got.tgz:1729.got - 2010.04.14 03:43:10.
