data_PCOD8169710
_publ_section_title
;
Structure prediction by ZEFSAII (Michael W. Deem and Ramdas Pophale) SiO2 
 PCOD8169710
Probable space group: P M N 21
;
_chemical_formula_sum "Si O2"
_cell_formula_units_Z 32
_cell_length_a 9.195575
_cell_length_b 12.465743
_cell_length_c 14.262415
_cell_angle_alpha 90.000000
_cell_angle_beta 90.000000
_cell_angle_gamma 90.000000
_cell_volume 1634.895992
_symmetry_space_group_name_H-M "P M N 21"
_symmetry_group_IT_number 31
_symmetry_cell_setting 'orthorhombic'
loop_
_space_group_symop_operation_xyz
x,y,z
1/2-x,-y,1/2+z
-x,y,z
1/2+x,-y,1/2+z
loop_
_atom_site_type_symbol
_atom_site_label
_atom_site_fract_x
_atom_site_fract_y
_atom_site_fract_z
Si Si1 0.331293 0.350010 0.640370
Si Si2 0.836689 0.029341 0.426975
Si Si3 0.328367 0.469434 0.037704
Si Si4 0.834957 0.640438 0.347324
Si Si5 0.159997 0.281849 0.115027
Si Si6 0.330265 0.870457 0.120270
Si Si7 0.657274 0.822285 0.417684
Si Si8 0.830423 0.069176 0.215443
O O1 0.500000 0.338506 0.612094
O O2 0.248950 0.418730 0.561691
O O3 0.316803 0.408224 0.742814
O O4 0.259521 0.233745 0.648347
O O5 0.811096 0.116091 0.508330
O O6 0.000000 0.983450 0.431818
O O7 0.729523 0.932596 0.446415
O O8 0.806480 0.081679 0.326371
O O9 0.500000 0.482528 0.050237
O O10 0.272015 0.381052 0.112926
O O11 0.284573 0.441025 0.929740
O O12 0.749840 0.753297 0.344611
O O13 0.000000 0.672250 0.368781
O O14 0.000000 0.317141 0.154378
O O15 0.224693 0.182705 0.174226
O O16 0.138424 0.247452 0.009227
O O17 0.500000 0.858054 0.146869
O O18 0.265849 0.972252 0.176048
O O19 0.500000 0.845793 0.372005
O O20 0.000000 0.050093 0.188949
#
# Coordination Sequence:
#
# PCOD8169710 Si02
#       8
#     4   4   4   4   4   4   4   4
#     4  11  23  41  62  84 115 155 194 232 284 349
#     4  10  21  35  53  79 115 156 190 225 280 346
#     4  10  21  39  62  86 113 144 187 241 288 333
#     4   9  20  38  60  85 112 150 192 231 283 345
#     4   9  18  34  56  80 108 143 186 231 279 333
#     4  11  23  38  57  86 121 154 191 240 289 334
#     4  10  18  30  54  84 112 143 185 239 279 320
#     4  10  20  37  58  82 114 155 195 229 278 346
#
# _framework density 19.57311
#
# number of rings (size 3 to 8) (size 9 to 14) (size 15 to 20)
#    0.000    2.000    1.250    2.250    0.000    6.500 
#    2.250    0.000    0.000    0.000    0.000    0.000 
#    0.000    0.000    0.000    0.000    0.000    0.000 
#
# Total GULP energy -396687.440714 kJ/mol
# GULP energy per Si atom -12396.482522 kJ/mol
# Density = 1.952856 g / cm^3
# Si number density = 19.573110 Si / 1000 Ang^3
#
#
#
# Elastic Constant Matrix: (Units=GPa)
#
#
# Indices 1 2 3 4 5 6 
#
# 1 99.6785 31.0133 40.1772 0.0000 0.0000 0.0000
# 2 31.0133 55.9979 33.8723 0.0000 0.0000 0.0000
# 3 40.1772 33.8723 95.3425 0.0000 0.0000 0.0000
# 4 0.0000 0.0000 0.0000 22.2524 0.0000 0.0000
# 5 0.0000 0.0000 0.0000 0.0000 47.6106 0.0000
# 6 0.0000 0.0000 0.0000 0.0000 0.0000 35.5963
#
#
#
# Elastic Compliance Matrix: (Units=1/GPa)
#
#
# Indices 1 2 3 4 5 6 
#
# 1 0.013093 -0.004985 -0.003746 0.000000 0.000000 0.000000
# 2 -0.004985 0.024644 -0.006654 0.000000 0.000000 0.000000
# 3 -0.003746 -0.006654 0.014431 0.000000 0.000000 0.000000
# 4 0.000000 0.000000 0.000000 0.044939 0.000000 0.000000
# 5 0.000000 0.000000 0.000000 0.000000 0.021004 0.000000
# 6 0.000000 0.000000 0.000000 0.000000 0.000000 0.028093
#
#
# Mechanical properties :
#
#
# Convention : Reuss Voigt Hill
#
# Bulk Modulus (GPa) = 46.73691 51.23828 48.98759
# Shear Modulus (GPa) = 27.15783 30.82225 28.99004
#
# Velocity S-wave (km/s) = 3.72897 3.97258 3.85270
# Velocity P-wave (km/s) = 6.51692 6.87580 6.69876
#
# Compressibility (1/GPa) = 0.02139637
#
# Stress axis : x y z
#
# Youngs Moduli (GPa) = 76.37421 40.57778 69.29359
#
# Poissons Ratio (x) = 0.20230 0.25960
# Poissons Ratio (y) = 0.38075 0.46111
# Poissons Ratio (z) = 0.28613 0.27002
#
# Static dielectric constant tensor:
#      x y z
#    x 3.306720 0.000000 0.000000 
#    y 0.000000 3.416080 0.000000 
#    z 0.000000 0.000000 3.674040 
# 
# 
# High freq. dielectric constant tensor:
#      x y z
#    x 1.769040 0.000000 0.000000 
#    y 0.000000 1.744110 0.000000 
#    z 0.000000 0.000000 1.764360 
# 
# From -- ./inp_files/5032.got.cif
#   From: 2010.03.12/outbox.cif.g09.slc.cpg/sg31_3_cif.got.tgz:5032.got - 2010.04.14 01:42:59.
