data_PCOD8169947
_publ_section_title
;
Structure prediction by ZEFSAII (Michael W. Deem and Ramdas Pophale) SiO2 
 PCOD8169947
Probable space group: P M N 21
;
_chemical_formula_sum "Si O2"
_cell_formula_units_Z 32
_cell_length_a 8.558973
_cell_length_b 9.188259
_cell_length_c 20.736464
_cell_angle_alpha 90.000000
_cell_angle_beta 90.000000
_cell_angle_gamma 90.000000
_cell_volume 1630.758261
_symmetry_space_group_name_H-M "P M N 21"
_symmetry_group_IT_number 31
_symmetry_cell_setting 'orthorhombic'
loop_
_space_group_symop_operation_xyz
x,y,z
1/2-x,-y,1/2+z
-x,y,z
1/2+x,-y,1/2+z
loop_
_atom_site_type_symbol
_atom_site_label
_atom_site_fract_x
_atom_site_fract_y
_atom_site_fract_z
Si Si1 0.172566 0.670167 0.777900
Si Si2 0.317383 0.659473 0.647924
Si Si3 0.175505 0.324621 0.779735
Si Si4 0.184936 0.661304 0.919845
Si Si5 0.316620 0.835452 0.525579
Si Si6 0.815687 0.671624 0.147195
Si Si7 0.817430 0.654580 0.412481
Si Si8 0.181318 0.148216 0.531917
O O1 0.273465 0.727563 0.717719
O O2 0.170154 0.497294 0.778296
O O3 0.236195 0.717729 0.848332
O O4 0.000000 0.733775 0.767845
O O5 0.500000 0.657621 0.643759
O O6 0.250956 0.759043 0.590578
O O7 0.255583 0.494711 0.640099
O O8 0.272559 0.267537 0.718085
O O9 0.262606 0.275173 0.844774
O O10 0.000000 0.259899 0.778549
O O11 0.224204 0.491941 0.929556
O O12 0.000000 0.680403 0.930637
O O13 0.281749 0.755007 0.969911
O O14 0.500000 0.805281 0.515285
O O15 0.218561 0.773740 0.466277
O O16 0.288048 0.006177 0.530764
O O17 0.720446 0.763380 0.095898
O O18 0.000000 0.686450 0.135070
O O19 0.000000 0.618871 0.409375
O O20 0.000000 0.105281 0.531704
#
# Coordination Sequence:
#
# PCOD8169947 Si02
#       8
#     4   4   4   4   4   4   4   4
#     4   8  16  30  53  82 111 139 173 218 270 323
#     4   9  19  34  57  84 109 139 179 222 270 326
#     4   9  17  32  54  83 115 146 180 224 275 330
#     4  10  20  37  59  84 112 147 186 227 278 336
#     4  11  23  40  57  77 110 152 190 230 280 336
#     4  10  19  35  59  86 113 144 182 228 279 336
#     4  11  21  35  58  88 115 144 184 232 280 332
#     4  12  25  39  55  80 111 147 190 237 284 335
#
# _framework density 19.622774
#
# number of rings (size 3 to 8) (size 9 to 14) (size 15 to 20)
#    0.000    2.000    0.000    5.250    0.000    6.000 
#    0.000    1.250    0.000    3.000    0.000    0.000 
#    0.000    0.000    0.000    0.000    0.000    0.000 
#
# Total GULP energy -396794.935230 kJ/mol
# GULP energy per Si atom -12399.841726 kJ/mol
# Density = 1.957811 g / cm^3
# Si number density = 19.622774 Si / 1000 Ang^3
#
#
#
# Elastic Constant Matrix: (Units=GPa)
#
#
# Indices 1 2 3 4 5 6 
#
# 1 66.5150 5.8282 25.2491 0.0000 0.0000 0.0000
# 2 5.8282 58.1161 45.6631 0.0000 0.0000 0.0000
# 3 25.2491 45.6631 163.6048 0.0000 0.0000 0.0000
# 4 0.0000 0.0000 0.0000 -4.8165 0.0000 0.0000
# 5 0.0000 0.0000 0.0000 0.0000 38.2298 0.0000
# 6 0.0000 0.0000 0.0000 0.0000 0.0000 22.5167
#
#
#
# Elastic Compliance Matrix: (Units=1/GPa)
#
#
# Indices 1 2 3 4 5 6 
#
# 1 0.015978 0.000429 -0.002586 0.000000 0.000000 0.000000
# 2 0.000429 0.022052 -0.006221 0.000000 0.000000 0.000000
# 3 -0.002586 -0.006221 0.008248 0.000000 0.000000 0.000000
# 4 0.000000 0.000000 0.000000 -0.207622 0.000000 0.000000
# 5 0.000000 0.000000 0.000000 0.000000 0.026158 0.000000
# 6 0.000000 0.000000 0.000000 0.000000 0.000000 0.044411
#
#
# Mechanical properties :
#
#
# Convention : Reuss Voigt Hill
#
# Bulk Modulus (GPa) = 33.87225 49.07964 41.47595
# Shear Modulus (GPa) = -77.90719 25.28573 -26.31073
#
# Velocity S-wave (km/s) = -6.30782 3.59359 -3.66570
# Velocity P-wave (km/s) = 5.97932 6.50264 1.80722
#
# Compressibility (1/GPa) = 0.02952269
#
# Stress axis : x y z
#
# Youngs Moduli (GPa) = 62.58560 45.34753 121.24623
#
# Poissons Ratio (x) = -0.01947 0.31351
# Poissons Ratio (y) = -0.02687 0.75428
# Poissons Ratio (z) = 0.16183 0.28211
#
# Static dielectric constant tensor:
#      x y z
#    x 3.556330 0.000000 0.000000 
#    y 0.000000 3.282540 0.000000 
#    z 0.000000 0.000000 4.069190 
# 
# 
# High freq. dielectric constant tensor:
#      x y z
#    x 1.767680 0.000000 0.000000 
#    y 0.000000 1.724130 0.000000 
#    z 0.000000 0.000000 1.787260 
# 
# From -- ./inp_files/6244.got.cif
#   From: 2010.03.12/outbox.cif.g09.slc.cpg/sg31_4_cif.got.tgz:6244.got - 2010.04.14 01:42:59.
