data_PCOD8169897
_publ_section_title
;
Structure prediction by ZEFSAII (Michael W. Deem and Ramdas Pophale) SiO2 
 PCOD8169897
Probable space group: P M N 21
;
_chemical_formula_sum "Si O2"
_cell_formula_units_Z 32
_cell_length_a 8.403716
_cell_length_b 10.092674
_cell_length_c 19.880039
_cell_angle_alpha 90.000000
_cell_angle_beta 90.000000
_cell_angle_gamma 90.000000
_cell_volume 1686.144711
_symmetry_space_group_name_H-M "P M N 21"
_symmetry_group_IT_number 31
_symmetry_cell_setting 'orthorhombic'
loop_
_space_group_symop_operation_xyz
x,y,z
1/2-x,-y,1/2+z
-x,y,z
1/2+x,-y,1/2+z
loop_
_atom_site_type_symbol
_atom_site_label
_atom_site_fract_x
_atom_site_fract_y
_atom_site_fract_z
Si Si1 0.313177 0.845696 0.648680
Si Si2 0.185257 0.849320 0.502309
Si Si3 0.687367 0.852159 0.007623
Si Si4 0.315358 0.338056 0.755100
Si Si5 0.687932 0.636061 0.755911
Si Si6 0.816296 0.352620 0.899158
Si Si7 0.689967 0.634179 0.906326
Si Si8 0.814842 0.124994 0.656996
O O1 0.500000 0.825533 0.636537
O O2 0.219170 0.819101 0.580132
O O3 0.243247 0.740892 0.702711
O O4 0.280478 0.992623 0.677319
O O5 0.291559 0.756040 0.456342
O O6 0.000000 0.824598 0.487601
O O7 0.236822 0.999974 0.485462
O O8 0.500000 0.837322 0.004169
O O9 0.762108 0.744895 0.956609
O O10 0.746068 0.824677 0.083869
O O11 0.500000 0.314165 0.739485
O O12 0.260966 0.486953 0.735730
O O13 0.285348 0.312673 0.833789
O O14 0.211854 0.237898 0.711527
O O15 0.500000 0.646460 0.756834
O O16 0.750385 0.668963 0.831004
O O17 0.759443 0.492996 0.928905
O O18 0.000000 0.359030 0.878803
O O19 0.500000 0.626084 0.909245
O O20 0.000000 0.087704 0.652957
#
# Coordination Sequence:
#
# PCOD8169897 Si02
#       8
#     4   4   4   4   4   4   4   4
#     4  10  19  34  54  79 108 141 178 221 266 313
#     4  10  20  36  55  78 106 141 179 218 262 314
#     4   8  17  33  55  78 104 137 177 217 257 305
#     4  10  20  37  57  77 101 137 178 219 263 313
#     4   8  17  32  53  78 104 132 173 221 265 312
#     4  11  22  36  53  79 109 137 169 214 264 317
#     4   9  17  35  57  77 101 135 174 215 259 310
#     4  10  20  35  52  78 111 142 176 219 264 314
#
# _framework density 18.978207000000001
#
# number of rings (size 3 to 8) (size 9 to 14) (size 15 to 20)
#    0.000    2.500    0.000    4.125    0.000    2.000 
#    0.000   15.000    0.000    0.000    0.000    0.000 
#    0.000    0.000    0.000    0.000    0.000    0.000 
#
# Total GULP energy -396803.187535 kJ/mol
# GULP energy per Si atom -12400.099610 kJ/mol
# Density = 1.893501 g / cm^3
# Si number density = 18.978207 Si / 1000 Ang^3
#
#
#
# Elastic Constant Matrix: (Units=GPa)
#
#
# Indices 1 2 3 4 5 6 
#
# 1 41.1381 12.2082 7.4104 0.0000 0.0000 0.0000
# 2 12.2082 131.6880 82.9303 0.0000 0.0000 0.0000
# 3 7.4104 82.9303 92.2192 0.0000 0.0000 0.0000
# 4 0.0000 0.0000 0.0000 42.4716 0.0000 0.0000
# 5 0.0000 0.0000 0.0000 0.0000 25.4898 0.0000
# 6 0.0000 0.0000 0.0000 0.0000 0.0000 23.2055
#
#
#
# Elastic Compliance Matrix: (Units=1/GPa)
#
#
# Indices 1 2 3 4 5 6 
#
# 1 0.024997 -0.002427 0.000174 0.000000 0.000000 0.000000
# 2 -0.002427 0.017745 -0.015763 0.000000 0.000000 0.000000
# 3 0.000174 -0.015763 0.025005 0.000000 0.000000 0.000000
# 4 0.000000 0.000000 0.000000 0.023545 0.000000 0.000000
# 5 0.000000 0.000000 0.000000 0.000000 0.039231 0.000000
# 6 0.000000 0.000000 0.000000 0.000000 0.000000 0.043093
#
#
# Mechanical properties :
#
#
# Convention : Reuss Voigt Hill
#
# Bulk Modulus (GPa) = 31.53034 52.23811 41.88423
# Shear Modulus (GPa) = 22.70444 29.06646 25.88545
#
# Velocity S-wave (km/s) = 3.46257 3.91777 3.69718
# Velocity P-wave (km/s) = 5.71278 6.93184 6.35162
#
# Compressibility (1/GPa) = 0.03171548
#
# Stress axis : x y z
#
# Youngs Moduli (GPa) = 40.00439 56.35280 39.99206
#
# Poissons Ratio (x) = 0.13675 -0.00694
# Poissons Ratio (y) = 0.09708 0.63039
# Poissons Ratio (z) = -0.00694 0.88828
#
# Static dielectric constant tensor:
#      x y z
#    x 3.220080 0.000000 0.000000 
#    y 0.000000 3.626060 0.000000 
#    z 0.000000 0.000000 3.642320 
# 
# 
# High freq. dielectric constant tensor:
#      x y z
#    x 1.721410 0.000000 0.000000 
#    y 0.000000 1.741330 0.000000 
#    z 0.000000 0.000000 1.736680 
# 
# From -- ./inp_files/5917.got.cif
#   From: 2010.03.12/outbox.cif.g09.slc.cpg/sg31_3_cif.got.tgz:5917.got - 2010.04.14 01:42:59.
