data_PCOD8169590
_publ_section_title
;
Structure prediction by ZEFSAII (Michael W. Deem and Ramdas Pophale) SiO2 
 PCOD8169590
Probable space group: P N C 2
;
_chemical_formula_sum "Si O2"
_cell_formula_units_Z 26
_cell_length_a 13.717192
_cell_length_b 9.005126
_cell_length_c 10.569525
_cell_angle_alpha 90.000000
_cell_angle_beta 90.000000
_cell_angle_gamma 90.000000
_cell_volume 1305.601023
_symmetry_space_group_name_H-M "P N C 2"
_symmetry_group_IT_number 30
_symmetry_cell_setting 'orthorhombic'
loop_
_space_group_symop_operation_xyz
x,y,z
-x,-y,z
-x,1/2+y,1/2+z
x,1/2-y,1/2+z
loop_
_atom_site_type_symbol
_atom_site_label
_atom_site_fract_x
_atom_site_fract_y
_atom_site_fract_z
Si Si1 0.701703 0.958528 0.995860
Si Si2 0.082924 0.379985 0.786462
Si Si3 0.708888 0.014901 0.277473
Si Si4 0.575252 0.685369 0.931112
Si Si5 0.918619 0.875721 0.994300
Si Si6 0.617225 0.309390 0.323033
Si Si7 0.500000 0.500000 0.147700
O O1 0.659236 0.115303 0.949360
O O2 0.647993 0.823039 0.928772
O O3 0.815815 0.952972 0.964466
O O4 0.681076 0.945052 0.143641
O O5 0.183150 0.465462 0.816389
O O6 0.065129 0.253504 0.891488
O O7 0.080105 0.316778 0.641044
O O8 0.000000 0.500000 0.805299
O O9 0.630895 0.957559 0.378179
O O10 0.698929 0.194260 0.272466
O O11 0.483348 0.723885 0.845392
O O12 0.539005 0.640593 0.069491
O O13 0.000000 0.000000 0.973808
O O14 0.593599 0.442172 0.225910
#
# Coordination Sequence:
#
# PCOD8169590 Si02
#       7
#     4   4   4   4   4   4   2
#     4  11  24  42  64  90 128 168 212 262 322 381
#     4  10  23  45  68  99 131 167 216 268 327 388
#     4  11  24  42  64  90 128 171 211 266 320 383
#     4  12  22  41  62  89 124 171 211 260 316 378
#     4  10  23  43  69  97 131 167 214 268 325 391
#     4  12  24  40  60  94 125 169 212 266 317 377
#     4  12  24  38  62  92 130 164 228 262 314 386
#
# _framework density 19.914199
#
# number of rings (size 3 to 8) (size 9 to 14) (size 15 to 20)
#    0.000    0.923    4.615    1.846    2.154    1.846 
#    0.000    0.000    0.000    0.000    0.000    0.000 
#    0.000    0.000    0.000    0.000    0.000    0.000 
#
# Total GULP energy -322418.357253 kJ/mol
# GULP energy per Si atom -12400.706048 kJ/mol
# Density = 1.986887 g / cm^3
# Si number density = 19.914199 Si / 1000 Ang^3
#
#
#
# Elastic Constant Matrix: (Units=GPa)
#
#
# Indices 1 2 3 4 5 6 
#
# 1 111.6817 44.5453 40.9901 0.0000 0.0000 0.0000
# 2 44.5453 97.9506 40.4968 0.0000 0.0000 0.0000
# 3 40.9901 40.4968 95.7872 0.0000 0.0000 0.0000
# 4 0.0000 0.0000 0.0000 42.6420 0.0000 0.0000
# 5 0.0000 0.0000 0.0000 0.0000 26.1232 0.0000
# 6 0.0000 0.0000 0.0000 0.0000 0.0000 39.2848
#
#
#
# Elastic Compliance Matrix: (Units=1/GPa)
#
#
# Indices 1 2 3 4 5 6 
#
# 1 0.011768 -0.003962 -0.003361 0.000000 0.000000 0.000000
# 2 -0.003962 0.013706 -0.004099 0.000000 0.000000 0.000000
# 3 -0.003361 -0.004099 0.013611 0.000000 0.000000 0.000000
# 4 0.000000 0.000000 0.000000 0.023451 0.000000 0.000000
# 5 0.000000 0.000000 0.000000 0.000000 0.038280 0.000000
# 6 0.000000 0.000000 0.000000 0.000000 0.000000 0.025455
#
#
# Mechanical properties :
#
#
# Convention : Reuss Voigt Hill
#
# Bulk Modulus (GPa) = 61.57329 61.94266 61.75798
# Shear Modulus (GPa) = 32.35653 33.56915 32.96284
#
# Velocity S-wave (km/s) = 4.03525 4.11017 4.07288
# Velocity P-wave (km/s) = 7.25930 7.32782 7.29364
#
# Compressibility (1/GPa) = 0.01624081
#
# Stress axis : x y z
#
# Youngs Moduli (GPa) = 84.97726 72.96154 73.47069
#
# Poissons Ratio (x) = 0.28909 0.24691
# Poissons Ratio (y) = 0.33670 0.30115
# Poissons Ratio (z) = 0.28558 0.29907
#
# Static dielectric constant tensor:
#      x y z
#    x 3.716580 0.000000 0.000000 
#    y 0.000000 3.617040 0.000000 
#    z 0.000000 0.000000 3.695920 
# 
# 
# High freq. dielectric constant tensor:
#      x y z
#    x 1.782970 0.000000 0.000000 
#    y 0.000000 1.778550 0.000000 
#    z 0.000000 0.000000 1.782020 
# 
# From -- ./inp_files/4079.got.cif
#   From: 2010.03.12/outbox.cif.g09.slc.cpg/sg30_3_cif.got.tgz:4079.got - 2010.04.14 01:38:02.
