data_PCOD8169876
_publ_section_title
;
Structure prediction by ZEFSAII (Michael W. Deem and Ramdas Pophale) SiO2 
 PCOD8169876
Probable space group: P M N 21
;
_chemical_formula_sum "Si O2"
_cell_formula_units_Z 32
_cell_length_a 9.218295
_cell_length_b 11.894879
_cell_length_c 14.315664
_cell_angle_alpha 90.000000
_cell_angle_beta 90.000000
_cell_angle_gamma 90.000000
_cell_volume 1569.719767
_symmetry_space_group_name_H-M "P M N 21"
_symmetry_group_IT_number 31
_symmetry_cell_setting 'orthorhombic'
loop_
_space_group_symop_operation_xyz
x,y,z
1/2-x,-y,1/2+z
-x,y,z
1/2+x,-y,1/2+z
loop_
_atom_site_type_symbol
_atom_site_label
_atom_site_fract_x
_atom_site_fract_y
_atom_site_fract_z
Si Si1 0.332566 0.320537 0.668900
Si Si2 0.829633 0.042427 0.418944
Si Si3 0.167435 0.493144 0.028280
Si Si4 0.662155 0.597576 0.334788
Si Si5 0.333857 0.288538 0.098270
Si Si6 0.330547 0.905252 0.130714
Si Si7 0.663473 0.827535 0.441023
Si Si8 0.664991 0.119339 0.254493
O O1 0.500000 0.299882 0.691639
O O2 0.312526 0.381030 0.567865
O O3 0.269302 0.406675 0.746669
O O4 0.252795 0.201923 0.671117
O O5 0.786719 0.080346 0.522673
O O6 0.771477 0.132055 0.343288
O O7 0.000000 0.023612 0.408664
O O8 0.744526 0.929450 0.390057
O O9 0.260513 0.410244 0.093387
O O10 0.000000 0.453041 0.034120
O O11 0.216388 0.484352 0.919348
O O12 0.500000 0.562327 0.302768
O O13 0.662651 0.724633 0.370565
O O14 0.500000 0.297653 0.064928
O O15 0.323699 0.239023 0.202375
O O16 0.252732 0.199585 0.033485
O O17 0.500000 0.879929 0.140970
O O18 0.286127 0.017249 0.186499
O O19 0.500000 0.862301 0.468281
O O20 0.500000 0.098774 0.287936
#
# Coordination Sequence:
#
# PCOD8169876 Si02
#       8
#     4   4   4   4   4   4   4   4
#     4  11  23  39  60  88 118 150 196 246 286 342
#     4  11  22  36  55  84 118 154 196 238 283 345
#     4   9  21  41  60  83 117 151 189 243 297 342
#     4   9  19  37  60  84 112 153 194 234 294 350
#     4  10  19  35  59  84 110 144 191 238 284 343
#     4  10  22  41  59  81 121 160 190 234 291 346
#     4  10  19  33  56  83 115 152 189 236 290 339
#     4  10  21  38  57  83 119 154 189 235 293 351
#
# _framework density 20.385805999999999
#
# number of rings (size 3 to 8) (size 9 to 14) (size 15 to 20)
#    0.000    2.000    1.250    3.000    0.000    9.000 
#    2.250    0.000    0.000    0.000    0.000    0.000 
#    0.000    0.000    0.000    0.000    0.000    0.000 
#
# Total GULP energy -396801.804704 kJ/mol
# GULP energy per Si atom -12400.056397 kJ/mol
# Density = 2.033941 g / cm^3
# Si number density = 20.385806 Si / 1000 Ang^3
#
#
#
# Elastic Constant Matrix: (Units=GPa)
#
#
# Indices 1 2 3 4 5 6 
#
# 1 87.4287 13.9596 34.7971 0.0000 0.0000 0.0000
# 2 13.9596 37.4422 4.0502 0.0000 0.0000 0.0000
# 3 34.7971 4.0502 86.9568 0.0000 0.0000 0.0000
# 4 0.0000 0.0000 0.0000 21.0128 0.0000 0.0000
# 5 0.0000 0.0000 0.0000 0.0000 36.5147 0.0000
# 6 0.0000 0.0000 0.0000 0.0000 0.0000 14.6395
#
#
#
# Elastic Compliance Matrix: (Units=1/GPa)
#
#
# Indices 1 2 3 4 5 6 
#
# 1 0.014406 -0.004771 -0.005542 0.000000 0.000000 0.000000
# 2 -0.004771 0.028423 0.000585 0.000000 0.000000 0.000000
# 3 -0.005542 0.000585 0.013691 0.000000 0.000000 0.000000
# 4 0.000000 0.000000 0.000000 0.047590 0.000000 0.000000
# 5 0.000000 0.000000 0.000000 0.000000 0.027386 0.000000
# 6 0.000000 0.000000 0.000000 0.000000 0.000000 0.068308
#
#
# Mechanical properties :
#
#
# Convention : Reuss Voigt Hill
#
# Bulk Modulus (GPa) = 26.98108 35.27128 31.12618
# Shear Modulus (GPa) = 21.58755 25.03479 23.31117
#
# Velocity S-wave (km/s) = 3.25768 3.50816 3.38524
# Velocity P-wave (km/s) = 5.23583 5.80939 5.53005
#
# Compressibility (1/GPa) = 0.03706301
#
# Stress axis : x y z
#
# Youngs Moduli (GPa) = 69.41730 35.18229 73.04294
#
# Poissons Ratio (x) = 0.16787 0.40483
# Poissons Ratio (y) = 0.33121 -0.04276
# Poissons Ratio (z) = 0.38474 -0.02060
#
# Static dielectric constant tensor:
#      x y z
#    x 3.726920 0.000000 0.000000 
#    y 0.000000 3.462080 0.000000 
#    z 0.000000 0.000000 3.774970 
# 
# 
# High freq. dielectric constant tensor:
#      x y z
#    x 1.798260 0.000000 0.000000 
#    y 0.000000 1.778490 0.000000 
#    z 0.000000 0.000000 1.797440 
# 
# From -- ./inp_files/5078.got.cif
#   From: 2010.03.12/outbox.cif.g09.slc.cpg/sg31_3_cif.got.tgz:5078.got - 2010.04.14 01:42:59.
