data_PCOD8169950
_publ_section_title
;
Structure prediction by ZEFSAII (Michael W. Deem and Ramdas Pophale) SiO2 
 PCOD8169950
Probable space group: P M N 21
;
_chemical_formula_sum "Si O2"
_cell_formula_units_Z 32
_cell_length_a 14.681841
_cell_length_b 11.259648
_cell_length_c 9.172324
_cell_angle_alpha 90.000000
_cell_angle_beta 90.000000
_cell_angle_gamma 90.000000
_cell_volume 1516.298542
_symmetry_space_group_name_H-M "P M N 21"
_symmetry_group_IT_number 31
_symmetry_cell_setting 'orthorhombic'
loop_
_space_group_symop_operation_xyz
x,y,z
1/2-x,-y,1/2+z
-x,y,z
1/2+x,-y,1/2+z
loop_
_atom_site_type_symbol
_atom_site_label
_atom_site_fract_x
_atom_site_fract_y
_atom_site_fract_z
Si Si1 0.399438 0.190929 0.420850
Si Si2 0.600668 0.698012 0.950824
Si Si3 0.271789 0.850526 0.748337
Si Si4 0.894309 0.923883 0.225865
Si Si5 0.314819 0.469441 0.002538
Si Si6 0.650687 0.450028 0.334431
Si Si7 0.277205 0.221037 0.934654
Si Si8 0.399942 0.713244 0.284869
O O1 0.500000 0.139721 0.379228
O O2 0.319090 0.116702 0.340911
O O3 0.383564 0.168637 0.593327
O O4 0.403720 0.330926 0.378720
O O5 0.500000 0.739425 0.903541
O O6 0.672647 0.753107 0.839839
O O7 0.601659 0.553766 0.954357
O O8 0.623592 0.736090 0.115764
O O9 0.230839 0.792939 0.605598
O O10 0.336632 0.957149 0.699442
O O11 0.849606 0.870404 0.371038
O O12 0.000000 0.954985 0.256265
O O13 0.225571 0.544110 0.960810
O O14 0.318593 0.351443 0.904257
O O15 0.309267 0.435294 0.172242
O O16 0.595209 0.574062 0.331909
O O17 0.175870 0.210814 0.868491
O O18 0.500000 0.765593 0.321351
#
# Coordination Sequence:
#
# PCOD8169950 Si02
#       8
#     4   4   4   4   4   4   4   4
#     4  11  23  42  68  93 124 170 220 267 326 387
#     4  10  20  36  63  93 127 172 208 254 324 391
#     4  12  23  45  66  94 127 168 218 276 324 380
#     4  11  27  46  65  90 125 173 225 277 328 383
#     4  10  19  35  59  96 131 166 206 260 321 397
#     4  10  19  35  61  93 131 171 206 259 317 387
#     4  11  23  39  65  92 129 166 212 273 327 379
#     4   9  20  36  59  95 132 168 207 252 319 392
#
# _framework density 21.104023999999999
#
# number of rings (size 3 to 8) (size 9 to 14) (size 15 to 20)
#    0.000    1.500    2.500    2.250    3.500    2.500 
#    0.000    0.625    0.000    0.000    0.000    0.000 
#    0.000    0.000    0.000    0.000    0.000    0.000 
#
# Total GULP energy -396524.753808 kJ/mol
# GULP energy per Si atom -12391.398556 kJ/mol
# Density = 2.105599 g / cm^3
# Si number density = 21.104024 Si / 1000 Ang^3
#
#
#
# Elastic Constant Matrix: (Units=GPa)
#
#
# Indices 1 2 3 4 5 6 
#
# 1 126.3780 30.0062 51.3051 0.0000 0.0000 0.0000
# 2 30.0062 70.9649 28.5332 0.0000 0.0000 0.0000
# 3 51.3051 28.5332 102.9412 0.0000 0.0000 0.0000
# 4 0.0000 0.0000 0.0000 28.8062 0.0000 0.0000
# 5 0.0000 0.0000 0.0000 0.0000 25.9019 0.0000
# 6 0.0000 0.0000 0.0000 0.0000 0.0000 26.0212
#
#
#
# Elastic Compliance Matrix: (Units=1/GPa)
#
#
# Indices 1 2 3 4 5 6 
#
# 1 0.010325 -0.002585 -0.004429 0.000000 0.000000 0.000000
# 2 -0.002585 0.016506 -0.003287 0.000000 0.000000 0.000000
# 3 -0.004429 -0.003287 0.012833 0.000000 0.000000 0.000000
# 4 0.000000 0.000000 0.000000 0.034715 0.000000 0.000000
# 5 0.000000 0.000000 0.000000 0.000000 0.038607 0.000000
# 6 0.000000 0.000000 0.000000 0.000000 0.000000 0.038430
#
#
# Mechanical properties :
#
#
# Convention : Reuss Voigt Hill
#
# Bulk Modulus (GPa) = 52.46135 57.77480 55.11807
# Shear Modulus (GPa) = 28.03144 28.84185 28.43665
#
# Velocity S-wave (km/s) = 3.64847 3.70084 3.67475
# Velocity P-wave (km/s) = 6.53153 6.75997 6.64673
#
# Compressibility (1/GPa) = 0.01906165
#
# Stress axis : x y z
#
# Youngs Moduli (GPa) = 96.85623 60.58426 77.92493
#
# Poissons Ratio (x) = 0.15659 0.34515
# Poissons Ratio (y) = 0.25034 0.25613
# Poissons Ratio (z) = 0.42900 0.19914
#
# Static dielectric constant tensor:
#      x y z
#    x 3.936990 0.000000 0.000000 
#    y 0.000000 3.797700 0.000000 
#    z 0.000000 0.000000 3.722430 
# 
# 
# High freq. dielectric constant tensor:
#      x y z
#    x 1.830730 0.000000 0.000000 
#    y 0.000000 1.818870 0.000000 
#    z 0.000000 0.000000 1.825810 
# 
# From -- ./inp_files/2576.got.cif
#   From: 2010.03.12/outbox.cif.g09.slc.cpg/sg31_2_cif.got.tgz:2576.got - 2010.04.14 01:42:59.
