data_PCOD8169523
_publ_section_title
;
Structure prediction by ZEFSAII (Michael W. Deem and Ramdas Pophale) SiO2 
 PCOD8169523
Probable space group: P N C 2
;
_chemical_formula_sum "Si O2"
_cell_formula_units_Z 22
_cell_length_a 6.576313
_cell_length_b 13.804443
_cell_length_c 10.357097
_cell_angle_alpha 90.000000
_cell_angle_beta 90.000000
_cell_angle_gamma 90.000000
_cell_volume 940.241480
_symmetry_space_group_name_H-M "P N C 2"
_symmetry_group_IT_number 30
_symmetry_cell_setting 'orthorhombic'
loop_
_space_group_symop_operation_xyz
x,y,z
-x,-y,z
-x,1/2+y,1/2+z
x,1/2-y,1/2+z
loop_
_atom_site_type_symbol
_atom_site_label
_atom_site_fract_x
_atom_site_fract_y
_atom_site_fract_z
Si Si1 0.199891 0.755299 0.698560
Si Si2 0.418504 0.167203 0.798490
Si Si3 0.393503 0.909907 0.045658
Si Si4 0.856312 0.853240 0.314286
Si Si5 0.892761 0.902426 0.596722
Si Si6 0.000000 0.000000 0.104941
O O1 0.343036 0.833557 0.764603
O O2 0.364595 0.686488 0.628397
O O3 0.075458 0.700233 0.810669
O O4 0.040075 0.808854 0.605172
O O5 0.324900 0.274892 0.808058
O O6 0.298347 0.106020 0.692155
O O7 0.437417 0.110891 0.934355
O O8 0.500000 0.000000 0.121844
O O9 0.157741 0.941313 0.013768
O O10 0.824107 0.910578 0.447980
O O11 0.863025 0.928005 0.194590
O O12 0.000000 0.000000 0.640818
#
# Coordination Sequence:
#
# PCOD8169523 Si02
#       6
#     4   4   4   4   4   2
#     4  10  23  42  66  97 133 174 228 284 345 405
#     4  11  24  41  66  96 138 175 224 280 347 408
#     4  11  24  41  66 100 133 179 228 283 341 410
#     4  10  21  43  69  97 131 179 226 285 338 408
#     4  11  24  41  67  97 137 179 228 280 345 411
#     4  10  22  42  70  98 134 176 236 280 338 404
#
# _framework density 23.398243999999998
#
# number of rings (size 3 to 8) (size 9 to 14) (size 15 to 20)
#    0.000    1.455    0.909    3.273    2.545    5.818 
#    0.000    0.000    0.000    0.000    0.000    0.000 
#    0.000    0.000    0.000    0.000    0.000    0.000 
#
# Total GULP energy -272564.618128 kJ/mol
# GULP energy per Si atom -12389.300824 kJ/mol
# Density = 2.334499 g / cm^3
# Si number density = 23.398244 Si / 1000 Ang^3
#
#
#
# Elastic Constant Matrix: (Units=GPa)
#
#
# Indices 1 2 3 4 5 6 
#
# 1 108.0227 29.7405 48.8700 0.0000 0.0000 0.0000
# 2 29.7405 92.6425 25.0000 0.0000 0.0000 0.0000
# 3 48.8700 25.0000 98.8647 0.0000 0.0000 0.0000
# 4 0.0000 0.0000 0.0000 12.9305 0.0000 0.0000
# 5 0.0000 0.0000 0.0000 0.0000 37.0157 0.0000
# 6 0.0000 0.0000 0.0000 0.0000 0.0000 50.8837
#
#
#
# Elastic Compliance Matrix: (Units=1/GPa)
#
#
# Indices 1 2 3 4 5 6 
#
# 1 0.012443 -0.002506 -0.005517 0.000000 0.000000 0.000000
# 2 -0.002506 0.012089 -0.001818 0.000000 0.000000 0.000000
# 3 -0.005517 -0.001818 0.013302 0.000000 0.000000 0.000000
# 4 0.000000 0.000000 0.000000 0.077337 0.000000 0.000000
# 5 0.000000 0.000000 0.000000 0.000000 0.027016 0.000000
# 6 0.000000 0.000000 0.000000 0.000000 0.000000 0.019653
#
#
# Mechanical properties :
#
#
# Convention : Reuss Voigt Hill
#
# Bulk Modulus (GPa) = 55.09134 56.30566 55.69850
# Shear Modulus (GPa) = 26.65639 33.22728 29.94183
#
# Velocity S-wave (km/s) = 3.37894 3.77248 3.58112
# Velocity P-wave (km/s) = 6.23050 6.56443 6.39964
#
# Compressibility (1/GPa) = 0.01815167
#
# Stress axis : x y z
#
# Youngs Moduli (GPa) = 80.36527 82.71790 75.17741
#
# Poissons Ratio (x) = 0.20727 0.41477
# Poissons Ratio (y) = 0.20137 0.13670
# Poissons Ratio (z) = 0.44339 0.15042
#
# Static dielectric constant tensor:
#      x y z
#    x 4.186790 0.000000 0.000000 
#    y 0.000000 4.463310 0.000000 
#    z 0.000000 0.000000 3.816410 
# 
# 
# High freq. dielectric constant tensor:
#      x y z
#    x 1.938340 0.000000 0.000000 
#    y 0.000000 1.937360 0.000000 
#    z 0.000000 0.000000 1.898080 
# 
# From -- ./inp_files/3096.got.cif
#   From: 2010.03.12/outbox.cif.g09.slc.cpg/sg30_2_cif.got.tgz:3096.got - 2010.04.14 01:38:02.
