data_PCOD8169409
_publ_section_title
;
Structure prediction by ZEFSAII (Michael W. Deem and Ramdas Pophale) SiO2 
 PCOD8169409
Probable space group: P N C 2
;
_chemical_formula_sum "Si O2"
_cell_formula_units_Z 26
_cell_length_a 8.393901
_cell_length_b 11.468343
_cell_length_c 13.942860
_cell_angle_alpha 90.000000
_cell_angle_beta 90.000000
_cell_angle_gamma 90.000000
_cell_volume 1342.197368
_symmetry_space_group_name_H-M "P N C 2"
_symmetry_group_IT_number 30
_symmetry_cell_setting 'orthorhombic'
loop_
_space_group_symop_operation_xyz
x,y,z
-x,-y,z
-x,1/2+y,1/2+z
x,1/2-y,1/2+z
loop_
_atom_site_type_symbol
_atom_site_label
_atom_site_fract_x
_atom_site_fract_y
_atom_site_fract_z
Si Si1 0.455051 0.130944 0.661840
Si Si2 0.500000 0.000000 0.169976
Si Si3 0.772424 0.896261 0.838028
Si Si4 0.964604 0.366937 0.588760
Si Si5 0.131361 0.649903 0.378942
Si Si6 0.688811 0.818637 0.041991
Si Si7 0.711341 0.199867 0.237936
O O1 0.318263 0.143017 0.742590
O O2 0.397283 0.196474 0.565357
O O3 0.613245 0.192067 0.698394
O O4 0.500000 0.000000 0.634209
O O5 0.386735 0.076794 0.103410
O O6 0.608919 0.080899 0.238737
O O7 0.949998 0.843947 0.841168
O O8 0.779729 0.035942 0.838740
O O9 0.673195 0.848273 0.929592
O O10 0.857640 0.357924 0.493277
O O11 0.869043 0.309260 0.674195
O O12 0.000000 0.500000 0.613067
O O13 0.128798 0.299671 0.572687
O O14 0.226121 0.765184 0.343908
#
# Coordination Sequence:
#
# PCOD8169409 Si02
#       7
#     4   2   4   4   4   4   4
#     4  11  23  37  58  92 126 161 194 244 313 357
#     4  10  20  34  54  92 124 162 190 240 310 360
#     4  10  19  37  60  89 117 154 205 250 292 359
#     4  11  19  39  64  91 116 154 210 253 296 357
#     4  10  19  36  65  92 111 154 211 250 294 355
#     4  10  21  37  63  88 121 158 205 246 297 358
#     4  11  22  35  62  89 125 157 198 252 299 359
#
# _framework density 19.371220000000001
#
# number of rings (size 3 to 8) (size 9 to 14) (size 15 to 20)
#    0.000    1.538    6.154    0.923    1.077    2.462 
#    0.000    0.000   15.231    0.000    0.000    0.000 
#    0.000    0.000    0.000    0.000    0.000    0.000 
#
# Total GULP energy -322385.539515 kJ/mol
# GULP energy per Si atom -12399.443828 kJ/mol
# Density = 1.932713 g / cm^3
# Si number density = 19.371220 Si / 1000 Ang^3
#
#
#
# Elastic Constant Matrix: (Units=GPa)
#
#
# Indices 1 2 3 4 5 6 
#
# 1 60.2351 35.8226 26.3161 0.0000 0.0000 0.0000
# 2 35.8226 113.1237 31.2637 0.0000 0.0000 0.0000
# 3 26.3161 31.2637 52.5945 0.0000 0.0000 0.0000
# 4 0.0000 0.0000 0.0000 27.0300 0.0000 0.0000
# 5 0.0000 0.0000 0.0000 0.0000 28.9491 0.0000
# 6 0.0000 0.0000 0.0000 0.0000 0.0000 25.9814
#
#
#
# Elastic Compliance Matrix: (Units=1/GPa)
#
#
# Indices 1 2 3 4 5 6 
#
# 1 0.023386 -0.004992 -0.008734 0.000000 0.000000 0.000000
# 2 -0.004992 0.011643 -0.004423 0.000000 0.000000 0.000000
# 3 -0.008734 -0.004423 0.026013 0.000000 0.000000 0.000000
# 4 0.000000 0.000000 0.000000 0.036996 0.000000 0.000000
# 5 0.000000 0.000000 0.000000 0.000000 0.034543 0.000000
# 6 0.000000 0.000000 0.000000 0.000000 0.000000 0.038489
#
#
# Mechanical properties :
#
#
# Convention : Reuss Voigt Hill
#
# Bulk Modulus (GPa) = 40.41442 45.86200 43.13821
# Shear Modulus (GPa) = 23.18925 25.22882 24.20903
#
# Velocity S-wave (km/s) = 3.46366 3.61277 3.53900
# Velocity P-wave (km/s) = 6.07490 6.41323 6.24636
#
# Compressibility (1/GPa) = 0.02474365
#
# Stress axis : x y z
#
# Youngs Moduli (GPa) = 42.76031 85.88796 38.44239
#
# Poissons Ratio (x) = 0.42874 0.33576
# Poissons Ratio (y) = 0.21345 0.17004
# Poissons Ratio (z) = 0.37348 0.37991
#
# Static dielectric constant tensor:
#      x y z
#    x 3.746290 0.000000 0.000000 
#    y 0.000000 3.543540 0.000000 
#    z 0.000000 0.000000 3.374240 
# 
# 
# High freq. dielectric constant tensor:
#      x y z
#    x 1.772440 0.000000 0.000000 
#    y 0.000000 1.743630 0.000000 
#    z 0.000000 0.000000 1.735630 
# 
# From -- ./inp_files/3669.got.cif
#   From: 2010.03.12/outbox.cif.g09.slc.cpg/sg30_2_cif.got.tgz:3669.got - 2010.04.14 01:38:02.
