data_PCOD8169628
_publ_section_title
;
Structure prediction by ZEFSAII (Michael W. Deem and Ramdas Pophale) SiO2 
 PCOD8169628
Probable space group: P N C 2
;
_chemical_formula_sum "Si O2"
_cell_formula_units_Z 24
_cell_length_a 8.249501
_cell_length_b 15.922382
_cell_length_c 8.989887
_cell_angle_alpha 90.000000
_cell_angle_beta 90.000000
_cell_angle_gamma 90.000000
_cell_volume 1180.836996
_symmetry_space_group_name_H-M "P N C 2"
_symmetry_group_IT_number 30
_symmetry_cell_setting 'orthorhombic'
loop_
_space_group_symop_operation_xyz
x,y,z
-x,-y,z
-x,1/2+y,1/2+z
x,1/2-y,1/2+z
loop_
_atom_site_type_symbol
_atom_site_label
_atom_site_fract_x
_atom_site_fract_y
_atom_site_fract_z
Si Si1 0.202481 0.167509 0.178330
Si Si2 0.843051 0.333614 0.789994
Si Si3 0.698721 0.193412 0.594284
Si Si4 0.686302 0.016495 0.143503
Si Si5 0.408248 0.583621 0.337609
Si Si6 0.391657 0.254810 0.430707
O O1 0.334184 0.193534 0.300701
O O2 0.023440 0.184154 0.236527
O O3 0.219723 0.070632 0.134622
O O4 0.236425 0.223286 0.032560
O O5 0.723827 0.274010 0.697832
O O6 0.779727 0.428164 0.765446
O O7 0.833866 0.314155 0.965940
O O8 0.707005 0.111511 0.701231
O O9 0.522218 0.201224 0.521841
O O10 0.500000 0.000000 0.188383
O O11 0.697380 0.064166 0.984625
O O12 0.500000 0.500000 0.286901
O O13 0.534503 0.658390 0.369552
#
# Coordination Sequence:
#
# PCOD8169628 Si02
#       6
#     4   4   4   4   4   4
#     4  12  25  40  67  98 138 172 219 285 343 395
#     4  12  24  41  63 100 137 178 218 281 345 392
#     4  12  22  41  69  94 131 179 230 271 326 409
#     4  11  21  43  67  95 128 177 228 271 332 407
#     4  11  22  39  69  99 122 167 234 282 319 391
#     4  12  21  42  67  97 128 175 235 271 325 411
#
# _framework density 20.324566000000001
#
# number of rings (size 3 to 8) (size 9 to 14) (size 15 to 20)
#    0.000    0.333    8.333    2.500    0.000    2.000 
#    0.000    0.000    0.000    0.000    0.000    0.000 
#    0.000    0.000    0.000    0.000    0.000    0.000 
#
# Total GULP energy -297674.016875 kJ/mol
# GULP energy per Si atom -12403.084036 kJ/mol
# Density = 2.027831 g / cm^3
# Si number density = 20.324566 Si / 1000 Ang^3
#
#
#
# Elastic Constant Matrix: (Units=GPa)
#
#
# Indices 1 2 3 4 5 6 
#
# 1 69.5190 14.0948 33.1826 0.0000 0.0000 0.0000
# 2 14.0948 92.6589 38.2204 0.0000 0.0000 0.0000
# 3 33.1826 38.2204 116.5189 0.0000 0.0000 0.0000
# 4 0.0000 0.0000 0.0000 40.5669 0.0000 0.0000
# 5 0.0000 0.0000 0.0000 0.0000 38.7459 0.0000
# 6 0.0000 0.0000 0.0000 0.0000 0.0000 24.6735
#
#
#
# Elastic Compliance Matrix: (Units=1/GPa)
#
#
# Indices 1 2 3 4 5 6 
#
# 1 0.016683 -0.000668 -0.004532 0.000000 0.000000 0.000000
# 2 -0.000668 0.012508 -0.003912 0.000000 0.000000 0.000000
# 3 -0.004532 -0.003912 0.011156 0.000000 0.000000 0.000000
# 4 0.000000 0.000000 0.000000 0.024651 0.000000 0.000000
# 5 0.000000 0.000000 0.000000 0.000000 0.025809 0.000000
# 6 0.000000 0.000000 0.000000 0.000000 0.000000 0.040529
#
#
# Mechanical properties :
#
#
# Convention : Reuss Voigt Hill
#
# Bulk Modulus (GPa) = 45.20426 49.96582 47.58504
# Shear Modulus (GPa) = 31.86018 33.67720 32.76869
#
# Velocity S-wave (km/s) = 3.96355 4.07501 4.01966
# Velocity P-wave (km/s) = 6.57539 6.83946 6.70873
#
# Compressibility (1/GPa) = 0.02212181
#
# Stress axis : x y z
#
# Youngs Moduli (GPa) = 59.94051 79.95036 89.63598
#
# Poissons Ratio (x) = 0.05344 0.40621
# Poissons Ratio (y) = 0.04007 0.35069
# Poissons Ratio (z) = 0.27164 0.31280
#
# Static dielectric constant tensor:
#      x y z
#    x 3.537820 0.000000 0.000000 
#    y 0.000000 3.776340 0.000000 
#    z 0.000000 0.000000 3.964290 
# 
# 
# High freq. dielectric constant tensor:
#      x y z
#    x 1.777380 0.000000 0.000000 
#    y 0.000000 1.800590 0.000000 
#    z 0.000000 0.000000 1.803910 
# 
# From -- ./inp_files/1817.got.cif
#   From: 2010.03.12/outbox.cif.g09.slc.cpg/sg30_1_cif.got.tgz:1817.got - 2010.04.14 01:38:02.
