data_PCOD8169226
_publ_section_title
;
Structure prediction by ZEFSAII (Michael W. Deem and Ramdas Pophale) SiO2 
 PCOD8169226
Probable space group: P C A 21
;
_chemical_formula_sum "Si O2"
_cell_formula_units_Z 32
_cell_length_a 14.617277
_cell_length_b 10.297430
_cell_length_c 8.624044
_cell_angle_alpha 90.000000
_cell_angle_beta 90.000000
_cell_angle_gamma 90.000000
_cell_volume 1298.094438
_symmetry_space_group_name_H-M "P C A 21"
_symmetry_group_IT_number 29
_symmetry_cell_setting 'orthorhombic'
loop_
_space_group_symop_operation_xyz
x,y,z
-x,-y,1/2+z
1/2-x,y,1/2+z
1/2+x,-y,z
loop_
_atom_site_type_symbol
_atom_site_label
_atom_site_fract_x
_atom_site_fract_y
_atom_site_fract_z
Si Si1 0.406744 0.940460 0.195570
Si Si2 0.740443 0.686100 0.286581
Si Si3 0.105218 0.491589 0.694371
Si Si4 0.560890 0.534170 0.369368
Si Si5 0.920292 0.025477 0.556156
Si Si6 0.207259 0.722547 0.558717
Si Si7 0.121391 0.736206 0.242396
Si Si8 0.763263 0.876645 0.046721
O O1 0.502503 0.920394 0.103248
O O2 0.357149 0.065642 0.115942
O O3 0.431574 0.948411 0.375356
O O4 0.342653 0.816815 0.178427
O O5 0.833652 0.600405 0.307322
O O6 0.650121 0.601971 0.302753
O O7 0.744270 0.730864 0.108873
O O8 0.734666 0.830273 0.367256
O O9 0.049485 0.426021 0.550757
O O10 0.170738 0.578170 0.585741
O O11 0.035582 0.579728 0.795268
O O12 0.561244 0.381866 0.312177
O O13 0.940112 0.144892 0.677674
O O14 0.817198 0.977461 0.583213
O O15 0.189720 0.775579 0.384570
O O16 0.314887 0.708478 0.592764
#
# Coordination Sequence:
#
# PCOD8169226 Si02
#       8
#     4   4   4   4   4   4   4   4
#     4  12  28  47  73 108 144 191 244 298 372 434
#     4  12  26  49  73 104 146 193 242 298 370 438
#     4  11  27  46  72 108 144 189 244 298 368 433
#     4  11  27  46  72 107 143 192 240 301 365 437
#     4  12  28  47  73 107 145 192 241 304 364 440
#     4  11  24  44  70 101 139 186 238 293 355 431
#     4  11  24  44  71 100 142 183 241 293 354 431
#     4  12  28  47  74 103 147 190 244 301 366 438
#
# _framework density 24.651520000000001
#
# number of rings (size 3 to 8) (size 9 to 14) (size 15 to 20)
#    0.000    0.500    5.000    1.500    8.750    3.000 
#    0.000    0.000    0.000    0.000    0.000    0.000 
#    0.000    0.000    0.000    0.000    0.000    0.000 
#
# Total GULP energy -396480.114953 kJ/mol
# GULP energy per Si atom -12390.003592 kJ/mol
# Density = 2.459541 g / cm^3
# Si number density = 24.651520 Si / 1000 Ang^3
#
#
#
# Elastic Constant Matrix: (Units=GPa)
#
#
# Indices 1 2 3 4 5 6 
#
# 1 52.8448 -11.7668 21.7844 0.0000 0.0000 0.0000
# 2 -11.7668 62.6857 11.6535 0.0000 0.0000 0.0000
# 3 21.7844 11.6535 89.3949 0.0000 0.0000 0.0000
# 4 0.0000 0.0000 0.0000 45.0348 0.0000 0.0000
# 5 0.0000 0.0000 0.0000 0.0000 41.9687 0.0000
# 6 0.0000 0.0000 0.0000 0.0000 0.0000 23.0001
#
#
#
# Elastic Compliance Matrix: (Units=1/GPa)
#
#
# Indices 1 2 3 4 5 6 
#
# 1 0.022702 0.005421 -0.006239 0.000000 0.000000 0.000000
# 2 0.005421 0.017643 -0.003621 0.000000 0.000000 0.000000
# 3 -0.006239 -0.003621 0.013179 0.000000 0.000000 0.000000
# 4 0.000000 0.000000 0.000000 0.022205 0.000000 0.000000
# 5 0.000000 0.000000 0.000000 0.000000 0.023827 0.000000
# 6 0.000000 0.000000 0.000000 0.000000 0.000000 0.043478
#
#
# Mechanical properties :
#
#
# Convention : Reuss Voigt Hill
#
# Bulk Modulus (GPa) = 22.39789 27.58527 24.99158
# Shear Modulus (GPa) = 29.97695 34.21768 32.09732
#
# Velocity S-wave (km/s) = 3.49094 3.72970 3.61230
# Velocity P-wave (km/s) = 5.03532 5.45545 5.24959
#
# Compressibility (1/GPa) = 0.04464707
#
# Stress axis : x y z
#
# Youngs Moduli (GPa) = 44.04816 56.67832 75.87983
#
# Poissons Ratio (x) = -0.30727 0.47342
# Poissons Ratio (y) = -0.23880 0.27477
# Poissons Ratio (z) = 0.27482 0.20524
#
# Static dielectric constant tensor:
#      x y z
#    x 4.352370 0.000000 0.000000 
#    y 0.000000 4.221740 0.000000 
#    z 0.000000 0.000000 4.563090 
# 
# 
# High freq. dielectric constant tensor:
#      x y z
#    x 1.983830 0.000000 0.000000 
#    y 0.000000 1.965760 0.000000 
#    z 0.000000 0.000000 1.999390 
# 
# From -- ./inp_files/1849.got.cif
#   From: 2010.03.12/outbox.cif.g09.slc.cpg/sg29_1_cif.got.tgz:1849.got - 2010.04.14 03:43:10.
