data_PCOD8169533
_publ_section_title
;
Structure prediction by ZEFSAII (Michael W. Deem and Ramdas Pophale) SiO2 
 PCOD8169533
Probable space group: P N C 2
;
_chemical_formula_sum "Si O2"
_cell_formula_units_Z 30
_cell_length_a 12.010350
_cell_length_b 15.104589
_cell_length_c 8.440410
_cell_angle_alpha 90.000000
_cell_angle_beta 90.000000
_cell_angle_gamma 90.000000
_cell_volume 1531.186599
_symmetry_space_group_name_H-M "P N C 2"
_symmetry_group_IT_number 30
_symmetry_cell_setting 'orthorhombic'
loop_
_space_group_symop_operation_xyz
x,y,z
-x,-y,z
-x,1/2+y,1/2+z
x,1/2-y,1/2+z
loop_
_atom_site_type_symbol
_atom_site_label
_atom_site_fract_x
_atom_site_fract_y
_atom_site_fract_z
Si Si1 0.130463 0.642574 0.214250
Si Si2 0.316285 0.237666 0.834665
Si Si3 0.000000 0.500000 0.040323
Si Si4 0.074770 0.670306 0.571370
Si Si5 0.174949 0.520105 0.783919
Si Si6 0.665101 0.060388 0.542221
Si Si7 0.426648 0.368139 0.070388
Si Si8 0.182709 0.153979 0.100248
O O1 0.130068 0.648673 0.403401
O O2 0.122198 0.737527 0.132782
O O3 0.246793 0.597899 0.167675
O O4 0.027089 0.583632 0.151900
O O5 0.407914 0.189462 0.727461
O O6 0.212917 0.275217 0.734720
O O7 0.375708 0.319851 0.918463
O O8 0.265588 0.165852 0.953525
O O9 0.895248 0.523336 0.928271
O O10 0.103770 0.596530 0.700984
O O11 0.942871 0.672704 0.548661
O O12 0.203546 0.445935 0.656266
O O13 0.286376 0.560515 0.862504
O O14 0.557914 0.123021 0.542403
O O15 0.633462 0.961652 0.594247
#
# Coordination Sequence:
#
# PCOD8169533 Si02
#       8
#     4   4   2   4   4   4   4   4
#     4  11  26  40  64  93 129 174 208 258 322 388
#     4  10  23  38  69  93 125 162 219 261 320 370
#     4  10  22  38  60  90 126 168 206 254 310 384
#     4  12  25  41  61  97 133 169 214 254 320 392
#     4  11  22  40  64  90 131 170 208 262 318 385
#     4  10  23  43  68  87 132 165 215 264 331 376
#     4  10  22  44  65  94 121 166 215 273 318 372
#     4  11  22  38  63  96 130 168 206 265 309 389
#
# _framework density 19.592648000000001
#
# number of rings (size 3 to 8) (size 9 to 14) (size 15 to 20)
#    0.000    1.333    2.667    2.400    5.600    4.267 
#    0.000    1.333    0.000    0.000    0.000    0.000 
#    0.000    0.000    0.000    0.000    0.000    0.000 
#
# Total GULP energy -372143.180662 kJ/mol
# GULP energy per Si atom -12404.772689 kJ/mol
# Density = 1.954805 g / cm^3
# Si number density = 19.592648 Si / 1000 Ang^3
#
#
#
# Elastic Constant Matrix: (Units=GPa)
#
#
# Indices 1 2 3 4 5 6 
#
# 1 126.5760 40.6269 42.9257 0.0000 0.0000 0.0000
# 2 40.6269 89.9180 32.9356 0.0000 0.0000 0.0000
# 3 42.9257 32.9356 95.7720 0.0000 0.0000 0.0000
# 4 0.0000 0.0000 0.0000 26.5655 0.0000 0.0000
# 5 0.0000 0.0000 0.0000 0.0000 23.7509 0.0000
# 6 0.0000 0.0000 0.0000 0.0000 0.0000 31.3570
#
#
#
# Elastic Compliance Matrix: (Units=1/GPa)
#
#
# Indices 1 2 3 4 5 6 
#
# 1 0.010119 -0.003330 -0.003390 0.000000 0.000000 0.000000
# 2 -0.003330 0.013820 -0.003260 0.000000 0.000000 0.000000
# 3 -0.003390 -0.003260 0.013082 0.000000 0.000000 0.000000
# 4 0.000000 0.000000 0.000000 0.037643 0.000000 0.000000
# 5 0.000000 0.000000 0.000000 0.000000 0.042104 0.000000
# 6 0.000000 0.000000 0.000000 0.000000 0.000000 0.031891
#
#
# Mechanical properties :
#
#
# Convention : Reuss Voigt Hill
#
# Bulk Modulus (GPa) = 58.61567 60.58247 59.59907
# Shear Modulus (GPa) = 28.68521 29.38654 29.03587
#
# Velocity S-wave (km/s) = 3.83048 3.87702 3.85382
# Velocity P-wave (km/s) = 7.03886 7.14352 7.09138
#
# Compressibility (1/GPa) = 0.01706028
#
# Stress axis : x y z
#
# Youngs Moduli (GPa) = 98.82413 72.35888 76.44050
#
# Poissons Ratio (x) = 0.24097 0.25914
# Poissons Ratio (y) = 0.32911 0.24920
# Poissons Ratio (z) = 0.33503 0.23589
#
# Static dielectric constant tensor:
#      x y z
#    x 3.570060 0.000000 0.000000 
#    y 0.000000 3.658700 0.000000 
#    z 0.000000 0.000000 3.653850 
# 
# 
# High freq. dielectric constant tensor:
#      x y z
#    x 1.759630 0.000000 0.000000 
#    y 0.000000 1.772330 0.000000 
#    z 0.000000 0.000000 1.770990 
# 
# From -- ./inp_files/2450.got.cif
#   From: 2010.03.12/outbox.cif.g09.slc.cpg/sg30_2_cif.got.tgz:2450.got - 2010.04.14 01:38:02.
