data_PCOD8169906
_publ_section_title
;
Structure prediction by ZEFSAII (Michael W. Deem and Ramdas Pophale) SiO2 
 PCOD8169906
Probable space group: P M N 21
;
_chemical_formula_sum "Si O2"
_cell_formula_units_Z 32
_cell_length_a 8.675955
_cell_length_b 11.404668
_cell_length_c 16.256861
_cell_angle_alpha 90.000000
_cell_angle_beta 90.000000
_cell_angle_gamma 90.000000
_cell_volume 1608.557649
_symmetry_space_group_name_H-M "P M N 21"
_symmetry_group_IT_number 31
_symmetry_cell_setting 'orthorhombic'
loop_
_space_group_symop_operation_xyz
x,y,z
1/2-x,-y,1/2+z
-x,y,z
1/2+x,-y,1/2+z
loop_
_atom_site_type_symbol
_atom_site_label
_atom_site_fract_x
_atom_site_fract_y
_atom_site_fract_z
Si Si1 0.171520 0.706214 0.979360
Si Si2 0.319248 0.338261 0.775855
Si Si3 0.177302 0.435190 0.613483
Si Si4 0.328010 0.438140 0.316090
Si Si5 0.316758 0.925954 0.641002
Si Si6 0.318500 0.027122 0.466355
Si Si7 0.319740 0.661111 0.659361
Si Si8 0.317099 0.073613 0.798768
O O1 0.166684 0.642559 0.893720
O O2 0.000000 0.704663 0.019851
O O3 0.228446 0.837514 0.966223
O O4 0.297135 0.638941 0.032165
O O5 0.500000 0.344879 0.792120
O O6 0.281638 0.376806 0.683398
O O7 0.233741 0.430447 0.836748
O O8 0.257508 0.206925 0.790057
O O9 0.231148 0.570144 0.599247
O O10 0.000000 0.430422 0.638439
O O11 0.500000 0.448413 0.277886
O O12 0.212487 0.377032 0.252568
O O13 0.500000 0.932122 0.643466
O O14 0.256676 0.975305 0.553264
O O15 0.256722 0.792533 0.646412
O O16 0.252419 0.999080 0.720166
O O17 0.500000 0.007363 0.457960
O O18 0.240051 0.970950 0.386809
O O19 0.500000 0.654679 0.640046
O O20 0.500000 0.067491 0.797645
#
# Coordination Sequence:
#
# PCOD8169906 Si02
#       8
#     4   4   4   4   4   4   4   4
#     4  10  21  37  56  78 108 145 181 222 277 333
#     4  10  20  36  57  79 109 147 182 220 274 334
#     4  11  22  35  55  81 108 139 180 231 275 320
#     4  10  20  34  54  80 108 139 179 227 273 323
#     4   9  19  36  58  81 109 148 185 221 271 333
#     4  10  21  38  59  83 111 145 188 231 274 331
#     4  10  19  34  56  79 106 141 179 218 271 333
#     4  10  21  38  59  83 113 148 186 228 275 329
#
# _framework density 19.893598999999998
#
# number of rings (size 3 to 8) (size 9 to 14) (size 15 to 20)
#    0.000    2.000    0.000    5.250    0.000    5.500 
#    0.000    6.250    0.000    0.000    0.000    0.000 
#    0.000    0.000    0.000    0.000    0.000    0.000 
#
# Total GULP energy -396691.385339 kJ/mol
# GULP energy per Si atom -12396.605792 kJ/mol
# Density = 1.984832 g / cm^3
# Si number density = 19.893599 Si / 1000 Ang^3
#
#
#
# Elastic Constant Matrix: (Units=GPa)
#
#
# Indices 1 2 3 4 5 6 
#
# 1 38.6309 32.8345 15.8112 0.0000 0.0000 0.0000
# 2 32.8345 197.7739 69.9163 0.0000 0.0000 0.0000
# 3 15.8112 69.9163 108.4415 0.0000 0.0000 0.0000
# 4 0.0000 0.0000 0.0000 30.2490 0.0000 0.0000
# 5 0.0000 0.0000 0.0000 0.0000 28.9347 0.0000
# 6 0.0000 0.0000 0.0000 0.0000 0.0000 21.9920
#
#
#
# Elastic Compliance Matrix: (Units=1/GPa)
#
#
# Indices 1 2 3 4 5 6 
#
# 1 0.030332 -0.004497 -0.001523 0.000000 0.000000 0.000000
# 2 -0.004497 0.007216 -0.003997 0.000000 0.000000 0.000000
# 3 -0.001523 -0.003997 0.012020 0.000000 0.000000 0.000000
# 4 0.000000 0.000000 0.000000 0.033059 0.000000 0.000000
# 5 0.000000 0.000000 0.000000 0.000000 0.034561 0.000000
# 6 0.000000 0.000000 0.000000 0.000000 0.000000 0.045471
#
#
# Mechanical properties :
#
#
# Convention : Reuss Voigt Hill
#
# Bulk Modulus (GPa) = 33.85882 64.66334 49.26108
# Shear Modulus (GPa) = 25.96902 31.32074 28.64488
#
# Velocity S-wave (km/s) = 3.61695 3.97219 3.79872
# Velocity P-wave (km/s) = 5.87367 7.32208 6.63750
#
# Compressibility (1/GPa) = 0.02953441
#
# Stress axis : x y z
#
# Youngs Moduli (GPa) = 32.96862 138.58527 83.19238
#
# Poissons Ratio (x) = 0.62326 0.12669
# Poissons Ratio (y) = 0.14827 0.33248
# Poissons Ratio (z) = 0.05021 0.55386
#
# Static dielectric constant tensor:
#      x y z
#    x 3.553490 0.000000 0.000000 
#    y 0.000000 4.050410 0.000000 
#    z 0.000000 0.000000 3.537010 
# 
# 
# High freq. dielectric constant tensor:
#      x y z
#    x 1.760260 0.000000 0.000000 
#    y 0.000000 1.795960 0.000000 
#    z 0.000000 0.000000 1.768840 
# 
# From -- ./inp_files/5025.got.cif
#   From: 2010.03.12/outbox.cif.g09.slc.cpg/sg31_3_cif.got.tgz:5025.got - 2010.04.14 01:42:59.
