data_PCOD8169657
_publ_section_title
;
Structure prediction by ZEFSAII (Michael W. Deem and Ramdas Pophale) SiO2 
 PCOD8169657
Probable space group: P N C 2
;
_chemical_formula_sum "Si O2"
_cell_formula_units_Z 18
_cell_length_a 5.026594
_cell_length_b 6.600973
_cell_length_c 21.479713
_cell_angle_alpha 90.000000
_cell_angle_beta 90.000000
_cell_angle_gamma 90.000000
_cell_volume 712.705711
_symmetry_space_group_name_H-M "P N C 2"
_symmetry_group_IT_number 30
_symmetry_cell_setting 'orthorhombic'
loop_
_space_group_symop_operation_xyz
x,y,z
-x,-y,z
-x,1/2+y,1/2+z
x,1/2-y,1/2+z
loop_
_atom_site_type_symbol
_atom_site_label
_atom_site_fract_x
_atom_site_fract_y
_atom_site_fract_z
Si Si1 0.738976 0.870655 0.747370
Si Si2 0.753882 0.867074 0.362781
Si Si3 0.105642 0.785225 0.534974
Si Si4 0.000000 0.500000 0.431891
Si Si5 0.604808 0.784332 0.114127
O O1 0.749398 0.664374 0.787791
O O2 0.691538 0.837201 0.674680
O O3 0.500000 0.000000 0.776111
O O4 0.000000 0.000000 0.757074
O O5 0.793967 0.641014 0.392657
O O6 0.500000 0.000000 0.385076
O O7 0.000000 0.000000 0.383130
O O8 0.180099 0.646129 0.475855
O O9 0.863298 0.679058 0.571989
O O10 0.364303 0.827758 0.577584
O O11 0.000000 0.000000 0.510325
O O12 0.500000 0.000000 0.136630
#
# Coordination Sequence:
#
# PCOD8169657 Si02
#       5
#     4   4   4   2   4
#     4  12  25  47  77 114 159 201 260 330 398 477
#     4  12  29  51  80 118 156 211 269 328 405 479
#     4  12  26  47  75 109 150 202 257 317 393 469
#     4  12  28  54  78 112 164 204 276 326 402 488
#     4  12  24  46  72 111 153 197 253 322 392 469
#
# _framework density 25.255866000000001
#
# number of rings (size 3 to 8) (size 9 to 14) (size 15 to 20)
#    0.000    0.000    3.333    6.667    0.000    7.111 
#    0.000    0.000    0.000    0.000    0.000    0.000 
#    0.000    0.000    0.000    0.000    0.000    0.000 
#
# Total GULP energy -223197.497356 kJ/mol
# GULP energy per Si atom -12399.860964 kJ/mol
# Density = 2.519838 g / cm^3
# Si number density = 25.255866 Si / 1000 Ang^3
#
#
#
# Elastic Constant Matrix: (Units=GPa)
#
#
# Indices 1 2 3 4 5 6 
#
# 1 192.3534 60.6299 47.1322 0.0000 0.0000 0.0000
# 2 60.6299 137.9832 46.2915 0.0000 0.0000 0.0000
# 3 47.1322 46.2915 122.6561 0.0000 0.0000 0.0000
# 4 0.0000 0.0000 0.0000 42.3923 0.0000 0.0000
# 5 0.0000 0.0000 0.0000 0.0000 24.2723 0.0000
# 6 0.0000 0.0000 0.0000 0.0000 0.0000 53.8386
#
#
#
# Elastic Compliance Matrix: (Units=1/GPa)
#
#
# Indices 1 2 3 4 5 6 
#
# 1 0.006289 -0.002236 -0.001573 0.000000 0.000000 0.000000
# 2 -0.002236 0.009093 -0.002573 0.000000 0.000000 0.000000
# 3 -0.001573 -0.002573 0.009728 0.000000 0.000000 0.000000
# 4 0.000000 0.000000 0.000000 0.023589 0.000000 0.000000
# 5 0.000000 0.000000 0.000000 0.000000 0.041199 0.000000
# 6 0.000000 0.000000 0.000000 0.000000 0.000000 0.018574
#
#
# Mechanical properties :
#
#
# Convention : Reuss Voigt Hill
#
# Bulk Modulus (GPa) = 80.98750 84.56663 82.77706
# Shear Modulus (GPa) = 39.88831 44.02993 41.95912
#
# Velocity S-wave (km/s) = 3.97844 4.17988 4.08040
# Velocity P-wave (km/s) = 7.29660 7.54002 7.41931
#
# Compressibility (1/GPa) = 0.01234758
#
# Stress axis : x y z
#
# Youngs Moduli (GPa) = 159.01212 109.97865 102.79444
#
# Poissons Ratio (x) = 0.24587 0.16168
# Poissons Ratio (y) = 0.35550 0.26445
# Poissons Ratio (z) = 0.25009 0.28293
#
# Static dielectric constant tensor:
#      x y z
#    x 4.566340 0.000000 0.000000 
#    y 0.000000 4.840760 0.000000 
#    z 0.000000 0.000000 4.455960 
# 
# 
# High freq. dielectric constant tensor:
#      x y z
#    x 2.007260 0.000000 0.000000 
#    y 0.000000 2.028050 0.000000 
#    z 0.000000 0.000000 2.012100 
# 
# From -- ./inp_files/7449.got.cif
#   From: 2010.03.12/outbox.cif.g09.slc.cpg/sg30_4_cif.got.tgz:7449.got - 2010.04.14 01:38:02.
