data_PCOD8169345
_publ_section_title
;
Structure prediction by ZEFSAII (Michael W. Deem and Ramdas Pophale) SiO2 
 PCOD8169345
Probable space group: P C A 21
;
_chemical_formula_sum "Si O2"
_cell_formula_units_Z 24
_cell_length_a 11.454568
_cell_length_b 6.928016
_cell_length_c 13.453429
_cell_angle_alpha 90.000000
_cell_angle_beta 90.000000
_cell_angle_gamma 90.000000
_cell_volume 1067.629555
_symmetry_space_group_name_H-M "P C A 21"
_symmetry_group_IT_number 29
_symmetry_cell_setting 'orthorhombic'
loop_
_space_group_symop_operation_xyz
x,y,z
-x,-y,1/2+z
1/2-x,y,1/2+z
1/2+x,-y,z
loop_
_atom_site_type_symbol
_atom_site_label
_atom_site_fract_x
_atom_site_fract_y
_atom_site_fract_z
Si Si1 0.447076 0.019506 0.200060
Si Si2 0.611944 0.358083 0.138900
Si Si3 0.186735 0.839676 0.527296
Si Si4 0.206885 0.137318 0.885884
Si Si5 0.480874 0.418057 0.459904
Si Si6 0.575384 0.666561 0.293673
O O1 0.548893 0.175334 0.188303
O O2 0.358787 0.085839 0.284905
O O3 0.378728 0.995699 0.096426
O O4 0.504012 0.815676 0.226837
O O5 0.736525 0.300917 0.095007
O O6 0.640736 0.515786 0.222543
O O7 0.526711 0.449750 0.057077
O O8 0.095716 0.714226 0.464255
O O9 0.272677 0.945786 0.450559
O O10 0.331839 0.227739 0.862943
O O11 0.133228 0.284789 0.952626
O O12 0.484548 0.554276 0.363654
#
# Coordination Sequence:
#
# PCOD8169345 Si02
#       6
#     4   4   4   4   4   4
#     4  12  26  50  74 110 152 194 242 310 364 446
#     4  12  27  47  75 109 145 193 245 300 370 439
#     4  12  27  46  78 108 150 195 247 301 376 439
#     4  12  27  46  78 108 150 195 247 301 376 439
#     4  12  26  50  74 108 152 192 246 312 368 444
#     4  12  27  47  75 109 145 193 245 300 370 439
#
# _framework density 22.479707000000001
#
# number of rings (size 3 to 8) (size 9 to 14) (size 15 to 20)
#    0.000    0.000    3.333    6.000    9.333    0.000 
#    0.000    0.000    0.000    0.000    0.000    0.000 
#    0.000    0.000    0.000    0.000    0.000    0.000 
#
# Total GULP energy -297876.735021 kJ/mol
# GULP energy per Si atom -12411.530626 kJ/mol
# Density = 2.242854 g / cm^3
# Si number density = 22.479707 Si / 1000 Ang^3
#
#
#
# Elastic Constant Matrix: (Units=GPa)
#
#
# Indices 1 2 3 4 5 6 
#
# 1 78.5140 18.9540 8.0369 0.0000 0.0000 0.0000
# 2 18.9540 99.6779 29.1957 0.0000 0.0000 0.0000
# 3 8.0369 29.1957 87.9238 0.0000 0.0000 0.0000
# 4 0.0000 0.0000 0.0000 54.1693 0.0000 0.0000
# 5 0.0000 0.0000 0.0000 0.0000 43.5615 0.0000
# 6 0.0000 0.0000 0.0000 0.0000 0.0000 28.4177
#
#
#
# Elastic Compliance Matrix: (Units=1/GPa)
#
#
# Indices 1 2 3 4 5 6 
#
# 1 0.013363 -0.002419 -0.000418 0.000000 0.000000 0.000000
# 2 -0.002419 0.011551 -0.003614 0.000000 0.000000 0.000000
# 3 -0.000418 -0.003614 0.012612 0.000000 0.000000 0.000000
# 4 0.000000 0.000000 0.000000 0.018461 0.000000 0.000000
# 5 0.000000 0.000000 0.000000 0.000000 0.022956 0.000000
# 6 0.000000 0.000000 0.000000 0.000000 0.000000 0.035189
#
#
# Mechanical properties :
#
#
# Convention : Reuss Voigt Hill
#
# Bulk Modulus (GPa) = 40.61197 42.05432 41.33315
# Shear Modulus (GPa) = 36.97056 39.22497 38.09776
#
# Velocity S-wave (km/s) = 4.05979 4.18174 4.12122
# Velocity P-wave (km/s) = 6.33097 6.48569 6.40880
#
# Compressibility (1/GPa) = 0.02462328
#
# Stress axis : x y z
#
# Youngs Moduli (GPa) = 74.83200 86.57344 79.28991
#
# Poissons Ratio (x) = 0.20938 0.03318
# Poissons Ratio (y) = 0.18098 0.28659
# Poissons Ratio (z) = 0.03131 0.31292
#
# Static dielectric constant tensor:
#      x y z
#    x 3.939300 0.000000 0.000000 
#    y 0.000000 4.253170 0.000000 
#    z 0.000000 0.000000 4.170440 
# 
# 
# High freq. dielectric constant tensor:
#      x y z
#    x 1.887710 0.000000 0.000000 
#    y 0.000000 1.902870 0.000000 
#    z 0.000000 0.000000 1.902850 
# 
# From -- ./inp_files/4421.got.cif
#   From: 2010.03.12/outbox.cif.g09.slc.cpg/sg29_3_cif.got.tgz:4421.got - 2010.04.14 03:43:10.
