data_PCOD8169557
_publ_section_title
;
Structure prediction by ZEFSAII (Michael W. Deem and Ramdas Pophale) SiO2 
 PCOD8169557
Probable space group: P N C 2
;
_chemical_formula_sum "Si O2"
_cell_formula_units_Z 20
_cell_length_a 9.635446
_cell_length_b 6.899282
_cell_length_c 14.203479
_cell_angle_alpha 90.000000
_cell_angle_beta 90.000000
_cell_angle_gamma 90.000000
_cell_volume 944.214036
_symmetry_space_group_name_H-M "P N C 2"
_symmetry_group_IT_number 30
_symmetry_cell_setting 'orthorhombic'
loop_
_space_group_symop_operation_xyz
x,y,z
-x,-y,z
-x,1/2+y,1/2+z
x,1/2-y,1/2+z
loop_
_atom_site_type_symbol
_atom_site_label
_atom_site_fract_x
_atom_site_fract_y
_atom_site_fract_z
Si Si1 0.667644 0.823121 0.981300
Si Si2 0.868365 0.365634 0.391551
Si Si3 0.851108 0.459206 0.037643
Si Si4 0.500000 0.000000 0.837117
Si Si5 0.500000 0.500000 0.643477
Si Si6 0.707628 0.297251 0.217256
O O1 0.749387 0.013512 0.945500
O O2 0.542425 0.812534 0.903440
O O3 0.768470 0.639142 0.990674
O O4 0.594778 0.855465 0.081839
O O5 0.899957 0.183432 0.456061
O O6 0.833911 0.267256 0.290084
O O7 0.000000 0.500000 0.376904
O O8 0.753686 0.356664 0.113375
O O9 0.000000 0.500000 0.087410
O O10 0.627733 0.028845 0.767500
O O11 0.393925 0.613712 0.710811
#
# Coordination Sequence:
#
# PCOD8169557 Si02
#       6
#     4   4   4   2   2   4
#     4  10  22  42  68  95 137 176 219 276 336 391
#     4  11  23  46  65  99 138 171 229 281 325 396
#     4  12  24  43  71  97 129 188 222 271 341 393
#     4   9  22  42  63 100 138 174 219 282 325 406
#     4  11  22  42  63 104 134 174 225 276 333 404
#     4  11  24  41  67 100 134 176 222 275 335 399
#
# _framework density 21.181635
#
# number of rings (size 3 to 8) (size 9 to 14) (size 15 to 20)
#    0.000    1.200    4.000    1.800    2.800    0.000 
#    0.000    1.000    0.000    0.000    0.000    0.000 
#    0.000    0.000    0.000    0.000    0.000    0.000 
#
# Total GULP energy -247784.724825 kJ/mol
# GULP energy per Si atom -12389.236241 kJ/mol
# Density = 2.113343 g / cm^3
# Si number density = 21.181635 Si / 1000 Ang^3
#
#
#
# Elastic Constant Matrix: (Units=GPa)
#
#
# Indices 1 2 3 4 5 6 
#
# 1 121.3160 47.2631 50.1643 0.0000 0.0000 0.0000
# 2 47.2631 94.4468 48.6417 0.0000 0.0000 0.0000
# 3 50.1643 48.6417 120.5714 0.0000 0.0000 0.0000
# 4 0.0000 0.0000 0.0000 22.0273 0.0000 0.0000
# 5 0.0000 0.0000 0.0000 0.0000 26.5106 0.0000
# 6 0.0000 0.0000 0.0000 0.0000 0.0000 50.6141
#
#
#
# Elastic Compliance Matrix: (Units=1/GPa)
#
#
# Indices 1 2 3 4 5 6 
#
# 1 0.011027 -0.003983 -0.002981 0.000000 0.000000 0.000000
# 2 -0.003983 0.014803 -0.004315 0.000000 0.000000 0.000000
# 3 -0.002981 -0.004315 0.011275 0.000000 0.000000 0.000000
# 4 0.000000 0.000000 0.000000 0.045398 0.000000 0.000000
# 5 0.000000 0.000000 0.000000 0.000000 0.037721 0.000000
# 6 0.000000 0.000000 0.000000 0.000000 0.000000 0.019757
#
#
# Mechanical properties :
#
#
# Convention : Reuss Voigt Hill
#
# Bulk Modulus (GPa) = 68.74011 69.83026 69.28519
# Shear Modulus (GPa) = 29.87051 32.51475 31.19263
#
# Velocity S-wave (km/s) = 3.75935 3.92221 3.84164
# Velocity P-wave (km/s) = 7.16706 7.31783 7.24284
#
# Compressibility (1/GPa) = 0.01454755
#
# Stress axis : x y z
#
# Youngs Moduli (GPa) = 90.68362 67.55211 88.69234
#
# Poissons Ratio (x) = 0.26906 0.26441
# Poissons Ratio (y) = 0.36119 0.38270
# Poissons Ratio (z) = 0.27034 0.29148
#
# Static dielectric constant tensor:
#      x y z
#    x 4.185760 0.000000 0.000000 
#    y 0.000000 3.527520 0.000000 
#    z 0.000000 0.000000 3.944860 
# 
# 
# High freq. dielectric constant tensor:
#      x y z
#    x 1.850580 0.000000 0.000000 
#    y 0.000000 1.804470 0.000000 
#    z 0.000000 0.000000 1.840080 
# 
# From -- ./inp_files/5332.got.cif
#   From: 2010.03.12/outbox.cif.g09.slc.cpg/sg30_3_cif.got.tgz:5332.got - 2010.04.14 01:38:02.
