data_PCOD8169741
_publ_section_title
;
Structure prediction by ZEFSAII (Michael W. Deem and Ramdas Pophale) SiO2 
 PCOD8169741
Probable space group: P M N 21
;
_chemical_formula_sum "Si O2"
_cell_formula_units_Z 32
_cell_length_a 8.840195
_cell_length_b 12.170266
_cell_length_c 14.586339
_cell_angle_alpha 90.000000
_cell_angle_beta 90.000000
_cell_angle_gamma 90.000000
_cell_volume 1569.308107
_symmetry_space_group_name_H-M "P M N 21"
_symmetry_group_IT_number 31
_symmetry_cell_setting 'orthorhombic'
loop_
_space_group_symop_operation_xyz
x,y,z
1/2-x,-y,1/2+z
-x,y,z
1/2+x,-y,1/2+z
loop_
_atom_site_type_symbol
_atom_site_label
_atom_site_fract_x
_atom_site_fract_y
_atom_site_fract_z
Si Si1 0.323358 0.289793 0.258710
Si Si2 0.325561 0.879984 0.878340
Si Si3 0.319660 0.668196 0.300312
Si Si4 0.680540 0.500777 0.675681
Si Si5 0.328190 0.971350 0.069599
Si Si6 0.168942 0.402874 0.990969
Si Si7 0.331806 0.816744 0.595803
Si Si8 0.323796 0.916583 0.275591
O O1 0.500000 0.314398 0.265201
O O2 0.237042 0.404281 0.244241
O O3 0.287691 0.206055 0.176276
O O4 0.267023 0.228848 0.350137
O O5 0.500000 0.864461 0.851680
O O6 0.269455 0.990887 0.828635
O O7 0.302866 0.884847 0.987897
O O8 0.500000 0.658051 0.291182
O O9 0.242090 0.615745 0.210432
O O10 0.256613 0.599580 0.389456
O O11 0.272943 0.795541 0.308990
O O12 0.500000 0.504457 0.673802
O O13 0.746095 0.524143 0.571951
O O14 0.500000 0.014807 0.068611
O O15 0.287943 0.918129 0.167125
O O16 0.216644 0.071633 0.046822
O O17 0.169076 0.276245 0.019704
O O18 0.000000 0.448088 0.979213
O O19 0.500000 0.827299 0.638427
O O20 0.500000 0.937865 0.295153
#
# Coordination Sequence:
#
# PCOD8169741 Si02
#       8
#     4   4   4   4   4   4   4   4
#     4  11  21  36  58  82 111 147 191 239 290 344
#     4  11  22  36  56  85 120 156 194 238 289 347
#     4  10  20  38  61  84 114 153 195 237 286 348
#     4  10  21  39  60  84 114 147 189 245 295 342
#     4  10  21  35  52  81 121 157 189 233 289 348
#     4   8  17  34  57  83 111 145 188 236 285 337
#     4  10  18  32  57  85 113 148 190 237 284 338
#     4  10  21  38  59  84 118 157 194 239 292 348
#
# _framework density 20.391151000000001
#
# number of rings (size 3 to 8) (size 9 to 14) (size 15 to 20)
#    0.000    2.000    1.250    3.750    0.000    2.500 
#    2.250    3.750    0.000    0.000    0.000    0.000 
#    0.000    0.000    0.000    0.000    0.000    0.000 
#
# Total GULP energy -396657.811501 kJ/mol
# GULP energy per Si atom -12395.556609 kJ/mol
# Density = 2.034474 g / cm^3
# Si number density = 20.391151 Si / 1000 Ang^3
#
#
#
# Elastic Constant Matrix: (Units=GPa)
#
#
# Indices 1 2 3 4 5 6 
#
# 1 67.3690 14.4149 17.1652 0.0000 0.0000 0.0000
# 2 14.4149 41.4643 4.8376 0.0000 0.0000 0.0000
# 3 17.1652 4.8376 91.8234 0.0000 0.0000 0.0000
# 4 0.0000 0.0000 0.0000 21.7353 0.0000 0.0000
# 5 0.0000 0.0000 0.0000 0.0000 24.0296 0.0000
# 6 0.0000 0.0000 0.0000 0.0000 0.0000 31.4108
#
#
#
# Elastic Compliance Matrix: (Units=1/GPa)
#
#
# Indices 1 2 3 4 5 6 
#
# 1 0.016742 -0.005489 -0.002840 0.000000 0.000000 0.000000
# 2 -0.005489 0.026066 -0.000347 0.000000 0.000000 0.000000
# 3 -0.002840 -0.000347 0.011440 0.000000 0.000000 0.000000
# 4 0.000000 0.000000 0.000000 0.046008 0.000000 0.000000
# 5 0.000000 0.000000 0.000000 0.000000 0.041615 0.000000
# 6 0.000000 0.000000 0.000000 0.000000 0.000000 0.031836
#
#
# Mechanical properties :
#
#
# Convention : Reuss Voigt Hill
#
# Bulk Modulus (GPa) = 27.10441 30.38802 28.74621
# Shear Modulus (GPa) = 24.58717 26.38441 25.48579
#
# Velocity S-wave (km/s) = 3.47620 3.60100 3.53915
# Velocity P-wave (km/s) = 5.42522 5.67667 5.55237
#
# Compressibility (1/GPa) = 0.03689437
#
# Stress axis : x y z
#
# Youngs Moduli (GPa) = 59.73072 38.36438 87.41447
#
# Poissons Ratio (x) = 0.21058 0.24830
# Poissons Ratio (y) = 0.32785 0.03035
# Poissons Ratio (z) = 0.16966 0.01332
#
# Static dielectric constant tensor:
#      x y z
#    x 3.564090 0.000000 0.000000 
#    y 0.000000 3.552260 0.000000 
#    z 0.000000 0.000000 3.885850 
# 
# 
# High freq. dielectric constant tensor:
#      x y z
#    x 1.780140 0.000000 0.000000 
#    y 0.000000 1.783500 0.000000 
#    z 0.000000 0.000000 1.803430 
# 
# From -- ./inp_files/5092.got.cif
#   From: 2010.03.12/outbox.cif.g09.slc.cpg/sg31_3_cif.got.tgz:5092.got - 2010.04.14 01:42:59.
