data_PCOD8169367
_publ_section_title
;
Structure prediction by ZEFSAII (Michael W. Deem and Ramdas Pophale) SiO2 
 PCOD8169367
Probable space group: P N C 2
;
_chemical_formula_sum "Si O2"
_cell_formula_units_Z 32
_cell_length_a 11.133477
_cell_length_b 8.694618
_cell_length_c 15.146236
_cell_angle_alpha 90.000000
_cell_angle_beta 90.000000
_cell_angle_gamma 90.000000
_cell_volume 1466.175782
_symmetry_space_group_name_H-M "P N C 2"
_symmetry_group_IT_number 30
_symmetry_cell_setting 'orthorhombic'
loop_
_space_group_symop_operation_xyz
x,y,z
-x,-y,z
-x,1/2+y,1/2+z
x,1/2-y,1/2+z
loop_
_atom_site_type_symbol
_atom_site_label
_atom_site_fract_x
_atom_site_fract_y
_atom_site_fract_z
Si Si1 0.625927 0.510947 0.490970
Si Si2 0.622712 0.446537 0.144017
Si Si3 0.202427 0.601857 0.870871
Si Si4 0.312003 0.226354 0.382385
Si Si5 0.205473 0.765842 0.047571
Si Si6 0.429658 0.788627 0.828516
Si Si7 0.179004 0.408615 0.241358
Si Si8 0.932640 0.236419 0.723206
O O1 0.500000 0.500000 0.547201
O O2 0.660700 0.690230 0.475908
O O3 0.741859 0.436667 0.536650
O O4 0.592708 0.421522 0.399943
O O5 0.500000 0.500000 0.097070
O O6 0.679947 0.335291 0.072743
O O7 0.583441 0.361889 0.232934
O O8 0.718212 0.583431 0.165475
O O9 0.227333 0.422891 0.892485
O O10 0.330363 0.658751 0.838119
O O11 0.104343 0.628446 0.792231
O O12 0.152370 0.691607 0.957516
O O13 0.441028 0.202958 0.335097
O O14 0.234689 0.354162 0.332040
O O15 0.106234 0.775254 0.123475
O O16 0.130859 0.581271 0.257330
O O17 0.075036 0.288478 0.215003
#
# Coordination Sequence:
#
# PCOD8169367 Si02
#       8
#     4   4   4   4   4   4   4   4
#     4   9  18  35  60  87 126 163 208 258 323 394
#     4  11  18  35  65  98 126 162 218 267 326 397
#     4  11  22  39  63  93 129 164 212 268 325 384
#     4  11  20  34  64  97 125 162 207 270 331 388
#     4  10  22  39  62  88 126 169 211 263 317 386
#     4  10  17  36  62  94 122 165 207 261 324 393
#     4  10  19  38  66  90 116 168 215 256 317 386
#     4  10  22  42  64  90 119 172 222 258 316 381
#
# _framework density 21.825486999999999
#
# number of rings (size 3 to 8) (size 9 to 14) (size 15 to 20)
#    0.000    1.750    5.000    1.500    0.000    3.500 
#    2.250    7.500    0.000    4.500    0.000    0.000 
#    0.000    0.000    0.000    0.000    0.000    0.000 
#
# Total GULP energy -396557.541584 kJ/mol
# GULP energy per Si atom -12392.423174 kJ/mol
# Density = 2.177581 g / cm^3
# Si number density = 21.825487 Si / 1000 Ang^3
#
#
#
# Elastic Constant Matrix: (Units=GPa)
#
#
# Indices 1 2 3 4 5 6 
#
# 1 119.7741 35.3523 28.1896 0.0000 0.0000 0.0000
# 2 35.3523 91.8898 12.9941 0.0000 0.0000 0.0000
# 3 28.1896 12.9941 78.0167 0.0000 0.0000 0.0000
# 4 0.0000 0.0000 0.0000 37.5225 0.0000 0.0000
# 5 0.0000 0.0000 0.0000 0.0000 20.5055 0.0000
# 6 0.0000 0.0000 0.0000 0.0000 0.0000 28.8276
#
#
#
# Elastic Compliance Matrix: (Units=1/GPa)
#
#
# Indices 1 2 3 4 5 6 
#
# 1 0.010089 -0.003447 -0.003071 0.000000 0.000000 0.000000
# 2 -0.003447 0.012323 -0.000807 0.000000 0.000000 0.000000
# 3 -0.003071 -0.000807 0.014062 0.000000 0.000000 0.000000
# 4 0.000000 0.000000 0.000000 0.026651 0.000000 0.000000
# 5 0.000000 0.000000 0.000000 0.000000 0.048767 0.000000
# 6 0.000000 0.000000 0.000000 0.000000 0.000000 0.034689
#
#
# Mechanical properties :
#
#
# Convention : Reuss Voigt Hill
#
# Bulk Modulus (GPa) = 45.82287 49.19473 47.50880
# Shear Modulus (GPa) = 29.67234 31.58074 30.62654
#
# Velocity S-wave (km/s) = 3.69118 3.80803 3.75006
# Velocity P-wave (km/s) = 6.26156 6.47485 6.36910
#
# Compressibility (1/GPa) = 0.02182317
#
# Stress axis : x y z
#
# Youngs Moduli (GPa) = 99.11355 81.14931 71.11388
#
# Poissons Ratio (x) = 0.27975 0.21842
# Poissons Ratio (y) = 0.34168 0.05738
# Poissons Ratio (z) = 0.30442 0.06547
#
# Static dielectric constant tensor:
#      x y z
#    x 4.230630 0.000000 0.000000 
#    y 0.000000 3.812370 0.000000 
#    z 0.000000 0.000000 3.666920 
# 
# 
# High freq. dielectric constant tensor:
#      x y z
#    x 1.864120 0.000000 0.000000 
#    y 0.000000 1.844340 0.000000 
#    z 0.000000 0.000000 1.832840 
# 
# From -- ./inp_files/5539.got.cif
#   From: 2010.03.12/outbox.cif.g09.slc.cpg/sg30_3_cif.got.tgz:5539.got - 2010.04.14 01:38:02.
