data_PCOD8169664
_publ_section_title
;
Structure prediction by ZEFSAII (Michael W. Deem and Ramdas Pophale) SiO2 
 PCOD8169664
Probable space group: P N C 2
;
_chemical_formula_sum "Si O2"
_cell_formula_units_Z 18
_cell_length_a 8.929838
_cell_length_b 8.002361
_cell_length_c 9.796860
_cell_angle_alpha 90.000000
_cell_angle_beta 90.000000
_cell_angle_gamma 90.000000
_cell_volume 700.081532
_symmetry_space_group_name_H-M "P N C 2"
_symmetry_group_IT_number 30
_symmetry_cell_setting 'orthorhombic'
loop_
_space_group_symop_operation_xyz
x,y,z
-x,-y,z
-x,1/2+y,1/2+z
x,1/2-y,1/2+z
loop_
_atom_site_type_symbol
_atom_site_label
_atom_site_fract_x
_atom_site_fract_y
_atom_site_fract_z
Si Si1 0.731166 0.720582 0.203800
Si Si2 0.239384 0.718358 0.468062
Si Si3 0.051217 0.680298 0.723589
Si Si4 0.500000 0.000000 0.871937
Si Si5 0.337891 0.433312 0.941748
O O1 0.627909 0.584397 0.279100
O O2 0.710165 0.893402 0.286418
O O3 0.910300 0.693911 0.202897
O O4 0.680131 0.726302 0.044127
O O5 0.135039 0.633668 0.581620
O O6 0.162302 0.714567 0.319783
O O7 0.405861 0.634113 0.462201
O O8 0.246173 0.914377 0.508433
O O9 0.000000 0.500000 0.785015
O O10 0.500000 0.500000 0.925074
#
# Coordination Sequence:
#
# PCOD8169664 Si02
#       5
#     4   4   4   2   4
#     4  12  27  50  81 114 157 213 269 336 413 485
#     4  12  29  52  79 123 162 212 274 339 415 490
#     4  12  29  51  83 117 162 216 273 335 415 497
#     4  12  28  48  86 122 158 218 276 342 414 496
#     4  12  26  51  79 114 158 206 269 337 396 487
#
# _framework density 25.711292
#
# number of rings (size 3 to 8) (size 9 to 14) (size 15 to 20)
#    0.000    0.000    5.556    2.667    6.222    1.778 
#    4.000    0.000    0.000    0.000    0.000    0.000 
#    0.000    0.000    0.000    0.000    0.000    0.000 
#
# Total GULP energy -223036.941280 kJ/mol
# GULP energy per Si atom -12390.941182 kJ/mol
# Density = 2.565277 g / cm^3
# Si number density = 25.711292 Si / 1000 Ang^3
#
#
#
# Elastic Constant Matrix: (Units=GPa)
#
#
# Indices 1 2 3 4 5 6 
#
# 1 186.6682 47.5343 76.4149 0.0000 0.0000 0.0000
# 2 47.5343 78.5278 28.3125 0.0000 0.0000 0.0000
# 3 76.4149 28.3125 140.2674 0.0000 0.0000 0.0000
# 4 0.0000 0.0000 0.0000 62.5902 0.0000 0.0000
# 5 0.0000 0.0000 0.0000 0.0000 193.8206 0.0000
# 6 0.0000 0.0000 0.0000 0.0000 0.0000 26.0959
#
#
#
# Elastic Compliance Matrix: (Units=1/GPa)
#
#
# Indices 1 2 3 4 5 6 
#
# 1 0.007641 -0.003370 -0.003482 0.000000 0.000000 0.000000
# 2 -0.003370 0.015220 -0.001236 0.000000 0.000000 0.000000
# 3 -0.003482 -0.001236 0.009276 0.000000 0.000000 0.000000
# 4 0.000000 0.000000 0.000000 0.015977 0.000000 0.000000
# 5 0.000000 0.000000 0.000000 0.000000 0.005159 0.000000
# 6 0.000000 0.000000 0.000000 0.000000 0.000000 0.038320
#
#
# Mechanical properties :
#
#
# Convention : Reuss Voigt Hill
#
# Bulk Modulus (GPa) = 62.65751 78.88742 70.77247
# Shear Modulus (GPa) = 44.21283 73.38145 58.79714
#
# Velocity S-wave (km/s) = 4.15129 5.34813 4.78726
# Velocity P-wave (km/s) = 6.88478 8.29972 7.62514
#
# Compressibility (1/GPa) = 0.01595978
#
# Stress axis : x y z
#
# Youngs Moduli (GPa) = 130.87839 65.70412 107.80591
#
# Poissons Ratio (x) = 0.22139 0.37542
# Poissons Ratio (y) = 0.44100 0.13329
# Poissons Ratio (z) = 0.45577 0.08124
#
# Static dielectric constant tensor:
#      x y z
#    x 0.104710 0.000000 0.000000 
#    y 0.000000 0.980880 0.000000 
#    z 0.000000 0.000000 4.453540 
# 
# 
# High freq. dielectric constant tensor:
#      x y z
#    x 2.055070 0.000000 0.000000 
#    y 0.000000 2.020230 0.000000 
#    z 0.000000 0.000000 2.019320 
# 
# From -- ./inp_files/1586.got.cif
#   From: 2010.03.12/outbox.cif.g09.slc.cpg/sg30_1_cif.got.tgz:1586.got - 2010.04.14 01:38:02.
