data_PCOD8169953
_publ_section_title
;
Structure prediction by ZEFSAII (Michael W. Deem and Ramdas Pophale) SiO2 
 PCOD8169953
Probable space group: P M N 21
;
_chemical_formula_sum "Si O2"
_cell_formula_units_Z 32
_cell_length_a 9.018877
_cell_length_b 15.943573
_cell_length_c 11.025783
_cell_angle_alpha 90.000000
_cell_angle_beta 90.000000
_cell_angle_gamma 90.000000
_cell_volume 1585.431780
_symmetry_space_group_name_H-M "P M N 21"
_symmetry_group_IT_number 31
_symmetry_cell_setting 'orthorhombic'
loop_
_space_group_symop_operation_xyz
x,y,z
1/2-x,-y,1/2+z
-x,y,z
1/2+x,-y,1/2+z
loop_
_atom_site_type_symbol
_atom_site_label
_atom_site_fract_x
_atom_site_fract_y
_atom_site_fract_z
Si Si1 0.164079 0.213384 0.030470
Si Si2 0.665970 0.641118 0.335969
Si Si3 0.674878 0.648112 0.695627
Si Si4 0.676686 0.962974 0.454713
Si Si5 0.824421 0.942750 0.203770
Si Si6 0.826139 0.754738 0.154842
Si Si7 0.672030 0.471176 0.016444
Si Si8 0.669147 0.658823 0.972243
O O1 0.234701 0.261352 0.146212
O O2 0.000000 0.182612 0.066054
O O3 0.161484 0.281238 0.925922
O O4 0.245810 0.128808 0.987943
O O5 0.500000 0.614181 0.297160
O O6 0.753215 0.675552 0.221238
O O7 0.747053 0.561524 0.394858
O O8 0.500000 0.639182 0.664482
O O9 0.761101 0.571763 0.634922
O O10 0.711535 0.643257 0.834587
O O11 0.500000 0.965072 0.434453
O O12 0.749220 0.987276 0.322742
O O13 0.722837 0.019675 0.571431
O O14 0.771442 0.845647 0.199976
O O15 0.000000 0.951999 0.219348
O O16 0.000000 0.749696 0.167513
O O17 0.773516 0.734956 0.017946
O O18 0.500000 0.448557 0.001793
O O19 0.697007 0.569733 0.037201
O O20 0.500000 0.688452 0.987071
#
# Coordination Sequence:
#
# PCOD8169953 Si02
#       8
#     4   4   4   4   4   4   4   4
#     4   8  15  31  58  83 102 139 190 234 279 339
#     4  10  19  35  60  85 109 146 194 234 282 349
#     4   9  19  37  56  79 112 149 194 245 290 349
#     4  10  20  38  62  88 121 160 204 253 306 371
#     4  10  23  40  60  92 128 159 205 258 308 368
#     4  11  23  38  57  84 120 157 195 245 302 350
#     4  10  21  36  55  85 116 148 190 241 296 348
#     4  10  23  39  56  82 116 154 200 242 291 360
#
# _framework density 20.183776000000002
#
# number of rings (size 3 to 8) (size 9 to 14) (size 15 to 20)
#    0.000    2.250    1.250    1.875    1.750    3.500 
#    0.000    1.250    0.000    0.000    0.000    0.000 
#    0.000    0.000    0.000    0.000    0.000    0.000 
#
# Total GULP energy -396515.948905 kJ/mol
# GULP energy per Si atom -12391.123403 kJ/mol
# Density = 2.013784 g / cm^3
# Si number density = 20.183776 Si / 1000 Ang^3
#
#
#
# Elastic Constant Matrix: (Units=GPa)
#
#
# Indices 1 2 3 4 5 6 
#
# 1 68.8630 26.7450 47.1436 0.0000 0.0000 0.0000
# 2 26.7450 53.1603 46.1956 0.0000 0.0000 0.0000
# 3 47.1436 46.1956 114.1186 0.0000 0.0000 0.0000
# 4 0.0000 0.0000 0.0000 25.0213 0.0000 0.0000
# 5 0.0000 0.0000 0.0000 0.0000 35.5138 0.0000
# 6 0.0000 0.0000 0.0000 0.0000 0.0000 23.3385
#
#
#
# Elastic Compliance Matrix: (Units=1/GPa)
#
#
# Indices 1 2 3 4 5 6 
#
# 1 0.020971 -0.004662 -0.006776 0.000000 0.000000 0.000000
# 2 -0.004662 0.030056 -0.010241 0.000000 0.000000 0.000000
# 3 -0.006776 -0.010241 0.015708 0.000000 0.000000 0.000000
# 4 0.000000 0.000000 0.000000 0.039966 0.000000 0.000000
# 5 0.000000 0.000000 0.000000 0.000000 0.028158 0.000000
# 6 0.000000 0.000000 0.000000 0.000000 0.000000 0.042848
#
#
# Mechanical properties :
#
#
# Convention : Reuss Voigt Hill
#
# Bulk Modulus (GPa) = 42.77823 52.92337 47.85080
# Shear Modulus (GPa) = 21.84777 24.51188 23.17983
#
# Velocity S-wave (km/s) = 3.29362 3.48866 3.39254
# Velocity P-wave (km/s) = 5.97531 6.51961 6.25338
#
# Compressibility (1/GPa) = 0.02337637
#
# Stress axis : x y z
#
# Youngs Moduli (GPa) = 47.68424 33.27167 63.66376
#
# Poissons Ratio (x) = 0.15512 0.43139
# Poissons Ratio (y) = 0.22232 0.65195
# Poissons Ratio (z) = 0.32311 0.34072
#
# Static dielectric constant tensor:
#      x y z
#    x 3.515220 0.000000 0.000000 
#    y 0.000000 3.765230 0.000000 
#    z 0.000000 0.000000 3.943680 
# 
# 
# High freq. dielectric constant tensor:
#      x y z
#    x 1.766490 0.000000 0.000000 
#    y 0.000000 1.783380 0.000000 
#    z 0.000000 0.000000 1.799220 
# 
# From -- ./inp_files/3731.got.cif
#   From: 2010.03.12/outbox.cif.g09.slc.cpg/sg31_2_cif.got.tgz:3731.got - 2010.04.14 01:42:59.
