data_PCOD8169815
_publ_section_title
;
Structure prediction by ZEFSAII (Michael W. Deem and Ramdas Pophale) SiO2 
 PCOD8169815
Probable space group: P M N 21
;
_chemical_formula_sum "Si O2"
_cell_formula_units_Z 24
_cell_length_a 9.108305
_cell_length_b 14.960555
_cell_length_c 9.001142
_cell_angle_alpha 90.000000
_cell_angle_beta 90.000000
_cell_angle_gamma 90.000000
_cell_volume 1226.543296
_symmetry_space_group_name_H-M "P M N 21"
_symmetry_group_IT_number 31
_symmetry_cell_setting 'orthorhombic'
loop_
_space_group_symop_operation_xyz
x,y,z
1/2-x,-y,1/2+z
-x,y,z
1/2+x,-y,1/2+z
loop_
_atom_site_type_symbol
_atom_site_label
_atom_site_fract_x
_atom_site_fract_y
_atom_site_fract_z
Si Si1 0.669631 0.950453 0.939070
Si Si2 0.170564 0.890554 0.651960
Si Si3 0.335117 0.718662 0.708638
Si Si4 0.170899 0.549570 0.788281
Si Si5 0.330323 0.398022 0.626216
Si Si6 0.337494 0.767962 0.052426
O O1 0.500000 0.938278 0.890216
O O2 0.771376 0.942312 0.796078
O O3 0.707938 0.872590 0.060656
O O4 0.698003 0.046670 0.010487
O O5 0.253895 0.797664 0.619041
O O6 0.000000 0.869549 0.676995
O O7 0.500000 0.706588 0.645996
O O8 0.248674 0.625789 0.688931
O O9 0.336719 0.744800 0.879433
O O10 0.239203 0.454594 0.745134
O O11 0.000000 0.551000 0.749705
O O12 0.199920 0.564195 0.962179
O O13 0.500000 0.401901 0.669418
O O14 0.277255 0.295014 0.638505
O O15 0.500000 0.751632 0.119338
#
# Coordination Sequence:
#
# PCOD8169815 Si02
#       6
#     4   4   4   4   4   4
#     4   9  19  34  51  74 102 131 166 207 249 294
#     4  10  19  32  52  76 101 132 169 207 249 296
#     4   9  17  31  51  73  99 132 167 203 245 295
#     4  10  20  34  53  76 101 131 167 205 246 295
#     4  10  20  33  51  76 101 128 165 205 247 295
#     4   8  15  30  50  69  94 130 166 201 242 289
#
# _framework density 19.567184999999998
#
# number of rings (size 3 to 8) (size 9 to 14) (size 15 to 20)
#    0.000    2.667    0.000    3.000    0.000    7.333 
#    0.000    1.667    0.000    6.000    0.000    0.000 
#    0.000    0.000    0.000    0.000    0.000    0.000 
#
# Total GULP energy -297581.607170 kJ/mol
# GULP energy per Si atom -12399.233632 kJ/mol
# Density = 1.952265 g / cm^3
# Si number density = 19.567185 Si / 1000 Ang^3
#
#
#
# Elastic Constant Matrix: (Units=GPa)
#
#
# Indices 1 2 3 4 5 6 
#
# 1 101.7661 6.4613 11.8738 0.0000 0.0000 0.0000
# 2 6.4613 31.3253 -10.4412 0.0000 0.0000 0.0000
# 3 11.8738 -10.4412 12.9897 0.0000 0.0000 0.0000
# 4 0.0000 0.0000 0.0000 24.6674 0.0000 0.0000
# 5 0.0000 0.0000 0.0000 0.0000 22.9933 0.0000
# 6 0.0000 0.0000 0.0000 0.0000 0.0000 37.6343
#
#
#
# Elastic Compliance Matrix: (Units=1/GPa)
#
#
# Indices 1 2 3 4 5 6 
#
# 1 0.012541 -0.008752 -0.018498 0.000000 0.000000 0.000000
# 2 -0.008752 0.049715 0.047961 0.000000 0.000000 0.000000
# 3 -0.018498 0.047961 0.132445 0.000000 0.000000 0.000000
# 4 0.000000 0.000000 0.000000 0.040539 0.000000 0.000000
# 5 0.000000 0.000000 0.000000 0.000000 0.043491 0.000000
# 6 0.000000 0.000000 0.000000 0.000000 0.000000 0.026572
#
#
# Mechanical properties :
#
#
# Convention : Reuss Voigt Hill
#
# Bulk Modulus (GPa) = 4.23512 17.98544 11.11028
# Shear Modulus (GPa) = 14.59479 26.27148 20.43314
#
# Velocity S-wave (km/s) = 2.73405 3.66817 3.23500
# Velocity P-wave (km/s) = 3.48364 5.21078 4.43215
#
# Compressibility (1/GPa) = 0.23612088
#
# Stress axis : x y z
#
# Youngs Moduli (GPa) = 79.74154 20.11483 7.55031
#
# Poissons Ratio (x) = 0.17605 0.13967
# Poissons Ratio (y) = 0.69793 -0.36212
# Poissons Ratio (z) = 1.47510 -0.96473
#
# Static dielectric constant tensor:
#      x y z
#    x 3.690610 0.000000 0.000000 
#    y 0.000000 3.852310 0.000000 
#    z 0.000000 0.000000 3.031640 
# 
# 
# High freq. dielectric constant tensor:
#      x y z
#    x 1.771590 0.000000 0.000000 
#    y 0.000000 1.775270 0.000000 
#    z 0.000000 0.000000 1.712090 
# 
# From -- ./inp_files/1686.got.cif
#   From: 2010.03.12/outbox.cif.g09.slc.cpg/sg31_1_cif.got.tgz:1686.got - 2010.04.14 01:42:59.
