data_PCOD8169683
_publ_section_title
;
Structure prediction by ZEFSAII (Michael W. Deem and Ramdas Pophale) SiO2 
 PCOD8169683
Probable space group: P M N 21
;
_chemical_formula_sum "Si O2"
_cell_formula_units_Z 32
_cell_length_a 9.496313
_cell_length_b 11.922937
_cell_length_c 14.797292
_cell_angle_alpha 90.000000
_cell_angle_beta 90.000000
_cell_angle_gamma 90.000000
_cell_volume 1675.407726
_symmetry_space_group_name_H-M "P M N 21"
_symmetry_group_IT_number 31
_symmetry_cell_setting 'orthorhombic'
loop_
_space_group_symop_operation_xyz
x,y,z
1/2-x,-y,1/2+z
-x,y,z
1/2+x,-y,1/2+z
loop_
_atom_site_type_symbol
_atom_site_label
_atom_site_fract_x
_atom_site_fract_y
_atom_site_fract_z
Si Si1 0.833925 0.911254 0.139410
Si Si2 0.163528 0.618453 0.353613
Si Si3 0.843133 0.944172 0.941477
Si Si4 0.660856 0.505663 0.031478
Si Si5 0.157993 0.199951 0.942754
Si Si6 0.339315 0.346179 0.655235
Si Si7 0.659675 0.265839 0.102319
Si Si8 0.164802 0.904155 0.750263
O O1 0.806385 0.784595 0.172436
O O2 0.000000 0.942534 0.141885
O O3 0.751376 0.997035 0.202682
O O4 0.767906 0.922133 0.037484
O O5 0.205291 0.522683 0.427231
O O6 0.254223 0.728840 0.371296
O O7 0.192223 0.585675 0.248977
O O8 0.000000 0.649849 0.367871
O O9 0.777136 0.883816 0.852831
O O10 0.000000 0.897408 0.955918
O O11 0.843860 0.073017 0.910588
O O12 0.500000 0.544222 0.034472
O O13 0.750312 0.607602 0.071237
O O14 0.688204 0.398608 0.096373
O O15 0.000000 0.248825 0.950536
O O16 0.230761 0.200773 0.040160
O O17 0.500000 0.362670 0.626349
O O18 0.500000 0.241542 0.069156
O O19 0.684454 0.216413 0.202062
O O20 0.000000 0.939604 0.751812
#
# Coordination Sequence:
#
# PCOD8169683 Si02
#       8
#     4   4   4   4   4   4   4   4
#     4  10  20  36  54  78 112 142 170 219 274 313
#     4   9  19  36  55  78 107 140 177 221 271 314
#     4   9  18  31  48  75 110 140 166 209 268 315
#     4   9  19  36  55  75 104 138 174 222 268 309
#     4  10  17  28  51  78 104 135 174 218 259 306
#     4  10  21  37  57  80 107 142 180 220 267 321
#     4   9  18  33  52  74 101 136 175 216 265 311
#     4  10  19  33  54  78 105 141 180 211 256 327
#
# _framework density 19.099827000000001
#
# number of rings (size 3 to 8) (size 9 to 14) (size 15 to 20)
#    0.000    2.500    1.250    1.875    0.000    3.000 
#    2.250    1.250    0.000    0.000    0.000    0.000 
#    0.000    0.000    0.000    0.000    0.000    0.000 
#
# Total GULP energy -396540.417697 kJ/mol
# GULP energy per Si atom -12391.888053 kJ/mol
# Density = 1.905635 g / cm^3
# Si number density = 19.099827 Si / 1000 Ang^3
#
#
#
# Elastic Constant Matrix: (Units=GPa)
#
#
# Indices 1 2 3 4 5 6 
#
# 1 53.1783 14.4076 23.8734 0.0000 0.0000 0.0000
# 2 14.4076 35.9569 12.4830 0.0000 0.0000 0.0000
# 3 23.8734 12.4830 107.6317 0.0000 0.0000 0.0000
# 4 0.0000 0.0000 0.0000 25.9577 0.0000 0.0000
# 5 0.0000 0.0000 0.0000 0.0000 22.8960 0.0000
# 6 0.0000 0.0000 0.0000 0.0000 0.0000 27.3196
#
#
#
# Elastic Compliance Matrix: (Units=1/GPa)
#
#
# Indices 1 2 3 4 5 6 
#
# 1 0.022749 -0.007673 -0.004156 0.000000 0.000000 0.000000
# 2 -0.007673 0.031566 -0.001959 0.000000 0.000000 0.000000
# 3 -0.004156 -0.001959 0.010440 0.000000 0.000000 0.000000
# 4 0.000000 0.000000 0.000000 0.038524 0.000000 0.000000
# 5 0.000000 0.000000 0.000000 0.000000 0.043676 0.000000
# 6 0.000000 0.000000 0.000000 0.000000 0.000000 0.036604
#
#
# Mechanical properties :
#
#
# Convention : Reuss Voigt Hill
#
# Bulk Modulus (GPa) = 26.89671 33.14387 30.02029
# Shear Modulus (GPa) = 22.36868 24.96820 23.66844
#
# Velocity S-wave (km/s) = 3.42591 3.61951 3.52404
# Velocity P-wave (km/s) = 5.45545 5.90410 5.68420
#
# Compressibility (1/GPa) = 0.03717927
#
# Stress axis : x y z
#
# Youngs Moduli (GPa) = 43.95762 31.68015 95.78539
#
# Poissons Ratio (x) = 0.24307 0.39809
# Poissons Ratio (y) = 0.33727 0.18765
# Poissons Ratio (z) = 0.18269 0.06206
#
# Static dielectric constant tensor:
#      x y z
#    x 3.395160 0.000000 0.000000 
#    y 0.000000 3.207740 0.000000 
#    z 0.000000 0.000000 3.694270 
# 
# 
# High freq. dielectric constant tensor:
#      x y z
#    x 1.727030 0.000000 0.000000 
#    y 0.000000 1.717660 0.000000 
#    z 0.000000 0.000000 1.752690 
# 
# From -- ./inp_files/5058.got.cif
#   From: 2010.03.12/outbox.cif.g09.slc.cpg/sg31_3_cif.got.tgz:5058.got - 2010.04.14 01:42:59.
