data_PCOD8169853
_publ_section_title
;
Structure prediction by ZEFSAII (Michael W. Deem and Ramdas Pophale) SiO2 
 PCOD8169853
Probable space group: P M N 21
;
_chemical_formula_sum "Si O2"
_cell_formula_units_Z 24
_cell_length_a 8.615250
_cell_length_b 9.214461
_cell_length_c 16.478609
_cell_angle_alpha 90.000000
_cell_angle_beta 90.000000
_cell_angle_gamma 90.000000
_cell_volume 1308.152483
_symmetry_space_group_name_H-M "P M N 21"
_symmetry_group_IT_number 31
_symmetry_cell_setting 'orthorhombic'
loop_
_space_group_symop_operation_xyz
x,y,z
1/2-x,-y,1/2+z
-x,y,z
1/2+x,-y,1/2+z
loop_
_atom_site_type_symbol
_atom_site_label
_atom_site_fract_x
_atom_site_fract_y
_atom_site_fract_z
Si Si1 0.177594 0.685893 0.242700
Si Si2 0.317369 0.843042 0.395815
Si Si3 0.322487 0.580357 0.496355
Si Si4 0.321714 0.572894 0.849012
Si Si5 0.320959 0.672848 0.074322
Si Si6 0.317716 0.171112 0.421021
O O1 0.226006 0.787120 0.317357
O O2 0.199002 0.514301 0.264920
O O3 0.280179 0.723876 0.164755
O O4 0.000000 0.718987 0.221206
O O5 0.500000 0.830394 0.377579
O O6 0.275500 0.747089 0.476343
O O7 0.263019 0.005119 0.415353
O O8 0.500000 0.568951 0.524647
O O9 0.298071 0.495509 0.412498
O O10 0.219591 0.499625 0.564835
O O11 0.500000 0.558622 0.879215
O O12 0.270979 0.742178 0.847803
O O13 0.500000 0.700109 0.057794
O O14 0.225544 0.767369 0.009552
O O15 0.500000 0.184052 0.407368
#
# Coordination Sequence:
#
# PCOD8169853 Si02
#       6
#     4   4   4   4   4   4
#     4  10  20  34  53  75 100 131 168 210 255 299
#     4   9  19  34  53  77 103 133 167 204 248 301
#     4   9  16  30  51  72  96 126 162 201 242 290
#     4   9  17  30  49  73  97 125 164 203 241 291
#     4  11  21  33  51  75 102 131 169 212 252 296
#     4  10  19  33  53  76 104 136 168 202 248 303
#
# _framework density 18.346485999999999
#
# number of rings (size 3 to 8) (size 9 to 14) (size 15 to 20)
#    0.000    2.333    0.000    5.500    0.000    4.000 
#    0.000    1.667    0.000    2.000    0.000    0.000 
#    0.000    0.000    0.000    0.000    0.000    0.000 
#
# Total GULP energy -297416.843443 kJ/mol
# GULP energy per Si atom -12392.368477 kJ/mol
# Density = 1.830473 g / cm^3
# Si number density = 18.346486 Si / 1000 Ang^3
#
#
#
# Elastic Constant Matrix: (Units=GPa)
#
#
# Indices 1 2 3 4 5 6 
#
# 1 54.7854 27.2075 18.8425 0.0000 0.0000 0.0000
# 2 27.2075 130.3243 28.6480 0.0000 0.0000 0.0000
# 3 18.8425 28.6480 69.5051 0.0000 0.0000 0.0000
# 4 0.0000 0.0000 0.0000 18.1929 0.0000 0.0000
# 5 0.0000 0.0000 0.0000 0.0000 24.5394 0.0000
# 6 0.0000 0.0000 0.0000 0.0000 0.0000 24.6663
#
#
#
# Elastic Compliance Matrix: (Units=1/GPa)
#
#
# Indices 1 2 3 4 5 6 
#
# 1 0.021511 -0.003529 -0.004377 0.000000 0.000000 0.000000
# 2 -0.003529 0.009016 -0.002760 0.000000 0.000000 0.000000
# 3 -0.004377 -0.002760 0.016712 0.000000 0.000000 0.000000
# 4 0.000000 0.000000 0.000000 0.054967 0.000000 0.000000
# 5 0.000000 0.000000 0.000000 0.000000 0.040751 0.000000
# 6 0.000000 0.000000 0.000000 0.000000 0.000000 0.040541
#
#
# Mechanical properties :
#
#
# Convention : Reuss Voigt Hill
#
# Bulk Modulus (GPa) = 38.59816 44.89009 41.74412
# Shear Modulus (GPa) = 23.42315 25.47419 24.44867
#
# Velocity S-wave (km/s) = 3.57698 3.73031 3.65445
# Velocity P-wave (km/s) = 6.17607 6.56313 6.37254
#
# Compressibility (1/GPa) = 0.02590797
#
# Stress axis : x y z
#
# Youngs Moduli (GPa) = 46.48825 110.90816 59.83891
#
# Poissons Ratio (x) = 0.39135 0.26192
# Poissons Ratio (y) = 0.16404 0.16514
# Poissons Ratio (z) = 0.20348 0.30608
#
# Static dielectric constant tensor:
#      x y z
#    x 3.378300 0.000000 0.000000 
#    y 0.000000 3.753050 0.000000 
#    z 0.000000 0.000000 3.145600 
# 
# 
# High freq. dielectric constant tensor:
#      x y z
#    x 1.721320 0.000000 0.000000 
#    y 0.000000 1.706510 0.000000 
#    z 0.000000 0.000000 1.681300 
# 
# From -- ./inp_files/5712.got.cif
#   From: 2010.03.12/outbox.cif.g09.slc.cpg/sg31_3_cif.got.tgz:5712.got - 2010.04.14 01:42:59.
