data_PCOD8169606
_publ_section_title
;
Structure prediction by ZEFSAII (Michael W. Deem and Ramdas Pophale) SiO2 
 PCOD8169606
Probable space group: P N C 2
;
_chemical_formula_sum "Si O2"
_cell_formula_units_Z 24
_cell_length_a 8.383278
_cell_length_b 15.175357
_cell_length_c 8.494751
_cell_angle_alpha 90.000000
_cell_angle_beta 90.000000
_cell_angle_gamma 90.000000
_cell_volume 1080.695736
_symmetry_space_group_name_H-M "P N C 2"
_symmetry_group_IT_number 30
_symmetry_cell_setting 'orthorhombic'
loop_
_space_group_symop_operation_xyz
x,y,z
-x,-y,z
-x,1/2+y,1/2+z
x,1/2-y,1/2+z
loop_
_atom_site_type_symbol
_atom_site_label
_atom_site_fract_x
_atom_site_fract_y
_atom_site_fract_z
Si Si1 0.963334 0.829796 0.943640
Si Si2 0.840219 0.272598 0.717634
Si Si3 0.535301 0.323047 0.895729
Si Si4 0.000000 0.000000 0.732126
Si Si5 0.378139 0.333535 0.575606
Si Si6 0.302967 0.585560 0.144982
Si Si7 0.500000 0.000000 0.911992
O O1 0.008443 0.749365 0.828328
O O2 0.956083 0.919306 0.845518
O O3 0.798144 0.804308 0.026802
O O4 0.100307 0.835986 0.077171
O O5 0.705681 0.323950 0.811270
O O6 0.765655 0.183411 0.650580
O O7 0.396824 0.333229 0.765454
O O8 0.502622 0.234964 0.997729
O O9 0.556124 0.408747 0.012114
O O10 0.151713 0.979767 0.617953
O O11 0.403431 0.433170 0.520496
O O12 0.379717 0.557678 0.309021
#
# Coordination Sequence:
#
# PCOD8169606 Si02
#       7
#     4   4   4   2   4   4   2
#     4  11  23  41  69 101 139 181 236 296 348 423
#     4  11  21  40  71 101 131 183 239 280 348 427
#     4  12  23  43  70 100 139 188 242 280 352 437
#     4  10  24  44  70  98 142 186 230 296 370 404
#     4  12  24  42  67 104 139 187 234 296 349 424
#     4  11  23  45  69 100 138 190 230 292 361 420
#     4  12  24  44  68  98 146 178 234 296 362 412
#
# _framework density 22.207915
#
# number of rings (size 3 to 8) (size 9 to 14) (size 15 to 20)
#    0.000    0.667    6.667    1.000    2.333    0.667 
#    0.000    2.500    0.000    0.000    0.000    0.000 
#    0.000    0.000    0.000    0.000    0.000    0.000 
#
# Total GULP energy -297501.900728 kJ/mol
# GULP energy per Si atom -12395.912530 kJ/mol
# Density = 2.215737 g / cm^3
# Si number density = 22.207915 Si / 1000 Ang^3
#
#
#
# Elastic Constant Matrix: (Units=GPa)
#
#
# Indices 1 2 3 4 5 6 
#
# 1 80.8621 11.0687 17.0972 0.0000 0.0000 0.0000
# 2 11.0687 56.2409 23.2201 0.0000 0.0000 0.0000
# 3 17.0972 23.2201 103.4606 0.0000 0.0000 0.0000
# 4 0.0000 0.0000 0.0000 34.0736 0.0000 0.0000
# 5 0.0000 0.0000 0.0000 0.0000 52.6766 0.0000
# 6 0.0000 0.0000 0.0000 0.0000 0.0000 27.4829
#
#
#
# Elastic Compliance Matrix: (Units=1/GPa)
#
#
# Indices 1 2 3 4 5 6 
#
# 1 0.012985 -0.001840 -0.001733 0.000000 0.000000 0.000000
# 2 -0.001840 0.019857 -0.004153 0.000000 0.000000 0.000000
# 3 -0.001733 -0.004153 0.010884 0.000000 0.000000 0.000000
# 4 0.000000 0.000000 0.000000 0.029348 0.000000 0.000000
# 5 0.000000 0.000000 0.000000 0.000000 0.018984 0.000000
# 6 0.000000 0.000000 0.000000 0.000000 0.000000 0.036386
#
#
# Mechanical properties :
#
#
# Convention : Reuss Voigt Hill
#
# Bulk Modulus (GPa) = 35.36683 38.14840 36.75761
# Shear Modulus (GPa) = 32.61145 35.45847 34.03496
#
# Velocity S-wave (km/s) = 3.83621 4.00016 3.91904
# Velocity P-wave (km/s) = 5.96505 6.20888 6.08819
#
# Compressibility (1/GPa) = 0.02827508
#
# Stress axis : x y z
#
# Youngs Moduli (GPa) = 77.01198 50.35940 91.87926
#
# Poissons Ratio (x) = 0.09267 0.15921
# Poissons Ratio (y) = 0.14171 0.38154
# Poissons Ratio (z) = 0.13345 0.20912
#
# Static dielectric constant tensor:
#      x y z
#    x 4.156510 0.000000 0.000000 
#    y 0.000000 3.786610 0.000000 
#    z 0.000000 0.000000 4.317360 
# 
# 
# High freq. dielectric constant tensor:
#      x y z
#    x 1.883830 0.000000 0.000000 
#    y 0.000000 1.855160 0.000000 
#    z 0.000000 0.000000 1.878170 
# 
# From -- ./inp_files/1855.got.cif
#   From: 2010.03.12/outbox.cif.g09.slc.cpg/sg30_1_cif.got.tgz:1855.got - 2010.04.14 01:38:02.
