data_PCOD8169012
_publ_section_title
;
Structure prediction by ZEFSAII (Michael W. Deem and Ramdas Pophale) SiO2 
 PCOD8169012
Probable space group: P C A 21
;
_chemical_formula_sum "Si O2"
_cell_formula_units_Z 28
_cell_length_a 10.517581
_cell_length_b 13.100009
_cell_length_c 8.805046
_cell_angle_alpha 90.000000
_cell_angle_beta 90.000000
_cell_angle_gamma 90.000000
_cell_volume 1213.162811
_symmetry_space_group_name_H-M "P C A 21"
_symmetry_group_IT_number 29
_symmetry_cell_setting 'orthorhombic'
loop_
_space_group_symop_operation_xyz
x,y,z
-x,-y,1/2+z
1/2-x,y,1/2+z
1/2+x,-y,z
loop_
_atom_site_type_symbol
_atom_site_label
_atom_site_fract_x
_atom_site_fract_y
_atom_site_fract_z
Si Si1 0.884058 0.338081 0.539050
Si Si2 0.392010 0.929209 0.235724
Si Si3 0.873560 0.771054 0.045177
Si Si4 0.268546 0.351541 0.304167
Si Si5 0.629959 0.304346 0.711325
Si Si6 0.585939 0.561660 0.071310
Si Si7 0.142079 0.011251 0.410380
O O1 0.759886 0.302611 0.623283
O O2 0.847700 0.364249 0.366643
O O3 0.952201 0.443081 0.594201
O O4 0.975115 0.240545 0.561273
O O5 0.412651 0.809200 0.260343
O O6 0.517133 0.986103 0.302562
O O7 0.263930 0.971573 0.316111
O O8 0.385388 0.938936 0.053566
O O9 0.836215 0.685375 0.923265
O O10 0.827362 0.880102 0.987744
O O11 0.816593 0.748356 0.211938
O O12 0.378146 0.410540 0.397164
O O13 0.205824 0.427772 0.183771
O O14 0.525059 0.360404 0.610978
#
# Coordination Sequence:
#
# PCOD8169012 Si02
#       7
#     4   4   4   4   4   4   4
#     4  12  27  43  72 100 147 188 244 297 361 432
#     4  12  27  49  78 108 149 194 247 317 375 455
#     4  11  24  45  69 102 141 182 241 297 359 439
#     4  10  23  43  70 102 143 185 241 297 361 425
#     4  12  28  49  70 107 148 191 248 297 369 440
#     4  11  25  44  71 103 144 192 242 297 364 438
#     4  12  26  47  76 108 146 194 251 306 387 441
#
# _framework density 23.080165999999998
#
# number of rings (size 3 to 8) (size 9 to 14) (size 15 to 20)
#    0.000    0.571    2.857    3.429   10.000    4.571 
#    0.000    0.000    0.000    0.000    0.000    0.000 
#    0.000    0.000    0.000    0.000    0.000    0.000 
#
# Total GULP energy -347167.534043 kJ/mol
# GULP energy per Si atom -12398.840502 kJ/mol
# Density = 2.302763 g / cm^3
# Si number density = 23.080166 Si / 1000 Ang^3
#
#
#
# Elastic Constant Matrix: (Units=GPa)
#
#
# Indices 1 2 3 4 5 6 
#
# 1 119.5701 14.2000 45.7176 0.0000 0.0000 0.0000
# 2 14.2000 95.1972 12.4576 0.0000 0.0000 0.0000
# 3 45.7176 12.4576 105.8085 0.0000 0.0000 0.0000
# 4 0.0000 0.0000 0.0000 34.2032 0.0000 0.0000
# 5 0.0000 0.0000 0.0000 0.0000 39.0431 0.0000
# 6 0.0000 0.0000 0.0000 0.0000 0.0000 45.4088
#
#
#
# Elastic Compliance Matrix: (Units=1/GPa)
#
#
# Indices 1 2 3 4 5 6 
#
# 1 0.010102 -0.000950 -0.004253 0.000000 0.000000 0.000000
# 2 -0.000950 0.010758 -0.000856 0.000000 0.000000 0.000000
# 3 -0.004253 -0.000856 0.011389 0.000000 0.000000 0.000000
# 4 0.000000 0.000000 0.000000 0.029237 0.000000 0.000000
# 5 0.000000 0.000000 0.000000 0.000000 0.025613 0.000000
# 6 0.000000 0.000000 0.000000 0.000000 0.000000 0.022022
#
#
# Mechanical properties :
#
#
# Convention : Reuss Voigt Hill
#
# Bulk Modulus (GPa) = 49.67421 51.70289 50.68855
# Shear Modulus (GPa) = 39.07736 40.27774 39.67755
#
# Velocity S-wave (km/s) = 4.11921 4.18200 4.15072
# Velocity P-wave (km/s) = 6.64779 6.76527 6.70679
#
# Compressibility (1/GPa) = 0.02013117
#
# Stress axis : x y z
#
# Youngs Moduli (GPa) = 98.98706 92.95162 87.80023
#
# Poissons Ratio (x) = 0.08834 0.37342
# Poissons Ratio (y) = 0.09407 0.07516
# Poissons Ratio (z) = 0.42100 0.07957
#
# Static dielectric constant tensor:
#      x y z
#    x 4.175620 0.000000 0.000000 
#    y 0.000000 4.075750 0.000000 
#    z 0.000000 0.000000 4.467730 
# 
# 
# High freq. dielectric constant tensor:
#      x y z
#    x 1.914690 0.000000 0.000000 
#    y 0.000000 1.911840 0.000000 
#    z 0.000000 0.000000 1.934310 
# 
# From -- ./inp_files/1499.got.cif
#   From: 2010.03.12/outbox.cif.g09.slc.cpg/sg29_1_cif.got.tgz:1499.got - 2010.04.14 03:43:10.
