data_PCOD8169623
_publ_section_title
;
Structure prediction by ZEFSAII (Michael W. Deem and Ramdas Pophale) SiO2 
 PCOD8169623
Probable space group: P N C 2
;
_chemical_formula_sum "Si O2"
_cell_formula_units_Z 32
_cell_length_a 6.409092
_cell_length_b 28.484776
_cell_length_c 8.345517
_cell_angle_alpha 90.000000
_cell_angle_beta 90.000000
_cell_angle_gamma 90.000000
_cell_volume 1523.570519
_symmetry_space_group_name_H-M "P N C 2"
_symmetry_group_IT_number 30
_symmetry_cell_setting 'orthorhombic'
loop_
_space_group_symop_operation_xyz
x,y,z
-x,-y,z
-x,1/2+y,1/2+z
x,1/2-y,1/2+z
loop_
_atom_site_type_symbol
_atom_site_label
_atom_site_fract_x
_atom_site_fract_y
_atom_site_fract_z
Si Si1 0.415183 0.952423 0.854850
Si Si2 0.441933 0.187704 0.133286
Si Si3 0.838667 0.124936 0.709031
Si Si4 0.109603 0.548122 0.633042
Si Si5 0.784624 0.212658 0.906508
Si Si6 0.976150 0.710464 0.710734
Si Si7 0.219047 0.631612 0.838033
Si Si8 0.202236 0.111873 0.928845
O O1 0.247715 0.927153 0.741606
O O2 0.607472 0.918751 0.873678
O O3 0.500000 0.000000 0.773063
O O4 0.306993 0.965499 0.023492
O O5 0.273633 0.220872 0.230362
O O6 0.580465 0.156499 0.255258
O O7 0.582431 0.221653 0.020210
O O8 0.292715 0.154875 0.028313
O O9 0.724810 0.164826 0.814648
O O10 0.783143 0.136426 0.527796
O O11 0.081602 0.127634 0.764511
O O12 0.197652 0.577238 0.785318
O O13 0.000000 0.500000 0.691886
O O14 0.954955 0.581592 0.536173
O O15 0.853320 0.253618 0.785456
O O16 0.982879 0.206653 0.021038
O O17 0.012830 0.659376 0.785438
#
# Coordination Sequence:
#
# PCOD8169623 Si02
#       8
#     4   4   4   4   4   4   4   4
#     4  11  21  39  66  93 123 175 233 269 327 409
#     4  11  21  43  71  91 128 179 218 272 337 401
#     4  11  24  41  63  96 140 170 213 292 335 391
#     4  11  21  37  65  93 126 171 225 281 327 399
#     4  11  23  42  65  98 132 167 228 275 330 406
#     4  11  23  42  67  94 131 173 221 276 332 408
#     4  11  24  42  61  97 139 172 219 278 341 399
#     4  11  19  41  67  90 122 174 223 265 334 394
#
# _framework density 21.003295000000001
#
# number of rings (size 3 to 8) (size 9 to 14) (size 15 to 20)
#    0.000    1.000    6.250    2.250    0.000    3.000 
#    2.250    0.625    0.000    0.000    0.000    0.000 
#    0.000    0.000    0.000    0.000    0.000    0.000 
#
# Total GULP energy -396468.751164 kJ/mol
# GULP energy per Si atom -12389.648474 kJ/mol
# Density = 2.095549 g / cm^3
# Si number density = 21.003295 Si / 1000 Ang^3
#
#
#
# Elastic Constant Matrix: (Units=GPa)
#
#
# Indices 1 2 3 4 5 6 
#
# 1 137.0862 33.2222 45.5512 0.0000 0.0000 0.0000
# 2 33.2222 95.0578 36.0154 0.0000 0.0000 0.0000
# 3 45.5512 36.0154 119.4833 0.0000 0.0000 0.0000
# 4 0.0000 0.0000 0.0000 31.4398 0.0000 0.0000
# 5 0.0000 0.0000 0.0000 0.0000 19.5911 0.0000
# 6 0.0000 0.0000 0.0000 0.0000 0.0000 22.9598
#
#
#
# Elastic Compliance Matrix: (Units=1/GPa)
#
#
# Indices 1 2 3 4 5 6 
#
# 1 0.008680 -0.002009 -0.002703 0.000000 0.000000 0.000000
# 2 -0.002009 0.012341 -0.002954 0.000000 0.000000 0.000000
# 3 -0.002703 -0.002954 0.010290 0.000000 0.000000 0.000000
# 4 0.000000 0.000000 0.000000 0.031807 0.000000 0.000000
# 5 0.000000 0.000000 0.000000 0.000000 0.051044 0.000000
# 6 0.000000 0.000000 0.000000 0.000000 0.000000 0.043554
#
#
# Mechanical properties :
#
#
# Convention : Reuss Voigt Hill
#
# Bulk Modulus (GPa) = 62.58510 64.57831 63.58170
# Shear Modulus (GPa) = 28.03065 30.58737 29.30901
#
# Velocity S-wave (km/s) = 3.65716 3.82031 3.73962
# Velocity P-wave (km/s) = 6.90619 7.09036 6.99888
#
# Compressibility (1/GPa) = 0.01597825
#
# Stress axis : x y z
#
# Youngs Moduli (GPa) = 115.20829 81.02826 97.17778
#
# Poissons Ratio (x) = 0.16281 0.26271
# Poissons Ratio (y) = 0.23149 0.28706
# Poissons Ratio (z) = 0.31146 0.23936
#
# Static dielectric constant tensor:
#      x y z
#    x 4.125430 0.000000 0.000000 
#    y 0.000000 3.349790 0.000000 
#    z 0.000000 0.000000 3.684400 
# 
# 
# High freq. dielectric constant tensor:
#      x y z
#    x 1.839260 0.000000 0.000000 
#    y 0.000000 1.821000 0.000000 
#    z 0.000000 0.000000 1.801020 
# 
# From -- ./inp_files/1485.got.cif
#   From: 2010.03.12/outbox.cif.g09.slc.cpg/sg30_1_cif.got.tgz:1485.got - 2010.04.14 01:38:02.
