data_PCOD8169889
_publ_section_title
;
Structure prediction by ZEFSAII (Michael W. Deem and Ramdas Pophale) SiO2 
 PCOD8169889
Probable space group: P M N 21
;
_chemical_formula_sum "Si O2"
_cell_formula_units_Z 32
_cell_length_a 17.637298
_cell_length_b 8.712378
_cell_length_c 11.079999
_cell_angle_alpha 90.000000
_cell_angle_beta 90.000000
_cell_angle_gamma 90.000000
_cell_volume 1702.583749
_symmetry_space_group_name_H-M "P M N 21"
_symmetry_group_IT_number 31
_symmetry_cell_setting 'orthorhombic'
loop_
_space_group_symop_operation_xyz
x,y,z
1/2-x,-y,1/2+z
-x,y,z
1/2+x,-y,1/2+z
loop_
_atom_site_type_symbol
_atom_site_label
_atom_site_fract_x
_atom_site_fract_y
_atom_site_fract_z
Si Si1 0.917486 0.365925 0.741890
Si Si2 0.178584 0.272670 0.942004
Si Si3 0.703719 0.541802 0.918138
Si Si4 0.086444 0.930220 0.465490
Si Si5 0.303239 0.814220 0.079054
Si Si6 0.624070 0.356308 0.104872
Si Si7 0.286814 0.734756 0.702446
Si Si8 0.214479 0.934564 0.292808
O O1 0.901143 0.318989 0.880635
O O2 0.852305 0.286928 0.667947
O O3 0.916611 0.549616 0.712790
O O4 0.000000 0.300687 0.708890
O O5 0.229859 0.420033 0.915852
O O6 0.219976 0.122217 0.885496
O O7 0.161091 0.244087 0.083422
O O8 0.683071 0.589200 0.780316
O O9 0.732283 0.699566 0.980933
O O10 0.632181 0.470529 0.989057
O O11 0.076815 0.790171 0.559701
O O12 0.131611 0.877921 0.342945
O O13 0.000000 0.988204 0.437048
O O14 0.141205 0.058545 0.522879
O O15 0.232588 0.880932 0.156058
O O16 0.703783 0.296326 0.151856
O O17 0.287222 0.881484 0.789685
#
# Coordination Sequence:
#
# PCOD8169889 Si02
#       8
#     4   4   4   4   4   4   4   4
#     4  10  20  36  55  79 113 150 185 233 286 336
#     4  10  21  34  56  85 109 144 194 231 278 342
#     4  10  19  33  59  84 110 139 189 238 273 327
#     4  12  22  35  55  88 120 146 187 243 296 343
#     4  10  21  35  57  83 108 151 193 233 277 343
#     4  10  20  35  55  86 112 147 184 232 290 342
#     4  11  19  34  57  83 108 141 194 235 274 330
#     4  11  20  36  57  80 113 148 190 231 284 341
#
# _framework density 18.794964
#
# number of rings (size 3 to 8) (size 9 to 14) (size 15 to 20)
#    0.000    1.500    6.250    0.750    1.750    0.000 
#    0.000    0.625    0.000    2.250    0.000    0.000 
#    0.000    0.000    0.000    0.000    0.000    0.000 
#
# Total GULP energy -396436.076193 kJ/mol
# GULP energy per Si atom -12388.627381 kJ/mol
# Density = 1.875219 g / cm^3
# Si number density = 18.794964 Si / 1000 Ang^3
#
#
#
# Elastic Constant Matrix: (Units=GPa)
#
#
# Indices 1 2 3 4 5 6 
#
# 1 68.2980 10.0583 19.7082 0.0000 0.0000 0.0000
# 2 10.0583 90.7459 29.5941 0.0000 0.0000 0.0000
# 3 19.7082 29.5941 84.0959 0.0000 0.0000 0.0000
# 4 0.0000 0.0000 0.0000 36.2730 0.0000 0.0000
# 5 0.0000 0.0000 0.0000 0.0000 11.1650 0.0000
# 6 0.0000 0.0000 0.0000 0.0000 0.0000 8.8783
#
#
#
# Elastic Compliance Matrix: (Units=1/GPa)
#
#
# Indices 1 2 3 4 5 6 
#
# 1 0.015734 -0.000612 -0.003472 0.000000 0.000000 0.000000
# 2 -0.000612 0.012472 -0.004246 0.000000 0.000000 0.000000
# 3 -0.003472 -0.004246 0.014199 0.000000 0.000000 0.000000
# 4 0.000000 0.000000 0.000000 0.027569 0.000000 0.000000
# 5 0.000000 0.000000 0.000000 0.000000 0.089566 0.000000
# 6 0.000000 0.000000 0.000000 0.000000 0.000000 0.112634
#
#
# Mechanical properties :
#
#
# Convention : Reuss Voigt Hill
#
# Bulk Modulus (GPa) = 38.84084 40.20678 39.52381
# Shear Modulus (GPa) = 16.81156 23.51520 20.16338
#
# Velocity S-wave (km/s) = 2.99402 3.54099 3.27893
# Velocity P-wave (km/s) = 5.71512 6.17713 5.95061
#
# Compressibility (1/GPa) = 0.02574609
#
# Stress axis : x y z
#
# Youngs Moduli (GPa) = 63.55792 80.17830 70.42761
#
# Poissons Ratio (x) = 0.04904 0.24453
# Poissons Ratio (y) = 0.03887 0.29902
# Poissons Ratio (z) = 0.22067 0.34042
#
# Static dielectric constant tensor:
#      x y z
#    x 3.166420 0.000000 0.000000 
#    y 0.000000 3.706800 0.000000 
#    z 0.000000 0.000000 4.007100 
# 
# 
# High freq. dielectric constant tensor:
#      x y z
#    x 1.683330 0.000000 0.000000 
#    y 0.000000 1.743450 0.000000 
#    z 0.000000 0.000000 1.735380 
# 
# From -- ./inp_files/4409.got.cif
#   From: 2010.03.12/outbox.cif.g09.slc.cpg/sg31_3_cif.got.tgz:4409.got - 2010.04.14 01:42:59.
