data_PCOD8169830
_publ_section_title
;
Structure prediction by ZEFSAII (Michael W. Deem and Ramdas Pophale) SiO2 
 PCOD8169830
Probable space group: P M N 21
;
_chemical_formula_sum "Si O2"
_cell_formula_units_Z 32
_cell_length_a 9.001331
_cell_length_b 14.653797
_cell_length_c 12.318130
_cell_angle_alpha 90.000000
_cell_angle_beta 90.000000
_cell_angle_gamma 90.000000
_cell_volume 1624.806643
_symmetry_space_group_name_H-M "P M N 21"
_symmetry_group_IT_number 31
_symmetry_cell_setting 'orthorhombic'
loop_
_space_group_symop_operation_xyz
x,y,z
1/2-x,-y,1/2+z
-x,y,z
1/2+x,-y,1/2+z
loop_
_atom_site_type_symbol
_atom_site_label
_atom_site_fract_x
_atom_site_fract_y
_atom_site_fract_z
Si Si1 0.822543 0.673013 0.016720
Si Si2 0.163703 0.144701 0.815820
Si Si3 0.327021 0.235801 0.114971
Si Si4 0.177124 0.354188 0.286550
Si Si5 0.827897 0.547149 0.212356
Si Si6 0.332873 0.859726 0.067436
Si Si7 0.330159 0.312633 0.887591
Si Si8 0.675224 0.053189 0.997597
O O1 0.759169 0.606604 0.113007
O O2 0.774610 0.776383 0.041077
O O3 0.000000 0.669952 0.008150
O O4 0.750500 0.641440 0.904482
O O5 0.157337 0.115807 0.692665
O O6 0.223212 0.246970 0.821180
O O7 0.272422 0.076048 0.877020
O O8 0.000000 0.140197 0.868810
O O9 0.500000 0.235547 0.146917
O O10 0.232670 0.266199 0.219510
O O11 0.296172 0.307522 0.016222
O O12 0.272103 0.134456 0.079266
O O13 0.232514 0.443833 0.219790
O O14 0.000000 0.351068 0.299580
O O15 0.799612 0.589427 0.332875
O O16 0.000000 0.544076 0.186426
O O17 0.500000 0.839212 0.022494
O O18 0.261028 0.952630 0.020289
O O19 0.500000 0.281092 0.868046
O O20 0.500000 0.049816 0.001927
#
# Coordination Sequence:
#
# PCOD8169830 Si02
#       8
#     4   4   4   4   4   4   4   4
#     4  11  23  41  63  88 119 155 199 243 293 360
#     4  10  19  32  53  85 117 145 189 246 296 344
#     4   9  19  36  59  85 115 155 200 242 292 354
#     4  11  24  40  59  86 124 161 196 246 299 351
#     4   9  20  38  60  85 114 152 195 240 293 350
#     4  10  21  38  59  86 118 153 194 246 300 349
#     4   9  17  35  60  81 107 148 194 241 292 347
#     4   9  20  38  59  82 116 159 201 242 293 355
#
# _framework density 19.694651
#
# number of rings (size 3 to 8) (size 9 to 14) (size 15 to 20)
#    0.000    2.250    1.250    1.875    1.750    4.000 
#    0.000    4.375    0.000    0.000    0.000    0.000 
#    0.000    0.000    0.000    0.000    0.000    0.000 
#
# Total GULP energy -396613.799280 kJ/mol
# GULP energy per Si atom -12394.181228 kJ/mol
# Density = 1.964982 g / cm^3
# Si number density = 19.694651 Si / 1000 Ang^3
#
#
#
# Elastic Constant Matrix: (Units=GPa)
#
#
# Indices 1 2 3 4 5 6 
#
# 1 43.0207 34.1160 31.6517 0.0000 0.0000 0.0000
# 2 34.1160 121.8936 48.2423 0.0000 0.0000 0.0000
# 3 31.6517 48.2423 94.6031 0.0000 0.0000 0.0000
# 4 0.0000 0.0000 0.0000 26.8237 0.0000 0.0000
# 5 0.0000 0.0000 0.0000 0.0000 30.5591 0.0000
# 6 0.0000 0.0000 0.0000 0.0000 0.0000 24.9150
#
#
#
# Elastic Compliance Matrix: (Units=1/GPa)
#
#
# Indices 1 2 3 4 5 6 
#
# 1 0.034353 -0.006347 -0.008257 0.000000 0.000000 0.000000
# 2 -0.006347 0.011451 -0.003716 0.000000 0.000000 0.000000
# 3 -0.008257 -0.003716 0.015228 0.000000 0.000000 0.000000
# 4 0.000000 0.000000 0.000000 0.037280 0.000000 0.000000
# 5 0.000000 0.000000 0.000000 0.000000 0.032723 0.000000
# 6 0.000000 0.000000 0.000000 0.000000 0.000000 0.040136
#
#
# Mechanical properties :
#
#
# Convention : Reuss Voigt Hill
#
# Bulk Modulus (GPa) = 40.99674 54.17082 47.58378
# Shear Modulus (GPa) = 23.15439 26.16006 24.65722
#
# Velocity S-wave (km/s) = 3.43252 3.64851 3.54217
# Velocity P-wave (km/s) = 6.04739 6.73156 6.39863
#
# Compressibility (1/GPa) = 0.02439218
#
# Stress axis : x y z
#
# Youngs Moduli (GPa) = 29.10983 87.32953 65.66900
#
# Poissons Ratio (x) = 0.55427 0.54222
# Poissons Ratio (y) = 0.18476 0.24401
# Poissons Ratio (z) = 0.24036 0.32450
#
# Static dielectric constant tensor:
#      x y z
#    x 3.496900 0.000000 0.000000 
#    y 0.000000 3.777160 0.000000 
#    z 0.000000 0.000000 3.614510 
# 
# 
# High freq. dielectric constant tensor:
#      x y z
#    x 1.753200 0.000000 0.000000 
#    y 0.000000 1.768150 0.000000 
#    z 0.000000 0.000000 1.766780 
# 
# From -- ./inp_files/3679.got.cif
#   From: 2010.03.12/outbox.cif.g09.slc.cpg/sg31_2_cif.got.tgz:3679.got - 2010.04.14 01:42:59.
