data_PCOD8169696
_publ_section_title
;
Structure prediction by ZEFSAII (Michael W. Deem and Ramdas Pophale) SiO2 
 PCOD8169696
Probable space group: P M N 21
;
_chemical_formula_sum "Si O2"
_cell_formula_units_Z 32
_cell_length_a 8.820469
_cell_length_b 11.527339
_cell_length_c 17.910045
_cell_angle_alpha 90.000000
_cell_angle_beta 90.000000
_cell_angle_gamma 90.000000
_cell_volume 1821.031341
_symmetry_space_group_name_H-M "P M N 21"
_symmetry_group_IT_number 31
_symmetry_cell_setting 'orthorhombic'
loop_
_space_group_symop_operation_xyz
x,y,z
1/2-x,-y,1/2+z
-x,y,z
1/2+x,-y,1/2+z
loop_
_atom_site_type_symbol
_atom_site_label
_atom_site_fract_x
_atom_site_fract_y
_atom_site_fract_z
Si Si1 0.673989 0.160703 0.026560
Si Si2 0.675862 0.642131 0.459684
Si Si3 0.178867 0.683539 0.753016
Si Si4 0.823851 0.461398 0.121945
Si Si5 0.678031 0.674640 0.056663
Si Si6 0.322703 0.572573 0.896173
Si Si7 0.672845 0.929822 0.092625
Si Si8 0.678541 0.879533 0.673483
O O1 0.500000 0.201657 0.033930
O O2 0.766681 0.196312 0.101725
O O3 0.684135 0.019397 0.021334
O O4 0.752971 0.227228 0.956958
O O5 0.500000 0.645579 0.438538
O O6 0.709502 0.597677 0.542786
O O7 0.762399 0.559623 0.401522
O O8 0.232595 0.597482 0.688305
O O9 0.232352 0.636938 0.832130
O O10 0.248465 0.813392 0.743977
O O11 0.000000 0.692944 0.751499
O O12 0.767554 0.594220 0.114908
O O13 0.000000 0.458251 0.142835
O O14 0.500000 0.663501 0.072523
O O15 0.738866 0.805677 0.069497
O O16 0.715094 0.641270 0.971800
O O17 0.500000 0.570399 0.877730
O O18 0.500000 0.917381 0.118794
O O19 0.763698 0.987245 0.162833
O O20 0.500000 0.877275 0.681230
#
# Coordination Sequence:
#
# PCOD8169696 Si02
#       8
#     4   4   4   4   4   4   4   4
#     4   9  16  27  47  73  99 127 161 205 248 289
#     4  10  18  30  48  73 102 129 165 207 250 300
#     4  12  22  34  51  73 103 136 172 213 262 313
#     4  10  19  30  49  74 100 129 165 208 249 298
#     4   9  18  34  53  75 104 138 172 208 256 308
#     4  10  21  34  51  73 104 138 169 210 260 316
#     4   8  16  30  49  74 100 127 162 202 245 295
#     4  10  18  29  48  75 100 126 164 213 256 295
#
# _framework density 17.572458999999998
#
# number of rings (size 3 to 8) (size 9 to 14) (size 15 to 20)
#    0.750    1.500    1.250    3.375    0.000    2.000 
#    0.000    0.000    0.000    1.500    0.000    1.750 
#    0.000    0.000    0.000    0.000    0.000    0.000 
#
# Total GULP energy -396538.453332 kJ/mol
# GULP energy per Si atom -12391.826667 kJ/mol
# Density = 1.753246 g / cm^3
# Si number density = 17.572459 Si / 1000 Ang^3
#
#
#
# Elastic Constant Matrix: (Units=GPa)
#
#
# Indices 1 2 3 4 5 6 
#
# 1 113.5473 30.3478 26.1643 0.0000 0.0000 0.0000
# 2 30.3478 87.7497 14.8167 0.0000 0.0000 0.0000
# 3 26.1643 14.8167 37.2282 0.0000 0.0000 0.0000
# 4 0.0000 0.0000 0.0000 17.2895 0.0000 0.0000
# 5 0.0000 0.0000 0.0000 0.0000 25.3552 0.0000
# 6 0.0000 0.0000 0.0000 0.0000 0.0000 24.5746
#
#
#
# Elastic Compliance Matrix: (Units=1/GPa)
#
#
# Indices 1 2 3 4 5 6 
#
# 1 0.011074 -0.002697 -0.006709 0.000000 0.000000 0.000000
# 2 -0.002697 0.012874 -0.003228 0.000000 0.000000 0.000000
# 3 -0.006709 -0.003228 0.032862 0.000000 0.000000 0.000000
# 4 0.000000 0.000000 0.000000 0.057839 0.000000 0.000000
# 5 0.000000 0.000000 0.000000 0.000000 0.039440 0.000000
# 6 0.000000 0.000000 0.000000 0.000000 0.000000 0.040692
#
#
# Mechanical properties :
#
#
# Convention : Reuss Voigt Hill
#
# Bulk Modulus (GPa) = 31.70573 42.35363 37.02968
# Shear Modulus (GPa) = 21.68609 24.59029 23.13819
#
# Velocity S-wave (km/s) = 3.51678 3.74487 3.63261
# Velocity P-wave (km/s) = 5.87983 6.54624 6.22196
#
# Compressibility (1/GPa) = 0.03154004
#
# Stress axis : x y z
#
# Youngs Moduli (GPa) = 90.30392 77.67673 30.43060
#
# Poissons Ratio (x) = 0.20949 0.20417
# Poissons Ratio (y) = 0.24354 0.09824
# Poissons Ratio (z) = 0.60588 0.25077
#
# Static dielectric constant tensor:
#      x y z
#    x 3.257170 0.000000 0.000000 
#    y 0.000000 3.460310 0.000000 
#    z 0.000000 0.000000 2.899150 
# 
# 
# High freq. dielectric constant tensor:
#      x y z
#    x 1.691470 0.000000 0.000000 
#    y 0.000000 1.682240 0.000000 
#    z 0.000000 0.000000 1.629480 
# 
# From -- ./inp_files/5861.got.cif
#   From: 2010.03.12/outbox.cif.g09.slc.cpg/sg31_3_cif.got.tgz:5861.got - 2010.04.14 01:42:59.
