data_PCOD8169600
_publ_section_title
;
Structure prediction by ZEFSAII (Michael W. Deem and Ramdas Pophale) SiO2 
 PCOD8169600
Probable space group: P N C 2
;
_chemical_formula_sum "Si O2"
_cell_formula_units_Z 32
_cell_length_a 11.197689
_cell_length_b 14.530499
_cell_length_c 9.339802
_cell_angle_alpha 90.000000
_cell_angle_beta 90.000000
_cell_angle_gamma 90.000000
_cell_volume 1519.660586
_symmetry_space_group_name_H-M "P N C 2"
_symmetry_group_IT_number 30
_symmetry_cell_setting 'orthorhombic'
loop_
_space_group_symop_operation_xyz
x,y,z
-x,-y,z
-x,1/2+y,1/2+z
x,1/2-y,1/2+z
loop_
_atom_site_type_symbol
_atom_site_label
_atom_site_fract_x
_atom_site_fract_y
_atom_site_fract_z
Si Si1 0.650827 0.253615 0.530260
Si Si2 0.038310 0.103407 0.286008
Si Si3 0.764123 0.850544 0.504610
Si Si4 0.236625 0.137298 0.058123
Si Si5 0.775273 0.143725 0.285284
Si Si6 0.435483 0.631526 0.277269
Si Si7 0.696097 0.548627 0.275727
Si Si8 0.631971 0.539406 0.786003
O O1 0.739760 0.197231 0.428723
O O2 0.720473 0.320687 0.637216
O O3 0.565715 0.309816 0.423129
O O4 0.571385 0.188274 0.630075
O O5 0.111662 0.143495 0.419763
O O6 0.115130 0.114766 0.142078
O O7 0.916249 0.159535 0.269791
O O8 0.000000 0.000000 0.316096
O O9 0.741040 0.745966 0.550236
O O10 0.771351 0.918652 0.639292
O O11 0.652646 0.884330 0.408187
O O12 0.351739 0.091560 0.135565
O O13 0.226255 0.087959 0.905948
O O14 0.733964 0.038067 0.303618
O O15 0.563199 0.586491 0.273055
O O16 0.321648 0.561644 0.280636
O O17 0.500000 0.500000 0.799175
#
# Coordination Sequence:
#
# PCOD8169600 Si02
#       8
#     4   4   4   4   4   4   4   4
#     4  10  24  42  66  98 130 172 220 280 346 396
#     4  11  24  48  70  93 131 185 233 275 337 415
#     4  11  25  44  68 103 136 181 232 287 344 412
#     4  11  25  44  68 103 136 181 232 287 344 412
#     4  11  23  44  69 100 131 179 230 281 342 410
#     4  10  24  40  65  94 136 169 212 274 336 414
#     4  11  24  41  63  98 133 171 219 275 335 400
#     4  11  25  44  74  97 139 189 232 275 358 435
#
# _framework density 21.057334999999998
#
# number of rings (size 3 to 8) (size 9 to 14) (size 15 to 20)
#    0.000    1.250    2.500    3.000   10.500    2.000 
#    0.000    0.625    0.000    0.000    0.000    0.000 
#    0.000    0.000    0.000    0.000    0.000    0.000 
#
# Total GULP energy -396807.191180 kJ/mol
# GULP energy per Si atom -12400.224724 kJ/mol
# Density = 2.100941 g / cm^3
# Si number density = 21.057335 Si / 1000 Ang^3
#
#
#
# Elastic Constant Matrix: (Units=GPa)
#
#
# Indices 1 2 3 4 5 6 
#
# 1 106.1128 13.1548 23.1865 0.0000 0.0000 0.0000
# 2 13.1548 94.3520 14.7259 0.0000 0.0000 0.0000
# 3 23.1865 14.7259 125.5164 0.0000 0.0000 0.0000
# 4 0.0000 0.0000 0.0000 69.1564 0.0000 0.0000
# 5 0.0000 0.0000 0.0000 0.0000 43.7293 0.0000
# 6 0.0000 0.0000 0.0000 0.0000 0.0000 24.8458
#
#
#
# Elastic Compliance Matrix: (Units=1/GPa)
#
#
# Indices 1 2 3 4 5 6 
#
# 1 0.009935 -0.001119 -0.001704 0.000000 0.000000 0.000000
# 2 -0.001119 0.010922 -0.001075 0.000000 0.000000 0.000000
# 3 -0.001704 -0.001075 0.008408 0.000000 0.000000 0.000000
# 4 0.000000 0.000000 0.000000 0.014460 0.000000 0.000000
# 5 0.000000 0.000000 0.000000 0.000000 0.022868 0.000000
# 6 0.000000 0.000000 0.000000 0.000000 0.000000 0.040248
#
#
# Mechanical properties :
#
#
# Convention : Reuss Voigt Hill
#
# Bulk Modulus (GPa) = 46.57754 47.56841 47.07298
# Shear Modulus (GPa) = 41.05299 45.87390 43.46344
#
# Velocity S-wave (km/s) = 4.42020 4.67253 4.54811
# Velocity P-wave (km/s) = 6.94394 7.19368 7.06991
#
# Compressibility (1/GPa) = 0.02146957
#
# Stress axis : x y z
#
# Youngs Moduli (GPa) = 100.65413 91.55510 118.93519
#
# Poissons Ratio (x) = 0.10247 0.20266
# Poissons Ratio (y) = 0.11265 0.12782
# Poissons Ratio (z) = 0.17151 0.09839
#
# Static dielectric constant tensor:
#      x y z
#    x 3.752690 0.000000 0.000000 
#    y 0.000000 4.047150 0.000000 
#    z 0.000000 0.000000 4.038910 
# 
# 
# High freq. dielectric constant tensor:
#      x y z
#    x 1.811780 0.000000 0.000000 
#    y 0.000000 1.838840 0.000000 
#    z 0.000000 0.000000 1.842040 
# 
# From -- ./inp_files/2486.got.cif
#   From: 2010.03.12/outbox.cif.g09.slc.cpg/sg30_2_cif.got.tgz:2486.got - 2010.04.14 01:38:02.
