data_PCOD8169358
_publ_section_title
;
Structure prediction by ZEFSAII (Michael W. Deem and Ramdas Pophale) SiO2 
 PCOD8169358
Probable space group: P N C 2
;
_chemical_formula_sum "Si O2"
_cell_formula_units_Z 32
_cell_length_a 8.462805
_cell_length_b 16.512695
_cell_length_c 11.888835
_cell_angle_alpha 90.000000
_cell_angle_beta 90.000000
_cell_angle_gamma 90.000000
_cell_volume 1661.390003
_symmetry_space_group_name_H-M "P N C 2"
_symmetry_group_IT_number 30
_symmetry_cell_setting 'orthorhombic'
loop_
_space_group_symop_operation_xyz
x,y,z
-x,-y,z
-x,1/2+y,1/2+z
x,1/2-y,1/2+z
loop_
_atom_site_type_symbol
_atom_site_label
_atom_site_fract_x
_atom_site_fract_y
_atom_site_fract_z
Si Si1 0.397661 0.921384 0.539380
Si Si2 0.113374 0.575064 0.604606
Si Si3 0.186688 0.583360 0.844696
Si Si4 0.318836 0.021308 0.943744
Si Si5 0.701211 0.665496 0.066412
Si Si6 0.833695 0.602928 0.849709
Si Si7 0.818327 0.981481 0.699013
Si Si8 0.195344 0.345048 0.603210
O O1 0.317891 0.879750 0.428664
O O2 0.516506 0.854252 0.591122
O O3 0.500000 0.000000 0.504280
O O4 0.265679 0.945115 0.631634
O O5 0.227667 0.593351 0.711608
O O6 0.216336 0.552302 0.496543
O O7 0.000000 0.500000 0.643131
O O8 0.994261 0.649386 0.576608
O O9 0.184781 0.490170 0.883777
O O10 0.018107 0.626948 0.861961
O O11 0.272091 0.031716 0.815264
O O12 0.500000 0.000000 0.954027
O O13 0.289546 0.104854 0.009253
O O14 0.812610 0.602078 0.130814
O O15 0.744444 0.754151 0.107123
O O16 0.732572 0.658545 0.933204
O O17 0.768181 0.617262 0.724876
O O18 0.000000 0.000000 0.722550
#
# Coordination Sequence:
#
# PCOD8169358 Si02
#       8
#     4   4   4   4   4   4   4   4
#     4  10  20  32  55  89 115 145 191 241 288 343
#     4   9  17  35  60  85 110 149 197 239 271 344
#     4  10  15  32  59  85 110 133 196 246 274 330
#     4  11  22  38  61  86 115 152 196 244 290 343
#     4  11  23  36  57  86 120 151 186 242 297 344
#     4  10  18  34  58  85 107 150 189 235 289 335
#     4  11  22  39  62  83 109 159 204 237 281 348
#     4  10  22  39  57  84 118 153 195 230 291 351
#
# _framework density 19.260978999999999
#
# number of rings (size 3 to 8) (size 9 to 14) (size 15 to 20)
#    0.000    1.750    6.250    3.000    1.750    1.500 
#    0.000    2.500    2.750    0.000    0.000    0.000 
#    0.000    0.000    0.000    0.000    0.000    0.000 
#
# Total GULP energy -396719.989959 kJ/mol
# GULP energy per Si atom -12397.499686 kJ/mol
# Density = 1.921714 g / cm^3
# Si number density = 19.260979 Si / 1000 Ang^3
#
#
#
# Elastic Constant Matrix: (Units=GPa)
#
#
# Indices 1 2 3 4 5 6 
#
# 1 89.8656 39.6240 27.3111 0.0000 0.0000 0.0000
# 2 39.6240 81.8213 21.0512 0.0000 0.0000 0.0000
# 3 27.3111 21.0512 103.0342 0.0000 0.0000 0.0000
# 4 0.0000 0.0000 0.0000 9.4679 0.0000 0.0000
# 5 0.0000 0.0000 0.0000 0.0000 28.9806 0.0000
# 6 0.0000 0.0000 0.0000 0.0000 0.0000 24.8589
#
#
#
# Elastic Compliance Matrix: (Units=1/GPa)
#
#
# Indices 1 2 3 4 5 6 
#
# 1 0.014776 -0.006489 -0.002591 0.000000 0.000000 0.000000
# 2 -0.006489 0.015750 -0.001498 0.000000 0.000000 0.000000
# 3 -0.002591 -0.001498 0.010698 0.000000 0.000000 0.000000
# 4 0.000000 0.000000 0.000000 0.105620 0.000000 0.000000
# 5 0.000000 0.000000 0.000000 0.000000 0.034506 0.000000
# 6 0.000000 0.000000 0.000000 0.000000 0.000000 0.040227
#
#
# Mechanical properties :
#
#
# Convention : Reuss Voigt Hill
#
# Bulk Modulus (GPa) = 49.82930 50.07710 49.95320
# Shear Modulus (GPa) = 20.04629 25.11045 22.57837
#
# Velocity S-wave (km/s) = 3.22960 3.61459 3.42750
# Velocity P-wave (km/s) = 6.31141 6.59364 6.45406
#
# Compressibility (1/GPa) = 0.02006852
#
# Stress axis : x y z
#
# Youngs Moduli (GPa) = 67.67544 63.49330 93.47277
#
# Poissons Ratio (x) = 0.41202 0.24218
# Poissons Ratio (y) = 0.43916 0.14000
# Poissons Ratio (z) = 0.17534 0.09510
#
# Static dielectric constant tensor:
#      x y z
#    x 3.696400 0.000000 0.000000 
#    y 0.000000 3.188600 0.000000 
#    z 0.000000 0.000000 3.582590 
# 
# 
# High freq. dielectric constant tensor:
#      x y z
#    x 1.749960 0.000000 0.000000 
#    y 0.000000 1.700710 0.000000 
#    z 0.000000 0.000000 1.762490 
# 
# From -- ./inp_files/3855.got.cif
#   From: 2010.03.12/outbox.cif.g09.slc.cpg/sg30_2_cif.got.tgz:3855.got - 2010.04.14 01:38:02.
