data_PCOD8169765
_publ_section_title
;
Structure prediction by ZEFSAII (Michael W. Deem and Ramdas Pophale) SiO2 
 PCOD8169765
Probable space group: P M N 21
;
_chemical_formula_sum "Si O2"
_cell_formula_units_Z 32
_cell_length_a 8.983521
_cell_length_b 18.680235
_cell_length_c 9.920875
_cell_angle_alpha 90.000000
_cell_angle_beta 90.000000
_cell_angle_gamma 90.000000
_cell_volume 1664.864529
_symmetry_space_group_name_H-M "P M N 21"
_symmetry_group_IT_number 31
_symmetry_cell_setting 'orthorhombic'
loop_
_space_group_symop_operation_xyz
x,y,z
1/2-x,-y,1/2+z
-x,y,z
1/2+x,-y,1/2+z
loop_
_atom_site_type_symbol
_atom_site_label
_atom_site_fract_x
_atom_site_fract_y
_atom_site_fract_z
Si Si1 0.676237 0.959438 0.793830
Si Si2 0.824128 0.068753 0.990690
Si Si3 0.325822 0.453163 0.300943
Si Si4 0.324184 0.687264 0.694222
Si Si5 0.324069 0.808304 0.895074
Si Si6 0.174411 0.432156 0.577288
Si Si7 0.823385 0.275192 0.651092
Si Si8 0.324033 0.772256 0.436397
O O1 0.500000 0.963797 0.811928
O O2 0.750105 0.025120 0.870217
O O3 0.721246 0.962828 0.636381
O O4 0.741037 0.885979 0.858099
O O5 0.763510 0.150032 0.980644
O O6 0.000000 0.065859 0.971024
O O7 0.500000 0.441308 0.318671
O O8 0.257770 0.385887 0.224309
O O9 0.255674 0.465624 0.447835
O O10 0.290164 0.522318 0.210392
O O11 0.500000 0.675519 0.712570
O O12 0.262713 0.748175 0.794157
O O13 0.280801 0.711837 0.544201
O O14 0.500000 0.811387 0.877360
O O15 0.275899 0.786359 0.045677
O O16 0.237293 0.352234 0.603195
O O17 0.000000 0.430912 0.544316
O O18 0.753619 0.252365 0.794225
O O19 0.000000 0.281046 0.662315
O O20 0.500000 0.778303 0.424397
#
# Coordination Sequence:
#
# PCOD8169765 Si02
#       8
#     4   4   4   4   4   4   4   4
#     4  10  21  36  55  82 113 146 187 234 282 337
#     4  10  21  37  55  82 115 146 187 237 282 336
#     4  11  24  38  57  88 119 148 187 234 282 336
#     4  10  18  35  61  81 105 147 189 230 279 328
#     4   9  16  31  56  80 102 138 189 232 267 321
#     4  10  22  40  59  82 114 151 189 227 276 338
#     4   9  17  31  55  84 106 132 182 236 270 315
#     4   9  18  32  56  85 108 138 190 240 274 323
#
# _framework density 19.220782
#
# number of rings (size 3 to 8) (size 9 to 14) (size 15 to 20)
#    0.000    2.250    2.500    0.375    3.500    1.500 
#    0.000    1.250    0.000    0.750    0.000    0.000 
#    0.000    0.000    0.000    0.000    0.000    0.000 
#
# Total GULP energy -396789.363428 kJ/mol
# GULP energy per Si atom -12399.667607 kJ/mol
# Density = 1.917703 g / cm^3
# Si number density = 19.220782 Si / 1000 Ang^3
#
#
#
# Elastic Constant Matrix: (Units=GPa)
#
#
# Indices 1 2 3 4 5 6 
#
# 1 34.1600 26.4691 34.1094 0.0000 0.0000 0.0000
# 2 26.4691 79.5813 36.0763 0.0000 0.0000 0.0000
# 3 34.1094 36.0763 147.1658 0.0000 0.0000 0.0000
# 4 0.0000 0.0000 0.0000 37.4199 0.0000 0.0000
# 5 0.0000 0.0000 0.0000 0.0000 23.9040 0.0000
# 6 0.0000 0.0000 0.0000 0.0000 0.0000 23.9448
#
#
#
# Elastic Compliance Matrix: (Units=1/GPa)
#
#
# Indices 1 2 3 4 5 6 
#
# 1 0.046255 -0.011841 -0.007818 0.000000 0.000000 0.000000
# 2 -0.011841 0.017168 -0.001464 0.000000 0.000000 0.000000
# 3 -0.007818 -0.001464 0.008966 0.000000 0.000000 0.000000
# 4 0.000000 0.000000 0.000000 0.026724 0.000000 0.000000
# 5 0.000000 0.000000 0.000000 0.000000 0.041834 0.000000
# 6 0.000000 0.000000 0.000000 0.000000 0.000000 0.041763
#
#
# Mechanical properties :
#
#
# Convention : Reuss Voigt Hill
#
# Bulk Modulus (GPa) = 33.17493 50.46856 41.82174
# Shear Modulus (GPa) = 21.27630 28.00390 24.64010
#
# Velocity S-wave (km/s) = 3.33068 3.82115 3.58432
# Velocity P-wave (km/s) = 5.66469 6.76628 6.23984
#
# Compressibility (1/GPa) = 0.03014325
#
# Stress axis : x y z
#
# Youngs Moduli (GPa) = 21.61910 58.24880 111.53164
#
# Poissons Ratio (x) = 0.68970 0.87198
# Poissons Ratio (y) = 0.25598 0.16330
# Poissons Ratio (z) = 0.16902 0.08529
#
# Static dielectric constant tensor:
#      x y z
#    x 3.033640 0.000000 0.000000 
#    y 0.000000 3.675260 0.000000 
#    z 0.000000 0.000000 3.754700 
# 
# 
# High freq. dielectric constant tensor:
#      x y z
#    x 1.695130 0.000000 0.000000 
#    y 0.000000 1.757130 0.000000 
#    z 0.000000 0.000000 1.766450 
# 
# From -- ./inp_files/2287.got.cif
#   From: 2010.03.12/outbox.cif.g09.slc.cpg/sg31_2_cif.got.tgz:2287.got - 2010.04.14 01:42:59.
