data_PCOD8169919
_publ_section_title
;
Structure prediction by ZEFSAII (Michael W. Deem and Ramdas Pophale) SiO2 
 PCOD8169919
Probable space group: P M N 21
;
_chemical_formula_sum "Si O2"
_cell_formula_units_Z 32
_cell_length_a 8.842765
_cell_length_b 12.141003
_cell_length_c 14.512829
_cell_angle_alpha 90.000000
_cell_angle_beta 90.000000
_cell_angle_gamma 90.000000
_cell_volume 1558.097850
_symmetry_space_group_name_H-M "P M N 21"
_symmetry_group_IT_number 31
_symmetry_cell_setting 'orthorhombic'
loop_
_space_group_symop_operation_xyz
x,y,z
1/2-x,-y,1/2+z
-x,y,z
1/2+x,-y,1/2+z
loop_
_atom_site_type_symbol
_atom_site_label
_atom_site_fract_x
_atom_site_fract_y
_atom_site_fract_z
Si Si1 0.679830 0.096663 0.043210
Si Si2 0.177102 0.888467 0.941458
Si Si3 0.168483 0.288871 0.555954
Si Si4 0.675391 0.396264 0.835558
Si Si5 0.176992 0.952623 0.744388
Si Si6 0.669974 0.805609 0.251835
Si Si7 0.675593 0.491089 0.646976
Si Si8 0.175207 0.326213 0.009901
O O1 0.500000 0.095931 0.039112
O O2 0.737103 0.211333 0.000351
O O3 0.744867 0.092911 0.148419
O O4 0.738893 0.992312 0.986473
O O5 0.000000 0.905969 0.958152
O O6 0.215948 0.877619 0.832434
O O7 0.228919 0.771094 0.980366
O O8 0.162915 0.208359 0.642638
O O9 0.233427 0.406958 0.583250
O O10 0.000000 0.306532 0.515775
O O11 0.500000 0.408545 0.859535
O O12 0.709751 0.275147 0.797149
O O13 0.725117 0.483122 0.754973
O O14 0.770488 0.410835 0.929370
O O15 0.237818 0.073895 0.769750
O O16 0.000000 0.964877 0.727833
O O17 0.500000 0.788201 0.293500
O O18 0.500000 0.458829 0.639035
O O19 0.706892 0.613688 0.607991
O O20 0.000000 0.301278 0.997037
#
# Coordination Sequence:
#
# PCOD8169919 Si02
#       8
#     4   4   4   4   4   4   4   4
#     4  11  22  40  61  86 119 156 200 248 290 345
#     4  11  21  35  58  87 120 158 195 236 294 356
#     4  10  19  34  58  84 112 146 190 242 291 342
#     4  10  20  36  60  90 115 148 197 248 291 341
#     4   9  19  35  54  79 116 155 190 230 285 347
#     4   9  16  32  56  80 112 150 189 236 285 338
#     4   9  21  41  62  84 116 151 195 248 294 345
#     4  11  23  41  61  86 120 158 194 240 300 358
#
# _framework density 20.537862000000001
#
# number of rings (size 3 to 8) (size 9 to 14) (size 15 to 20)
#    0.000    2.000    1.250    2.625    0.000    3.000 
#    2.250    3.125    0.000    0.000    0.000    0.000 
#    0.000    0.000    0.000    0.000    0.000    0.000 
#
# Total GULP energy -396691.789581 kJ/mol
# GULP energy per Si atom -12396.618424 kJ/mol
# Density = 2.049112 g / cm^3
# Si number density = 20.537862 Si / 1000 Ang^3
#
#
#
# Elastic Constant Matrix: (Units=GPa)
#
#
# Indices 1 2 3 4 5 6 
#
# 1 77.2744 15.4679 28.5833 0.0000 0.0000 0.0000
# 2 15.4679 38.2057 10.3548 0.0000 0.0000 0.0000
# 3 28.5833 10.3548 98.7947 0.0000 0.0000 0.0000
# 4 0.0000 0.0000 0.0000 28.8570 0.0000 0.0000
# 5 0.0000 0.0000 0.0000 0.0000 27.5290 0.0000
# 6 0.0000 0.0000 0.0000 0.0000 0.0000 22.0369
#
#
#
# Elastic Compliance Matrix: (Units=1/GPa)
#
#
# Indices 1 2 3 4 5 6 
#
# 1 0.015429 -0.005184 -0.003921 0.000000 0.000000 0.000000
# 2 -0.005184 0.028681 -0.001506 0.000000 0.000000 0.000000
# 3 -0.003921 -0.001506 0.011414 0.000000 0.000000 0.000000
# 4 0.000000 0.000000 0.000000 0.034654 0.000000 0.000000
# 5 0.000000 0.000000 0.000000 0.000000 0.036325 0.000000
# 6 0.000000 0.000000 0.000000 0.000000 0.000000 0.045378
#
#
# Mechanical properties :
#
#
# Convention : Reuss Voigt Hill
#
# Bulk Modulus (GPa) = 29.15230 35.89853 32.52542
# Shear Modulus (GPa) = 24.44546 26.34250 25.39398
#
# Velocity S-wave (km/s) = 3.45376 3.58527 3.52013
# Velocity P-wave (km/s) = 5.48907 5.88694 5.69148
#
# Compressibility (1/GPa) = 0.03430261
#
# Stress axis : x y z
#
# Youngs Moduli (GPa) = 64.81418 34.86615 87.61047
#
# Poissons Ratio (x) = 0.18074 0.34348
# Poissons Ratio (y) = 0.33599 0.13197
# Poissons Ratio (z) = 0.25411 0.05252
#
# Static dielectric constant tensor:
#      x y z
#    x 3.609100 0.000000 0.000000 
#    y 0.000000 3.474420 0.000000 
#    z 0.000000 0.000000 4.020300 
# 
# 
# High freq. dielectric constant tensor:
#      x y z
#    x 1.793560 0.000000 0.000000 
#    y 0.000000 1.785110 0.000000 
#    z 0.000000 0.000000 1.812140 
# 
# From -- ./inp_files/5065.got.cif
#   From: 2010.03.12/outbox.cif.g09.slc.cpg/sg31_3_cif.got.tgz:5065.got - 2010.04.14 01:42:59.
