data_PCOD8169016
_publ_section_title
;
Structure prediction by ZEFSAII (Michael W. Deem and Ramdas Pophale) SiO2 
 PCOD8169016
Probable space group: P C A 21
;
_chemical_formula_sum "Si O2"
_cell_formula_units_Z 32
_cell_length_a 9.754741
_cell_length_b 14.374163
_cell_length_c 9.558728
_cell_angle_alpha 90.000000
_cell_angle_beta 90.000000
_cell_angle_gamma 90.000000
_cell_volume 1340.288872
_symmetry_space_group_name_H-M "P C A 21"
_symmetry_group_IT_number 29
_symmetry_cell_setting 'orthorhombic'
loop_
_space_group_symop_operation_xyz
x,y,z
-x,-y,1/2+z
1/2-x,y,1/2+z
1/2+x,-y,z
loop_
_atom_site_type_symbol
_atom_site_label
_atom_site_fract_x
_atom_site_fract_y
_atom_site_fract_z
Si Si1 0.912837 0.902269 0.047280
Si Si2 0.711186 0.066561 0.110543
Si Si3 0.331426 0.821620 0.873450
Si Si4 0.161568 0.660696 0.739516
Si Si5 0.412914 0.254362 0.857391
Si Si6 0.940578 0.596956 0.080448
Si Si7 0.606401 0.749130 0.779021
Si Si8 0.717420 0.453719 0.003510
O O1 0.875138 0.817160 0.147835
O O2 0.054219 0.954796 0.074047
O O3 0.792640 0.975945 0.064185
O O4 0.930208 0.855871 0.892741
O O5 0.709494 0.089623 0.275693
O O6 0.772696 0.156197 0.027185
O O7 0.267115 0.733116 0.801612
O O8 0.494535 0.798275 0.880553
O O9 0.201300 0.630555 0.582163
O O10 0.009361 0.709515 0.729383
O O11 0.181009 0.570015 0.841384
O O12 0.251624 0.268487 0.849349
O O13 0.476916 0.316820 0.980523
O O14 0.931057 0.643438 0.233589
O O15 0.804768 0.547158 0.022036
O O16 0.071405 0.527939 0.081251
#
# Coordination Sequence:
#
# PCOD8169016 Si02
#       8
#     4   4   4   4   4   4   4   4
#     4  10  24  43  63  99 135 171 219 286 328 399
#     4  11  25  41  70  98 134 172 228 275 335 396
#     4  11  23  45  69  95 134 181 221 272 338 407
#     4  11  23  45  69  95 134 181 221 272 338 407
#     4  10  23  44  66  92 139 174 224 272 342 397
#     4  10  24  43  63  99 135 171 219 286 328 399
#     4  10  23  44  66  92 139 174 224 272 342 397
#     4  11  25  41  70  98 134 172 228 275 335 396
#
# _framework density 23.875450000000001
#
# number of rings (size 3 to 8) (size 9 to 14) (size 15 to 20)
#    0.000    1.500    2.500    0.750    7.000    4.000 
#    4.500    0.000    0.000    0.000    0.000    0.000 
#    0.000    0.000    0.000    0.000    0.000    0.000 
#
# Total GULP energy -396508.360110 kJ/mol
# GULP energy per Si atom -12390.886253 kJ/mol
# Density = 2.382111 g / cm^3
# Si number density = 23.875450 Si / 1000 Ang^3
#
#
#
# Elastic Constant Matrix: (Units=GPa)
#
#
# Indices 1 2 3 4 5 6 
#
# 1 137.9288 22.7642 25.3315 0.0000 0.0000 0.0000
# 2 22.7642 70.3957 -9.8723 0.0000 0.0000 0.0000
# 3 25.3315 -9.8723 33.2525 0.0000 0.0000 0.0000
# 4 0.0000 0.0000 0.0000 21.8533 0.0000 0.0000
# 5 0.0000 0.0000 0.0000 0.0000 28.9210 0.0000
# 6 0.0000 0.0000 0.0000 0.0000 0.0000 51.6710
#
#
#
# Elastic Compliance Matrix: (Units=1/GPa)
#
#
# Indices 1 2 3 4 5 6 
#
# 1 0.009520 -0.004274 -0.008521 0.000000 0.000000 0.000000
# 2 -0.004274 0.016741 0.008226 0.000000 0.000000 0.000000
# 3 -0.008521 0.008226 0.039007 0.000000 0.000000 0.000000
# 4 0.000000 0.000000 0.000000 0.045760 0.000000 0.000000
# 5 0.000000 0.000000 0.000000 0.000000 0.034577 0.000000
# 6 0.000000 0.000000 0.000000 0.000000 0.000000 0.019353
#
#
# Mechanical properties :
#
#
# Convention : Reuss Voigt Hill
#
# Bulk Modulus (GPa) = 17.81588 35.33597 26.57592
# Shear Modulus (GPa) = 25.93274 34.04598 29.98936
#
# Velocity S-wave (km/s) = 3.29928 3.78032 3.54796
# Velocity P-wave (km/s) = 4.68955 5.82122 5.28576
#
# Compressibility (1/GPa) = 0.05612971
#
# Stress axis : x y z
#
# Youngs Moduli (GPa) = 105.03665 59.73343 25.63663
#
# Poissons Ratio (x) = 0.25528 0.21846
# Poissons Ratio (y) = 0.44890 -0.21089
# Poissons Ratio (z) = 0.89507 -0.49136
#
# Static dielectric constant tensor:
#      x y z
#    x 4.407250 0.000000 0.000000 
#    y 0.000000 4.215390 0.000000 
#    z 0.000000 0.000000 4.265910 
# 
# 
# High freq. dielectric constant tensor:
#      x y z
#    x 1.960150 0.000000 0.000000 
#    y 0.000000 1.941500 0.000000 
#    z 0.000000 0.000000 1.925990 
# 
# From -- ./inp_files/2913.got.cif
#   From: 2010.03.12/outbox.cif.g09.slc.cpg/sg29_2_cif.got.tgz:2913.got - 2010.04.14 03:43:10.
