data_PCOD8169485
_publ_section_title
;
Structure prediction by ZEFSAII (Michael W. Deem and Ramdas Pophale) SiO2 
 PCOD8169485
Probable space group: P N C 2
;
_chemical_formula_sum "Si O2"
_cell_formula_units_Z 30
_cell_length_a 22.275151
_cell_length_b 11.999901
_cell_length_c 4.953865
_cell_angle_alpha 90.000000
_cell_angle_beta 90.000000
_cell_angle_gamma 90.000000
_cell_volume 1324.166166
_symmetry_space_group_name_H-M "P N C 2"
_symmetry_group_IT_number 30
_symmetry_cell_setting 'orthorhombic'
loop_
_space_group_symop_operation_xyz
x,y,z
-x,-y,z
-x,1/2+y,1/2+z
x,1/2-y,1/2+z
loop_
_atom_site_type_symbol
_atom_site_label
_atom_site_fract_x
_atom_site_fract_y
_atom_site_fract_z
Si Si1 0.000078 0.821590 0.680630
Si Si2 0.694879 0.999462 0.265792
Si Si3 0.595417 0.828664 0.096278
Si Si4 0.872279 0.178145 0.774260
Si Si5 0.404671 0.671101 0.886624
Si Si6 0.224985 0.502501 0.264224
Si Si7 0.871770 0.823765 0.762565
Si Si8 0.500000 0.000000 0.270889
O O1 0.000219 0.791043 0.364015
O O2 0.938142 0.883545 0.771159
O O3 0.063227 0.885808 0.734381
O O4 0.657354 0.103226 0.386116
O O5 0.736343 0.959271 0.511204
O O6 0.656174 0.895376 0.158677
O O7 0.733586 0.040434 0.012658
O O8 0.591702 0.725316 0.301521
O O9 0.541115 0.917416 0.094052
O O10 0.868740 0.288047 0.587314
O O11 0.816195 0.105376 0.679056
O O12 0.409737 0.729775 0.597918
O O13 0.457539 0.581445 0.946695
O O14 0.180466 0.405564 0.355683
O O15 0.865195 0.781997 0.457267
#
# Coordination Sequence:
#
# PCOD8169485 Si02
#       8
#     4   4   4   4   4   4   4   2
#     4   8  16  33  54  79 110 144 186 239 300 363
#     4  11  26  41  58  89 122 155 208 246 276 353
#     4  11  24  43  67  92 125 165 195 239 298 341
#     4  10  21  37  58  83 114 150 192 246 303 358
#     4  11  24  43  67  92 125 165 195 239 298 341
#     4  12  24  39  60  87 116 156 204 248 292 344
#     4  10  21  37  58  83 114 150 192 246 303 358
#     4  10  24  42  68 104 128 148 204 248 280 354
#
# _framework density 22.655767999999998
#
# number of rings (size 3 to 8) (size 9 to 14) (size 15 to 20)
#    0.000    1.600    0.000    4.000    0.000   11.200 
#    0.000    0.000    0.000   11.200    0.000    0.000 
#    0.000    0.000    0.000    0.000    0.000    0.000 
#
# Total GULP energy -371777.402603 kJ/mol
# GULP energy per Si atom -12392.580087 kJ/mol
# Density = 2.260420 g / cm^3
# Si number density = 22.655768 Si / 1000 Ang^3
#
#
#
# Elastic Constant Matrix: (Units=GPa)
#
#
# Indices 1 2 3 4 5 6 
#
# 1 159.5070 47.9898 27.5197 0.0000 0.0000 0.0000
# 2 47.9898 82.9569 7.1951 0.0000 0.0000 0.0000
# 3 27.5197 7.1951 86.6133 0.0000 0.0000 0.0000
# 4 0.0000 0.0000 0.0000 23.0380 0.0000 0.0000
# 5 0.0000 0.0000 0.0000 0.0000 25.8406 0.0000
# 6 0.0000 0.0000 0.0000 0.0000 0.0000 23.0887
#
#
#
# Elastic Compliance Matrix: (Units=1/GPa)
#
#
# Indices 1 2 3 4 5 6 
#
# 1 0.007974 -0.004425 -0.002166 0.000000 0.000000 0.000000
# 2 -0.004425 0.014598 0.000193 0.000000 0.000000 0.000000
# 3 -0.002166 0.000193 0.012218 0.000000 0.000000 0.000000
# 4 0.000000 0.000000 0.000000 0.043406 0.000000 0.000000
# 5 0.000000 0.000000 0.000000 0.000000 0.038699 0.000000
# 6 0.000000 0.000000 0.000000 0.000000 0.000000 0.043311
#
#
# Mechanical properties :
#
#
# Convention : Reuss Voigt Hill
#
# Bulk Modulus (GPa) = 45.46722 54.94293 50.20508
# Shear Modulus (GPa) = 27.72639 30.81830 29.27234
#
# Velocity S-wave (km/s) = 3.50210 3.69221 3.59841
# Velocity P-wave (km/s) = 6.03864 6.51769 6.28274
#
# Compressibility (1/GPa) = 0.02199387
#
# Stress axis : x y z
#
# Youngs Moduli (GPa) = 125.40075 68.50414 81.84818
#
# Poissons Ratio (x) = 0.30315 0.17729
# Poissons Ratio (y) = 0.55493 -0.01583
# Poissons Ratio (z) = 0.27163 -0.01325
#
# Static dielectric constant tensor:
#      x y z
#    x 4.580450 0.000000 0.000000 
#    y 0.000000 3.741280 0.000000 
#    z 0.000000 0.000000 3.930030 
# 
# 
# High freq. dielectric constant tensor:
#      x y z
#    x 1.920860 0.000000 0.000000 
#    y 0.000000 1.866390 0.000000 
#    z 0.000000 0.000000 1.893880 
# 
# From -- ./inp_files/1043.got.cif
#   From: 2010.03.12/outbox.cif.g09.slc.cpg/sg30_1_cif.got.tgz:1043.got - 2010.04.14 01:38:02.
