data_PCOD8169213
_publ_section_title
;
Structure prediction by ZEFSAII (Michael W. Deem and Ramdas Pophale) SiO2 
 PCOD8169213
Probable space group: P C A 21
;
_chemical_formula_sum "Si O2"
_cell_formula_units_Z 24
_cell_length_a 8.603459
_cell_length_b 15.061169
_cell_length_c 8.307791
_cell_angle_alpha 90.000000
_cell_angle_beta 90.000000
_cell_angle_gamma 90.000000
_cell_volume 1076.508188
_symmetry_space_group_name_H-M "P C A 21"
_symmetry_group_IT_number 29
_symmetry_cell_setting 'orthorhombic'
loop_
_space_group_symop_operation_xyz
x,y,z
-x,-y,1/2+z
1/2-x,y,1/2+z
1/2+x,-y,z
loop_
_atom_site_type_symbol
_atom_site_label
_atom_site_fract_x
_atom_site_fract_y
_atom_site_fract_z
Si Si1 0.544666 0.742029 0.136580
Si Si2 0.374159 0.234105 0.271213
Si Si3 0.458921 0.929480 0.635327
Si Si4 0.128903 0.568438 0.553477
Si Si5 0.456164 0.591752 0.690503
Si Si6 0.373587 0.905103 0.266259
O O1 0.693116 0.743543 0.252726
O O2 0.475688 0.643311 0.138050
O O3 0.413529 0.806284 0.208304
O O4 0.591074 0.773371 0.959239
O O5 0.410245 0.141089 0.185834
O O6 0.477887 0.309080 0.186705
O O7 0.413769 0.917844 0.451387
O O8 0.309970 0.918406 0.749088
O O9 0.530008 0.026822 0.656850
O O10 0.310808 0.588559 0.570530
O O11 0.096963 0.562623 0.365818
O O12 0.091253 0.473872 0.632042
#
# Coordination Sequence:
#
# PCOD8169213 Si02
#       6
#     4   4   4   4   4   4
#     4  11  24  42  64  93 126 164 207 255 308 366
#     4  11  24  42  64  93 126 164 207 255 308 366
#     4  12  25  43  66  93 126 164 206 255 308 367
#     4  11  24  41  64  92 126 164 207 256 309 367
#     4  11  24  41  64  92 126 164 207 256 309 367
#     4  12  25  43  66  93 126 164 206 255 308 367
#
# _framework density 22.294301999999998
#
# number of rings (size 3 to 8) (size 9 to 14) (size 15 to 20)
#    0.000    0.667    0.000    8.000    0.000   10.667 
#    0.000    0.000    0.000    0.000    0.000    0.000 
#    0.000    0.000    0.000    0.000    0.000    0.000 
#
# Total GULP energy -297869.762761 kJ/mol
# GULP energy per Si atom -12411.240115 kJ/mol
# Density = 2.224356 g / cm^3
# Si number density = 22.294302 Si / 1000 Ang^3
#
#
#
# Elastic Constant Matrix: (Units=GPa)
#
#
# Indices 1 2 3 4 5 6 
#
# 1 84.2730 0.3581 -18.2909 0.0000 0.0000 0.0000
# 2 0.3581 59.7444 27.4128 0.0000 0.0000 0.0000
# 3 -18.2909 27.4128 54.7255 0.0000 0.0000 0.0000
# 4 0.0000 0.0000 0.0000 33.5112 0.0000 0.0000
# 5 0.0000 0.0000 0.0000 0.0000 27.7749 0.0000
# 6 0.0000 0.0000 0.0000 0.0000 0.0000 37.2441
#
#
#
# Elastic Compliance Matrix: (Units=1/GPa)
#
#
# Indices 1 2 3 4 5 6 
#
# 1 0.013125 -0.002716 0.005747 0.000000 0.000000 0.000000
# 2 -0.002716 0.022295 -0.012075 0.000000 0.000000 0.000000
# 3 0.005747 -0.012075 0.026243 0.000000 0.000000 0.000000
# 4 0.000000 0.000000 0.000000 0.029841 0.000000 0.000000
# 5 0.000000 0.000000 0.000000 0.000000 0.036004 0.000000
# 6 0.000000 0.000000 0.000000 0.000000 0.000000 0.026850
#
#
# Mechanical properties :
#
#
# Convention : Reuss Voigt Hill
#
# Bulk Modulus (GPa) = 22.94914 24.18921 23.56918
# Shear Modulus (GPa) = 26.74227 32.32357 29.53292
#
# Velocity S-wave (km/s) = 3.46715 3.81183 3.64357
# Velocity P-wave (km/s) = 5.13267 5.49972 5.31936
#
# Compressibility (1/GPa) = 0.04357462
#
# Stress axis : x y z
#
# Youngs Moduli (GPa) = 76.18985 44.85333 38.10592
#
# Poissons Ratio (x) = 0.12181 -0.21900
# Poissons Ratio (y) = 0.20690 0.46015
# Poissons Ratio (z) = -0.43787 0.54162
#
# Static dielectric constant tensor:
#      x y z
#    x 4.147060 0.000000 0.000000 
#    y 0.000000 4.150750 0.000000 
#    z 0.000000 0.000000 4.010670 
# 
# 
# High freq. dielectric constant tensor:
#      x y z
#    x 1.888500 0.000000 0.000000 
#    y 0.000000 1.890070 0.000000 
#    z 0.000000 0.000000 1.889750 
# 
# From -- ./inp_files/1141.got.cif
#   From: 2010.03.12/outbox.cif.g09.slc.cpg/sg29_1_cif.got.tgz:1141.got - 2010.04.14 03:43:10.
