data_PCOD8169629
_publ_section_title
;
Structure prediction by ZEFSAII (Michael W. Deem and Ramdas Pophale) SiO2 
 PCOD8169629
Probable space group: P N C 2
;
_chemical_formula_sum "Si O2"
_cell_formula_units_Z 24
_cell_length_a 11.153682
_cell_length_b 11.084946
_cell_length_c 9.192390
_cell_angle_alpha 90.000000
_cell_angle_beta 90.000000
_cell_angle_gamma 90.000000
_cell_volume 1136.528372
_symmetry_space_group_name_H-M "P N C 2"
_symmetry_group_IT_number 30
_symmetry_cell_setting 'orthorhombic'
loop_
_space_group_symop_operation_xyz
x,y,z
-x,-y,z
-x,1/2+y,1/2+z
x,1/2-y,1/2+z
loop_
_atom_site_type_symbol
_atom_site_label
_atom_site_fract_x
_atom_site_fract_y
_atom_site_fract_z
Si Si1 0.698392 0.724853 0.053930
Si Si2 0.466762 0.876447 0.979144
Si Si3 0.158099 0.371202 0.780908
Si Si4 0.624101 0.484794 0.170617
Si Si5 0.245333 0.774391 0.532941
Si Si6 0.888577 0.348416 0.763660
O O1 0.581393 0.788167 0.982726
O O2 0.783255 0.821607 0.132407
O O3 0.672590 0.622814 0.178410
O O4 0.763786 0.659546 0.920791
O O5 0.360927 0.808352 0.060862
O O6 0.500000 0.000000 0.065696
O O7 0.416090 0.921008 0.821943
O O8 0.144563 0.512490 0.756587
O O9 0.024749 0.319745 0.808271
O O10 0.500000 0.500000 0.077441
O O11 0.725626 0.407570 0.091810
O O12 0.131102 0.714859 0.609357
O O13 0.207491 0.782744 0.366635
#
# Coordination Sequence:
#
# PCOD8169629 Si02
#       6
#     4   4   4   4   4   4
#     4  12  24  44  71  95 140 171 223 278 336 394
#     4  11  24  41  66 100 133 166 214 272 332 405
#     4  11  25  45  65  97 126 182 224 278 328 395
#     4  11  22  41  66 100 132 171 214 263 338 403
#     4  12  22  43  66  96 129 175 213 281 332 394
#     4  11  25  43  67  91 133 171 233 271 333 394
#
# _framework density 21.116938000000001
#
# number of rings (size 3 to 8) (size 9 to 14) (size 15 to 20)
#    0.000    0.667    5.000    4.000    0.000    0.000 
#    0.000    0.000    0.000    0.000    0.000    0.000 
#    0.000    0.000    0.000    0.000    0.000    0.000 
#
# Total GULP energy -297394.266294 kJ/mol
# GULP energy per Si atom -12391.427762 kJ/mol
# Density = 2.106888 g / cm^3
# Si number density = 21.116938 Si / 1000 Ang^3
#
#
#
# Elastic Constant Matrix: (Units=GPa)
#
#
# Indices 1 2 3 4 5 6 
#
# 1 113.6730 58.7757 19.7079 0.0000 0.0000 0.0000
# 2 58.7757 109.7951 34.0398 0.0000 0.0000 0.0000
# 3 19.7079 34.0398 66.5157 0.0000 0.0000 0.0000
# 4 0.0000 0.0000 0.0000 20.3702 0.0000 0.0000
# 5 0.0000 0.0000 0.0000 0.0000 28.4559 0.0000
# 6 0.0000 0.0000 0.0000 0.0000 0.0000 39.6871
#
#
#
# Elastic Compliance Matrix: (Units=1/GPa)
#
#
# Indices 1 2 3 4 5 6 
#
# 1 0.012170 -0.006415 -0.000323 0.000000 0.000000 0.000000
# 2 -0.006415 0.014207 -0.005370 0.000000 0.000000 0.000000
# 3 -0.000323 -0.005370 0.017878 0.000000 0.000000 0.000000
# 4 0.000000 0.000000 0.000000 0.049091 0.000000 0.000000
# 5 0.000000 0.000000 0.000000 0.000000 0.035142 0.000000
# 6 0.000000 0.000000 0.000000 0.000000 0.000000 0.025197
#
#
# Mechanical properties :
#
#
# Convention : Reuss Voigt Hill
#
# Bulk Modulus (GPa) = 49.90181 57.22563 53.56372
# Shear Modulus (GPa) = 27.08862 29.53333 28.31097
#
# Velocity S-wave (km/s) = 3.58549 3.74379 3.66550
# Velocity P-wave (km/s) = 6.38933 6.77098 6.58292
#
# Compressibility (1/GPa) = 0.02003935
#
# Stress axis : x y z
#
# Youngs Moduli (GPa) = 82.16969 70.39007 55.93549
#
# Poissons Ratio (x) = 0.45153 0.01807
# Poissons Ratio (y) = 0.52709 0.30036
# Poissons Ratio (z) = 0.02655 0.37797
#
# Static dielectric constant tensor:
#      x y z
#    x 4.075840 0.000000 0.000000 
#    y 0.000000 4.196370 0.000000 
#    z 0.000000 0.000000 3.493750 
# 
# 
# High freq. dielectric constant tensor:
#      x y z
#    x 1.839690 0.000000 0.000000 
#    y 0.000000 1.846820 0.000000 
#    z 0.000000 0.000000 1.809100 
# 
# From -- ./inp_files/2338.got.cif
#   From: 2010.03.12/outbox.cif.g09.slc.cpg/sg30_2_cif.got.tgz:2338.got - 2010.04.14 01:38:02.
