data_PCOD8169312
_publ_section_title
;
Structure prediction by ZEFSAII (Michael W. Deem and Ramdas Pophale) SiO2 
 PCOD8169312
Probable space group: P C A 21
;
_chemical_formula_sum "Si O2"
_cell_formula_units_Z 20
_cell_length_a 14.242979
_cell_length_b 7.110224
_cell_length_c 7.354159
_cell_angle_alpha 90.000000
_cell_angle_beta 90.000000
_cell_angle_gamma 90.000000
_cell_volume 744.761353
_symmetry_space_group_name_H-M "P C A 21"
_symmetry_group_IT_number 29
_symmetry_cell_setting 'orthorhombic'
loop_
_space_group_symop_operation_xyz
x,y,z
-x,-y,1/2+z
1/2-x,y,1/2+z
1/2+x,-y,z
loop_
_atom_site_type_symbol
_atom_site_label
_atom_site_fract_x
_atom_site_fract_y
_atom_site_fract_z
Si Si1 0.147595 0.552609 0.716410
Si Si2 0.345400 0.064148 0.991346
Si Si3 0.051559 0.821824 0.989348
Si Si4 0.151407 0.669454 0.323732
Si Si5 0.844692 0.838491 0.376643
O O1 0.098297 0.721719 0.818887
O O2 0.116863 0.552756 0.502108
O O3 0.260978 0.570715 0.723920
O O4 0.111800 0.359827 0.811637
O O5 0.443057 0.158827 0.935013
O O6 0.259488 0.207595 0.951285
O O7 0.317307 0.873401 0.892412
O O8 0.344047 0.022126 0.204448
O O9 0.093158 0.036706 0.018359
O O10 0.068760 0.700392 0.174154
#
# Coordination Sequence:
#
# PCOD8169312 Si02
#       5
#     4   4   4   4   4
#     4  12  25  50  78 114 161 209 259 337 401 477
#     4  12  25  50  81 113 156 212 267 326 403 480
#     4  12  27  52  79 118 159 209 269 334 398 481
#     4  12  23  47  80 109 158 206 262 326 405 465
#     4  12  26  51  80 116 156 216 265 327 407 481
#
# _framework density 26.854240000000001
#
# number of rings (size 3 to 8) (size 9 to 14) (size 15 to 20)
#    0.000    0.000    6.000    3.600    0.000    0.000 
#   21.600    0.000    0.000    0.000    0.000    0.000 
#    0.000    0.000    0.000    0.000    0.000    0.000 
#
# Total GULP energy -247920.238455 kJ/mol
# GULP energy per Si atom -12396.011923 kJ/mol
# Density = 2.679312 g / cm^3
# Si number density = 26.854240 Si / 1000 Ang^3
#
#
#
# Elastic Constant Matrix: (Units=GPa)
#
#
# Indices 1 2 3 4 5 6 
#
# 1 126.6251 30.4046 19.8291 0.0000 0.0000 0.0000
# 2 30.4046 95.9277 38.5503 0.0000 0.0000 0.0000
# 3 19.8291 38.5503 101.1085 0.0000 0.0000 0.0000
# 4 0.0000 0.0000 0.0000 40.8896 0.0000 0.0000
# 5 0.0000 0.0000 0.0000 0.0000 28.8702 0.0000
# 6 0.0000 0.0000 0.0000 0.0000 0.0000 7.4573
#
#
#
# Elastic Compliance Matrix: (Units=1/GPa)
#
#
# Indices 1 2 3 4 5 6 
#
# 1 0.008598 -0.002418 -0.000764 0.000000 0.000000 0.000000
# 2 -0.002418 0.012991 -0.004479 0.000000 0.000000 0.000000
# 3 -0.000764 -0.004479 0.011748 0.000000 0.000000 0.000000
# 4 0.000000 0.000000 0.000000 0.024456 0.000000 0.000000
# 5 0.000000 0.000000 0.000000 0.000000 0.034638 0.000000
# 6 0.000000 0.000000 0.000000 0.000000 0.000000 0.134096
#
#
# Mechanical properties :
#
#
# Convention : Reuss Voigt Hill
#
# Bulk Modulus (GPa) = 55.51163 55.69214 55.60189
# Shear Modulus (GPa) = 20.17322 31.10191 25.63756
#
# Velocity S-wave (km/s) = 2.74380 3.40689 3.09316
# Velocity P-wave (km/s) = 5.54565 6.02159 5.78851
#
# Compressibility (1/GPa) = 0.01801424
#
# Stress axis : x y z
#
# Youngs Moduli (GPa) = 116.31175 76.97751 85.12129
#
# Poissons Ratio (x) = 0.18612 0.06505
# Poissons Ratio (y) = 0.28123 0.38125
# Poissons Ratio (z) = 0.08889 0.34477
#
# Static dielectric constant tensor:
#      x y z
#    x 4.634210 0.000000 0.000000 
#    y 0.000000 4.816610 0.000000 
#    z 0.000000 0.000000 5.157230 
# 
# 
# High freq. dielectric constant tensor:
#      x y z
#    x 2.064440 0.000000 0.000000 
#    y 0.000000 2.083620 0.000000 
#    z 0.000000 0.000000 2.084320 
# 
# From -- ./inp_files/1332.got.cif
#   From: 2010.03.12/outbox.cif.g09.slc.cpg/sg29_1_cif.got.tgz:1332.got - 2010.04.14 03:43:10.
