data_PCOD8169246
_publ_section_title
;
Structure prediction by ZEFSAII (Michael W. Deem and Ramdas Pophale) SiO2 
 PCOD8169246
Probable space group: P C A 21
;
_chemical_formula_sum "Si O2"
_cell_formula_units_Z 28
_cell_length_a 15.256602
_cell_length_b 8.274188
_cell_length_c 9.247186
_cell_angle_alpha 90.000000
_cell_angle_beta 90.000000
_cell_angle_gamma 90.000000
_cell_volume 1167.327709
_symmetry_space_group_name_H-M "P C A 21"
_symmetry_group_IT_number 29
_symmetry_cell_setting 'orthorhombic'
loop_
_space_group_symop_operation_xyz
x,y,z
-x,-y,1/2+z
1/2-x,y,1/2+z
1/2+x,-y,z
loop_
_atom_site_type_symbol
_atom_site_label
_atom_site_fract_x
_atom_site_fract_y
_atom_site_fract_z
Si Si1 0.321821 0.486392 0.172350
Si Si2 0.685941 0.989732 0.302142
Si Si3 0.343107 0.123812 0.123622
Si Si4 0.502043 0.107601 0.690145
Si Si5 0.427266 0.636256 0.416142
Si Si6 0.551561 0.361856 0.472846
Si Si7 0.656601 0.323710 0.201875
O O1 0.350891 0.315576 0.105030
O O2 0.366198 0.513759 0.327322
O O3 0.217552 0.515759 0.192390
O O4 0.357079 0.621437 0.060393
O O5 0.679790 0.959488 0.472275
O O6 0.764748 0.886794 0.238565
O O7 0.595248 0.954582 0.219515
O O8 0.711277 0.176628 0.272742
O O9 0.431955 0.044836 0.186191
O O10 0.526451 0.229155 0.819328
O O11 0.503742 0.201466 0.535632
O O12 0.495044 0.521637 0.500981
O O13 0.373671 0.726837 0.541511
O O14 0.571339 0.351791 0.302309
#
# Coordination Sequence:
#
# PCOD8169246 Si02
#       7
#     4   4   4   4   4   4   4
#     4  11  27  45  73 105 151 195 254 312 378 463
#     4  12  30  47  80 109 155 202 257 327 397 471
#     4  12  30  49  74 115 153 204 260 326 393 466
#     4  11  27  52  75 111 155 198 257 320 392 468
#     4  11  26  44  77 106 146 197 253 310 387 466
#     4  11  24  47  74 105 146 195 252 305 385 458
#     4  12  26  46  73 105 148 201 245 316 380 462
#
# _framework density 23.986408999999998
#
# number of rings (size 3 to 8) (size 9 to 14) (size 15 to 20)
#    0.000    0.571    1.429    5.143   18.000    0.000 
#    0.000    0.000    0.000    0.000    0.000    0.000 
#    0.000    0.000    0.000    0.000    0.000    0.000 
#
# Total GULP energy -347294.863396 kJ/mol
# GULP energy per Si atom -12403.387978 kJ/mol
# Density = 2.393182 g / cm^3
# Si number density = 23.986409 Si / 1000 Ang^3
#
#
#
# Elastic Constant Matrix: (Units=GPa)
#
#
# Indices 1 2 3 4 5 6 
#
# 1 77.9181 1.9971 6.5443 0.0000 0.0000 0.0000
# 2 1.9971 97.6536 9.1913 0.0000 0.0000 0.0000
# 3 6.5443 9.1913 105.4745 0.0000 0.0000 0.0000
# 4 0.0000 0.0000 0.0000 38.4256 0.0000 0.0000
# 5 0.0000 0.0000 0.0000 0.0000 32.2094 0.0000
# 6 0.0000 0.0000 0.0000 0.0000 0.0000 42.2932
#
#
#
# Elastic Compliance Matrix: (Units=1/GPa)
#
#
# Indices 1 2 3 4 5 6 
#
# 1 0.012905 -0.000190 -0.000784 0.000000 0.000000 0.000000
# 2 -0.000190 0.010328 -0.000888 0.000000 0.000000 0.000000
# 3 -0.000784 -0.000888 0.009607 0.000000 0.000000 0.000000
# 4 0.000000 0.000000 0.000000 0.026024 0.000000 0.000000
# 5 0.000000 0.000000 0.000000 0.000000 0.031047 0.000000
# 6 0.000000 0.000000 0.000000 0.000000 0.000000 0.023644
#
#
# Mechanical properties :
#
#
# Convention : Reuss Voigt Hill
#
# Bulk Modulus (GPa) = 34.34697 35.16796 34.75746
# Shear Modulus (GPa) = 39.37478 40.13987 39.75732
#
# Velocity S-wave (km/s) = 4.05599 4.09521 4.07565
# Velocity P-wave (km/s) = 6.02372 6.08724 6.05556
#
# Compressibility (1/GPa) = 0.02911465
#
# Stress axis : x y z
#
# Youngs Moduli (GPa) = 77.49102 96.82640 104.09055
#
# Poissons Ratio (x) = 0.01841 0.08162
# Poissons Ratio (y) = 0.01473 0.09245
# Poissons Ratio (z) = 0.06076 0.08600
#
# Static dielectric constant tensor:
#      x y z
#    x 4.269660 0.000000 0.000000 
#    y 0.000000 4.306700 0.000000 
#    z 0.000000 0.000000 4.332900 
# 
# 
# High freq. dielectric constant tensor:
#      x y z
#    x 1.951450 0.000000 0.000000 
#    y 0.000000 1.954230 0.000000 
#    z 0.000000 0.000000 1.964160 
# 
# From -- ./inp_files/1768.got.cif
#   From: 2010.03.12/outbox.cif.g09.slc.cpg/sg29_1_cif.got.tgz:1768.got - 2010.04.14 03:43:10.
