data_PCOD8169779
_publ_section_title
;
Structure prediction by ZEFSAII (Michael W. Deem and Ramdas Pophale) SiO2 
 PCOD8169779
Probable space group: P M N 21
;
_chemical_formula_sum "Si O2"
_cell_formula_units_Z 20
_cell_length_a 17.662563
_cell_length_b 5.205327
_cell_length_c 14.169408
_cell_angle_alpha 90.000000
_cell_angle_beta 90.000000
_cell_angle_gamma 90.000000
_cell_volume 1302.727098
_symmetry_space_group_name_H-M "P M N 21"
_symmetry_group_IT_number 31
_symmetry_cell_setting 'orthorhombic'
loop_
_space_group_symop_operation_xyz
x,y,z
1/2-x,-y,1/2+z
-x,y,z
1/2+x,-y,1/2+z
loop_
_atom_site_type_symbol
_atom_site_label
_atom_site_fract_x
_atom_site_fract_y
_atom_site_fract_z
Si Si1 0.179518 0.749455 0.467200
Si Si2 0.584934 0.591747 0.725342
Si Si3 0.914265 0.250682 0.436417
Si Si4 0.717844 0.278712 0.760413
Si Si5 0.728887 0.772376 0.655419
O O1 0.130605 0.492452 0.478204
O O2 0.230385 0.750603 0.372361
O O3 0.239313 0.763486 0.551160
O O4 0.123943 0.991193 0.472732
O O5 0.500000 0.548931 0.687124
O O6 0.586266 0.749192 0.823073
O O7 0.626360 0.315630 0.743379
O O8 0.636437 0.751122 0.650550
O O9 0.000000 0.261083 0.474641
O O10 0.759640 0.534982 0.720024
O O11 0.752257 0.036108 0.706216
#
# Coordination Sequence:
#
# PCOD8169779 Si02
#       5
#     4   4   4   4   4
#     4  11  18  32  49  71 106 128 159 197 237 298
#     4   8  17  30  47  70 100 123 151 197 248 288
#     4  10  19  31  50  73 101 127 153 200 255 293
#     4   9  18  31  42  72  99 126 160 192 240 281
#     4  10  19  30  48  72  99 130 161 190 243 286
#
# _framework density 15.352409
#
# number of rings (size 3 to 8) (size 9 to 14) (size 15 to 20)
#    1.200    1.200    2.000    1.800    0.000    1.600 
#    0.000    0.000    0.000    0.000    0.000    8.400 
#    0.000    0.000    0.000    0.000    0.000    0.000 
#
# Total GULP energy -247775.067621 kJ/mol
# GULP energy per Si atom -12388.753381 kJ/mol
# Density = 1.531747 g / cm^3
# Si number density = 15.352409 Si / 1000 Ang^3
#
#
#
# Elastic Constant Matrix: (Units=GPa)
#
#
# Indices 1 2 3 4 5 6 
#
# 1 62.8946 22.0640 49.8799 0.0000 0.0000 0.0000
# 2 22.0640 111.7522 40.0050 0.0000 0.0000 0.0000
# 3 49.8799 40.0050 99.1788 0.0000 0.0000 0.0000
# 4 0.0000 0.0000 0.0000 14.6168 0.0000 0.0000
# 5 0.0000 0.0000 0.0000 0.0000 24.1248 0.0000
# 6 0.0000 0.0000 0.0000 0.0000 0.0000 19.7390
#
#
#
# Elastic Compliance Matrix: (Units=1/GPa)
#
#
# Indices 1 2 3 4 5 6 
#
# 1 0.026477 -0.000538 -0.013099 0.000000 0.000000 0.000000
# 2 -0.000538 0.010469 -0.003952 0.000000 0.000000 0.000000
# 3 -0.013099 -0.003952 0.018265 0.000000 0.000000 0.000000
# 4 0.000000 0.000000 0.000000 0.068414 0.000000 0.000000
# 5 0.000000 0.000000 0.000000 0.000000 0.041451 0.000000
# 6 0.000000 0.000000 0.000000 0.000000 0.000000 0.050661
#
#
# Mechanical properties :
#
#
# Convention : Reuss Voigt Hill
#
# Bulk Modulus (GPa) = 49.91961 55.30259 52.61110
# Shear Modulus (GPa) = 19.41040 22.48790 20.94915
#
# Velocity S-wave (km/s) = 3.55959 3.83140 3.69799
# Velocity P-wave (km/s) = 7.03425 7.46144 7.25099
#
# Compressibility (1/GPa) = 0.02003221
#
# Stress axis : x y z
#
# Youngs Moduli (GPa) = 37.76897 95.51571 54.75035
#
# Poissons Ratio (x) = 0.05143 0.71716
# Poissons Ratio (y) = 0.02034 0.21639
# Poissons Ratio (z) = 0.49473 0.37750
#
# Static dielectric constant tensor:
#      x y z
#    x 2.749960 0.000000 0.000000 
#    y 0.000000 3.025150 0.000000 
#    z 0.000000 0.000000 2.708500 
# 
# 
# High freq. dielectric constant tensor:
#      x y z
#    x 1.555820 0.000000 0.000000 
#    y 0.000000 1.606730 0.000000 
#    z 0.000000 0.000000 1.560860 
# 
# From -- ./inp_files/4159.got.cif
#   From: 2010.03.12/outbox.cif.g09.slc.cpg/sg31_3_cif.got.tgz:4159.got - 2010.04.14 01:42:59.
