data_PCOD8169460
_publ_section_title
;
Structure prediction by ZEFSAII (Michael W. Deem and Ramdas Pophale) SiO2 
 PCOD8169460
Probable space group: P N C 2
;
_chemical_formula_sum "Si O2"
_cell_formula_units_Z 30
_cell_length_a 13.923679
_cell_length_b 11.707328
_cell_length_c 8.340064
_cell_angle_alpha 90.000000
_cell_angle_beta 90.000000
_cell_angle_gamma 90.000000
_cell_volume 1359.506135
_symmetry_space_group_name_H-M "P N C 2"
_symmetry_group_IT_number 30
_symmetry_cell_setting 'orthorhombic'
loop_
_space_group_symop_operation_xyz
x,y,z
-x,-y,z
-x,1/2+y,1/2+z
x,1/2-y,1/2+z
loop_
_atom_site_type_symbol
_atom_site_label
_atom_site_fract_x
_atom_site_fract_y
_atom_site_fract_z
Si Si1 0.475992 0.262719 0.109530
Si Si2 0.750966 0.559230 0.848118
Si Si3 0.000000 0.500000 0.293805
Si Si4 0.180652 0.469358 0.498483
Si Si5 0.664657 0.692832 0.365810
Si Si6 0.395484 0.858845 0.363809
Si Si7 0.141479 0.892026 0.562628
Si Si8 0.216685 0.706686 0.370214
O O1 0.384035 0.322341 0.193003
O O2 0.538333 0.177071 0.216154
O O3 0.426403 0.178524 0.982158
O O4 0.538140 0.362311 0.023371
O O5 0.814244 0.566348 0.684422
O O6 0.717281 0.685544 0.889322
O O7 0.656664 0.479050 0.827614
O O8 0.818790 0.511998 0.991958
O O9 0.078618 0.442398 0.411638
O O10 0.046144 0.592123 0.170781
O O11 0.259723 0.406683 0.391631
O O12 0.201173 0.603734 0.493654
O O13 0.319583 0.760267 0.400945
O O14 0.133835 0.802061 0.414549
O O15 0.216233 0.834596 0.686626
#
# Coordination Sequence:
#
# PCOD8169460 Si02
#       8
#     4   4   2   4   4   4   4   4
#     4  10  22  38  62  99 138 181 236 281 327 405
#     4  11  23  43  75  91 142 192 230 288 364 412
#     4  10  26  46  70 108 136 170 238 288 356 436
#     4  11  24  46  68  97 139 181 234 287 359 422
#     4  11  24  44  61  98 144 186 226 275 356 412
#     4  10  20  41  65 100 133 179 241 281 333 400
#     4  10  22  43  70 106 132 173 231 290 360 418
#     4  10  20  40  70  96 137 180 227 289 348 405
#
# _framework density 22.066835999999999
#
# number of rings (size 3 to 8) (size 9 to 14) (size 15 to 20)
#    0.000    1.600    1.333    4.000    3.733    2.667 
#   14.400    1.333    0.000    0.000    0.000    0.000 
#    0.000    0.000    0.000    0.000    0.000    0.000 
#
# Total GULP energy -371772.926722 kJ/mol
# GULP energy per Si atom -12392.430891 kJ/mol
# Density = 2.201661 g / cm^3
# Si number density = 22.066836 Si / 1000 Ang^3
#
#
#
# Elastic Constant Matrix: (Units=GPa)
#
#
# Indices 1 2 3 4 5 6 
#
# 1 110.5097 40.7802 30.1562 0.0000 0.0000 0.0000
# 2 40.7802 82.7301 19.4160 0.0000 0.0000 0.0000
# 3 30.1562 19.4160 96.7707 0.0000 0.0000 0.0000
# 4 0.0000 0.0000 0.0000 27.7994 0.0000 0.0000
# 5 0.0000 0.0000 0.0000 0.0000 53.1662 0.0000
# 6 0.0000 0.0000 0.0000 0.0000 0.0000 34.4125
#
#
#
# Elastic Compliance Matrix: (Units=1/GPa)
#
#
# Indices 1 2 3 4 5 6 
#
# 1 0.011653 -0.005134 -0.002601 0.000000 0.000000 0.000000
# 2 -0.005134 0.014946 -0.001399 0.000000 0.000000 0.000000
# 3 -0.002601 -0.001399 0.011425 0.000000 0.000000 0.000000
# 4 0.000000 0.000000 0.000000 0.035972 0.000000 0.000000
# 5 0.000000 0.000000 0.000000 0.000000 0.018809 0.000000
# 6 0.000000 0.000000 0.000000 0.000000 0.000000 0.029059
#
#
# Mechanical properties :
#
#
# Convention : Reuss Voigt Hill
#
# Bulk Modulus (GPa) = 50.61653 52.30169 51.45911
# Shear Modulus (GPa) = 34.07880 36.38617 35.23248
#
# Velocity S-wave (km/s) = 3.93408 4.06508 4.00012
# Velocity P-wave (km/s) = 6.60482 6.76654 6.68617
#
# Compressibility (1/GPa) = 0.01975639
#
# Stress axis : x y z
#
# Youngs Moduli (GPa) = 85.81247 66.90562 87.52677
#
# Poissons Ratio (x) = 0.34348 0.22769
# Poissons Ratio (y) = 0.44054 0.12245
# Poissons Ratio (z) = 0.22324 0.09360
#
# Static dielectric constant tensor:
#      x y z
#    x 4.023240 0.000000 0.000000 
#    y 0.000000 3.799540 0.000000 
#    z 0.000000 0.000000 4.333920 
# 
# 
# High freq. dielectric constant tensor:
#      x y z
#    x 1.860260 0.000000 0.000000 
#    y 0.000000 1.849280 0.000000 
#    z 0.000000 0.000000 1.889740 
# 
# From -- ./inp_files/2683.got.cif
#   From: 2010.03.12/outbox.cif.g09.slc.cpg/sg30_2_cif.got.tgz:2683.got - 2010.04.14 01:38:02.
