data_PCOD8169585
_publ_section_title
;
Structure prediction by ZEFSAII (Michael W. Deem and Ramdas Pophale) SiO2 
 PCOD8169585
Probable space group: P N C 2
;
_chemical_formula_sum "Si O2"
_cell_formula_units_Z 26
_cell_length_a 11.533214
_cell_length_b 11.195500
_cell_length_c 8.699755
_cell_angle_alpha 90.000000
_cell_angle_beta 90.000000
_cell_angle_gamma 90.000000
_cell_volume 1123.313212
_symmetry_space_group_name_H-M "P N C 2"
_symmetry_group_IT_number 30
_symmetry_cell_setting 'orthorhombic'
loop_
_space_group_symop_operation_xyz
x,y,z
-x,-y,z
-x,1/2+y,1/2+z
x,1/2-y,1/2+z
loop_
_atom_site_type_symbol
_atom_site_label
_atom_site_fract_x
_atom_site_fract_y
_atom_site_fract_z
Si Si1 0.649919 0.893422 0.271630
Si Si2 0.355079 0.572769 0.015024
Si Si3 0.998399 0.803830 0.872976
Si Si4 0.909084 0.101658 0.578375
Si Si5 0.500000 0.000000 0.771960
Si Si6 0.906690 0.600547 0.667228
Si Si7 0.530898 0.781556 0.982059
O O1 0.776351 0.931502 0.210967
O O2 0.638470 0.790612 0.404197
O O3 0.605270 0.014846 0.352911
O O4 0.571170 0.852115 0.131840
O O5 0.217768 0.567925 0.025620
O O6 0.390269 0.487789 0.157809
O O7 0.419661 0.700052 0.025651
O O8 0.924499 0.724884 0.755718
O O9 0.082277 0.883326 0.763915
O O10 0.916056 0.885079 0.981609
O O11 0.071552 0.726328 0.992393
O O12 0.000000 0.000000 0.523531
O O13 0.516749 0.119147 0.867755
O O14 0.000000 0.500000 0.721650
#
# Coordination Sequence:
#
# PCOD8169585 Si02
#       7
#     4   4   4   4   2   4   4
#     4  12  24  46  78 105 157 202 250 319 381 458
#     4  12  26  50  74 107 155 199 255 321 383 456
#     4  10  23  42  66 105 141 189 239 301 371 434
#     4  11  25  45  73 105 147 189 246 307 374 447
#     4  12  28  46  72 108 144 200 258 308 382 442
#     4  11  23  43  70 105 143 191 251 297 374 446
#     4  12  27  47  71 110 148 200 260 315 382 457
#
# _framework density 23.145817000000001
#
# number of rings (size 3 to 8) (size 9 to 14) (size 15 to 20)
#    0.000    0.615    3.077    3.692    4.308    6.154 
#    2.769    0.000    0.000    0.000    0.000    0.000 
#    0.000    0.000    0.000    0.000    0.000    0.000 
#
# Total GULP energy -322220.585890 kJ/mol
# GULP energy per Si atom -12393.099457 kJ/mol
# Density = 2.309314 g / cm^3
# Si number density = 23.145817 Si / 1000 Ang^3
#
#
#
# Elastic Constant Matrix: (Units=GPa)
#
#
# Indices 1 2 3 4 5 6 
#
# 1 152.2737 54.6002 54.1756 0.0000 0.0000 0.0000
# 2 54.6002 82.8648 48.2460 0.0000 0.0000 0.0000
# 3 54.1756 48.2460 167.8520 0.0000 0.0000 0.0000
# 4 0.0000 0.0000 0.0000 -66.7101 0.0000 0.0000
# 5 0.0000 0.0000 0.0000 0.0000 31.7094 0.0000
# 6 0.0000 0.0000 0.0000 0.0000 0.0000 32.9565
#
#
#
# Elastic Compliance Matrix: (Units=1/GPa)
#
#
# Indices 1 2 3 4 5 6 
#
# 1 0.008872 -0.005019 -0.001421 0.000000 0.000000 0.000000
# 2 -0.005019 0.017332 -0.003362 0.000000 0.000000 0.000000
# 3 -0.001421 -0.003362 0.007383 0.000000 0.000000 0.000000
# 4 0.000000 0.000000 0.000000 -0.014990 0.000000 0.000000
# 5 0.000000 0.000000 0.000000 0.000000 0.031536 0.000000
# 6 0.000000 0.000000 0.000000 0.000000 0.000000 0.030343
#
#
# Mechanical properties :
#
#
# Convention : Reuss Voigt Hill
#
# Bulk Modulus (GPa) = 71.51231 79.67045 75.59138
# Shear Modulus (GPa) = 47.73702 15.98909 31.86306
#
# Velocity S-wave (km/s) = 4.54634 2.63116 3.71431
# Velocity P-wave (km/s) = 7.65000 6.61260 7.15014
#
# Compressibility (1/GPa) = 0.01398361
#
# Stress axis : x y z
#
# Youngs Moduli (GPa) = 112.71163 57.69654 135.45282
#
# Poissons Ratio (x) = 0.28955 0.19249
# Poissons Ratio (y) = 0.56565 0.45539
# Poissons Ratio (z) = 0.16017 0.19398
#
# Static dielectric constant tensor:
#      x y z
#    x 3.938260 0.000000 0.000000 
#    y 0.000000 7.251930 0.000000 
#    z 0.000000 0.000000 4.617240 
# 
# 
# High freq. dielectric constant tensor:
#      x y z
#    x 1.896010 0.000000 0.000000 
#    y 0.000000 1.916130 0.000000 
#    z 0.000000 0.000000 1.944080 
# 
# From -- ./inp_files/2369.got.cif
#   From: 2010.03.12/outbox.cif.g09.slc.cpg/sg30_2_cif.got.tgz:2369.got - 2010.04.14 01:38:02.
