data_PCOD8169005
_publ_section_title
;
Structure prediction by ZEFSAII (Michael W. Deem and Ramdas Pophale) SiO2 
 PCOD8169005
Probable space group: P C A 21
;
_chemical_formula_sum "Si O2"
_cell_formula_units_Z 32
_cell_length_a 4.996991
_cell_length_b 16.969731
_cell_length_c 14.883265
_cell_angle_alpha 90.000000
_cell_angle_beta 90.000000
_cell_angle_gamma 90.000000
_cell_volume 1262.065049
_symmetry_space_group_name_H-M "P C A 21"
_symmetry_group_IT_number 29
_symmetry_cell_setting 'orthorhombic'
loop_
_space_group_symop_operation_xyz
x,y,z
-x,-y,1/2+z
1/2-x,y,1/2+z
1/2+x,-y,z
loop_
_atom_site_type_symbol
_atom_site_label
_atom_site_fract_x
_atom_site_fract_y
_atom_site_fract_z
Si Si1 0.527655 0.175342 0.673800
Si Si2 0.223388 0.334233 0.461381
Si Si3 0.316490 0.050990 0.887807
Si Si4 0.763150 0.685868 0.260312
Si Si5 0.569481 0.168017 0.313136
Si Si6 0.320339 0.051156 0.093956
Si Si7 0.291136 0.448051 0.118516
Si Si8 0.769148 0.232174 0.991670
O O1 0.464934 0.262396 0.711786
O O2 0.724031 0.129490 0.742811
O O3 0.254552 0.125371 0.657508
O O4 0.688062 0.181725 0.580884
O O5 0.165622 0.350811 0.355813
O O6 0.175067 0.413375 0.518166
O O7 0.522375 0.303645 0.479903
O O8 0.028088 0.266365 0.497346
O O9 0.216551 0.122676 0.823880
O O10 0.117254 0.977046 0.866731
O O11 0.287303 0.078440 0.990808
O O12 0.853925 0.616872 0.194072
O O13 0.012671 0.742811 0.281033
O O14 0.717521 0.170165 0.409619
O O15 0.616985 0.020938 0.115113
O O16 0.491994 0.520414 0.131510
#
# Coordination Sequence:
#
# PCOD8169005 Si02
#       8
#     4   4   4   4   4   4   4   4
#     4  12  24  43  73 102 139 187 245 293 360 412
#     4  11  24  46  72 102 145 177 237 280 354 414
#     4  10  23  43  65  95 142 193 241 298 361 419
#     4  11  27  46  74 111 142 184 240 301 343 428
#     4  11  25  43  70 109 137 191 246 295 361 417
#     4  10  24  43  65  97 140 189 237 294 359 418
#     4  12  28  48  76 107 146 190 224 280 360 432
#     4  11  23  42  71 101 139 183 232 299 342 420
#
# _framework density 25.355269
#
# number of rings (size 3 to 8) (size 9 to 14) (size 15 to 20)
#    0.000    1.000    3.750    1.500    5.250    2.000 
#    0.000    0.000    0.000    0.000    0.000    0.000 
#    0.000    0.000    0.000    0.000    0.000    0.000 
#
# Total GULP energy -397009.811611 kJ/mol
# GULP energy per Si atom -12406.556613 kJ/mol
# Density = 2.529756 g / cm^3
# Si number density = 25.355269 Si / 1000 Ang^3
#
#
#
# Elastic Constant Matrix: (Units=GPa)
#
#
# Indices 1 2 3 4 5 6 
#
# 1 43.0615 -16.9436 -0.1610 0.0000 0.0000 0.0000
# 2 -16.9436 84.1648 39.8870 0.0000 0.0000 0.0000
# 3 -0.1610 39.8870 154.9777 0.0000 0.0000 0.0000
# 4 0.0000 0.0000 0.0000 37.5643 0.0000 0.0000
# 5 0.0000 0.0000 0.0000 0.0000 32.0742 0.0000
# 6 0.0000 0.0000 0.0000 0.0000 0.0000 36.5450
#
#
#
# Elastic Compliance Matrix: (Units=1/GPa)
#
#
# Indices 1 2 3 4 5 6 
#
# 1 0.025513 0.005835 -0.001475 0.000000 0.000000 0.000000
# 2 0.005835 0.014867 -0.003820 0.000000 0.000000 0.000000
# 3 -0.001475 -0.003820 0.007434 0.000000 0.000000 0.000000
# 4 0.000000 0.000000 0.000000 0.026621 0.000000 0.000000
# 5 0.000000 0.000000 0.000000 0.000000 0.031178 0.000000
# 6 0.000000 0.000000 0.000000 0.000000 0.000000 0.027364
#
#
# Mechanical properties :
#
#
# Convention : Reuss Voigt Hill
#
# Bulk Modulus (GPa) = 20.45257 36.41876 28.43567
# Shear Modulus (GPa) = 33.73944 38.53148 36.13546
#
# Velocity S-wave (km/s) = 3.65179 3.90252 3.77923
# Velocity P-wave (km/s) = 5.08573 5.89073 5.50297
#
# Compressibility (1/GPa) = 0.04889361
#
# Stress axis : x y z
#
# Youngs Moduli (GPa) = 39.19547 67.26465 134.51297
#
# Poissons Ratio (x) = -0.39251 0.19846
# Poissons Ratio (y) = -0.22872 0.51387
# Poissons Ratio (z) = 0.05783 0.25696
#
# Static dielectric constant tensor:
#      x y z
#    x 4.462770 0.000000 0.000000 
#    y 0.000000 4.163170 0.000000 
#    z 0.000000 0.000000 4.883850 
# 
# 
# High freq. dielectric constant tensor:
#      x y z
#    x 2.019980 0.000000 0.000000 
#    y 0.000000 1.986730 0.000000 
#    z 0.000000 0.000000 2.036280 
# 
# From -- ./inp_files/4139.got.cif
#   From: 2010.03.12/outbox.cif.g09.slc.cpg/sg29_3_cif.got.tgz:4139.got - 2010.04.14 03:43:10.
