data_PCOD8169537
_publ_section_title
;
Structure prediction by ZEFSAII (Michael W. Deem and Ramdas Pophale) SiO2 
 PCOD8169537
Probable space group: P N C 2
;
_chemical_formula_sum "Si O2"
_cell_formula_units_Z 18
_cell_length_a 5.609967
_cell_length_b 16.667951
_cell_length_c 8.937536
_cell_angle_alpha 90.000000
_cell_angle_beta 90.000000
_cell_angle_gamma 90.000000
_cell_volume 835.719096
_symmetry_space_group_name_H-M "P N C 2"
_symmetry_group_IT_number 30
_symmetry_cell_setting 'orthorhombic'
loop_
_space_group_symop_operation_xyz
x,y,z
-x,-y,z
-x,1/2+y,1/2+z
x,1/2-y,1/2+z
loop_
_atom_site_type_symbol
_atom_site_label
_atom_site_fract_x
_atom_site_fract_y
_atom_site_fract_z
Si Si1 0.290975 0.736667 0.545290
Si Si2 0.755995 0.531804 0.229848
Si Si3 0.000146 0.168961 0.298576
Si Si4 0.000000 0.000000 0.443013
Si Si5 0.609572 0.701971 0.289414
O O1 0.490344 0.688325 0.451814
O O2 0.408178 0.798226 0.662090
O O3 0.137872 0.789071 0.432783
O O4 0.129588 0.674696 0.638146
O O5 0.500000 0.500000 0.293968
O O6 0.780219 0.627538 0.252472
O O7 0.000000 0.500000 0.311959
O O8 0.770163 0.505436 0.054347
O O9 0.014550 0.075554 0.333710
O O10 0.255337 0.212608 0.286003
#
# Coordination Sequence:
#
# PCOD8169537 Si02
#       5
#     4   4   4   2   4
#     4  10  23  38  68  94 132 176 226 277 342 413
#     4  10  23  40  68 102 129 177 229 288 337 415
#     4  11  22  42  66  98 133 180 226 287 341 417
#     4  10  22  38  68  98 138 172 238 284 350 398
#     4  11  22  42  66  97 132 181 224 281 347 412
#
# _framework density 21.538336999999999
#
# number of rings (size 3 to 8) (size 9 to 14) (size 15 to 20)
#    0.667    0.889    0.000    5.333    6.222    1.778 
#    0.000    4.444    0.000    0.000    0.000    0.000 
#    0.000    0.000    0.000    0.000    0.000    0.000 
#
# Total GULP energy -223076.053997 kJ/mol
# GULP energy per Si atom -12393.114111 kJ/mol
# Density = 2.148931 g / cm^3
# Si number density = 21.538337 Si / 1000 Ang^3
#
#
#
# Elastic Constant Matrix: (Units=GPa)
#
#
# Indices 1 2 3 4 5 6 
#
# 1 114.1329 28.5755 34.3924 0.0000 0.0000 0.0000
# 2 28.5755 126.2236 24.2264 0.0000 0.0000 0.0000
# 3 34.3924 24.2264 104.6728 0.0000 0.0000 0.0000
# 4 0.0000 0.0000 0.0000 32.7944 0.0000 0.0000
# 5 0.0000 0.0000 0.0000 0.0000 28.8649 0.0000
# 6 0.0000 0.0000 0.0000 0.0000 0.0000 28.5988
#
#
#
# Elastic Compliance Matrix: (Units=1/GPa)
#
#
# Indices 1 2 3 4 5 6 
#
# 1 0.010070 -0.001721 -0.002910 0.000000 0.000000 0.000000
# 2 -0.001721 0.008585 -0.001421 0.000000 0.000000 0.000000
# 3 -0.002910 -0.001421 0.010839 0.000000 0.000000 0.000000
# 4 0.000000 0.000000 0.000000 0.030493 0.000000 0.000000
# 5 0.000000 0.000000 0.000000 0.000000 0.034644 0.000000
# 6 0.000000 0.000000 0.000000 0.000000 0.000000 0.034967
#
#
# Mechanical properties :
#
#
# Convention : Reuss Voigt Hill
#
# Bulk Modulus (GPa) = 57.51177 57.71309 57.61243
# Shear Modulus (GPa) = 33.89866 35.24061 34.56963
#
# Velocity S-wave (km/s) = 3.97151 4.04936 4.01063
# Velocity P-wave (km/s) = 6.91307 6.97974 6.94649
#
# Compressibility (1/GPa) = 0.01738775
#
# Stress axis : x y z
#
# Youngs Moduli (GPa) = 99.30909 116.48352 92.26118
#
# Poissons Ratio (x) = 0.20048 0.26850
# Poissons Ratio (y) = 0.17092 0.13115
# Poissons Ratio (z) = 0.28901 0.16558
#
# Static dielectric constant tensor:
#      x y z
#    x 3.999390 0.000000 0.000000 
#    y 0.000000 3.691830 0.000000 
#    z 0.000000 0.000000 4.014340 
# 
# 
# High freq. dielectric constant tensor:
#      x y z
#    x 1.851670 0.000000 0.000000 
#    y 0.000000 1.829890 0.000000 
#    z 0.000000 0.000000 1.839000 
# 
# From -- ./inp_files/1286.got.cif
#   From: 2010.03.12/outbox.cif.g09.slc.cpg/sg30_1_cif.got.tgz:1286.got - 2010.04.14 01:38:02.
