data_PCOD8169437
_publ_section_title
;
Structure prediction by ZEFSAII (Michael W. Deem and Ramdas Pophale) SiO2 
 PCOD8169437
Probable space group: P N C 2
;
_chemical_formula_sum "Si O2"
_cell_formula_units_Z 24
_cell_length_a 15.486428
_cell_length_b 8.960166
_cell_length_c 8.979828
_cell_angle_alpha 90.000000
_cell_angle_beta 90.000000
_cell_angle_gamma 90.000000
_cell_volume 1246.049604
_symmetry_space_group_name_H-M "P N C 2"
_symmetry_group_IT_number 30
_symmetry_cell_setting 'orthorhombic'
loop_
_space_group_symop_operation_xyz
x,y,z
-x,-y,z
-x,1/2+y,1/2+z
x,1/2-y,1/2+z
loop_
_atom_site_type_symbol
_atom_site_label
_atom_site_fract_x
_atom_site_fract_y
_atom_site_fract_z
Si Si1 0.233872 0.109880 0.418310
Si Si2 0.166616 0.672356 0.387142
Si Si3 0.906428 0.430169 0.072145
Si Si4 0.584820 0.408016 0.602789
Si Si5 0.243811 0.419859 0.569696
Si Si6 0.654147 0.339404 0.907856
O O1 0.254640 0.274235 0.470836
O O2 0.218695 0.109580 0.240550
O O3 0.147415 0.064450 0.502413
O O4 0.311421 0.998661 0.468901
O O5 0.129873 0.618662 0.231125
O O6 0.099260 0.788409 0.461157
O O7 0.173665 0.531614 0.498306
O O8 0.259940 0.748671 0.356756
O O9 0.000000 0.500000 0.091120
O O10 0.500000 0.500000 0.558334
O O11 0.663188 0.509217 0.553486
O O12 0.587712 0.370999 0.775923
O O13 0.594251 0.247394 0.523888
#
# Coordination Sequence:
#
# PCOD8169437 Si02
#       6
#     4   4   4   4   4   4
#     4  10  20  37  59  84 112 149 191 230 278 344
#     4  10  20  40  61  80 113 155 190 226 282 346
#     4  11  23  38  59  86 113 147 189 237 285 329
#     4  10  21  36  56  84 112 145 188 235 282 327
#     4  10  21  37  60  84 113 151 191 228 277 345
#     4   9  19  38  59  78 111 153 187 224 278 343
#
# _framework density 19.260869
#
# number of rings (size 3 to 8) (size 9 to 14) (size 15 to 20)
#    0.000    2.000    0.000    6.000    0.000    6.667 
#    0.000    2.500    0.000    0.000    0.000    0.000 
#    0.000    0.000    0.000    0.000    0.000    0.000 
#
# Total GULP energy -297531.574453 kJ/mol
# GULP energy per Si atom -12397.148936 kJ/mol
# Density = 1.921703 g / cm^3
# Si number density = 19.260869 Si / 1000 Ang^3
#
#
#
# Elastic Constant Matrix: (Units=GPa)
#
#
# Indices 1 2 3 4 5 6 
#
# 1 61.4547 18.7083 23.9677 0.0000 0.0000 0.0000
# 2 18.7083 115.5448 37.5540 0.0000 0.0000 0.0000
# 3 23.9677 37.5540 81.8263 0.0000 0.0000 0.0000
# 4 0.0000 0.0000 0.0000 38.6304 0.0000 0.0000
# 5 0.0000 0.0000 0.0000 0.0000 17.4551 0.0000
# 6 0.0000 0.0000 0.0000 0.0000 0.0000 24.8117
#
#
#
# Elastic Compliance Matrix: (Units=1/GPa)
#
#
# Indices 1 2 3 4 5 6 
#
# 1 0.018577 -0.001457 -0.004773 0.000000 0.000000 0.000000
# 2 -0.001457 0.010286 -0.004294 0.000000 0.000000 0.000000
# 3 -0.004773 -0.004294 0.015590 0.000000 0.000000 0.000000
# 4 0.000000 0.000000 0.000000 0.025886 0.000000 0.000000
# 5 0.000000 0.000000 0.000000 0.000000 0.057290 0.000000
# 6 0.000000 0.000000 0.000000 0.000000 0.000000 0.040304
#
#
# Mechanical properties :
#
#
# Convention : Reuss Voigt Hill
#
# Bulk Modulus (GPa) = 42.72459 46.58730 44.65594
# Shear Modulus (GPa) = 25.40883 28.08583 26.74733
#
# Velocity S-wave (km/s) = 3.63601 3.82276 3.73055
# Velocity P-wave (km/s) = 6.31329 6.61246 6.46461
#
# Compressibility (1/GPa) = 0.02340573
#
# Stress axis : x y z
#
# Youngs Moduli (GPa) = 53.82998 97.21790 64.14436
#
# Poissons Ratio (x) = 0.14161 0.30615
# Poissons Ratio (y) = 0.07841 0.27545
# Poissons Ratio (z) = 0.25692 0.41747
#
# Static dielectric constant tensor:
#      x y z
#    x 3.301140 0.000000 0.000000 
#    y 0.000000 3.829640 0.000000 
#    z 0.000000 0.000000 3.626340 
# 
# 
# High freq. dielectric constant tensor:
#      x y z
#    x 1.725110 0.000000 0.000000 
#    y 0.000000 1.766440 0.000000 
#    z 0.000000 0.000000 1.758510 
# 
# From -- ./inp_files/2605.got.cif
#   From: 2010.03.12/outbox.cif.g09.slc.cpg/sg30_2_cif.got.tgz:2605.got - 2010.04.14 01:38:02.
