data_PCOD8169268
_publ_section_title
;
Structure prediction by ZEFSAII (Michael W. Deem and Ramdas Pophale) SiO2 
 PCOD8169268
Probable space group: P C A 21
;
_chemical_formula_sum "Si O2"
_cell_formula_units_Z 28
_cell_length_a 15.426167
_cell_length_b 9.289372
_cell_length_c 8.443889
_cell_angle_alpha 90.000000
_cell_angle_beta 90.000000
_cell_angle_gamma 90.000000
_cell_volume 1210.004259
_symmetry_space_group_name_H-M "P C A 21"
_symmetry_group_IT_number 29
_symmetry_cell_setting 'orthorhombic'
loop_
_space_group_symop_operation_xyz
x,y,z
-x,-y,1/2+z
1/2-x,y,1/2+z
1/2+x,-y,z
loop_
_atom_site_type_symbol
_atom_site_label
_atom_site_fract_x
_atom_site_fract_y
_atom_site_fract_z
Si Si1 0.425293 0.104186 0.719220
Si Si2 0.474553 0.645252 0.750415
Si Si3 0.859425 0.148540 0.909457
Si Si4 0.939064 0.141250 0.477120
Si Si5 0.693592 0.221116 0.750551
Si Si6 0.155390 0.404747 0.173762
Si Si7 0.662916 0.535558 0.816569
O O1 0.508024 0.157067 0.815000
O O2 0.374262 0.240359 0.652676
O O3 0.367625 0.013157 0.843500
O O4 0.456946 0.005691 0.572247
O O5 0.447392 0.756856 0.891115
O O6 0.458745 0.718637 0.580813
O O7 0.417902 0.498408 0.766281
O O8 0.577344 0.622015 0.765329
O O9 0.795926 0.230675 0.784929
O O10 0.827252 0.137420 0.088818
O O11 0.841525 0.140079 0.408272
O O12 0.654303 0.379942 0.735998
O O13 0.247469 0.392293 0.261479
O O14 0.168705 0.478888 0.004784
#
# Coordination Sequence:
#
# PCOD8169268 Si02
#       7
#     4   4   4   4   4   4   4
#     4  11  27  46  71 110 150 188 250 311 371 447
#     4  11  26  47  75 105 143 194 247 301 378 434
#     4  11  25  46  73 105 144 195 249 298 372 448
#     4  11  25  47  72 106 143 199 244 300 376 448
#     4  12  23  46  77 103 144 198 249 300 362 459
#     4  12  28  48  71 113 148 191 246 311 374 437
#     4  12  28  44  77 108 148 189 249 315 365 439
#
# _framework density 23.140415000000001
#
# number of rings (size 3 to 8) (size 9 to 14) (size 15 to 20)
#    0.000    0.571    2.857    4.286   10.000    2.286 
#    0.000    0.000    0.000    0.000    0.000    0.000 
#    0.000    0.000    0.000    0.000    0.000    0.000 
#
# Total GULP energy -347241.854011 kJ/mol
# GULP energy per Si atom -12401.494786 kJ/mol
# Density = 2.308775 g / cm^3
# Si number density = 23.140415 Si / 1000 Ang^3
#
#
#
# Elastic Constant Matrix: (Units=GPa)
#
#
# Indices 1 2 3 4 5 6 
#
# 1 110.3348 26.2354 -2.0592 0.0000 0.0000 0.0000
# 2 26.2354 96.9960 1.2689 0.0000 0.0000 0.0000
# 3 -2.0592 1.2689 53.4466 0.0000 0.0000 0.0000
# 4 0.0000 0.0000 0.0000 35.4437 0.0000 0.0000
# 5 0.0000 0.0000 0.0000 0.0000 38.9030 0.0000
# 6 0.0000 0.0000 0.0000 0.0000 0.0000 30.8903
#
#
#
# Elastic Compliance Matrix: (Units=1/GPa)
#
#
# Indices 1 2 3 4 5 6 
#
# 1 0.009696 -0.002628 0.000436 0.000000 0.000000 0.000000
# 2 -0.002628 0.011025 -0.000363 0.000000 0.000000 0.000000
# 3 0.000436 -0.000363 0.018736 0.000000 0.000000 0.000000
# 4 0.000000 0.000000 0.000000 0.028214 0.000000 0.000000
# 5 0.000000 0.000000 0.000000 0.000000 0.025705 0.000000
# 6 0.000000 0.000000 0.000000 0.000000 0.000000 0.032373
#
#
# Mechanical properties :
#
#
# Convention : Reuss Voigt Hill
#
# Bulk Modulus (GPa) = 29.11493 34.62974 31.87233
# Shear Modulus (GPa) = 35.13491 36.73621 35.93556
#
# Velocity S-wave (km/s) = 3.90081 3.98871 3.94500
# Velocity P-wave (km/s) = 5.73564 6.01753 5.87827
#
# Compressibility (1/GPa) = 0.03434664
#
# Stress axis : x y z
#
# Youngs Moduli (GPa) = 103.13061 90.69982 53.37407
#
# Poissons Ratio (x) = 0.23839 -0.02327
# Poissons Ratio (y) = 0.27107 0.01938
# Poissons Ratio (z) = -0.04496 0.03293
#
# Static dielectric constant tensor:
#      x y z
#    x 4.405660 0.000000 0.000000 
#    y 0.000000 3.991090 0.000000 
#    z 0.000000 0.000000 4.115540 
# 
# 
# High freq. dielectric constant tensor:
#      x y z
#    x 1.926440 0.000000 0.000000 
#    y 0.000000 1.909700 0.000000 
#    z 0.000000 0.000000 1.922920 
# 
# From -- ./inp_files/1770.got.cif
#   From: 2010.03.12/outbox.cif.g09.slc.cpg/sg29_1_cif.got.tgz:1770.got - 2010.04.14 03:43:10.
