data_PCOD8169274
_publ_section_title
;
Structure prediction by ZEFSAII (Michael W. Deem and Ramdas Pophale) SiO2 
 PCOD8169274
Probable space group: P C A 21
;
_chemical_formula_sum "Si O2"
_cell_formula_units_Z 24
_cell_length_a 11.357513
_cell_length_b 10.494916
_cell_length_c 8.897497
_cell_angle_alpha 90.000000
_cell_angle_beta 90.000000
_cell_angle_gamma 90.000000
_cell_volume 1060.547342
_symmetry_space_group_name_H-M "P C A 21"
_symmetry_group_IT_number 29
_symmetry_cell_setting 'orthorhombic'
loop_
_space_group_symop_operation_xyz
x,y,z
-x,-y,1/2+z
1/2-x,y,1/2+z
1/2+x,-y,z
loop_
_atom_site_type_symbol
_atom_site_label
_atom_site_fract_x
_atom_site_fract_y
_atom_site_fract_z
Si Si1 0.635341 0.202281 0.569540
Si Si2 0.999297 0.742318 0.064997
Si Si3 0.788368 0.422291 0.450867
Si Si4 0.280692 0.400235 0.187350
Si Si5 0.097180 0.190348 0.256219
Si Si6 0.837851 0.088799 0.758936
O O1 0.676847 0.333077 0.489406
O O2 0.504549 0.219077 0.634139
O O3 0.716745 0.157391 0.709024
O O4 0.644705 0.097034 0.438360
O O5 0.906023 0.665223 0.163981
O O6 0.053644 0.844485 0.177118
O O7 0.949389 0.822023 0.925589
O O8 0.090944 0.642443 0.997649
O O9 0.774483 0.559285 0.529146
O O10 0.792481 0.464172 0.276427
O O11 0.191092 0.302819 0.262610
O O12 0.162569 0.059287 0.212574
#
# Coordination Sequence:
#
# PCOD8169274 Si02
#       6
#     4   4   4   4   4   4
#     4  11  25  49  73 102 141 192 235 295 366 418
#     4  11  26  48  68 109 138 191 238 290 360 416
#     4  11  25  47  71  97 143 184 236 288 354 428
#     4  12  27  43  72 106 139 184 235 293 349 429
#     4  12  27  44  72 106 144 187 232 302 354 425
#     4  11  26  45  76 100 143 186 240 294 355 440
#
# _framework density 22.629823999999999
#
# number of rings (size 3 to 8) (size 9 to 14) (size 15 to 20)
#    0.000    0.667    1.667    6.000   11.667    0.000 
#    0.000    0.000    0.000    0.000    0.000    0.000 
#    0.000    0.000    0.000    0.000    0.000    0.000 
#
# Total GULP energy -297707.425065 kJ/mol
# GULP energy per Si atom -12404.476044 kJ/mol
# Density = 2.257832 g / cm^3
# Si number density = 22.629824 Si / 1000 Ang^3
#
#
#
# Elastic Constant Matrix: (Units=GPa)
#
#
# Indices 1 2 3 4 5 6 
#
# 1 89.4211 41.2802 26.5041 0.0000 0.0000 0.0000
# 2 41.2802 104.2232 10.0475 0.0000 0.0000 0.0000
# 3 26.5041 10.0475 82.1507 0.0000 0.0000 0.0000
# 4 0.0000 0.0000 0.0000 43.2275 0.0000 0.0000
# 5 0.0000 0.0000 0.0000 0.0000 33.6821 0.0000
# 6 0.0000 0.0000 0.0000 0.0000 0.0000 30.3382
#
#
#
# Elastic Compliance Matrix: (Units=1/GPa)
#
#
# Indices 1 2 3 4 5 6 
#
# 1 0.014965 -0.005527 -0.004152 0.000000 0.000000 0.000000
# 2 -0.005527 0.011751 0.000346 0.000000 0.000000 0.000000
# 3 -0.004152 0.000346 0.013470 0.000000 0.000000 0.000000
# 4 0.000000 0.000000 0.000000 0.023133 0.000000 0.000000
# 5 0.000000 0.000000 0.000000 0.000000 0.029689 0.000000
# 6 0.000000 0.000000 0.000000 0.000000 0.000000 0.032962
#
#
# Mechanical properties :
#
#
# Convention : Reuss Voigt Hill
#
# Bulk Modulus (GPa) = 46.46980 47.93984 47.20482
# Shear Modulus (GPa) = 32.93592 34.64712 33.79152
#
# Velocity S-wave (km/s) = 3.81914 3.91709 3.86842
# Velocity P-wave (km/s) = 6.32670 6.45666 6.39201
#
# Compressibility (1/GPa) = 0.02151935
#
# Stress axis : x y z
#
# Youngs Moduli (GPa) = 66.82150 85.10234 74.23873
#
# Poissons Ratio (x) = 0.47037 0.30826
# Poissons Ratio (y) = 0.36933 -0.02569
# Poissons Ratio (z) = 0.27746 -0.02945
#
# Static dielectric constant tensor:
#      x y z
#    x 3.980770 0.000000 0.000000 
#    y 0.000000 4.038470 0.000000 
#    z 0.000000 0.000000 4.201060 
# 
# 
# High freq. dielectric constant tensor:
#      x y z
#    x 1.887800 0.000000 0.000000 
#    y 0.000000 1.901280 0.000000 
#    z 0.000000 0.000000 1.909120 
# 
# From -- ./inp_files/1392.got.cif
#   From: 2010.03.12/outbox.cif.g09.slc.cpg/sg29_1_cif.got.tgz:1392.got - 2010.04.14 03:43:10.
