data_PCOD8169903
_publ_section_title
;
Structure prediction by ZEFSAII (Michael W. Deem and Ramdas Pophale) SiO2 
 PCOD8169903
Probable space group: P M N 21
;
_chemical_formula_sum "Si O2"
_cell_formula_units_Z 32
_cell_length_a 9.053094
_cell_length_b 19.531327
_cell_length_c 9.884439
_cell_angle_alpha 90.000000
_cell_angle_beta 90.000000
_cell_angle_gamma 90.000000
_cell_volume 1747.756019
_symmetry_space_group_name_H-M "P M N 21"
_symmetry_group_IT_number 31
_symmetry_cell_setting 'orthorhombic'
loop_
_space_group_symop_operation_xyz
x,y,z
1/2-x,-y,1/2+z
-x,y,z
1/2+x,-y,1/2+z
loop_
_atom_site_type_symbol
_atom_site_label
_atom_site_fract_x
_atom_site_fract_y
_atom_site_fract_z
Si Si1 0.671432 0.308911 0.897130
Si Si2 0.828237 0.564938 0.065253
Si Si3 0.668126 0.466301 0.867795
Si Si4 0.324901 0.813427 0.904258
Si Si5 0.175725 0.295680 0.620443
Si Si6 0.674923 0.962839 0.856028
Si Si7 0.829283 0.217472 0.106789
Si Si8 0.669678 0.938596 0.554266
O O1 0.500000 0.293355 0.871857
O O2 0.698642 0.389374 0.917023
O O3 0.761512 0.281166 0.768774
O O4 0.727828 0.271658 0.030435
O O5 0.798982 0.527476 0.208059
O O6 0.736487 0.634625 0.056290
O O7 0.000000 0.583419 0.050364
O O8 0.779823 0.515906 0.944230
O O9 0.500000 0.487900 0.900205
O O10 0.500000 0.815905 0.898947
O O11 0.266578 0.891346 0.921344
O O12 0.271969 0.782188 0.761245
O O13 0.268090 0.766724 0.026756
O O14 0.000000 0.299762 0.626949
O O15 0.500000 0.965883 0.863795
O O16 0.726140 0.965809 0.699637
O O17 0.739179 0.027137 0.934579
O O18 0.807724 0.142627 0.042435
O O19 0.000000 0.240181 0.096418
O O20 0.500000 0.958290 0.534086
#
# Coordination Sequence:
#
# PCOD8169903 Si02
#       8
#     4   4   4   4   4   4   4   4
#     4  10  21  36  52  76 108 135 168 213 254 298
#     4  10  21  36  54  78 106 134 169 213 255 298
#     4   9  20  37  53  73 103 136 168 204 249 303
#     4   8  17  34  54  75  99 131 172 212 249 301
#     4  10  19  34  56  78 102 135 172 208 253 306
#     4   9  18  34  53  73 101 134 168 209 255 301
#     4   9  18  35  55  73  99 135 172 209 253 305
#     4   9  19  34  51  74 102 132 169 210 252 304
#
# _framework density 18.309191999999999
#
# number of rings (size 3 to 8) (size 9 to 14) (size 15 to 20)
#    0.000    2.750    0.000    3.375    0.000    6.000 
#    0.000   11.875    0.000    0.000    0.000    0.000 
#    0.000    0.000    0.000    0.000    0.000    0.000 
#
# Total GULP energy -396800.357206 kJ/mol
# GULP energy per Si atom -12400.011163 kJ/mol
# Density = 1.826752 g / cm^3
# Si number density = 18.309192 Si / 1000 Ang^3
#
#
#
# Elastic Constant Matrix: (Units=GPa)
#
#
# Indices 1 2 3 4 5 6 
#
# 1 50.9305 11.8685 10.7944 0.0000 0.0000 0.0000
# 2 11.8685 24.4069 1.4841 0.0000 0.0000 0.0000
# 3 10.7944 1.4841 28.4101 0.0000 0.0000 0.0000
# 4 0.0000 0.0000 0.0000 36.5338 0.0000 0.0000
# 5 0.0000 0.0000 0.0000 0.0000 27.5604 0.0000
# 6 0.0000 0.0000 0.0000 0.0000 0.0000 28.5444
#
#
#
# Elastic Compliance Matrix: (Units=1/GPa)
#
#
# Indices 1 2 3 4 5 6 
#
# 1 0.024052 -0.011176 -0.008555 0.000000 0.000000 0.000000
# 2 -0.011176 0.046295 0.001828 0.000000 0.000000 0.000000
# 3 -0.008555 0.001828 0.038354 0.000000 0.000000 0.000000
# 4 0.000000 0.000000 0.000000 0.027372 0.000000 0.000000
# 5 0.000000 0.000000 0.000000 0.000000 0.036284 0.000000
# 6 0.000000 0.000000 0.000000 0.000000 0.000000 0.035033
#
#
# Mechanical properties :
#
#
# Convention : Reuss Voigt Hill
#
# Bulk Modulus (GPa) = 13.71824 16.89351 15.30587
# Shear Modulus (GPa) = 18.69202 23.83444 21.26323
#
# Velocity S-wave (km/s) = 3.19863 3.61193 3.41154
# Velocity P-wave (km/s) = 4.59896 5.16154 4.88835
#
# Compressibility (1/GPa) = 0.07289567
#
# Stress axis : x y z
#
# Youngs Moduli (GPa) = 41.57646 21.60044 26.07317
#
# Poissons Ratio (x) = 0.24140 0.22305
# Poissons Ratio (y) = 0.46465 -0.04766
# Poissons Ratio (z) = 0.35568 -0.03948
#
# Static dielectric constant tensor:
#      x y z
#    x 3.198410 0.000000 0.000000 
#    y 0.000000 3.429510 0.000000 
#    z 0.000000 0.000000 3.413510 
# 
# 
# High freq. dielectric constant tensor:
#      x y z
#    x 1.699430 0.000000 0.000000 
#    y 0.000000 1.708710 0.000000 
#    z 0.000000 0.000000 1.712530 
# 
# From -- ./inp_files/1869.got.cif
#   From: 2010.03.12/outbox.cif.g09.slc.cpg/sg31_1_cif.got.tgz:1869.got - 2010.04.14 01:42:59.
