data_PCOD8169466
_publ_section_title
;
Structure prediction by ZEFSAII (Michael W. Deem and Ramdas Pophale) SiO2 
 PCOD8169466
Probable space group: P N C 2
;
_chemical_formula_sum "Si O2"
_cell_formula_units_Z 30
_cell_length_a 11.149743
_cell_length_b 20.570257
_cell_length_c 5.276870
_cell_angle_alpha 90.000000
_cell_angle_beta 90.000000
_cell_angle_gamma 90.000000
_cell_volume 1210.266382
_symmetry_space_group_name_H-M "P N C 2"
_symmetry_group_IT_number 30
_symmetry_cell_setting 'orthorhombic'
loop_
_space_group_symop_operation_xyz
x,y,z
-x,-y,z
-x,1/2+y,1/2+z
x,1/2-y,1/2+z
loop_
_atom_site_type_symbol
_atom_site_label
_atom_site_fract_x
_atom_site_fract_y
_atom_site_fract_z
Si Si1 0.659933 0.418386 0.359880
Si Si2 0.306351 0.289395 0.907562
Si Si3 0.429915 0.399269 0.660064
Si Si4 0.951284 0.217228 0.361787
Si Si5 0.893522 0.605552 0.911885
Si Si6 0.689272 0.272932 0.307824
Si Si7 0.500000 0.000000 0.500413
Si Si8 0.207080 0.452515 0.423875
O O1 0.569500 0.403053 0.589720
O O2 0.718189 0.349627 0.278949
O O3 0.572299 0.446185 0.149500
O O4 0.763773 0.470432 0.418568
O O5 0.312972 0.231148 0.701930
O O6 0.417190 0.335231 0.829849
O O7 0.186577 0.330470 0.869442
O O8 0.330520 0.408796 0.434821
O O9 0.400890 0.462212 0.833500
O O10 0.009172 0.256716 0.599164
O O11 0.974448 0.139284 0.402243
O O12 0.809138 0.230017 0.354830
O O13 0.867130 0.567820 0.173277
O O14 0.874983 0.558032 0.672486
O O15 0.615884 0.255836 0.566300
#
# Coordination Sequence:
#
# PCOD8169466 Si02
#       8
#     4   4   4   4   4   4   2   4
#     4  12  24  41  70  94 141 189 229 283 332 412
#     4  11  23  36  53  88 131 163 215 269 321 391
#     4  11  24  38  61  91 135 189 224 269 332 405
#     4  10  20  42  71  95 127 173 227 280 353 421
#     4  11  22  37  67  96 132 172 217 285 352 413
#     4  10  26  46  70 100 132 182 235 283 339 414
#     4  12  22  42  66  94 132 194 232 276 340 402
#     4  11  22  39  62 102 133 172 230 274 340 412
#
# _framework density 24.787932000000001
#
# number of rings (size 3 to 8) (size 9 to 14) (size 15 to 20)
#    0.000    1.067    2.667    4.800    3.733    1.067 
#    0.000    0.000    0.000   19.200    0.000    0.000 
#    0.000    0.000    0.000    0.000    0.000    0.000 
#
# Total GULP energy -371718.626372 kJ/mol
# GULP energy per Si atom -12390.620879 kJ/mol
# Density = 2.473151 g / cm^3
# Si number density = 24.787932 Si / 1000 Ang^3
#
#
#
# Elastic Constant Matrix: (Units=GPa)
#
#
# Indices 1 2 3 4 5 6 
#
# 1 38.7665 9.6872 4.2821 0.0000 0.0000 0.0000
# 2 9.6872 117.0486 30.3935 0.0000 0.0000 0.0000
# 3 4.2821 30.3935 167.0343 0.0000 0.0000 0.0000
# 4 0.0000 0.0000 0.0000 -16.7171 0.0000 0.0000
# 5 0.0000 0.0000 0.0000 0.0000 -25.6097 0.0000
# 6 0.0000 0.0000 0.0000 0.0000 0.0000 44.3583
#
#
#
# Elastic Compliance Matrix: (Units=1/GPa)
#
#
# Indices 1 2 3 4 5 6 
#
# 1 0.026354 -0.002105 -0.000293 0.000000 0.000000 0.000000
# 2 -0.002105 0.009135 -0.001608 0.000000 0.000000 0.000000
# 3 -0.000293 -0.001608 0.006287 0.000000 0.000000 0.000000
# 4 0.000000 0.000000 0.000000 -0.059819 0.000000 0.000000
# 5 0.000000 0.000000 0.000000 0.000000 -0.039048 0.000000
# 6 0.000000 0.000000 0.000000 0.000000 0.000000 0.022544
#
#
# Mechanical properties :
#
#
# Convention : Reuss Voigt Hill
#
# Bulk Modulus (GPa) = 29.61723 45.73055 37.67389
# Shear Modulus (GPa) = -327.21765 18.97208 -154.12278
#
# Velocity S-wave (km/s) = -11.50189 2.76954 -7.89376
# Velocity P-wave (km/s) = 12.82252 5.35872 8.23714
#
# Compressibility (1/GPa) = 0.03376413
#
# Stress axis : x y z
#
# Youngs Moduli (GPa) = 37.94511 109.46541 159.05992
#
# Poissons Ratio (x) = 0.23044 0.04653
# Poissons Ratio (y) = 0.07988 0.25581
# Poissons Ratio (z) = 0.01110 0.17605
#
# Static dielectric constant tensor:
#      x y z
#    x 4.648020 0.000000 0.000000 
#    y 0.000000 4.646360 0.000000 
#    z 0.000000 0.000000 5.511110 
# 
# 
# High freq. dielectric constant tensor:
#      x y z
#    x 1.951960 0.000000 0.000000 
#    y 0.000000 1.988540 0.000000 
#    z 0.000000 0.000000 2.007120 
# 
# From -- ./inp_files/800.got.cif
#   From: 2010.03.12/outbox.cif.g09.slc.cpg/sg30_1_cif.got.tgz:800.got - 2010.04.14 01:38:02.
