data_PCOD8169431
_publ_section_title
;
Structure prediction by ZEFSAII (Michael W. Deem and Ramdas Pophale) SiO2 
 PCOD8169431
Probable space group: P N C 2
;
_chemical_formula_sum "Si O2"
_cell_formula_units_Z 30
_cell_length_a 12.478862
_cell_length_b 7.685715
_cell_length_c 15.156782
_cell_angle_alpha 90.000000
_cell_angle_beta 90.000000
_cell_angle_gamma 90.000000
_cell_volume 1453.671454
_symmetry_space_group_name_H-M "P N C 2"
_symmetry_group_IT_number 30
_symmetry_cell_setting 'orthorhombic'
loop_
_space_group_symop_operation_xyz
x,y,z
-x,-y,z
-x,1/2+y,1/2+z
x,1/2-y,1/2+z
loop_
_atom_site_type_symbol
_atom_site_label
_atom_site_fract_x
_atom_site_fract_y
_atom_site_fract_z
Si Si1 0.620474 0.554708 0.455800
Si Si2 0.373806 0.961190 0.276458
Si Si3 0.380528 0.946574 0.764884
Si Si4 0.000000 0.000000 0.587502
Si Si5 0.735464 0.878067 0.445505
Si Si6 0.242636 0.533606 0.609754
Si Si7 0.779416 0.072843 0.620152
Si Si8 0.926995 0.662606 0.504876
O O1 0.500000 0.500000 0.469240
O O2 0.657576 0.537922 0.354453
O O3 0.637111 0.757763 0.480062
O O4 0.690902 0.436321 0.519868
O O5 0.366163 0.756018 0.279052
O O6 0.322026 0.039706 0.186435
O O7 0.500000 0.000000 0.285307
O O8 0.299584 0.035007 0.354396
O O9 0.308416 0.012197 0.683831
O O10 0.500000 0.000000 0.739648
O O11 0.106436 0.011283 0.646551
O O12 0.006407 0.821342 0.529797
O O13 0.839922 0.747538 0.436250
O O14 0.755575 0.026766 0.518073
O O15 0.204769 0.723617 0.637525
O O16 0.141329 0.407254 0.590272
O O17 0.000000 0.500000 0.467711
#
# Coordination Sequence:
#
# PCOD8169431 Si02
#       8
#     4   4   4   2   4   4   4   4
#     4  10  20  36  57  87 122 161 201 253 316 376
#     4  11  22  38  61  91 130 169 210 265 320 392
#     4  10  22  37  60  88 129 168 208 268 324 386
#     4  10  20  36  66  92 120 166 206 272 314 382
#     4  10  23  36  61  93 123 171 212 270 313 395
#     4  10  21  37  65  88 124 164 208 265 318 385
#     4  10  21  38  61  90 120 163 218 259 325 380
#     4  10  20  40  68  90 126 167 217 273 329 374
#
# _framework density 20.6374
#
# number of rings (size 3 to 8) (size 9 to 14) (size 15 to 20)
#    0.000    1.867    1.333    2.800    0.000    9.067 
#    0.000    0.000   19.067    0.000    0.000    0.000 
#    0.000    0.000    0.000    0.000    0.000    0.000 
#
# Total GULP energy -371674.810087 kJ/mol
# GULP energy per Si atom -12389.160336 kJ/mol
# Density = 2.059043 g / cm^3
# Si number density = 20.637400 Si / 1000 Ang^3
#
#
#
# Elastic Constant Matrix: (Units=GPa)
#
#
# Indices 1 2 3 4 5 6 
#
# 1 134.6080 45.8975 76.4796 0.0000 0.0000 0.0000
# 2 45.8975 101.2531 16.5909 0.0000 0.0000 0.0000
# 3 76.4796 16.5909 100.9453 0.0000 0.0000 0.0000
# 4 0.0000 0.0000 0.0000 62.4916 0.0000 0.0000
# 5 0.0000 0.0000 0.0000 0.0000 22.6089 0.0000
# 6 0.0000 0.0000 0.0000 0.0000 0.0000 37.4265
#
#
#
# Elastic Compliance Matrix: (Units=1/GPa)
#
#
# Indices 1 2 3 4 5 6 
#
# 1 0.015293 -0.005173 -0.010736 0.000000 0.000000 0.000000
# 2 -0.005173 0.011899 0.001963 0.000000 0.000000 0.000000
# 3 -0.010736 0.001963 0.017718 0.000000 0.000000 0.000000
# 4 0.000000 0.000000 0.000000 0.016002 0.000000 0.000000
# 5 0.000000 0.000000 0.000000 0.000000 0.044230 0.000000
# 6 0.000000 0.000000 0.000000 0.000000 0.000000 0.026719
#
#
# Mechanical properties :
#
#
# Convention : Reuss Voigt Hill
#
# Bulk Modulus (GPa) = 58.75902 68.30471 63.53187
# Shear Modulus (GPa) = 30.22517 37.69464 33.95991
#
# Velocity S-wave (km/s) = 3.83114 4.27842 4.06094
# Velocity P-wave (km/s) = 6.93571 7.58788 7.26911
#
# Compressibility (1/GPa) = 0.01701866
#
# Stress axis : x y z
#
# Youngs Moduli (GPa) = 65.39095 84.03807 56.44096
#
# Poissons Ratio (x) = 0.43472 0.60595
# Poissons Ratio (y) = 0.33826 -0.11082
# Poissons Ratio (z) = 0.70204 -0.16500
#
# Static dielectric constant tensor:
#      x y z
#    x 3.790410 0.000000 0.000000 
#    y 0.000000 3.946320 0.000000 
#    z 0.000000 0.000000 3.704090 
# 
# 
# High freq. dielectric constant tensor:
#      x y z
#    x 1.815880 0.000000 0.000000 
#    y 0.000000 1.823620 0.000000 
#    z 0.000000 0.000000 1.777480 
# 
# From -- ./inp_files/5475.got.cif
#   From: 2010.03.12/outbox.cif.g09.slc.cpg/sg30_3_cif.got.tgz:5475.got - 2010.04.14 01:38:02.
