data_PCOD8169751
_publ_section_title
;
Structure prediction by ZEFSAII (Michael W. Deem and Ramdas Pophale) SiO2 
 PCOD8169751
Probable space group: P M N 21
;
_chemical_formula_sum "Si O2"
_cell_formula_units_Z 32
_cell_length_a 8.595286
_cell_length_b 7.757195
_cell_length_c 24.097607
_cell_angle_alpha 90.000000
_cell_angle_beta 90.000000
_cell_angle_gamma 90.000000
_cell_volume 1606.715407
_symmetry_space_group_name_H-M "P M N 21"
_symmetry_group_IT_number 31
_symmetry_cell_setting 'orthorhombic'
loop_
_space_group_symop_operation_xyz
x,y,z
1/2-x,-y,1/2+z
-x,y,z
1/2+x,-y,1/2+z
loop_
_atom_site_type_symbol
_atom_site_label
_atom_site_fract_x
_atom_site_fract_y
_atom_site_fract_z
Si Si1 0.183720 0.542798 0.294470
Si Si2 0.182739 0.952910 0.572668
Si Si3 0.314502 0.740310 0.995204
Si Si4 0.683101 0.919419 0.299587
Si Si5 0.684137 0.775678 0.870174
Si Si6 0.182240 0.932684 0.183027
Si Si7 0.318510 0.423945 0.063364
Si Si8 0.816144 0.438354 0.678807
O O1 0.234401 0.399682 0.339103
O O2 0.255559 0.479918 0.236040
O O3 0.000000 0.554526 0.288349
O O4 0.244395 0.731365 0.312084
O O5 0.220113 0.769413 0.543364
O O6 0.000000 0.975893 0.583964
O O7 0.247362 0.100069 0.531991
O O8 0.268235 0.948364 0.631803
O O9 0.500000 0.739845 0.994529
O O10 0.243151 0.565088 0.022043
O O11 0.252749 0.757796 0.932793
O O12 0.500000 0.898247 0.301024
O O13 0.736455 0.054958 0.345525
O O14 0.734683 0.992274 0.239684
O O15 0.500000 0.801882 0.867305
O O16 0.233196 0.741538 0.167427
O O17 0.000000 0.944354 0.193407
O O18 0.500000 0.461585 0.061558
O O19 0.264923 0.442614 0.127361
O O20 0.000000 0.408719 0.682677
#
# Coordination Sequence:
#
# PCOD8169751 Si02
#       8
#     4   4   4   4   4   4   4   4
#     4  10  21  37  57  86 121 152 192 241 295 350
#     4  10  19  34  58  86 115 151 191 236 287 342
#     4   9  18  36  59  84 115 149 193 239 283 339
#     4  11  23  39  60  85 117 157 199 242 292 350
#     4  10  22  39  62  89 117 155 198 244 293 347
#     4  11  21  35  56  84 119 153 190 238 295 348
#     4   9  18  31  54  87 112 141 188 235 280 337
#     4  10  18  33  56  83 116 150 189 233 285 347
#
# _framework density 19.916408000000001
#
# number of rings (size 3 to 8) (size 9 to 14) (size 15 to 20)
#    0.000    2.000    1.250    4.500    1.750    2.000 
#    0.000    5.000    0.000    0.000    0.000    0.000 
#    0.000    0.000    0.000    0.000    0.000    0.000 
#
# Total GULP energy -396752.954863 kJ/mol
# GULP energy per Si atom -12398.529839 kJ/mol
# Density = 1.987108 g / cm^3
# Si number density = 19.916408 Si / 1000 Ang^3
#
#
#
# Elastic Constant Matrix: (Units=GPa)
#
#
# Indices 1 2 3 4 5 6 
#
# 1 91.4692 30.1861 35.8700 0.0000 0.0000 0.0000
# 2 30.1861 117.1774 75.4030 0.0000 0.0000 0.0000
# 3 35.8700 75.4030 147.1331 0.0000 0.0000 0.0000
# 4 0.0000 0.0000 0.0000 29.6271 0.0000 0.0000
# 5 0.0000 0.0000 0.0000 0.0000 24.2904 0.0000
# 6 0.0000 0.0000 0.0000 0.0000 0.0000 2.3211
#
#
#
# Elastic Compliance Matrix: (Units=1/GPa)
#
#
# Indices 1 2 3 4 5 6 
#
# 1 0.012353 -0.001857 -0.002060 0.000000 0.000000 0.000000
# 2 -0.001857 0.013012 -0.006216 0.000000 0.000000 0.000000
# 3 -0.002060 -0.006216 0.010484 0.000000 0.000000 0.000000
# 4 0.000000 0.000000 0.000000 0.033753 0.000000 0.000000
# 5 0.000000 0.000000 0.000000 0.000000 0.041168 0.000000
# 6 0.000000 0.000000 0.000000 0.000000 0.000000 0.430838
#
#
# Mechanical properties :
#
#
# Convention : Reuss Voigt Hill
#
# Bulk Modulus (GPa) = 64.16637 70.96644 67.56640
# Shear Modulus (GPa) = 8.81727 25.53575 17.17651
#
# Velocity S-wave (km/s) = 2.10636 3.58459 2.93990
# Velocity P-wave (km/s) = 6.18089 7.26924 6.74705
#
# Compressibility (1/GPa) = 0.01558449
#
# Stress axis : x y z
#
# Youngs Moduli (GPa) = 80.95040 76.85049 95.38014
#
# Poissons Ratio (x) = 0.14268 0.19650
# Poissons Ratio (y) = 0.15030 0.59288
# Poissons Ratio (z) = 0.16677 0.47770
#
# Static dielectric constant tensor:
#      x y z
#    x 3.390330 0.000000 0.000000 
#    y 0.000000 3.680560 0.000000 
#    z 0.000000 0.000000 3.804770 
# 
# 
# High freq. dielectric constant tensor:
#      x y z
#    x 1.751130 0.000000 0.000000 
#    y 0.000000 1.784120 0.000000 
#    z 0.000000 0.000000 1.776710 
# 
# From -- ./inp_files/6474.got.cif
#   From: 2010.03.12/outbox.cif.g09.slc.cpg/sg31_4_cif.got.tgz:6474.got - 2010.04.14 01:42:59.
