data_PCOD8169284
_publ_section_title
;
Structure prediction by ZEFSAII (Michael W. Deem and Ramdas Pophale) SiO2 
 PCOD8169284
Probable space group: P C A 21
;
_chemical_formula_sum "Si O2"
_cell_formula_units_Z 20
_cell_length_a 14.725226
_cell_length_b 5.193446
_cell_length_c 9.560272
_cell_angle_alpha 90.000000
_cell_angle_beta 90.000000
_cell_angle_gamma 90.000000
_cell_volume 731.118609
_symmetry_space_group_name_H-M "P C A 21"
_symmetry_group_IT_number 29
_symmetry_cell_setting 'orthorhombic'
loop_
_space_group_symop_operation_xyz
x,y,z
-x,-y,1/2+z
1/2-x,y,1/2+z
1/2+x,-y,z
loop_
_atom_site_type_symbol
_atom_site_label
_atom_site_fract_x
_atom_site_fract_y
_atom_site_fract_z
Si Si1 0.072824 0.020236 0.042300
Si Si2 0.835680 0.504310 0.917455
Si Si3 0.745468 0.770646 0.173857
Si Si4 0.114183 0.848371 0.644412
Si Si5 0.043914 0.530995 0.875963
O O1 0.150857 0.080700 0.153197
O O2 0.978675 0.992879 0.126435
O O3 0.066309 0.244919 0.925884
O O4 0.092754 0.742822 0.974564
O O5 0.771602 0.527986 0.778958
O O6 0.936695 0.589752 0.872862
O O7 0.789201 0.695789 0.026829
O O8 0.841599 0.224659 0.992254
O O9 0.816083 0.981232 0.236307
O O10 0.087573 0.577776 0.721841
#
# Coordination Sequence:
#
# PCOD8169284 Si02
#       5
#     4   4   4   4   4
#     4  11  26  47  79 113 157 216 263 345 404 492
#     4  11  27  47  77 115 155 217 265 338 404 489
#     4  12  26  50  77 116 159 206 281 328 416 484
#     4  11  26  49  78 117 162 212 275 342 412 494
#     4  11  25  51  77 113 161 211 268 333 418 479
#
# _framework density 27.355343999999999
#
# number of rings (size 3 to 8) (size 9 to 14) (size 15 to 20)
#    0.000    0.800    4.000    1.200    8.400    1.600 
#    0.000    0.000    0.000    0.000    0.000    0.000 
#    0.000    0.000    0.000    0.000    0.000    0.000 
#
# Total GULP energy -247962.721731 kJ/mol
# GULP energy per Si atom -12398.136087 kJ/mol
# Density = 2.729308 g / cm^3
# Si number density = 27.355344 Si / 1000 Ang^3
#
#
#
# Elastic Constant Matrix: (Units=GPa)
#
#
# Indices 1 2 3 4 5 6 
#
# 1 154.1586 24.9473 48.1937 0.0000 0.0000 0.0000
# 2 24.9473 50.4090 1.8116 0.0000 0.0000 0.0000
# 3 48.1937 1.8116 91.1110 0.0000 0.0000 0.0000
# 4 0.0000 0.0000 0.0000 45.4146 0.0000 0.0000
# 5 0.0000 0.0000 0.0000 0.0000 28.8065 0.0000
# 6 0.0000 0.0000 0.0000 0.0000 0.0000 36.7626
#
#
#
# Elastic Compliance Matrix: (Units=1/GPa)
#
#
# Indices 1 2 3 4 5 6 
#
# 1 0.008529 -0.004062 -0.004431 0.000000 0.000000 0.000000
# 2 -0.004062 0.021786 0.001715 0.000000 0.000000 0.000000
# 3 -0.004431 0.001715 0.013285 0.000000 0.000000 0.000000
# 4 0.000000 0.000000 0.000000 0.022019 0.000000 0.000000
# 5 0.000000 0.000000 0.000000 0.000000 0.034714 0.000000
# 6 0.000000 0.000000 0.000000 0.000000 0.000000 0.027202
#
#
# Mechanical properties :
#
#
# Convention : Reuss Voigt Hill
#
# Bulk Modulus (GPa) = 33.28218 49.50931 41.39575
# Shear Modulus (GPa) = 33.08925 36.91181 35.00053
#
# Velocity S-wave (km/s) = 3.48172 3.67733 3.58086
# Velocity P-wave (km/s) = 5.32505 6.01400 5.67998
#
# Compressibility (1/GPa) = 0.03004611
#
# Stress axis : x y z
#
# Youngs Moduli (GPa) = 117.24203 45.90036 75.27142
#
# Poissons Ratio (x) = 0.18644 0.33352
# Poissons Ratio (y) = 0.47623 -0.12912
# Poissons Ratio (z) = 0.51949 -0.07874
#
# Static dielectric constant tensor:
#      x y z
#    x 5.431110 0.000000 0.000000 
#    y 0.000000 4.546330 0.000000 
#    z 0.000000 0.000000 4.872830 
# 
# 
# High freq. dielectric constant tensor:
#      x y z
#    x 2.127280 0.000000 0.000000 
#    y 0.000000 2.089240 0.000000 
#    z 0.000000 0.000000 2.091360 
# 
# From -- ./inp_files/3367.got.cif
#   From: 2010.03.12/outbox.cif.g09.slc.cpg/sg29_2_cif.got.tgz:3367.got - 2010.04.14 03:43:10.
