data_PCOD8169152
_publ_section_title
;
Structure prediction by ZEFSAII (Michael W. Deem and Ramdas Pophale) SiO2 
 PCOD8169152
Probable space group: P C A 21
;
_chemical_formula_sum "Si O2"
_cell_formula_units_Z 20
_cell_length_a 14.003142
_cell_length_b 8.166210
_cell_length_c 7.740839
_cell_angle_alpha 90.000000
_cell_angle_beta 90.000000
_cell_angle_gamma 90.000000
_cell_volume 885.185052
_symmetry_space_group_name_H-M "P C A 21"
_symmetry_group_IT_number 29
_symmetry_cell_setting 'orthorhombic'
loop_
_space_group_symop_operation_xyz
x,y,z
-x,-y,1/2+z
1/2-x,y,1/2+z
1/2+x,-y,z
loop_
_atom_site_type_symbol
_atom_site_label
_atom_site_fract_x
_atom_site_fract_y
_atom_site_fract_z
Si Si1 0.144649 0.196357 0.938290
Si Si2 0.150870 0.559685 0.058013
Si Si3 0.561430 0.235133 0.357152
Si Si4 0.158619 0.704150 0.688399
Si Si5 0.286280 0.006440 0.742643
O O1 0.239291 0.173865 0.818805
O O2 0.046727 0.172836 0.830631
O O3 0.139701 0.366877 0.037913
O O4 0.153344 0.047895 0.073065
O O5 0.082822 0.632756 0.207307
O O6 0.259562 0.588136 0.111408
O O7 0.123860 0.643442 0.875438
O O8 0.571543 0.310552 0.551058
O O9 0.637001 0.085702 0.361994
O O10 0.197591 0.888260 0.702653
#
# Coordination Sequence:
#
# PCOD8169152 Si02
#       5
#     4   4   4   4   4
#     4  12  27  44  73 110 138 185 244 300 342 424
#     4  11  23  45  72 102 142 186 236 286 354 421
#     4  11  26  46  71 102 145 191 234 286 365 418
#     4  11  21  47  74  93 146 193 223 287 368 415
#     4  11  23  48  70 101 141 187 235 295 351 418
#
# _framework density 22.594145999999999
#
# number of rings (size 3 to 8) (size 9 to 14) (size 15 to 20)
#    0.000    0.800    6.000    2.400    5.600    0.000 
#    3.600    0.000    0.000    0.000    0.000    0.000 
#    0.000    0.000    0.000    0.000    0.000    0.000 
#
# Total GULP energy -247925.226216 kJ/mol
# GULP energy per Si atom -12396.261311 kJ/mol
# Density = 2.254272 g / cm^3
# Si number density = 22.594146 Si / 1000 Ang^3
#
#
#
# Elastic Constant Matrix: (Units=GPa)
#
#
# Indices 1 2 3 4 5 6 
#
# 1 93.9570 28.8426 21.8374 0.0000 0.0000 0.0000
# 2 28.8426 83.6670 29.1726 0.0000 0.0000 0.0000
# 3 21.8374 29.1726 133.1838 0.0000 0.0000 0.0000
# 4 0.0000 0.0000 0.0000 28.1595 0.0000 0.0000
# 5 0.0000 0.0000 0.0000 0.0000 28.2307 0.0000
# 6 0.0000 0.0000 0.0000 0.0000 0.0000 16.5922
#
#
#
# Elastic Compliance Matrix: (Units=1/GPa)
#
#
# Indices 1 2 3 4 5 6 
#
# 1 0.012065 -0.003756 -0.001155 0.000000 0.000000 0.000000
# 2 -0.003756 0.014110 -0.002475 0.000000 0.000000 0.000000
# 3 -0.001155 -0.002475 0.008240 0.000000 0.000000 0.000000
# 4 0.000000 0.000000 0.000000 0.035512 0.000000 0.000000
# 5 0.000000 0.000000 0.000000 0.000000 0.035422 0.000000
# 6 0.000000 0.000000 0.000000 0.000000 0.000000 0.060269
#
#
# Mechanical properties :
#
#
# Convention : Reuss Voigt Hill
#
# Bulk Modulus (GPa) = 50.91181 52.27925 51.59553
# Shear Modulus (GPa) = 26.74677 29.99349 28.37013
#
# Velocity S-wave (km/s) = 3.44436 3.64743 3.54735
# Velocity P-wave (km/s) = 6.19679 6.39742 6.29790
#
# Compressibility (1/GPa) = 0.01964181
#
# Stress axis : x y z
#
# Youngs Moduli (GPa) = 82.88578 70.87209 121.36011
#
# Poissons Ratio (x) = 0.26621 0.14022
# Poissons Ratio (y) = 0.31134 0.30034
# Poissons Ratio (z) = 0.09577 0.17539
#
# Static dielectric constant tensor:
#      x y z
#    x 3.961480 0.000000 0.000000 
#    y 0.000000 3.995250 0.000000 
#    z 0.000000 0.000000 4.362970 
# 
# 
# High freq. dielectric constant tensor:
#      x y z
#    x 1.877620 0.000000 0.000000 
#    y 0.000000 1.883430 0.000000 
#    z 0.000000 0.000000 1.905370 
# 
# From -- ./inp_files/1333.got.cif
#   From: 2010.03.12/outbox.cif.g09.slc.cpg/sg29_1_cif.got.tgz:1333.got - 2010.04.14 03:43:10.
