data_PCOD8169491
_publ_section_title
;
Structure prediction by ZEFSAII (Michael W. Deem and Ramdas Pophale) SiO2 
 PCOD8169491
Probable space group: P N C 2
;
_chemical_formula_sum "Si O2"
_cell_formula_units_Z 28
_cell_length_a 12.912626
_cell_length_b 5.031301
_cell_length_c 22.461132
_cell_angle_alpha 90.000000
_cell_angle_beta 90.000000
_cell_angle_gamma 90.000000
_cell_volume 1459.239283
_symmetry_space_group_name_H-M "P N C 2"
_symmetry_group_IT_number 30
_symmetry_cell_setting 'orthorhombic'
loop_
_space_group_symop_operation_xyz
x,y,z
-x,-y,z
-x,1/2+y,1/2+z
x,1/2-y,1/2+z
loop_
_atom_site_type_symbol
_atom_site_label
_atom_site_fract_x
_atom_site_fract_y
_atom_site_fract_z
Si Si1 0.307430 0.593120 0.362430
Si Si2 0.381886 0.418038 0.657869
Si Si3 0.881697 0.000320 0.936175
Si Si4 0.565747 0.250003 0.476789
Si Si5 0.618112 0.918012 0.295708
Si Si6 0.692574 0.093097 0.591145
Si Si7 0.118303 0.999697 0.517395
O O1 0.189711 0.506811 0.377326
O O2 0.365301 0.637471 0.424131
O O3 0.365388 0.364143 0.326468
O O4 0.306276 0.860730 0.323527
O O5 0.500000 0.500000 0.647709
O O6 0.354168 0.387458 0.726788
O O7 0.306278 0.639332 0.630061
O O8 0.365380 0.135917 0.627096
O O9 0.854688 0.750023 0.976790
O O10 0.856853 0.250025 0.976780
O O11 0.000000 0.000000 0.913700
O O12 0.500000 0.500000 0.501447
O O13 0.634706 0.137501 0.529446
O O14 0.500000 0.000000 0.452133
O O15 0.500000 0.000000 0.305872
O O16 0.810294 0.006816 0.576246
O O17 0.000000 0.000000 0.539870
#
# Coordination Sequence:
#
# PCOD8169491 Si02
#       7
#     4   4   4   4   4   4   4
#     4  12  22  38  61  85 118 153 190 243 289 344
#     4  11  24  41  59  82 115 161 206 234 273 339
#     4  10  21  38  59  86 118 151 189 231 289 359
#     4  12  24  34  54  88 124 150 178 232 304 354
#     4  11  24  41  59  82 115 161 206 234 273 339
#     4  12  22  38  61  85 118 153 190 243 289 344
#     4  10  21  38  59  86 118 151 189 231 289 359
#
# _framework density 19.188078999999998
#
# number of rings (size 3 to 8) (size 9 to 14) (size 15 to 20)
#    0.000    0.857    1.429    7.714    2.000    2.286 
#    0.000    0.000    0.000    5.143    0.000    0.000 
#    0.000    0.000    0.000    0.000    0.000    0.000 
#
# Total GULP energy -347376.440113 kJ/mol
# GULP energy per Si atom -12406.301433 kJ/mol
# Density = 1.914441 g / cm^3
# Si number density = 19.188079 Si / 1000 Ang^3
#
#
#
# Elastic Constant Matrix: (Units=GPa)
#
#
# Indices 1 2 3 4 5 6 
#
# 1 86.9905 15.8621 46.2971 0.0000 0.0000 0.0000
# 2 15.8621 120.9288 41.5356 0.0000 0.0000 0.0000
# 3 46.2971 41.5356 124.6002 0.0000 0.0000 0.0000
# 4 0.0000 0.0000 0.0000 29.9755 0.0000 0.0000
# 5 0.0000 0.0000 0.0000 0.0000 27.4266 0.0000
# 6 0.0000 0.0000 0.0000 0.0000 0.0000 30.9049
#
#
#
# Elastic Compliance Matrix: (Units=1/GPa)
#
#
# Indices 1 2 3 4 5 6 
#
# 1 0.014329 -0.000057 -0.005305 0.000000 0.000000 0.000000
# 2 -0.000057 0.009339 -0.003092 0.000000 0.000000 0.000000
# 3 -0.005305 -0.003092 0.011028 0.000000 0.000000 0.000000
# 4 0.000000 0.000000 0.000000 0.033361 0.000000 0.000000
# 5 0.000000 0.000000 0.000000 0.000000 0.036461 0.000000
# 6 0.000000 0.000000 0.000000 0.000000 0.000000 0.032357
#
#
# Mechanical properties :
#
#
# Convention : Reuss Voigt Hill
#
# Bulk Modulus (GPa) = 56.22065 59.98990 58.10528
# Shear Modulus (GPa) = 31.30627 32.91637 32.11132
#
# Velocity S-wave (km/s) = 4.04362 4.14630 4.09529
# Velocity P-wave (km/s) = 7.15294 7.36576 7.26013
#
# Compressibility (1/GPa) = 0.01778706
#
# Stress axis : x y z
#
# Youngs Moduli (GPa) = 69.78642 107.08022 90.68208
#
# Poissons Ratio (x) = 0.00615 0.48109
# Poissons Ratio (y) = 0.00401 0.28037
# Poissons Ratio (z) = 0.37023 0.33107
#
# Static dielectric constant tensor:
#      x y z
#    x 6.817300 0.000000 0.000000 
#    y 0.000000 3.779110 0.000000 
#    z 0.000000 0.000000 3.513260 
# 
# 
# High freq. dielectric constant tensor:
#      x y z
#    x 1.736730 0.000000 0.000000 
#    y 0.000000 1.773900 0.000000 
#    z 0.000000 0.000000 1.736320 
# 
# From -- ./inp_files/7034.got.cif
#   From: 2010.03.12/outbox.cif.g09.slc.cpg/sg30_4_cif.got.tgz:7034.got - 2010.04.14 01:38:02.
