data_PCOD8169621
_publ_section_title
;
Structure prediction by ZEFSAII (Michael W. Deem and Ramdas Pophale) SiO2 
 PCOD8169621
Probable space group: P N C 2
;
_chemical_formula_sum "Si O2"
_cell_formula_units_Z 18
_cell_length_a 6.748876
_cell_length_b 10.599841
_cell_length_c 13.781527
_cell_angle_alpha 90.000000
_cell_angle_beta 90.000000
_cell_angle_gamma 90.000000
_cell_volume 985.889270
_symmetry_space_group_name_H-M "P N C 2"
_symmetry_group_IT_number 30
_symmetry_cell_setting 'orthorhombic'
loop_
_space_group_symop_operation_xyz
x,y,z
-x,-y,z
-x,1/2+y,1/2+z
x,1/2-y,1/2+z
loop_
_atom_site_type_symbol
_atom_site_label
_atom_site_fract_x
_atom_site_fract_y
_atom_site_fract_z
Si Si1 0.603720 0.866415 0.619830
Si Si2 0.066458 0.136045 0.781511
Si Si3 0.208855 0.733846 0.635102
Si Si4 0.102583 0.264970 0.486337
Si Si5 0.000000 0.000000 0.089698
O O1 0.737419 0.870761 0.715969
O O2 0.442563 0.755848 0.633317
O O3 0.730839 0.831273 0.524812
O O4 0.500000 0.000000 0.601516
O O5 0.104947 0.232535 0.870019
O O6 0.880431 0.184037 0.721172
O O7 0.000000 0.000000 0.822003
O O8 0.110804 0.777671 0.531611
O O9 0.150481 0.586369 0.653813
O O10 0.140559 0.407997 0.525342
#
# Coordination Sequence:
#
# PCOD8169621 Si02
#       5
#     4   4   4   4   2
#     4  11  22  37  62  92 121 156 196 254 302 355
#     4  11  19  38  62  89 115 157 212 242 292 357
#     4   9  20  37  57  84 120 154 194 250 301 342
#     4   9  21  38  60  86 116 157 202 244 300 352
#     4   8  18  40  56  76 116 162 188 240 294 348
#
# _framework density 18.257629000000001
#
# number of rings (size 3 to 8) (size 9 to 14) (size 15 to 20)
#    1.333    0.889    3.333    0.000    0.000    2.667 
#    4.000    4.444    0.000    0.000    0.000    0.000 
#    0.000    0.000    0.000    0.000    0.000    0.000 
#
# Total GULP energy -222994.478710 kJ/mol
# GULP energy per Si atom -12388.582151 kJ/mol
# Density = 1.821607 g / cm^3
# Si number density = 18.257629 Si / 1000 Ang^3
#
#
#
# Elastic Constant Matrix: (Units=GPa)
#
#
# Indices 1 2 3 4 5 6 
#
# 1 103.3980 19.2616 37.9174 0.0000 0.0000 0.0000
# 2 19.2616 50.6563 23.4388 0.0000 0.0000 0.0000
# 3 37.9174 23.4388 121.9310 0.0000 0.0000 0.0000
# 4 0.0000 0.0000 0.0000 26.6481 0.0000 0.0000
# 5 0.0000 0.0000 0.0000 0.0000 5.2842 0.0000
# 6 0.0000 0.0000 0.0000 0.0000 0.0000 38.3813
#
#
#
# Elastic Compliance Matrix: (Units=1/GPa)
#
#
# Indices 1 2 3 4 5 6 
#
# 1 0.011299 -0.002931 -0.002950 0.000000 0.000000 0.000000
# 2 -0.002931 0.022429 -0.003400 0.000000 0.000000 0.000000
# 3 -0.002950 -0.003400 0.009772 0.000000 0.000000 0.000000
# 4 0.000000 0.000000 0.000000 0.037526 0.000000 0.000000
# 5 0.000000 0.000000 0.000000 0.000000 0.189242 0.000000
# 6 0.000000 0.000000 0.000000 0.000000 0.000000 0.026054
#
#
# Mechanical properties :
#
#
# Convention : Reuss Voigt Hill
#
# Bulk Modulus (GPa) = 40.10059 48.58009 44.34034
# Shear Modulus (GPa) = 15.47036 27.08723 21.27880
#
# Velocity S-wave (km/s) = 2.91406 3.85595 3.41761
# Velocity P-wave (km/s) = 5.77354 6.81838 6.31760
#
# Compressibility (1/GPa) = 0.02493729
#
# Stress axis : x y z
#
# Youngs Moduli (GPa) = 88.50062 44.58579 102.32911
#
# Poissons Ratio (x) = 0.13070 0.30190
# Poissons Ratio (y) = 0.25943 0.34791
# Poissons Ratio (z) = 0.26110 0.15159
#
# Static dielectric constant tensor:
#      x y z
#    x 3.229230 0.000000 0.000000 
#    y 0.000000 3.349360 0.000000 
#    z 0.000000 0.000000 3.104090 
# 
# 
# High freq. dielectric constant tensor:
#      x y z
#    x 1.698500 0.000000 0.000000 
#    y 0.000000 1.706960 0.000000 
#    z 0.000000 0.000000 1.687500 
# 
# From -- ./inp_files/4561.got.cif
#   From: 2010.03.12/outbox.cif.g09.slc.cpg/sg30_3_cif.got.tgz:4561.got - 2010.04.14 01:38:02.
