data_PCOD8169337
_publ_section_title
;
Structure prediction by ZEFSAII (Michael W. Deem and Ramdas Pophale) SiO2 
 PCOD8169337
Probable space group: P C A 21
;
_chemical_formula_sum "Si O2"
_cell_formula_units_Z 24
_cell_length_a 13.771181
_cell_length_b 6.522424
_cell_length_c 11.635508
_cell_angle_alpha 90.000000
_cell_angle_beta 90.000000
_cell_angle_gamma 90.000000
_cell_volume 1045.118566
_symmetry_space_group_name_H-M "P C A 21"
_symmetry_group_IT_number 29
_symmetry_cell_setting 'orthorhombic'
loop_
_space_group_symop_operation_xyz
x,y,z
-x,-y,1/2+z
1/2-x,y,1/2+z
1/2+x,-y,z
loop_
_atom_site_type_symbol
_atom_site_label
_atom_site_fract_x
_atom_site_fract_y
_atom_site_fract_z
Si Si1 0.651696 0.103708 0.742420
Si Si2 0.272872 0.576715 0.426248
Si Si3 0.922504 0.334807 0.031529
Si Si4 0.904685 0.433598 0.642924
Si Si5 0.291832 0.229680 0.788386
Si Si6 0.953949 0.081253 0.824337
O O1 0.706899 0.251404 0.831215
O O2 0.640965 0.210977 0.621461
O O3 0.717998 0.907709 0.714387
O O4 0.545787 0.048877 0.787180
O O5 0.158113 0.560053 0.452282
O O6 0.339983 0.627631 0.534027
O O7 0.283852 0.349170 0.372706
O O8 0.990890 0.495402 0.096056
O O9 0.983469 0.192248 0.943742
O O10 0.851090 0.617689 0.707018
O O11 0.920969 0.238230 0.724036
O O12 0.367727 0.079347 0.851903
#
# Coordination Sequence:
#
# PCOD8169337 Si02
#       6
#     4   4   4   4   4   4
#     4  12  29  48  79 112 152 201 255 313 385 460
#     4  12  28  49  78 112 155 197 257 315 388 458
#     4  12  27  49  76 111 156 198 249 324 378 457
#     4  12  29  49  77 113 152 204 255 319 385 459
#     4  12  25  51  75 112 150 195 257 315 378 460
#     4  12  28  50  75 116 153 197 265 312 386 466
#
# _framework density 22.963899999999999
#
# number of rings (size 3 to 8) (size 9 to 14) (size 15 to 20)
#    0.000    0.000    5.000    3.000   14.000    2.667 
#    0.000    0.000    0.000    0.000    0.000    0.000 
#    0.000    0.000    0.000    0.000    0.000    0.000 
#
# Total GULP energy -297576.847911 kJ/mol
# GULP energy per Si atom -12399.035330 kJ/mol
# Density = 2.291163 g / cm^3
# Si number density = 22.963900 Si / 1000 Ang^3
#
#
#
# Elastic Constant Matrix: (Units=GPa)
#
#
# Indices 1 2 3 4 5 6 
#
# 1 105.3553 40.1436 25.6085 0.0000 0.0000 0.0000
# 2 40.1436 117.7859 46.1613 0.0000 0.0000 0.0000
# 3 25.6085 46.1613 118.8858 0.0000 0.0000 0.0000
# 4 0.0000 0.0000 0.0000 -0.8030 0.0000 0.0000
# 5 0.0000 0.0000 0.0000 0.0000 46.0107 0.0000
# 6 0.0000 0.0000 0.0000 0.0000 0.0000 2.0882
#
#
#
# Elastic Compliance Matrix: (Units=1/GPa)
#
#
# Indices 1 2 3 4 5 6 
#
# 1 0.011025 -0.003334 -0.001080 0.000000 0.000000 0.000000
# 2 -0.003334 0.011022 -0.003562 0.000000 0.000000 0.000000
# 3 -0.001080 -0.003562 0.010027 0.000000 0.000000 0.000000
# 4 0.000000 0.000000 0.000000 -1.245293 0.000000 0.000000
# 5 0.000000 0.000000 0.000000 0.000000 0.021734 0.000000
# 6 0.000000 0.000000 0.000000 0.000000 0.000000 0.478887
#
#
# Mechanical properties :
#
#
# Convention : Reuss Voigt Hill
#
# Bulk Modulus (GPa) = 62.02642 62.87264 62.44953
# Shear Modulus (GPa) = -7.23303 24.80008 8.78352
#
# Velocity S-wave (km/s) = -1.77668 3.28984 1.95786
# Velocity P-wave (km/s) = 4.78124 6.47063 5.68899
#
# Compressibility (1/GPa) = 0.01612216
#
# Stress axis : x y z
#
# Youngs Moduli (GPa) = 90.70600 90.72697 99.73083
#
# Poissons Ratio (x) = 0.30249 0.10773
# Poissons Ratio (y) = 0.30242 0.35519
# Poissons Ratio (z) = 0.09798 0.32313
#
# Static dielectric constant tensor:
#      x y z
#    x 4.295530 0.000000 0.000000 
#    y 0.000000 4.361250 0.000000 
#    z 0.000000 0.000000 4.246640 
# 
# 
# High freq. dielectric constant tensor:
#      x y z
#    x 1.926310 0.000000 0.000000 
#    y 0.000000 1.915770 0.000000 
#    z 0.000000 0.000000 1.912530 
# 
# From -- ./inp_files/3337.got.cif
#   From: 2010.03.12/outbox.cif.g09.slc.cpg/sg29_2_cif.got.tgz:3337.got - 2010.04.14 03:43:10.
