data_PCOD8169233
_publ_section_title
;
Structure prediction by ZEFSAII (Michael W. Deem and Ramdas Pophale) SiO2 
 PCOD8169233
Probable space group: P C A 21
;
_chemical_formula_sum "Si O2"
_cell_formula_units_Z 32
_cell_length_a 9.486557
_cell_length_b 6.648552
_cell_length_c 25.575953
_cell_angle_alpha 90.000000
_cell_angle_beta 90.000000
_cell_angle_gamma 90.000000
_cell_volume 1613.123119
_symmetry_space_group_name_H-M "P C A 21"
_symmetry_group_IT_number 29
_symmetry_cell_setting 'orthorhombic'
loop_
_space_group_symop_operation_xyz
x,y,z
-x,-y,1/2+z
1/2-x,y,1/2+z
1/2+x,-y,z
loop_
_atom_site_type_symbol
_atom_site_label
_atom_site_fract_x
_atom_site_fract_y
_atom_site_fract_z
Si Si1 0.256934 0.724474 0.379550
Si Si2 0.237858 0.785657 0.500859
Si Si3 0.481540 0.055420 0.053013
Si Si4 0.305518 0.446867 0.078286
Si Si5 0.977952 0.567163 0.329320
Si Si6 0.972862 0.709917 0.629290
Si Si7 0.686206 0.957099 0.795486
Si Si8 0.541039 0.771392 0.249778
O O1 0.269076 0.769504 0.440203
O O2 0.373067 0.559348 0.365269
O O3 0.102987 0.642295 0.366125
O O4 0.287317 0.934814 0.350775
O O5 0.369269 0.886598 0.529406
O O6 0.209358 0.563883 0.523496
O O7 0.100255 0.921991 0.510245
O O8 0.390460 0.246139 0.068051
O O9 0.507340 0.933174 0.106493
O O10 0.151079 0.403812 0.099410
O O11 0.384311 0.583932 0.121092
O O12 0.898690 0.753303 0.303517
O O13 0.041761 0.434747 0.282464
O O14 0.935870 0.718573 0.689842
O O15 0.834349 0.915264 0.768550
O O16 0.604489 0.108827 0.757118
#
# Coordination Sequence:
#
# PCOD8169233 Si02
#       8
#     4   4   4   4   4   4   4   4
#     4  11  26  42  70  96 131 177 212 269 329 381
#     4  11  26  42  70  96 131 177 212 269 329 381
#     4  11  24  45  62  98 135 163 222 268 316 395
#     4  11  24  46  63  96 136 164 223 268 314 396
#     4  11  24  45  62  98 135 163 222 268 316 395
#     4  11  26  42  68  94 128 176 212 270 328 379
#     4  11  24  46  63  96 136 164 223 268 314 396
#     4  11  26  42  68  94 128 176 212 270 328 379
#
# _framework density 19.837295999999998
#
# number of rings (size 3 to 8) (size 9 to 14) (size 15 to 20)
#    0.000    1.000    5.000    0.000    7.000    1.000 
#    0.000    0.000    0.000    0.000    0.000    0.000 
#    0.000    0.000    0.000    0.000    0.000    0.000 
#
# Total GULP energy -397025.225842 kJ/mol
# GULP energy per Si atom -12407.038308 kJ/mol
# Density = 1.979215 g / cm^3
# Si number density = 19.837296 Si / 1000 Ang^3
#
#
#
# Elastic Constant Matrix: (Units=GPa)
#
#
# Indices 1 2 3 4 5 6 
#
# 1 81.8106 23.1228 1.0032 0.0000 0.0000 0.0000
# 2 23.1228 99.6011 28.0730 0.0000 0.0000 0.0000
# 3 1.0032 28.0730 87.7474 0.0000 0.0000 0.0000
# 4 0.0000 0.0000 0.0000 18.7427 0.0000 0.0000
# 5 0.0000 0.0000 0.0000 0.0000 15.8988 0.0000
# 6 0.0000 0.0000 0.0000 0.0000 0.0000 42.4291
#
#
#
# Elastic Compliance Matrix: (Units=1/GPa)
#
#
# Indices 1 2 3 4 5 6 
#
# 1 0.013147 -0.003308 0.000908 0.000000 0.000000 0.000000
# 2 -0.003308 0.011868 -0.003759 0.000000 0.000000 0.000000
# 3 0.000908 -0.003759 0.012589 0.000000 0.000000 0.000000
# 4 0.000000 0.000000 0.000000 0.053354 0.000000 0.000000
# 5 0.000000 0.000000 0.000000 0.000000 0.062898 0.000000
# 6 0.000000 0.000000 0.000000 0.000000 0.000000 0.023569
#
#
# Mechanical properties :
#
#
# Convention : Reuss Voigt Hill
#
# Bulk Modulus (GPa) = 39.54871 41.50634 40.52752
# Shear Modulus (GPa) = 25.23080 29.87813 27.55446
#
# Velocity S-wave (km/s) = 3.57022 3.88514 3.73100
# Velocity P-wave (km/s) = 6.08072 6.41050 6.24779
#
# Compressibility (1/GPa) = 0.02528528
#
# Stress axis : x y z
#
# Youngs Moduli (GPa) = 76.06174 84.26370 79.43719
#
# Poissons Ratio (x) = 0.27875 -0.07213
# Poissons Ratio (y) = 0.25162 0.29860
# Poissons Ratio (z) = -0.06907 0.31674
#
# Static dielectric constant tensor:
#      x y z
#    x 3.936290 0.000000 0.000000 
#    y 0.000000 3.874940 0.000000 
#    z 0.000000 0.000000 3.442560 
# 
# 
# High freq. dielectric constant tensor:
#      x y z
#    x 1.796540 0.000000 0.000000 
#    y 0.000000 1.792350 0.000000 
#    z 0.000000 0.000000 1.764200 
# 
# From -- ./inp_files/5826.got.cif
#   From: 2010.03.12/outbox.cif.g09.slc.cpg/sg29_3_cif.got.tgz:5826.got - 2010.04.14 03:43:10.
