data_PCOD8169013
_publ_section_title
;
Structure prediction by ZEFSAII (Michael W. Deem and Ramdas Pophale) SiO2 
 PCOD8169013
Probable space group: P C A 21
;
_chemical_formula_sum "Si O2"
_cell_formula_units_Z 28
_cell_length_a 14.876755
_cell_length_b 9.804054
_cell_length_c 8.518724
_cell_angle_alpha 90.000000
_cell_angle_beta 90.000000
_cell_angle_gamma 90.000000
_cell_volume 1242.477272
_symmetry_space_group_name_H-M "P C A 21"
_symmetry_group_IT_number 29
_symmetry_cell_setting 'orthorhombic'
loop_
_space_group_symop_operation_xyz
x,y,z
-x,-y,1/2+z
1/2-x,y,1/2+z
1/2+x,-y,z
loop_
_atom_site_type_symbol
_atom_site_label
_atom_site_fract_x
_atom_site_fract_y
_atom_site_fract_z
Si Si1 0.843000 0.275453 0.313450
Si Si2 0.964639 0.326432 0.722979
Si Si3 0.657890 0.593954 0.214620
Si Si4 0.762093 0.117019 0.583932
Si Si5 0.523820 0.779354 0.383656
Si Si6 0.652602 0.579950 0.864740
Si Si7 0.383479 0.945540 0.853938
O O1 0.826478 0.160251 0.444219
O O2 0.772441 0.254641 0.172852
O O3 0.835321 0.420257 0.394348
O O4 0.945496 0.250822 0.255445
O O5 0.888217 0.444267 0.729981
O O6 0.929150 0.203067 0.832602
O O7 0.983015 0.269059 0.549871
O O8 0.059334 0.385032 0.781487
O O9 0.610801 0.694770 0.337047
O O10 0.762443 0.613900 0.256641
O O11 0.651733 0.648969 0.036255
O O12 0.674859 0.042292 0.513693
O O13 0.818250 0.022775 0.704534
O O14 0.541417 0.940394 0.375849
#
# Coordination Sequence:
#
# PCOD8169013 Si02
#       7
#     4   4   4   4   4   4   4
#     4  11  21  43  70 103 138 183 236 286 352 426
#     4  12  25  47  71 105 140 188 238 291 357 425
#     4  12  25  47  69 105 139 183 236 294 355 425
#     4  10  23  43  71 102 138 189 232 286 354 428
#     4  12  27  45  69 104 144 181 233 297 356 423
#     4  12  25  42  74  99 141 183 234 297 353 413
#     4  11  26  45  72 102 142 181 237 289 351 428
#
# _framework density 22.535623000000001
#
# number of rings (size 3 to 8) (size 9 to 14) (size 15 to 20)
#    0.000    0.571    4.286    3.429    4.000    3.429 
#    2.571    0.000    0.000    0.000    0.000    0.000 
#    0.000    0.000    0.000    0.000    0.000    0.000 
#
# Total GULP energy -347001.826051 kJ/mol
# GULP energy per Si atom -12392.922359 kJ/mol
# Density = 2.248433 g / cm^3
# Si number density = 22.535623 Si / 1000 Ang^3
#
#
#
# Elastic Constant Matrix: (Units=GPa)
#
#
# Indices 1 2 3 4 5 6 
#
# 1 92.6050 -10.6935 15.4006 0.0000 0.0000 0.0000
# 2 -10.6935 53.0490 7.0999 0.0000 0.0000 0.0000
# 3 15.4006 7.0999 60.9254 0.0000 0.0000 0.0000
# 4 0.0000 0.0000 0.0000 22.6077 0.0000 0.0000
# 5 0.0000 0.0000 0.0000 0.0000 35.1203 0.0000
# 6 0.0000 0.0000 0.0000 0.0000 0.0000 28.9848
#
#
#
# Elastic Compliance Matrix: (Units=1/GPa)
#
#
# Indices 1 2 3 4 5 6 
#
# 1 0.011665 0.002790 -0.003274 0.000000 0.000000 0.000000
# 2 0.002790 0.019816 -0.003014 0.000000 0.000000 0.000000
# 3 -0.003274 -0.003014 0.017592 0.000000 0.000000 0.000000
# 4 0.000000 0.000000 0.000000 0.044233 0.000000 0.000000
# 5 0.000000 0.000000 0.000000 0.000000 0.028474 0.000000
# 6 0.000000 0.000000 0.000000 0.000000 0.000000 0.034501
#
#
# Mechanical properties :
#
#
# Convention : Reuss Voigt Hill
#
# Bulk Modulus (GPa) = 23.76625 25.57705 24.67165
# Shear Modulus (GPa) = 28.20024 30.32740 29.26382
#
# Velocity S-wave (km/s) = 3.54130 3.67243 3.60746
# Velocity P-wave (km/s) = 5.22399 5.41817 5.32196
#
# Compressibility (1/GPa) = 0.04207648
#
# Stress axis : x y z
#
# Youngs Moduli (GPa) = 85.72567 50.46365 56.84292
#
# Poissons Ratio (x) = -0.14077 0.18609
# Poissons Ratio (y) = -0.23914 0.17135
# Poissons Ratio (z) = 0.28065 0.15212
#
# Static dielectric constant tensor:
#      x y z
#    x 4.482010 0.000000 0.000000 
#    y 0.000000 3.786760 0.000000 
#    z 0.000000 0.000000 4.202210 
# 
# 
# High freq. dielectric constant tensor:
#      x y z
#    x 1.917290 0.000000 0.000000 
#    y 0.000000 1.863710 0.000000 
#    z 0.000000 0.000000 1.891170 
# 
# From -- ./inp_files/1773.got.cif
#   From: 2010.03.12/outbox.cif.g09.slc.cpg/sg29_1_cif.got.tgz:1773.got - 2010.04.14 03:43:10.
