data_PCOD8169271
_publ_section_title
;
Structure prediction by ZEFSAII (Michael W. Deem and Ramdas Pophale) SiO2 
 PCOD8169271
Probable space group: P C A 21
;
_chemical_formula_sum "Si O2"
_cell_formula_units_Z 28
_cell_length_a 15.483157
_cell_length_b 7.991284
_cell_length_c 8.948486
_cell_angle_alpha 90.000000
_cell_angle_beta 90.000000
_cell_angle_gamma 90.000000
_cell_volume 1107.198900
_symmetry_space_group_name_H-M "P C A 21"
_symmetry_group_IT_number 29
_symmetry_cell_setting 'orthorhombic'
loop_
_space_group_symop_operation_xyz
x,y,z
-x,-y,1/2+z
1/2-x,y,1/2+z
1/2+x,-y,z
loop_
_atom_site_type_symbol
_atom_site_label
_atom_site_fract_x
_atom_site_fract_y
_atom_site_fract_z
Si Si1 0.254186 0.360806 0.081360
Si Si2 0.787006 0.419768 0.325166
Si Si3 0.963154 0.346633 0.471255
Si Si4 0.435618 0.335170 0.674176
Si Si5 0.183237 0.890043 0.380514
Si Si6 0.020869 0.968856 0.184838
Si Si7 0.829236 0.965319 0.187907
O O1 0.302393 0.521711 0.155186
O O2 0.167176 0.331141 0.175068
O O3 0.316451 0.203273 0.092204
O O4 0.232019 0.406245 0.911769
O O5 0.870547 0.327949 0.390378
O O6 0.704588 0.298022 0.329958
O O7 0.971190 0.512171 0.573032
O O8 0.973047 0.175063 0.561404
O O9 0.036346 0.361247 0.345793
O O10 0.467660 0.154104 0.612684
O O11 0.090793 0.942728 0.315163
O O12 0.180610 0.891729 0.560799
O O13 0.259678 0.010960 0.318825
O O14 0.925109 0.963594 0.258336
#
# Coordination Sequence:
#
# PCOD8169271 Si02
#       7
#     4   4   4   4   4   4   4
#     4  11  25  47  73 108 148 200 255 312 400 452
#     4  11  25  46  77 107 149 199 253 326 377 474
#     4  11  27  48  77 117 154 204 264 322 402 464
#     4  11  26  50  77 112 159 200 261 331 388 478
#     4  12  25  50  78 111 153 205 261 320 395 465
#     4  12  27  48  75 115 157 206 260 320 390 479
#     4  12  27  47  79 110 154 202 256 325 390 472
#
# _framework density 25.28904
#
# number of rings (size 3 to 8) (size 9 to 14) (size 15 to 20)
#    0.000    0.571    1.429    6.000    4.000    4.571 
#    5.143    0.000    0.000    0.000    0.000    0.000 
#    0.000    0.000    0.000    0.000    0.000    0.000 
#
# Total GULP energy -347265.468968 kJ/mol
# GULP energy per Si atom -12402.338177 kJ/mol
# Density = 2.523148 g / cm^3
# Si number density = 25.289040 Si / 1000 Ang^3
#
#
#
# Elastic Constant Matrix: (Units=GPa)
#
#
# Indices 1 2 3 4 5 6 
#
# 1 140.2897 7.6956 19.5289 0.0000 0.0000 0.0000
# 2 7.6956 122.0694 -9.7583 0.0000 0.0000 0.0000
# 3 19.5289 -9.7583 44.2231 0.0000 0.0000 0.0000
# 4 0.0000 0.0000 0.0000 32.0079 0.0000 0.0000
# 5 0.0000 0.0000 0.0000 0.0000 31.2672 0.0000
# 6 0.0000 0.0000 0.0000 0.0000 0.0000 32.7204
#
#
#
# Elastic Compliance Matrix: (Units=1/GPa)
#
#
# Indices 1 2 3 4 5 6 
#
# 1 0.007665 -0.000767 -0.003554 0.000000 0.000000 0.000000
# 2 -0.000767 0.008416 0.002196 0.000000 0.000000 0.000000
# 3 -0.003554 0.002196 0.024667 0.000000 0.000000 0.000000
# 4 0.000000 0.000000 0.000000 0.031242 0.000000 0.000000
# 5 0.000000 0.000000 0.000000 0.000000 0.031982 0.000000
# 6 0.000000 0.000000 0.000000 0.000000 0.000000 0.030562
#
#
# Mechanical properties :
#
#
# Convention : Reuss Voigt Hill
#
# Bulk Modulus (GPa) = 27.39991 37.94606 32.67299
# Shear Modulus (GPa) = 33.12336 38.47350 35.79843
#
# Velocity S-wave (km/s) = 3.62303 3.90468 3.76649
# Velocity P-wave (km/s) = 5.32541 5.94695 5.64474
#
# Compressibility (1/GPa) = 0.03649647
#
# Stress axis : x y z
#
# Youngs Moduli (GPa) = 130.46398 118.82158 40.54052
#
# Poissons Ratio (x) = 0.09118 0.14409
# Poissons Ratio (y) = 0.10011 -0.08902
# Poissons Ratio (z) = 0.46369 -0.26092
#
# Static dielectric constant tensor:
#      x y z
#    x 4.624640 0.000000 0.000000 
#    y 0.000000 4.723520 0.000000 
#    z 0.000000 0.000000 4.325550 
# 
# 
# High freq. dielectric constant tensor:
#      x y z
#    x 2.014770 0.000000 0.000000 
#    y 0.000000 2.026150 0.000000 
#    z 0.000000 0.000000 2.005790 
# 
# From -- ./inp_files/2124.got.cif
#   From: 2010.03.12/outbox.cif.g09.slc.cpg/sg29_2_cif.got.tgz:2124.got - 2010.04.14 03:43:10.
