data_PCOD8169755
_publ_section_title
;
Structure prediction by ZEFSAII (Michael W. Deem and Ramdas Pophale) SiO2 
 PCOD8169755
Probable space group: P M N 21
;
_chemical_formula_sum "Si O2"
_cell_formula_units_Z 32
_cell_length_a 8.699793
_cell_length_b 12.099307
_cell_length_c 14.501720
_cell_angle_alpha 90.000000
_cell_angle_beta 90.000000
_cell_angle_gamma 90.000000
_cell_volume 1526.472312
_symmetry_space_group_name_H-M "P M N 21"
_symmetry_group_IT_number 31
_symmetry_cell_setting 'orthorhombic'
loop_
_space_group_symop_operation_xyz
x,y,z
1/2-x,-y,1/2+z
-x,y,z
1/2+x,-y,1/2+z
loop_
_atom_site_type_symbol
_atom_site_label
_atom_site_fract_x
_atom_site_fract_y
_atom_site_fract_z
Si Si1 0.172884 0.678589 0.676510
Si Si2 0.816914 0.004835 0.759957
Si Si3 0.680772 0.591306 0.358262
Si Si4 0.671080 0.095363 0.075735
Si Si5 0.322664 0.459179 0.664752
Si Si6 0.816672 0.824748 0.387181
Si Si7 0.320396 0.793854 0.843962
Si Si8 0.322739 0.373353 0.467933
O O1 0.167413 0.777422 0.605195
O O2 0.260633 0.577165 0.629353
O O3 0.269829 0.707464 0.766626
O O4 0.000000 0.644972 0.706834
O O5 0.748219 0.977616 0.656657
O O6 0.765678 0.910094 0.831247
O O7 0.000000 0.005501 0.755885
O O8 0.751968 0.122188 0.793696
O O9 0.500000 0.608123 0.368837
O O10 0.723809 0.581458 0.250998
O O11 0.762895 0.699434 0.399019
O O12 0.737105 0.484186 0.415786
O O13 0.500000 0.048015 0.064724
O O14 0.746891 0.100113 0.973808
O O15 0.500000 0.466652 0.694353
O O16 0.300446 0.378932 0.577849
O O17 0.000000 0.827281 0.383690
O O18 0.500000 0.817879 0.840692
O O19 0.273781 0.735255 0.939578
O O20 0.500000 0.355171 0.441570
#
# Coordination Sequence:
#
# PCOD8169755 Si02
#       8
#     4   4   4   4   4   4   4   4
#     4  10  18  33  57  84 117 156 194 242 297 352
#     4  10  21  41  64  87 118 157 197 247 306 362
#     4  11  23  40  61  87 123 166 199 241 303 366
#     4   8  18  36  61  88 115 153 199 245 297 354
#     4  11  22  36  56  87 121 158 200 247 296 355
#     4  11  22  40  63  90 121 155 202 256 299 356
#     4  11  21  35  59  87 114 149 196 247 297 351
#     4  10  22  39  59  86 123 160 199 247 301 360
#
# _framework density 20.963367000000002
#
# number of rings (size 3 to 8) (size 9 to 14) (size 15 to 20)
#    0.000    1.750    1.250    4.500    0.000    1.500 
#    2.250    6.875    0.000    0.000    0.000    0.000 
#    0.000    0.000    0.000    0.000    0.000    0.000 
#
# Total GULP energy -396692.652393 kJ/mol
# GULP energy per Si atom -12396.645387 kJ/mol
# Density = 2.091565 g / cm^3
# Si number density = 20.963367 Si / 1000 Ang^3
#
#
#
# Elastic Constant Matrix: (Units=GPa)
#
#
# Indices 1 2 3 4 5 6 
#
# 1 71.7977 9.7864 16.0724 0.0000 0.0000 0.0000
# 2 9.7864 44.9390 7.2410 0.0000 0.0000 0.0000
# 3 16.0724 7.2410 85.8361 0.0000 0.0000 0.0000
# 4 0.0000 0.0000 0.0000 24.5365 0.0000 0.0000
# 5 0.0000 0.0000 0.0000 0.0000 26.5424 0.0000
# 6 0.0000 0.0000 0.0000 0.0000 0.0000 31.5880
#
#
#
# Elastic Compliance Matrix: (Units=1/GPa)
#
#
# Indices 1 2 3 4 5 6 
#
# 1 0.014884 -0.002831 -0.002548 0.000000 0.000000 0.000000
# 2 -0.002831 0.023097 -0.001418 0.000000 0.000000 0.000000
# 3 -0.002548 -0.001418 0.012247 0.000000 0.000000 0.000000
# 4 0.000000 0.000000 0.000000 0.040756 0.000000 0.000000
# 5 0.000000 0.000000 0.000000 0.000000 0.037676 0.000000
# 6 0.000000 0.000000 0.000000 0.000000 0.000000 0.031658
#
#
# Mechanical properties :
#
#
# Convention : Reuss Voigt Hill
#
# Bulk Modulus (GPa) = 27.29721 29.86361 28.58041
# Shear Modulus (GPa) = 26.86389 27.83158 27.34774
#
# Velocity S-wave (km/s) = 3.58364 3.64762 3.61577
# Velocity P-wave (km/s) = 5.49299 5.65833 5.57627
#
# Compressibility (1/GPa) = 0.03663378
#
# Stress axis : x y z
#
# Youngs Moduli (GPa) = 67.18488 43.29497 81.65324
#
# Poissons Ratio (x) = 0.12256 0.20807
# Poissons Ratio (y) = 0.19019 0.11582
# Poissons Ratio (z) = 0.17120 0.06141
#
# Static dielectric constant tensor:
#      x y z
#    x 3.694830 0.000000 0.000000 
#    y 0.000000 3.713220 0.000000 
#    z 0.000000 0.000000 3.945020 
# 
# 
# High freq. dielectric constant tensor:
#      x y z
#    x 1.810140 0.000000 0.000000 
#    y 0.000000 1.810810 0.000000 
#    z 0.000000 0.000000 1.825510 
# 
# From -- ./inp_files/5080.got.cif
#   From: 2010.03.12/outbox.cif.g09.slc.cpg/sg31_3_cif.got.tgz:5080.got - 2010.04.14 01:42:59.
