data_PCOD8169527
_publ_section_title
;
Structure prediction by ZEFSAII (Michael W. Deem and Ramdas Pophale) SiO2 
 PCOD8169527
Probable space group: P N C 2
;
_chemical_formula_sum "Si O2"
_cell_formula_units_Z 16
_cell_length_a 5.073567
_cell_length_b 16.712569
_cell_length_c 8.664026
_cell_angle_alpha 90.000000
_cell_angle_beta 90.000000
_cell_angle_gamma 90.000000
_cell_volume 734.643026
_symmetry_space_group_name_H-M "P N C 2"
_symmetry_group_IT_number 30
_symmetry_cell_setting 'orthorhombic'
loop_
_space_group_symop_operation_xyz
x,y,z
-x,-y,z
-x,1/2+y,1/2+z
x,1/2-y,1/2+z
loop_
_atom_site_type_symbol
_atom_site_label
_atom_site_fract_x
_atom_site_fract_y
_atom_site_fract_z
Si Si1 0.694317 0.676329 0.880980
Si Si2 0.753059 0.052234 0.904907
Si Si3 0.530194 0.311601 0.203608
Si Si4 0.790196 0.346466 0.702019
O O1 0.650016 0.770763 0.837861
O O2 0.473940 0.624124 0.789701
O O3 0.976820 0.645881 0.826188
O O4 0.662184 0.664204 0.063437
O O5 0.676778 0.110565 0.765577
O O6 0.500000 0.000000 0.949624
O O7 0.852310 0.100406 0.054148
O O8 0.000000 0.000000 0.846955
O O9 0.749038 0.246248 0.146776
#
# Coordination Sequence:
#
# PCOD8169527 Si02
#       4
#     4   4   4   4
#     4  10  22  35  73  92 135 166 256 278 333 402
#     4  12  27  44  69 103 149 187 230 305 381 420
#     4  10  23  41  69 103 133 182 244 286 345 426
#     4  10  22  42  65 101 127 191 230 285 337 444
#
# _framework density 21.779285999999999
#
# number of rings (size 3 to 8) (size 9 to 14) (size 15 to 20)
#    1.500    0.000    2.500    1.500   10.500    0.000 
#    0.000    5.000    0.000    0.000    0.000    0.000 
#    0.000    0.000    0.000    0.000    0.000    0.000 
#
# Total GULP energy -198345.334726 kJ/mol
# GULP energy per Si atom -12396.583420 kJ/mol
# Density = 2.172972 g / cm^3
# Si number density = 21.779286 Si / 1000 Ang^3
#
#
#
# Elastic Constant Matrix: (Units=GPa)
#
#
# Indices 1 2 3 4 5 6 
#
# 1 132.1395 31.6231 30.7555 0.0000 0.0000 0.0000
# 2 31.6231 92.6429 42.7591 0.0000 0.0000 0.0000
# 3 30.7555 42.7591 124.0546 0.0000 0.0000 0.0000
# 4 0.0000 0.0000 0.0000 17.9143 0.0000 0.0000
# 5 0.0000 0.0000 0.0000 0.0000 44.6092 0.0000
# 6 0.0000 0.0000 0.0000 0.0000 0.0000 18.9583
#
#
#
# Elastic Compliance Matrix: (Units=1/GPa)
#
#
# Indices 1 2 3 4 5 6 
#
# 1 0.008415 -0.002271 -0.001303 0.000000 0.000000 0.000000
# 2 -0.002271 0.013449 -0.004073 0.000000 0.000000 0.000000
# 3 -0.001303 -0.004073 0.009788 0.000000 0.000000 0.000000
# 4 0.000000 0.000000 0.000000 0.055821 0.000000 0.000000
# 5 0.000000 0.000000 0.000000 0.000000 0.022417 0.000000
# 6 0.000000 0.000000 0.000000 0.000000 0.000000 0.052747
#
#
# Mechanical properties :
#
#
# Convention : Reuss Voigt Hill
#
# Bulk Modulus (GPa) = 61.13276 62.12357 61.62816
# Shear Modulus (GPa) = 27.26533 32.54298 29.90415
#
# Velocity S-wave (km/s) = 3.54205 3.86970 3.70950
# Velocity P-wave (km/s) = 6.69763 6.96794 6.83412
#
# Compressibility (1/GPa) = 0.01635784
#
# Stress axis : x y z
#
# Youngs Moduli (GPa) = 118.84184 74.35543 102.16717
#
# Poissons Ratio (x) = 0.16883 0.13317
# Poissons Ratio (y) = 0.26985 0.41609
# Poissons Ratio (z) = 0.15491 0.30282
#
# Static dielectric constant tensor:
#      x y z
#    x 3.796000 0.000000 0.000000 
#    y 0.000000 3.715710 0.000000 
#    z 0.000000 0.000000 3.630040 
# 
# 
# High freq. dielectric constant tensor:
#      x y z
#    x 1.861700 0.000000 0.000000 
#    y 0.000000 1.823340 0.000000 
#    z 0.000000 0.000000 1.852320 
# 
# From -- ./inp_files/1259.got.cif
#   From: 2010.03.12/outbox.cif.g09.slc.cpg/sg30_1_cif.got.tgz:1259.got - 2010.04.14 01:38:02.
