data_PCOD8169808
_publ_section_title
;
Structure prediction by ZEFSAII (Michael W. Deem and Ramdas Pophale) SiO2 
 PCOD8169808
Probable space group: P M N 21
;
_chemical_formula_sum "Si O2"
_cell_formula_units_Z 24
_cell_length_a 15.580466
_cell_length_b 9.382055
_cell_length_c 8.989846
_cell_angle_alpha 90.000000
_cell_angle_beta 90.000000
_cell_angle_gamma 90.000000
_cell_volume 1314.106821
_symmetry_space_group_name_H-M "P M N 21"
_symmetry_group_IT_number 31
_symmetry_cell_setting 'orthorhombic'
loop_
_space_group_symop_operation_xyz
x,y,z
1/2-x,-y,1/2+z
-x,y,z
1/2+x,-y,1/2+z
loop_
_atom_site_type_symbol
_atom_site_label
_atom_site_fract_x
_atom_site_fract_y
_atom_site_fract_z
Si Si1 0.729296 0.851566 0.371350
Si Si2 0.756555 0.857404 0.019475
Si Si3 0.598511 0.674782 0.532040
Si Si4 0.596092 0.851143 0.821557
Si Si5 0.409112 0.177027 0.848578
Si Si6 0.405332 0.344604 0.552500
O O1 0.656748 0.734092 0.398059
O O2 0.821782 0.799908 0.443193
O O3 0.704419 0.998669 0.449922
O O4 0.743686 0.871481 0.195677
O O5 0.664018 0.817252 0.951473
O O6 0.827955 0.739842 0.973123
O O7 0.500000 0.702153 0.489081
O O8 0.624220 0.759130 0.680166
O O9 0.619209 0.509845 0.553204
O O10 0.500000 0.806628 0.874651
O O11 0.597679 0.017966 0.777510
O O12 0.500000 0.188188 0.940276
O O13 0.412073 0.294737 0.721675
O O14 0.500000 0.320804 0.476795
#
# Coordination Sequence:
#
# PCOD8169808 Si02
#       6
#     4   4   4   4   4   4
#     4  10  19  32  50  77 104 132 168 208 252 296
#     4  10  20  33  53  77 103 133 168 211 254 302
#     4  10  20  33  51  74 101 134 171 208 250 303
#     4   9  18  34  55  77 101 131 167 209 256 306
#     4   8  15  30  51  72  95 125 162 202 246 297
#     4   9  18  32  50  73 100 133 170 206 250 304
#
# _framework density 18.263355000000001
#
# number of rings (size 3 to 8) (size 9 to 14) (size 15 to 20)
#    0.000    2.667    0.000    3.000    0.000    5.333 
#    0.000    0.000    0.000    3.000    0.000   11.667 
#    0.000    0.000    0.000    0.000    0.000    0.000 
#
# Total GULP energy -297321.461848 kJ/mol
# GULP energy per Si atom -12388.394244 kJ/mol
# Density = 1.822179 g / cm^3
# Si number density = 18.263355 Si / 1000 Ang^3
#
#
#
# Elastic Constant Matrix: (Units=GPa)
#
#
# Indices 1 2 3 4 5 6 
#
# 1 138.4949 66.8534 41.4665 0.0000 0.0000 0.0000
# 2 66.8534 113.4904 37.8219 0.0000 0.0000 0.0000
# 3 41.4665 37.8219 58.8153 0.0000 0.0000 0.0000
# 4 0.0000 0.0000 0.0000 16.2105 0.0000 0.0000
# 5 0.0000 0.0000 0.0000 0.0000 27.2888 0.0000
# 6 0.0000 0.0000 0.0000 0.0000 0.0000 28.8375
#
#
#
# Elastic Compliance Matrix: (Units=1/GPa)
#
#
# Indices 1 2 3 4 5 6 
#
# 1 0.010971 -0.004945 -0.004555 0.000000 0.000000 0.000000
# 2 -0.004945 0.013443 -0.005159 0.000000 0.000000 0.000000
# 3 -0.004555 -0.005159 0.023531 0.000000 0.000000 0.000000
# 4 0.000000 0.000000 0.000000 0.061688 0.000000 0.000000
# 5 0.000000 0.000000 0.000000 0.000000 0.036645 0.000000
# 6 0.000000 0.000000 0.000000 0.000000 0.000000 0.034677
#
#
# Mechanical properties :
#
#
# Convention : Reuss Voigt Hill
#
# Bulk Modulus (GPa) = 53.68126 67.00936 60.34531
# Shear Modulus (GPa) = 23.09646 25.44460 24.27053
#
# Velocity S-wave (km/s) = 3.56003 3.73662 3.64939
# Velocity P-wave (km/s) = 6.80846 7.44222 7.13238
#
# Compressibility (1/GPa) = 0.01862848
#
# Stress axis : x y z
#
# Youngs Moduli (GPa) = 91.14731 74.38674 42.49649
#
# Poissons Ratio (x) = 0.36782 0.19358
# Poissons Ratio (y) = 0.45070 0.21923
# Poissons Ratio (z) = 0.41520 0.38374
#
# Static dielectric constant tensor:
#      x y z
#    x 4.080710 0.000000 0.000000 
#    y 0.000000 3.336260 0.000000 
#    z 0.000000 0.000000 2.888840 
# 
# 
# High freq. dielectric constant tensor:
#      x y z
#    x 1.739180 0.000000 0.000000 
#    y 0.000000 1.705300 0.000000 
#    z 0.000000 0.000000 1.654870 
# 
# From -- ./inp_files/2769.got.cif
#   From: 2010.03.12/outbox.cif.g09.slc.cpg/sg31_2_cif.got.tgz:2769.got - 2010.04.14 01:42:59.
