data_PCOD8169403
_publ_section_title
;
Structure prediction by ZEFSAII (Michael W. Deem and Ramdas Pophale) SiO2 
 PCOD8169403
Probable space group: P N C 2
;
_chemical_formula_sum "Si O2"
_cell_formula_units_Z 28
_cell_length_a 8.245451
_cell_length_b 18.787331
_cell_length_c 9.411616
_cell_angle_alpha 90.000000
_cell_angle_beta 90.000000
_cell_angle_gamma 90.000000
_cell_volume 1457.953596
_symmetry_space_group_name_H-M "P N C 2"
_symmetry_group_IT_number 30
_symmetry_cell_setting 'orthorhombic'
loop_
_space_group_symop_operation_xyz
x,y,z
-x,-y,z
-x,1/2+y,1/2+z
x,1/2-y,1/2+z
loop_
_atom_site_type_symbol
_atom_site_label
_atom_site_fract_x
_atom_site_fract_y
_atom_site_fract_z
Si Si1 0.894470 0.697091 0.230300
Si Si2 0.355547 0.649801 0.624092
Si Si3 0.705576 0.357645 0.935530
Si Si4 0.402694 0.572202 0.354663
Si Si5 0.109720 0.565493 0.166897
Si Si6 0.069058 0.727329 0.501651
Si Si7 0.478506 0.197857 0.654052
O O1 0.711511 0.698623 0.178032
O O2 0.976887 0.625635 0.181168
O O3 0.920438 0.705894 0.398500
O O4 0.989769 0.760376 0.154117
O O5 0.317342 0.613291 0.775572
O O6 0.440488 0.591669 0.520708
O O7 0.195942 0.664594 0.529310
O O8 0.452540 0.721817 0.665567
O O9 0.835641 0.294103 0.936040
O O10 0.770334 0.421547 0.033871
O O11 0.532030 0.330840 0.998786
O O12 0.500000 0.500000 0.315908
O O13 0.215958 0.555858 0.310863
O O14 0.448794 0.644382 0.270605
O O15 0.000000 0.500000 0.128853
#
# Coordination Sequence:
#
# PCOD8169403 Si02
#       7
#     4   4   4   4   4   4   4
#     4  11  21  34  58  93 119 149 202 260 303 354
#     4  11  20  39  60  89 123 165 199 256 321 370
#     4   9  20  37  58  83 115 161 193 244 310 368
#     4  11  23  41  63  89 123 165 207 254 313 379
#     4  10  21  41  62  82 114 163 205 245 302 381
#     4  10  19  34  58  86 119 150 197 252 304 360
#     4  10  22  36  62  90 123 162 208 250 302 383
#
# _framework density 19.205000999999999
#
# number of rings (size 3 to 8) (size 9 to 14) (size 15 to 20)
#    0.000    1.714    2.857    3.429    4.000    0.000 
#    0.000    5.000    0.000    0.000    0.000    0.000 
#    0.000    0.000    0.000    0.000    0.000    0.000 
#
# Total GULP energy -346925.739633 kJ/mol
# GULP energy per Si atom -12390.204987 kJ/mol
# Density = 1.916129 g / cm^3
# Si number density = 19.205001 Si / 1000 Ang^3
#
#
#
# Elastic Constant Matrix: (Units=GPa)
#
#
# Indices 1 2 3 4 5 6 
#
# 1 115.3066 34.5681 27.8695 0.0000 0.0000 0.0000
# 2 34.5681 67.4359 33.8397 0.0000 0.0000 0.0000
# 3 27.8695 33.8397 127.8301 0.0000 0.0000 0.0000
# 4 0.0000 0.0000 0.0000 22.1318 0.0000 0.0000
# 5 0.0000 0.0000 0.0000 0.0000 23.9157 0.0000
# 6 0.0000 0.0000 0.0000 0.0000 0.0000 16.6937
#
#
#
# Elastic Compliance Matrix: (Units=1/GPa)
#
#
# Indices 1 2 3 4 5 6 
#
# 1 0.010353 -0.004814 -0.000983 0.000000 0.000000 0.000000
# 2 -0.004814 0.019339 -0.004070 0.000000 0.000000 0.000000
# 3 -0.000983 -0.004070 0.009115 0.000000 0.000000 0.000000
# 4 0.000000 0.000000 0.000000 0.045184 0.000000 0.000000
# 5 0.000000 0.000000 0.000000 0.000000 0.041814 0.000000
# 6 0.000000 0.000000 0.000000 0.000000 0.000000 0.059903
#
#
# Mechanical properties :
#
#
# Convention : Reuss Voigt Hill
#
# Bulk Modulus (GPa) = 52.42944 55.90302 54.16623
# Shear Modulus (GPa) = 23.60736 26.83459 25.22097
#
# Velocity S-wave (km/s) = 3.50984 3.74206 3.62781
# Velocity P-wave (km/s) = 6.61698 6.91683 6.76857
#
# Compressibility (1/GPa) = 0.01907325
#
# Stress axis : x y z
#
# Youngs Moduli (GPa) = 96.58780 51.70925 109.71439
#
# Poissons Ratio (x) = 0.24893 0.10783
# Poissons Ratio (y) = 0.46497 0.44653
# Poissons Ratio (z) = 0.09493 0.21045
#
# Static dielectric constant tensor:
#      x y z
#    x 3.518050 0.000000 0.000000 
#    y 0.000000 3.350010 0.000000 
#    z 0.000000 0.000000 3.656000 
# 
# 
# High freq. dielectric constant tensor:
#      x y z
#    x 1.742930 0.000000 0.000000 
#    y 0.000000 1.724750 0.000000 
#    z 0.000000 0.000000 1.753370 
# 
# From -- ./inp_files/2076.got.cif
#   From: 2010.03.12/outbox.cif.g09.slc.cpg/sg30_2_cif.got.tgz:2076.got - 2010.04.14 01:38:02.
