data_PCOD8169961
_publ_section_title
;
Structure prediction by ZEFSAII (Michael W. Deem and Ramdas Pophale) SiO2 
 PCOD8169961
Probable space group: P M N 21
;
_chemical_formula_sum "Si O2"
_cell_formula_units_Z 32
_cell_length_a 8.904884
_cell_length_b 11.255804
_cell_length_c 16.239291
_cell_angle_alpha 90.000000
_cell_angle_beta 90.000000
_cell_angle_gamma 90.000000
_cell_volume 1627.690590
_symmetry_space_group_name_H-M "P M N 21"
_symmetry_group_IT_number 31
_symmetry_cell_setting 'orthorhombic'
loop_
_space_group_symop_operation_xyz
x,y,z
1/2-x,-y,1/2+z
-x,y,z
1/2+x,-y,1/2+z
loop_
_atom_site_type_symbol
_atom_site_label
_atom_site_fract_x
_atom_site_fract_y
_atom_site_fract_z
Si Si1 0.336428 0.090403 0.779580
Si Si2 0.324347 0.066987 0.515383
Si Si3 0.677671 0.802246 0.566510
Si Si4 0.325046 0.575896 0.262554
Si Si5 0.328291 0.786312 0.147223
Si Si6 0.323586 0.307583 0.228191
Si Si7 0.827603 0.714356 0.406839
Si Si8 0.332630 0.847301 0.853756
O O1 0.500000 0.133504 0.744249
O O2 0.198869 0.119462 0.720016
O O3 0.309441 0.155312 0.866752
O O4 0.342766 0.949668 0.785676
O O5 0.500000 0.068372 0.498684
O O6 0.279812 0.178027 0.572855
O O7 0.240913 0.090110 0.431114
O O8 0.274162 0.940236 0.553899
O O9 0.500000 0.789659 0.568542
O O10 0.742057 0.755083 0.652284
O O11 0.739554 0.718731 0.493115
O O12 0.500000 0.586928 0.284402
O O13 0.284339 0.657952 0.183863
O O14 0.279807 0.445588 0.232668
O O15 0.236448 0.614284 0.344801
O O16 0.500000 0.792393 0.117772
O O17 0.500000 0.287758 0.218549
O O18 0.268720 0.256241 0.315820
O O19 0.000000 0.682350 0.425590
O O20 0.500000 0.799282 0.874724
#
# Coordination Sequence:
#
# PCOD8169961 Si02
#       8
#     4   4   4   4   4   4   4   4
#     4   9  18  33  55  84 117 148 184 233 291 351
#     4  11  23  38  58  88 123 156 194 242 299 359
#     4  11  23  39  61  90 124 158 199 249 301 358
#     4   9  21  42  62  84 117 156 201 248 294 351
#     4  10  20  35  59  86 113 150 193 240 292 346
#     4  11  24  42  62  86 120 161 206 250 298 357
#     4  10  19  35  62  91 117 153 197 244 295 351
#     4  11  22  38  59  85 121 156 192 242 298 357
#
# _framework density 19.659756000000002
#
# number of rings (size 3 to 8) (size 9 to 14) (size 15 to 20)
#    0.000    1.750    1.250    3.000    0.000    7.500 
#    2.250    0.000    0.000    0.000    0.000    0.000 
#    0.000    0.000    0.000    0.000    0.000    0.000 
#
# Total GULP energy -396748.047466 kJ/mol
# GULP energy per Si atom -12398.376483 kJ/mol
# Density = 1.961501 g / cm^3
# Si number density = 19.659756 Si / 1000 Ang^3
#
#
#
# Elastic Constant Matrix: (Units=GPa)
#
#
# Indices 1 2 3 4 5 6 
#
# 1 96.2156 53.8124 50.5641 0.0000 0.0000 0.0000
# 2 53.8124 111.5911 54.9986 0.0000 0.0000 0.0000
# 3 50.5641 54.9986 85.7640 0.0000 0.0000 0.0000
# 4 0.0000 0.0000 0.0000 28.0400 0.0000 0.0000
# 5 0.0000 0.0000 0.0000 0.0000 38.8513 0.0000
# 6 0.0000 0.0000 0.0000 0.0000 0.0000 22.0243
#
#
#
# Elastic Compliance Matrix: (Units=1/GPa)
#
#
# Indices 1 2 3 4 5 6 
#
# 1 0.016553 -0.004638 -0.006785 0.000000 0.000000 0.000000
# 2 -0.004638 0.014402 -0.006501 0.000000 0.000000 0.000000
# 3 -0.006785 -0.006501 0.019829 0.000000 0.000000 0.000000
# 4 0.000000 0.000000 0.000000 0.035663 0.000000 0.000000
# 5 0.000000 0.000000 0.000000 0.000000 0.025739 0.000000
# 6 0.000000 0.000000 0.000000 0.000000 0.000000 0.045404
#
#
# Mechanical properties :
#
#
# Convention : Reuss Voigt Hill
#
# Bulk Modulus (GPa) = 66.95346 68.03565 67.49456
# Shear Modulus (GPa) = 25.19925 26.72949 25.96437
#
# Velocity S-wave (km/s) = 3.58406 3.69128 3.63807
# Velocity P-wave (km/s) = 7.15943 7.26974 7.21479
#
# Compressibility (1/GPa) = 0.01493575
#
# Stress axis : x y z
#
# Youngs Moduli (GPa) = 60.41144 69.43366 50.43110
#
# Poissons Ratio (x) = 0.32207 0.34216
# Poissons Ratio (y) = 0.28022 0.32786
# Poissons Ratio (z) = 0.40987 0.45140
#
# Static dielectric constant tensor:
#      x y z
#    x 3.676170 0.000000 0.000000 
#    y 0.000000 3.580190 0.000000 
#    z 0.000000 0.000000 3.575620 
# 
# 
# High freq. dielectric constant tensor:
#      x y z
#    x 1.776150 0.000000 0.000000 
#    y 0.000000 1.754380 0.000000 
#    z 0.000000 0.000000 1.764450 
# 
# From -- ./inp_files/5055.got.cif
#   From: 2010.03.12/outbox.cif.g09.slc.cpg/sg31_3_cif.got.tgz:5055.got - 2010.04.14 01:42:59.
