data_PCOD8169654
_publ_section_title
;
Structure prediction by ZEFSAII (Michael W. Deem and Ramdas Pophale) SiO2 
 PCOD8169654
Probable space group: P N C 2
;
_chemical_formula_sum "Si O2"
_cell_formula_units_Z 22
_cell_length_a 8.663991
_cell_length_b 11.493480
_cell_length_c 8.817500
_cell_angle_alpha 90.000000
_cell_angle_beta 90.000000
_cell_angle_gamma 90.000000
_cell_volume 878.041424
_symmetry_space_group_name_H-M "P N C 2"
_symmetry_group_IT_number 30
_symmetry_cell_setting 'orthorhombic'
loop_
_space_group_symop_operation_xyz
x,y,z
-x,-y,z
-x,1/2+y,1/2+z
x,1/2-y,1/2+z
loop_
_atom_site_type_symbol
_atom_site_label
_atom_site_fract_x
_atom_site_fract_y
_atom_site_fract_z
Si Si1 0.726224 0.015262 0.663300
Si Si2 0.000000 0.000000 0.442932
Si Si3 0.026280 0.677029 0.691769
Si Si4 0.626716 0.273225 0.720112
Si Si5 0.420557 0.196618 0.489710
Si Si6 0.140453 0.155663 0.881085
O O1 0.615735 0.920819 0.582086
O O2 0.788947 0.964905 0.823334
O O3 0.860248 0.045660 0.544601
O O4 0.640767 0.132477 0.714042
O O5 0.954009 0.895324 0.331052
O O6 0.211060 0.666046 0.681362
O O7 0.969898 0.806282 0.738707
O O8 0.957293 0.634717 0.532894
O O9 0.490093 0.297856 0.599311
O O10 0.564020 0.327866 0.876031
O O11 0.272298 0.248094 0.406410
#
# Coordination Sequence:
#
# PCOD8169654 Si02
#       6
#     4   2   4   4   4   4
#     4  12  25  48  78 109 151 206 260 315 406 465
#     4  12  26  46  76 114 144 206 266 326 390 464
#     4  12  25  46  70 111 150 196 261 327 378 468
#     4  12  27  45  75 111 152 197 255 323 389 465
#     4  12  24  45  73 107 147 196 249 313 388 470
#     4  12  23  46  75 100 147 199 254 312 388 471
#
# _framework density 25.055765000000001
#
# number of rings (size 3 to 8) (size 9 to 14) (size 15 to 20)
#    0.000    0.000    5.455    4.909    0.000    3.636 
#    0.000    0.000    4.000    0.000    0.000    0.000 
#    0.000    0.000    0.000    0.000    0.000    0.000 
#
# Total GULP energy -272736.721038 kJ/mol
# GULP energy per Si atom -12397.123684 kJ/mol
# Density = 2.499874 g / cm^3
# Si number density = 25.055765 Si / 1000 Ang^3
#
#
#
# Elastic Constant Matrix: (Units=GPa)
#
#
# Indices 1 2 3 4 5 6 
#
# 1 132.2705 16.4479 63.0742 0.0000 0.0000 0.0000
# 2 16.4479 54.3624 30.8915 0.0000 0.0000 0.0000
# 3 63.0742 30.8915 158.9314 0.0000 0.0000 0.0000
# 4 0.0000 0.0000 0.0000 22.5439 0.0000 0.0000
# 5 0.0000 0.0000 0.0000 0.0000 52.9461 0.0000
# 6 0.0000 0.0000 0.0000 0.0000 0.0000 29.5942
#
#
#
# Elastic Compliance Matrix: (Units=1/GPa)
#
#
# Indices 1 2 3 4 5 6 
#
# 1 0.009357 -0.000810 -0.003556 0.000000 0.000000 0.000000
# 2 -0.000810 0.020749 -0.003711 0.000000 0.000000 0.000000
# 3 -0.003556 -0.003711 0.008425 0.000000 0.000000 0.000000
# 4 0.000000 0.000000 0.000000 0.044358 0.000000 0.000000
# 5 0.000000 0.000000 0.000000 0.000000 0.018887 0.000000
# 6 0.000000 0.000000 0.000000 0.000000 0.000000 0.033790
#
#
# Mechanical properties :
#
#
# Convention : Reuss Voigt Hill
#
# Bulk Modulus (GPa) = 44.69212 62.93240 53.81226
# Shear Modulus (GPa) = 31.41104 36.69354 34.05229
#
# Velocity S-wave (km/s) = 3.54453 3.83100 3.69054
# Velocity P-wave (km/s) = 5.88450 6.68881 6.29950
#
# Compressibility (1/GPa) = 0.02237531
#
# Stress axis : x y z
#
# Youngs Moduli (GPa) = 106.87589 48.19445 118.70012
#
# Poissons Ratio (x) = 0.03905 0.42208
# Poissons Ratio (y) = 0.08661 0.44055
# Poissons Ratio (z) = 0.38003 0.17887
#
# Static dielectric constant tensor:
#      x y z
#    x 4.766730 0.000000 0.000000 
#    y 0.000000 4.424250 0.000000 
#    z 0.000000 0.000000 4.736330 
# 
# 
# High freq. dielectric constant tensor:
#      x y z
#    x 2.022270 0.000000 0.000000 
#    y 0.000000 1.977870 0.000000 
#    z 0.000000 0.000000 2.010890 
# 
# From -- ./inp_files/1794.got.cif
#   From: 2010.03.12/outbox.cif.g09.slc.cpg/sg30_1_cif.got.tgz:1794.got - 2010.04.14 01:38:02.
