data_PCOD8169200
_publ_section_title
;
Structure prediction by ZEFSAII (Michael W. Deem and Ramdas Pophale) SiO2 
 PCOD8169200
Probable space group: P C A 21
;
_chemical_formula_sum "Si O2"
_cell_formula_units_Z 32
_cell_length_a 18.341547
_cell_length_b 6.516958
_cell_length_c 12.491164
_cell_angle_alpha 90.000000
_cell_angle_beta 90.000000
_cell_angle_gamma 90.000000
_cell_volume 1493.082466
_symmetry_space_group_name_H-M "P C A 21"
_symmetry_group_IT_number 29
_symmetry_cell_setting 'orthorhombic'
loop_
_space_group_symop_operation_xyz
x,y,z
-x,-y,1/2+z
1/2-x,y,1/2+z
1/2+x,-y,z
loop_
_atom_site_type_symbol
_atom_site_label
_atom_site_fract_x
_atom_site_fract_y
_atom_site_fract_z
Si Si1 0.062135 0.117667 0.966200
Si Si2 0.456340 0.061225 0.808781
Si Si3 0.747306 0.287665 0.527395
Si Si4 0.511750 0.592655 0.143407
Si Si5 0.698299 0.638152 0.886944
Si Si6 0.354885 0.406538 0.147666
Si Si7 0.391540 0.791482 0.627982
Si Si8 0.170904 0.114562 0.463796
O O1 0.140340 0.222069 0.949638
O O2 0.025223 0.070080 0.851734
O O3 0.011220 0.268259 0.036645
O O4 0.071488 0.901350 0.026281
O O5 0.483613 0.264411 0.748268
O O6 0.408352 0.122586 0.910728
O O7 0.407588 0.918994 0.734076
O O8 0.795661 0.416428 0.442690
O O9 0.685070 0.412652 0.586295
O O10 0.804145 0.205007 0.615621
O O11 0.706025 0.109101 0.464755
O O12 0.440203 0.454645 0.151050
O O13 0.580731 0.441055 0.139637
O O14 0.676546 0.612891 0.765194
O O15 0.777362 0.740848 0.893292
O O16 0.339947 0.194419 0.085210
#
# Coordination Sequence:
#
# PCOD8169200 Si02
#       8
#     4   4   4   4   4   4   4   4
#     4  11  23  45  66 100 138 180 234 284 349 416
#     4  11  27  41  73 102 138 185 231 291 355 419
#     4  11  25  44  69  97 139 182 227 287 349 413
#     4  11  25  46  69 100 145 181 235 289 353 423
#     4  11  25  42  70  99 134 181 229 284 347 415
#     4  11  27  42  69 103 134 177 233 285 344 421
#     4  11  24  42  70  97 136 188 229 287 348 423
#     4  11  26  46  66 102 142 178 232 293 341 420
#
# _framework density 21.432171
#
# number of rings (size 3 to 8) (size 9 to 14) (size 15 to 20)
#    0.000    1.000    2.500    2.250    7.000    7.000 
#    0.000    0.000    0.000    0.000    0.000    0.000 
#    0.000    0.000    0.000    0.000    0.000    0.000 
#
# Total GULP energy -397021.052504 kJ/mol
# GULP energy per Si atom -12406.907891 kJ/mol
# Density = 2.138339 g / cm^3
# Si number density = 21.432171 Si / 1000 Ang^3
#
#
#
# Elastic Constant Matrix: (Units=GPa)
#
#
# Indices 1 2 3 4 5 6 
#
# 1 90.8284 22.9580 18.0759 0.0000 0.0000 0.0000
# 2 22.9580 105.5003 32.6898 0.0000 0.0000 0.0000
# 3 18.0759 32.6898 93.3234 0.0000 0.0000 0.0000
# 4 0.0000 0.0000 0.0000 22.3663 0.0000 0.0000
# 5 0.0000 0.0000 0.0000 0.0000 38.5041 0.0000
# 6 0.0000 0.0000 0.0000 0.0000 0.0000 33.4523
#
#
#
# Elastic Compliance Matrix: (Units=1/GPa)
#
#
# Indices 1 2 3 4 5 6 
#
# 1 0.011850 -0.002095 -0.001561 0.000000 0.000000 0.000000
# 2 -0.002095 0.011003 -0.003448 0.000000 0.000000 0.000000
# 3 -0.001561 -0.003448 0.012226 0.000000 0.000000 0.000000
# 4 0.000000 0.000000 0.000000 0.044710 0.000000 0.000000
# 5 0.000000 0.000000 0.000000 0.000000 0.025971 0.000000
# 6 0.000000 0.000000 0.000000 0.000000 0.000000 0.029893
#
#
# Mechanical properties :
#
#
# Convention : Reuss Voigt Hill
#
# Bulk Modulus (GPa) = 47.91717 48.56661 48.24189
# Shear Modulus (GPa) = 31.88377 33.25976 32.57176
#
# Velocity S-wave (km/s) = 3.86120 3.94364 3.90264
# Velocity P-wave (km/s) = 6.50266 6.59137 6.54717
#
# Compressibility (1/GPa) = 0.02086935
#
# Stress axis : x y z
#
# Youngs Moduli (GPa) = 84.38799 90.88407 81.79423
#
# Poissons Ratio (x) = 0.19039 0.12772
# Poissons Ratio (y) = 0.17678 0.28206
# Poissons Ratio (z) = 0.13177 0.31341
#
# Static dielectric constant tensor:
#      x y z
#    x 3.914200 0.000000 0.000000 
#    y 0.000000 3.979080 0.000000 
#    z 0.000000 0.000000 3.835960 
# 
# 
# High freq. dielectric constant tensor:
#      x y z
#    x 1.851520 0.000000 0.000000 
#    y 0.000000 1.851770 0.000000 
#    z 0.000000 0.000000 1.842490 
# 
# From -- ./inp_files/3826.got.cif
#   From: 2010.03.12/outbox.cif.g09.slc.cpg/sg29_2_cif.got.tgz:3826.got - 2010.04.14 03:43:10.
