data_PCOD8169723
_publ_section_title
;
Structure prediction by ZEFSAII (Michael W. Deem and Ramdas Pophale) SiO2 
 PCOD8169723
Probable space group: P M N 21
;
_chemical_formula_sum "Si O2"
_cell_formula_units_Z 24
_cell_length_a 8.964030
_cell_length_b 9.197387
_cell_length_c 15.644551
_cell_angle_alpha 90.000000
_cell_angle_beta 90.000000
_cell_angle_gamma 90.000000
_cell_volume 1289.825223
_symmetry_space_group_name_H-M "P M N 21"
_symmetry_group_IT_number 31
_symmetry_cell_setting 'orthorhombic'
loop_
_space_group_symop_operation_xyz
x,y,z
1/2-x,-y,1/2+z
-x,y,z
1/2+x,-y,1/2+z
loop_
_atom_site_type_symbol
_atom_site_label
_atom_site_fract_x
_atom_site_fract_y
_atom_site_fract_z
Si Si1 0.329118 0.911895 0.885530
Si Si2 0.170783 0.817232 0.481159
Si Si3 0.674306 0.416455 0.732733
Si Si4 0.675840 0.585413 0.903997
Si Si5 0.675869 0.576778 0.561296
Si Si6 0.823314 0.166995 0.812948
O O1 0.500000 0.905541 0.854131
O O2 0.235782 0.999177 0.812038
O O3 0.265663 0.752137 0.900584
O O4 0.316681 0.006177 0.975031
O O5 0.255248 0.741448 0.560626
O O6 0.250907 0.752624 0.395875
O O7 0.000000 0.765077 0.480895
O O8 0.500000 0.380257 0.730267
O O9 0.726658 0.501421 0.648584
O O10 0.764042 0.263038 0.733631
O O11 0.717532 0.515882 0.813276
O O12 0.500000 0.579391 0.922167
O O13 0.761052 0.512033 0.981685
O O14 0.500000 0.588712 0.554764
O O15 0.000000 0.167776 0.816591
#
# Coordination Sequence:
#
# PCOD8169723 Si02
#       6
#     4   4   4   4   4   4
#     4   8  17  32  54  78 103 141 180 214 267 328
#     4   9  17  33  54  74 101 140 176 211 266 319
#     4  10  21  36  55  79 110 145 179 220 271 324
#     4  10  19  36  58  78 106 146 183 218 268 327
#     4  11  22  34  53  84 111 138 182 228 268 314
#     4  10  18  31  54  79 103 136 178 219 264 314
#
# _framework density 18.607173
#
# number of rings (size 3 to 8) (size 9 to 14) (size 15 to 20)
#    1.000    1.333    1.667    2.000    0.000    2.000 
#    0.000    1.667    0.000    6.000    0.000    0.000 
#    0.000    0.000    0.000    0.000    0.000    0.000 
#
# Total GULP energy -297324.400006 kJ/mol
# GULP energy per Si atom -12388.516667 kJ/mol
# Density = 1.856482 g / cm^3
# Si number density = 18.607173 Si / 1000 Ang^3
#
#
#
# Elastic Constant Matrix: (Units=GPa)
#
#
# Indices 1 2 3 4 5 6 
#
# 1 75.2479 20.0283 24.2858 0.0000 0.0000 0.0000
# 2 20.0283 95.2284 21.7165 0.0000 0.0000 0.0000
# 3 24.2858 21.7165 72.7769 0.0000 0.0000 0.0000
# 4 0.0000 0.0000 0.0000 12.4668 0.0000 0.0000
# 5 0.0000 0.0000 0.0000 0.0000 24.4325 0.0000
# 6 0.0000 0.0000 0.0000 0.0000 0.0000 19.5127
#
#
#
# Elastic Compliance Matrix: (Units=1/GPa)
#
#
# Indices 1 2 3 4 5 6 
#
# 1 0.015313 -0.002205 -0.004452 0.000000 0.000000 0.000000
# 2 -0.002205 0.011585 -0.002721 0.000000 0.000000 0.000000
# 3 -0.004452 -0.002721 0.016038 0.000000 0.000000 0.000000
# 4 0.000000 0.000000 0.000000 0.080213 0.000000 0.000000
# 5 0.000000 0.000000 0.000000 0.000000 0.040929 0.000000
# 6 0.000000 0.000000 0.000000 0.000000 0.000000 0.051249
#
#
# Mechanical properties :
#
#
# Convention : Reuss Voigt Hill
#
# Bulk Modulus (GPa) = 41.35661 41.70159 41.52910
# Shear Modulus (GPa) = 20.64880 23.09724 21.87302
#
# Velocity S-wave (km/s) = 3.33486 3.52704 3.43230
# Velocity P-wave (km/s) = 6.09121 6.24875 6.17049
#
# Compressibility (1/GPa) = 0.02417993
#
# Stress axis : x y z
#
# Youngs Moduli (GPa) = 65.30288 86.31511 62.35105
#
# Poissons Ratio (x) = 0.19036 0.27758
# Poissons Ratio (y) = 0.14402 0.16967
# Poissons Ratio (z) = 0.29073 0.23487
#
# Static dielectric constant tensor:
#      x y z
#    x 3.311620 0.000000 0.000000 
#    y 0.000000 3.603750 0.000000 
#    z 0.000000 0.000000 3.190830 
# 
# 
# High freq. dielectric constant tensor:
#      x y z
#    x 1.720710 0.000000 0.000000 
#    y 0.000000 1.730780 0.000000 
#    z 0.000000 0.000000 1.682570 
# 
# From -- ./inp_files/5702.got.cif
#   From: 2010.03.12/outbox.cif.g09.slc.cpg/sg31_3_cif.got.tgz:5702.got - 2010.04.14 01:42:59.
