data_PCOD8169277
_publ_section_title
;
Structure prediction by ZEFSAII (Michael W. Deem and Ramdas Pophale) SiO2 
 PCOD8169277
Probable space group: P C A 21
;
_chemical_formula_sum "Si O2"
_cell_formula_units_Z 24
_cell_length_a 12.599519
_cell_length_b 6.391923
_cell_length_c 13.457263
_cell_angle_alpha 90.000000
_cell_angle_beta 90.000000
_cell_angle_gamma 90.000000
_cell_volume 1083.782765
_symmetry_space_group_name_H-M "P C A 21"
_symmetry_group_IT_number 29
_symmetry_cell_setting 'orthorhombic'
loop_
_space_group_symop_operation_xyz
x,y,z
-x,-y,1/2+z
1/2-x,y,1/2+z
1/2+x,-y,z
loop_
_atom_site_type_symbol
_atom_site_label
_atom_site_fract_x
_atom_site_fract_y
_atom_site_fract_z
Si Si1 0.719134 0.229420 0.746730
Si Si2 0.777751 0.873241 0.405852
Si Si3 0.951545 0.538509 0.454160
Si Si4 0.866189 0.576420 0.816194
Si Si5 0.494066 0.232240 0.646263
Si Si6 0.368161 0.859930 0.567382
O O1 0.763264 0.423342 0.811409
O O2 0.600167 0.260683 0.709362
O O3 0.803938 0.232624 0.658299
O O4 0.710765 0.018548 0.809418
O O5 0.865581 0.693959 0.409620
O O6 0.664151 0.762396 0.392821
O O7 0.783198 0.997104 0.508873
O O8 0.011939 0.631355 0.548591
O O9 0.906676 0.312311 0.487541
O O10 0.032332 0.532401 0.362871
O O11 0.895427 0.673695 0.708818
O O12 0.466656 0.994557 0.611993
#
# Coordination Sequence:
#
# PCOD8169277 Si02
#       6
#     4   4   4   4   4   4
#     4  12  27  45  75 105 143 191 242 300 366 440
#     4  11  26  45  70 106 139 189 241 294 364 435
#     4  11  27  47  72 104 148 187 244 297 369 429
#     4  12  25  46  72 107 144 189 242 306 360 436
#     4  11  26  45  72 106 143 190 239 302 364 435
#     4  11  25  48  71 106 143 190 240 301 369 435
#
# _framework density 22.144659999999998
#
# number of rings (size 3 to 8) (size 9 to 14) (size 15 to 20)
#    0.000    0.667    3.333    3.000    9.333    2.667 
#    0.000    0.000    0.000    0.000    0.000    0.000 
#    0.000    0.000    0.000    0.000    0.000    0.000 
#
# Total GULP energy -297514.383928 kJ/mol
# GULP energy per Si atom -12396.432664 kJ/mol
# Density = 2.209426 g / cm^3
# Si number density = 22.144660 Si / 1000 Ang^3
#
#
#
# Elastic Constant Matrix: (Units=GPa)
#
#
# Indices 1 2 3 4 5 6 
#
# 1 49.3595 31.1406 16.6224 0.0000 0.0000 0.0000
# 2 31.1406 116.2823 30.8092 0.0000 0.0000 0.0000
# 3 16.6224 30.8092 76.0055 0.0000 0.0000 0.0000
# 4 0.0000 0.0000 0.0000 53.3972 0.0000 0.0000
# 5 0.0000 0.0000 0.0000 0.0000 40.8490 0.0000
# 6 0.0000 0.0000 0.0000 0.0000 0.0000 28.5911
#
#
#
# Elastic Compliance Matrix: (Units=1/GPa)
#
#
# Indices 1 2 3 4 5 6 
#
# 1 0.025008 -0.005880 -0.003086 0.000000 0.000000 0.000000
# 2 -0.005880 0.011017 -0.003180 0.000000 0.000000 0.000000
# 3 -0.003086 -0.003180 0.015121 0.000000 0.000000 0.000000
# 4 0.000000 0.000000 0.000000 0.018728 0.000000 0.000000
# 5 0.000000 0.000000 0.000000 0.000000 0.024480 0.000000
# 6 0.000000 0.000000 0.000000 0.000000 0.000000 0.034976
#
#
# Mechanical properties :
#
#
# Convention : Reuss Voigt Hill
#
# Bulk Modulus (GPa) = 37.23705 44.31020 40.77362
# Shear Modulus (GPa) = 30.75558 35.43913 33.09735
#
# Velocity S-wave (km/s) = 3.73077 4.00477 3.87020
# Velocity P-wave (km/s) = 5.95063 6.43717 6.19868
#
# Compressibility (1/GPa) = 0.02685497
#
# Stress axis : x y z
#
# Youngs Moduli (GPa) = 39.98701 90.77017 66.13396
#
# Poissons Ratio (x) = 0.53369 0.20409
# Poissons Ratio (y) = 0.23511 0.21030
# Poissons Ratio (z) = 0.12340 0.28864
#
# Static dielectric constant tensor:
#      x y z
#    x 3.783110 0.000000 0.000000 
#    y 0.000000 4.015820 0.000000 
#    z 0.000000 0.000000 4.143030 
# 
# 
# High freq. dielectric constant tensor:
#      x y z
#    x 1.864730 0.000000 0.000000 
#    y 0.000000 1.885790 0.000000 
#    z 0.000000 0.000000 1.889300 
# 
# From -- ./inp_files/4419.got.cif
#   From: 2010.03.12/outbox.cif.g09.slc.cpg/sg29_3_cif.got.tgz:4419.got - 2010.04.14 03:43:10.
