data_PCOD8169783
_publ_section_title
;
Structure prediction by ZEFSAII (Michael W. Deem and Ramdas Pophale) SiO2 
 PCOD8169783
Probable space group: P M N 21
;
_chemical_formula_sum "Si O2"
_cell_formula_units_Z 32
_cell_length_a 9.096639
_cell_length_b 11.536024
_cell_length_c 17.425452
_cell_angle_alpha 90.000000
_cell_angle_beta 90.000000
_cell_angle_gamma 90.000000
_cell_volume 1828.610306
_symmetry_space_group_name_H-M "P M N 21"
_symmetry_group_IT_number 31
_symmetry_cell_setting 'orthorhombic'
loop_
_space_group_symop_operation_xyz
x,y,z
1/2-x,-y,1/2+z
-x,y,z
1/2+x,-y,1/2+z
loop_
_atom_site_type_symbol
_atom_site_label
_atom_site_fract_x
_atom_site_fract_y
_atom_site_fract_z
Si Si1 0.671055 0.905491 0.023260
Si Si2 0.167373 0.836207 0.487186
Si Si3 0.665424 0.306871 0.240267
Si Si4 0.670011 0.083212 0.819969
Si Si5 0.673090 0.144152 0.373204
Si Si6 0.327110 0.787824 0.183384
Si Si7 0.666272 0.528451 0.160701
Si Si8 0.673141 0.670437 0.594589
O O1 0.500000 0.892332 0.003340
O O2 0.712337 0.851413 0.104460
O O3 0.758937 0.837138 0.957225
O O4 0.715902 0.040379 0.022902
O O5 0.187081 0.838442 0.395694
O O6 0.272495 0.736268 0.518949
O O7 0.000000 0.807780 0.510263
O O8 0.500000 0.263092 0.222291
O O9 0.714271 0.257754 0.322680
O O10 0.671283 0.448485 0.238444
O O11 0.768928 0.260559 0.170646
O O12 0.500000 0.053082 0.804927
O O13 0.734956 0.153321 0.749579
O O14 0.758824 0.964826 0.829199
O O15 0.500000 0.125651 0.381452
O O16 0.500000 0.795263 0.202138
O O17 0.271038 0.655320 0.178063
O O18 0.500000 0.539941 0.129372
O O19 0.762324 0.461470 0.095756
O O20 0.500000 0.664845 0.594449
#
# Coordination Sequence:
#
# PCOD8169783 Si02
#       8
#     4   4   4   4   4   4   4   4
#     4   9  20  35  53  78 108 138 170 211 261 313
#     4   9  18  35  52  72 107 140 167 205 262 317
#     4   8  17  33  53  74 100 136 173 211 260 310
#     4  10  22  36  53  78 110 140 171 218 263 309
#     4  10  19  34  55  79 106 137 174 214 262 313
#     4  10  20  36  57  77 103 144 180 209 258 320
#     4   8  17  35  53  72 104 141 178 213 255 313
#     4  10  19  30  52  80 102 128 173 223 257 297
#
# _framework density 17.499627
#
# number of rings (size 3 to 8) (size 9 to 14) (size 15 to 20)
#    0.750    2.000    0.000    2.250    1.750    4.500 
#    0.000    1.250    0.000    3.000    0.000    0.000 
#    0.000    0.000    0.000    0.000    0.000    0.000 
#
# Total GULP energy -396604.606249 kJ/mol
# GULP energy per Si atom -12393.893945 kJ/mol
# Density = 1.745980 g / cm^3
# Si number density = 17.499627 Si / 1000 Ang^3
#
#
#
# Elastic Constant Matrix: (Units=GPa)
#
#
# Indices 1 2 3 4 5 6 
#
# 1 84.6068 38.2429 50.0436 0.0000 0.0000 0.0000
# 2 38.2429 87.0597 61.1503 0.0000 0.0000 0.0000
# 3 50.0436 61.1503 106.1922 0.0000 0.0000 0.0000
# 4 0.0000 0.0000 0.0000 -5.5078 0.0000 0.0000
# 5 0.0000 0.0000 0.0000 0.0000 32.1273 0.0000
# 6 0.0000 0.0000 0.0000 0.0000 0.0000 19.0769
#
#
#
# Elastic Compliance Matrix: (Units=1/GPa)
#
#
# Indices 1 2 3 4 5 6 
#
# 1 0.016861 -0.003065 -0.006181 0.000000 0.000000 0.000000
# 2 -0.003065 0.019845 -0.009983 0.000000 0.000000 0.000000
# 3 -0.006181 -0.009983 0.018078 0.000000 0.000000 0.000000
# 4 0.000000 0.000000 0.000000 -0.181559 0.000000 0.000000
# 5 0.000000 0.000000 0.000000 0.000000 0.031126 0.000000
# 6 0.000000 0.000000 0.000000 0.000000 0.000000 0.052419
#
#
# Mechanical properties :
#
#
# Convention : Reuss Voigt Hill
#
# Bulk Modulus (GPa) = 61.25200 64.08138 62.66669
# Shear Modulus (GPa) = 7466.12311 17.70074 3741.91192
#
# Velocity S-wave (km/s) = 65.38891 3.18385 46.29172
# Velocity P-wave (km/s) = 75.73654 7.08619 53.78772
#
# Compressibility (1/GPa) = 0.01632600
#
# Stress axis : x y z
#
# Youngs Moduli (GPa) = 59.30999 50.39079 55.31516
#
# Poissons Ratio (x) = 0.15446 0.34188
# Poissons Ratio (y) = 0.18180 0.55222
# Poissons Ratio (z) = 0.36657 0.50306
#
# Static dielectric constant tensor:
#      x y z
#    x 3.197970 0.000000 0.000000 
#    y 0.000000 3.234950 0.000000 
#    z 0.000000 0.000000 3.159220 
# 
# 
# High freq. dielectric constant tensor:
#      x y z
#    x 1.676630 0.000000 0.000000 
#    y 0.000000 1.663950 0.000000 
#    z 0.000000 0.000000 1.664300 
# 
# From -- ./inp_files/5913.got.cif
#   From: 2010.03.12/outbox.cif.g09.slc.cpg/sg31_3_cif.got.tgz:5913.got - 2010.04.14 01:42:59.
