data_PCOD8169917
_publ_section_title
;
Structure prediction by ZEFSAII (Michael W. Deem and Ramdas Pophale) SiO2 
 PCOD8169917
Probable space group: P M N 21
;
_chemical_formula_sum "Si O2"
_cell_formula_units_Z 32
_cell_length_a 9.084893
_cell_length_b 14.569236
_cell_length_c 12.352441
_cell_angle_alpha 90.000000
_cell_angle_beta 90.000000
_cell_angle_gamma 90.000000
_cell_volume 1634.968475
_symmetry_space_group_name_H-M "P M N 21"
_symmetry_group_IT_number 31
_symmetry_cell_setting 'orthorhombic'
loop_
_space_group_symop_operation_xyz
x,y,z
1/2-x,-y,1/2+z
-x,y,z
1/2+x,-y,1/2+z
loop_
_atom_site_type_symbol
_atom_site_label
_atom_site_fract_x
_atom_site_fract_y
_atom_site_fract_z
Si Si1 0.668595 0.334246 0.410190
Si Si2 0.325228 0.551445 0.085056
Si Si3 0.160825 0.861785 0.996199
Si Si4 0.829651 0.245017 0.216808
Si Si5 0.170193 0.373931 0.027996
Si Si6 0.326121 0.675511 0.287500
Si Si7 0.332518 0.135736 0.744434
Si Si8 0.171990 0.057407 0.311786
O O1 0.500000 0.366258 0.392771
O O2 0.757291 0.412552 0.472718
O O3 0.681261 0.246825 0.487616
O O4 0.739157 0.313743 0.293787
O O5 0.500000 0.553669 0.077301
O O6 0.271087 0.608173 0.191222
O O7 0.267213 0.447724 0.093449
O O8 0.288333 0.914693 0.933458
O O9 0.000000 0.889540 0.949022
O O10 0.173175 0.888272 0.119195
O O11 0.771977 0.139553 0.231364
O O12 0.000000 0.249875 0.252985
O O13 0.809087 0.277515 0.092717
O O14 0.225131 0.363043 0.904290
O O15 0.000000 0.404741 0.030789
O O16 0.500000 0.685221 0.283874
O O17 0.262158 0.776635 0.274630
O O18 0.500000 0.153510 0.783432
O O19 0.258828 0.043288 0.793430
O O20 0.000000 0.045725 0.296852
#
# Coordination Sequence:
#
# PCOD8169917 Si02
#       8
#     4   4   4   4   4   4   4   4
#     4  10  19  34  58  83 109 145 190 242 290 340
#     4  11  23  38  58  86 115 149 192 241 294 346
#     4   9  18  33  53  79 109 145 189 236 286 340
#     4   9  19  37  58  83 117 155 195 237 289 345
#     4  10  23  41  60  85 118 158 195 236 293 351
#     4  10  23  41  60  86 119 153 194 241 291 350
#     4  10  20  36  58  85 116 153 195 239 292 345
#     4   9  19  34  55  83 115 152 194 240 285 341
#
# _framework density 19.572241000000002
#
# number of rings (size 3 to 8) (size 9 to 14) (size 15 to 20)
#    0.000    2.250    1.250    0.750    1.750    4.000 
#    0.000    2.500    0.000    3.000    0.000    0.000 
#    0.000    0.000    0.000    0.000    0.000    0.000 
#
# Total GULP energy -396689.705333 kJ/mol
# GULP energy per Si atom -12396.553292 kJ/mol
# Density = 1.952769 g / cm^3
# Si number density = 19.572241 Si / 1000 Ang^3
#
#
#
# Elastic Constant Matrix: (Units=GPa)
#
#
# Indices 1 2 3 4 5 6 
#
# 1 45.7522 33.1336 26.8930 0.0000 0.0000 0.0000
# 2 33.1336 124.5410 46.4870 0.0000 0.0000 0.0000
# 3 26.8930 46.4870 82.9296 0.0000 0.0000 0.0000
# 4 0.0000 0.0000 0.0000 26.0750 0.0000 0.0000
# 5 0.0000 0.0000 0.0000 0.0000 25.5433 0.0000
# 6 0.0000 0.0000 0.0000 0.0000 0.0000 26.4150
#
#
#
# Elastic Compliance Matrix: (Units=1/GPa)
#
#
# Indices 1 2 3 4 5 6 
#
# 1 0.029656 -0.005438 -0.006569 0.000000 0.000000 0.000000
# 2 -0.005438 0.011151 -0.004487 0.000000 0.000000 0.000000
# 3 -0.006569 -0.004487 0.016704 0.000000 0.000000 0.000000
# 4 0.000000 0.000000 0.000000 0.038351 0.000000 0.000000
# 5 0.000000 0.000000 0.000000 0.000000 0.039149 0.000000
# 6 0.000000 0.000000 0.000000 0.000000 0.000000 0.037857
#
#
# Mechanical properties :
#
#
# Convention : Reuss Voigt Hill
#
# Bulk Modulus (GPa) = 40.77803 51.80555 46.29179
# Shear Modulus (GPa) = 23.36102 25.38727 24.37414
#
# Velocity S-wave (km/s) = 3.45857 3.60544 3.53277
# Velocity P-wave (km/s) = 6.06867 6.62259 6.35167
#
# Compressibility (1/GPa) = 0.02452301
#
# Stress axis : x y z
#
# Youngs Moduli (GPa) = 33.71984 89.67593 59.86560
#
# Poissons Ratio (x) = 0.48766 0.39324
# Poissons Ratio (y) = 0.18337 0.26865
# Poissons Ratio (z) = 0.22150 0.40242
#
# Static dielectric constant tensor:
#      x y z
#    x 3.529250 0.000000 0.000000 
#    y 0.000000 3.653580 0.000000 
#    z 0.000000 0.000000 3.517510 
# 
# 
# High freq. dielectric constant tensor:
#      x y z
#    x 1.752090 0.000000 0.000000 
#    y 0.000000 1.766210 0.000000 
#    z 0.000000 0.000000 1.757840 
# 
# From -- ./inp_files/3599.got.cif
#   From: 2010.03.12/outbox.cif.g09.slc.cpg/sg31_2_cif.got.tgz:3599.got - 2010.04.14 01:42:59.
