data_PCOD8169232
_publ_section_title
;
Structure prediction by ZEFSAII (Michael W. Deem and Ramdas Pophale) SiO2 
 PCOD8169232
Probable space group: P C A 21
;
_chemical_formula_sum "Si O2"
_cell_formula_units_Z 20
_cell_length_a 8.472546
_cell_length_b 7.533353
_cell_length_c 13.368928
_cell_angle_alpha 90.000000
_cell_angle_beta 90.000000
_cell_angle_gamma 90.000000
_cell_volume 853.294287
_symmetry_space_group_name_H-M "P C A 21"
_symmetry_group_IT_number 29
_symmetry_cell_setting 'orthorhombic'
loop_
_space_group_symop_operation_xyz
x,y,z
-x,-y,1/2+z
1/2-x,y,1/2+z
1/2+x,-y,z
loop_
_atom_site_type_symbol
_atom_site_label
_atom_site_fract_x
_atom_site_fract_y
_atom_site_fract_z
Si Si1 0.517721 0.937201 0.412750
Si Si2 0.105086 0.691296 0.462384
Si Si3 0.269361 0.355721 0.393905
Si Si4 0.901907 0.884331 0.229280
Si Si5 0.191731 0.875786 0.100749
O O1 0.626016 0.766788 0.430997
O O2 0.391116 0.948217 0.500649
O O3 0.624043 0.115376 0.412189
O O4 0.432086 0.948418 0.304441
O O5 0.200793 0.554402 0.392023
O O6 0.189363 0.712289 0.571736
O O7 0.919290 0.642853 0.469787
O O8 0.325358 0.285210 0.285541
O O9 0.062947 0.810578 0.180442
O O10 0.787917 0.955650 0.142708
#
# Coordination Sequence:
#
# PCOD8169232 Si02
#       5
#     4   4   4   4   4
#     4  11  24  47  80 105 155 198 250 318 380 444
#     4  11  24  44  75 104 148 196 244 307 376 436
#     4  11  25  49  75 109 154 198 246 316 377 445
#     4  11  25  44  78 115 146 203 257 308 381 458
#     4  12  24  44  82 113 145 205 259 303 386 459
#
# _framework density 23.438572000000001
#
# number of rings (size 3 to 8) (size 9 to 14) (size 15 to 20)
#    0.000    0.800    4.000    3.600    2.800    0.000 
#    0.000    8.000   13.200    0.000    0.000    0.000 
#    0.000    0.000    0.000    0.000    0.000    0.000 
#
# Total GULP energy -247829.969578 kJ/mol
# GULP energy per Si atom -12391.498479 kJ/mol
# Density = 2.338522 g / cm^3
# Si number density = 23.438572 Si / 1000 Ang^3
#
#
#
# Elastic Constant Matrix: (Units=GPa)
#
#
# Indices 1 2 3 4 5 6 
#
# 1 149.5697 58.2404 77.7309 0.0000 0.0000 0.0000
# 2 58.2404 120.7244 38.6049 0.0000 0.0000 0.0000
# 3 77.7309 38.6049 122.0474 0.0000 0.0000 0.0000
# 4 0.0000 0.0000 0.0000 37.5753 0.0000 0.0000
# 5 0.0000 0.0000 0.0000 0.0000 60.7259 0.0000
# 6 0.0000 0.0000 0.0000 0.0000 0.0000 37.7167
#
#
#
# Elastic Compliance Matrix: (Units=1/GPa)
#
#
# Indices 1 2 3 4 5 6 
#
# 1 0.011157 -0.003460 -0.006012 0.000000 0.000000 0.000000
# 2 -0.003460 0.010289 -0.001051 0.000000 0.000000 0.000000
# 3 -0.006012 -0.001051 0.012355 0.000000 0.000000 0.000000
# 4 0.000000 0.000000 0.000000 0.026613 0.000000 0.000000
# 5 0.000000 0.000000 0.000000 0.000000 0.016467 0.000000
# 6 0.000000 0.000000 0.000000 0.000000 0.000000 0.026513
#
#
# Mechanical properties :
#
#
# Convention : Reuss Voigt Hill
#
# Bulk Modulus (GPa) = 78.39579 82.38822 80.39200
# Shear Modulus (GPa) = 38.85266 41.72126 40.28696
#
# Velocity S-wave (km/s) = 4.07583 4.22361 4.15038
# Velocity P-wave (km/s) = 7.46122 7.68194 7.57238
#
# Compressibility (1/GPa) = 0.01275579
#
# Stress axis : x y z
#
# Youngs Moduli (GPa) = 89.62664 97.19504 80.94194
#
# Poissons Ratio (x) = 0.33632 0.48659
# Poissons Ratio (y) = 0.31013 0.08504
# Poissons Ratio (z) = 0.53879 0.10211
#
# Static dielectric constant tensor:
#      x y z
#    x 4.788260 0.000000 0.000000 
#    y 0.000000 3.995540 0.000000 
#    z 0.000000 0.000000 4.381000 
# 
# 
# High freq. dielectric constant tensor:
#      x y z
#    x 1.963580 0.000000 0.000000 
#    y 0.000000 1.897070 0.000000 
#    z 0.000000 0.000000 1.914440 
# 
# From -- ./inp_files/4168.got.cif
#   From: 2010.03.12/outbox.cif.g09.slc.cpg/sg29_3_cif.got.tgz:4168.got - 2010.04.14 03:43:10.
