data_PCOD8169037
_publ_section_title
;
Structure prediction by ZEFSAII (Michael W. Deem and Ramdas Pophale) SiO2 
 PCOD8169037
Probable space group: P C A 21
;
_chemical_formula_sum "Si O2"
_cell_formula_units_Z 24
_cell_length_a 8.304470
_cell_length_b 11.771398
_cell_length_c 11.420409
_cell_angle_alpha 90.000000
_cell_angle_beta 90.000000
_cell_angle_gamma 90.000000
_cell_volume 1116.404612
_symmetry_space_group_name_H-M "P C A 21"
_symmetry_group_IT_number 29
_symmetry_cell_setting 'orthorhombic'
loop_
_space_group_symop_operation_xyz
x,y,z
-x,-y,1/2+z
1/2-x,y,1/2+z
1/2+x,-y,z
loop_
_atom_site_type_symbol
_atom_site_label
_atom_site_fract_x
_atom_site_fract_y
_atom_site_fract_z
Si Si1 0.990876 0.145888 0.470010
Si Si2 0.404497 0.348642 0.129700
Si Si3 0.042761 0.415486 0.081842
Si Si4 0.955031 0.285657 0.861624
Si Si5 0.613520 0.237528 0.743258
Si Si6 0.369911 0.905985 0.016670
O O1 0.027325 0.241175 0.563175
O O2 0.016985 0.195248 0.339426
O O3 0.807070 0.110500 0.469673
O O4 0.097407 0.038373 0.503563
O O5 0.229160 0.380842 0.083836
O O6 0.528254 0.451002 0.105742
O O7 0.406545 0.313008 0.266726
O O8 0.951352 0.351266 0.185001
O O9 0.960255 0.386990 0.957013
O O10 0.783456 0.275461 0.797932
O O11 0.990233 0.169028 0.934486
O O12 0.624047 0.133952 0.651149
#
# Coordination Sequence:
#
# PCOD8169037 Si02
#       6
#     4   4   4   4   4   4
#     4  11  26  42  72 102 141 185 235 290 354 420
#     4  12  27  45  72 104 140 188 239 295 362 423
#     4  11  28  44  73 104 141 186 242 294 361 434
#     4  10  24  48  70  98 145 186 240 294 354 425
#     4  10  23  47  72  99 143 190 235 291 356 415
#     4  10  24  44  69 105 138 189 233 292 351 419
#
# _framework density 21.497582000000001
#
# number of rings (size 3 to 8) (size 9 to 14) (size 15 to 20)
#    0.000    1.333    1.667    1.000   16.333    0.000 
#    0.000    0.000    0.000    0.000    0.000    0.000 
#    0.000    0.000    0.000    0.000    0.000    0.000 
#
# Total GULP energy -297592.694309 kJ/mol
# GULP energy per Si atom -12399.695596 kJ/mol
# Density = 2.144865 g / cm^3
# Si number density = 21.497582 Si / 1000 Ang^3
#
#
#
# Elastic Constant Matrix: (Units=GPa)
#
#
# Indices 1 2 3 4 5 6 
#
# 1 68.5850 42.6391 32.0400 0.0000 0.0000 0.0000
# 2 42.6391 160.3409 70.6651 0.0000 0.0000 0.0000
# 3 32.0400 70.6651 160.7057 0.0000 0.0000 0.0000
# 4 0.0000 0.0000 0.0000 24.9990 0.0000 0.0000
# 5 0.0000 0.0000 0.0000 0.0000 247.5273 0.0000
# 6 0.0000 0.0000 0.0000 0.0000 0.0000 869.3654
#
#
#
# Elastic Compliance Matrix: (Units=1/GPa)
#
#
# Indices 1 2 3 4 5 6 
#
# 1 0.017892 -0.003952 -0.001829 0.000000 0.000000 0.000000
# 2 -0.003952 0.008609 -0.002998 0.000000 0.000000 0.000000
# 3 -0.001829 -0.002998 0.007905 0.000000 0.000000 0.000000
# 4 0.000000 0.000000 0.000000 0.040002 0.000000 0.000000
# 5 0.000000 0.000000 0.000000 0.000000 0.004040 0.000000
# 6 0.000000 0.000000 0.000000 0.000000 0.000000 0.001150
#
#
# Mechanical properties :
#
#
# Convention : Reuss Voigt Hill
#
# Bulk Modulus (GPa) = 59.35246 75.59111 67.47179
# Shear Modulus (GPa) = 48.65178 244.66417 146.65798
#
# Velocity S-wave (km/s) = 4.76240 10.67975 8.26854
# Velocity P-wave (km/s) = 7.60982 13.68631 11.07304
#
# Compressibility (1/GPa) = 0.01684850
#
# Stress axis : x y z
#
# Youngs Moduli (GPa) = 55.89136 116.16254 126.49637
#
# Poissons Ratio (x) = 0.45903 0.23142
# Poissons Ratio (y) = 0.22086 0.37918
# Poissons Ratio (z) = 0.10225 0.34820
#
# Static dielectric constant tensor:
#      x y z
#    x 1.878230 0.000000 0.000000 
#    y 0.000000 4.287610 0.000000 
#    z 0.000000 0.000000 4.236420 
# 
# 
# High freq. dielectric constant tensor:
#      x y z
#    x 1.834870 0.000000 0.000000 
#    y 0.000000 1.851310 0.000000 
#    z 0.000000 0.000000 1.863780 
# 
# From -- ./inp_files/2831.got.cif
#   From: 2010.03.12/outbox.cif.g09.slc.cpg/sg29_2_cif.got.tgz:2831.got - 2010.04.14 03:43:10.
