data_PCOD8169915
_publ_section_title
;
Structure prediction by ZEFSAII (Michael W. Deem and Ramdas Pophale) SiO2 
 PCOD8169915
Probable space group: P M N 21
;
_chemical_formula_sum "Si O2"
_cell_formula_units_Z 32
_cell_length_a 8.733663
_cell_length_b 11.891370
_cell_length_c 14.439018
_cell_angle_alpha 90.000000
_cell_angle_beta 90.000000
_cell_angle_gamma 90.000000
_cell_volume 1499.567365
_symmetry_space_group_name_H-M "P M N 21"
_symmetry_group_IT_number 31
_symmetry_cell_setting 'orthorhombic'
loop_
_space_group_symop_operation_xyz
x,y,z
1/2-x,-y,1/2+z
-x,y,z
1/2+x,-y,1/2+z
loop_
_atom_site_type_symbol
_atom_site_label
_atom_site_fract_x
_atom_site_fract_y
_atom_site_fract_z
Si Si1 0.820282 0.375149 0.427090
Si Si2 0.180622 0.837816 0.518072
Si Si3 0.681039 0.455203 0.252565
Si Si4 0.679353 0.904167 0.334302
Si Si5 0.680526 0.414260 0.046118
Si Si6 0.326702 0.312512 0.756060
Si Si7 0.672098 0.215455 0.562197
Si Si8 0.818677 0.010571 0.162752
O O1 0.733241 0.364052 0.328785
O O2 0.754867 0.483935 0.483414
O O3 0.783793 0.260805 0.482614
O O4 0.000000 0.383836 0.409843
O O5 0.251532 0.915128 0.437243
O O6 0.227101 0.706838 0.503551
O O7 0.248817 0.878347 0.616297
O O8 0.000000 0.853190 0.520352
O O9 0.500000 0.471616 0.252615
O O10 0.743285 0.420933 0.151370
O O11 0.763885 0.568103 0.287237
O O12 0.500000 0.925104 0.339179
O O13 0.716119 0.780325 0.298262
O O14 0.752873 0.997282 0.266488
O O15 0.500000 0.426995 0.050599
O O16 0.500000 0.294800 0.794668
O O17 0.324741 0.305542 0.645269
O O18 0.500000 0.204056 0.522701
O O19 0.731644 0.096027 0.600171
O O20 0.000000 0.018595 0.170491
#
# Coordination Sequence:
#
# PCOD8169915 Si02
#       8
#     4   4   4   4   4   4   4   4
#     4  11  21  36  58  87 120 156 198 244 299 362
#     4  11  22  41  65  90 123 164 207 256 312 368
#     4  11  21  36  56  84 119 161 202 241 299 367
#     4  11  22  38  63  94 121 160 208 254 308 369
#     4   9  21  39  59  85 122 161 196 245 302 360
#     4  10  19  34  57  86 119 154 196 252 301 347
#     4   9  19  36  58  82 112 149 190 244 300 351
#     4  10  22  42  64  90 122 157 203 260 309 362
#
# _framework density 21.339490000000001
#
# number of rings (size 3 to 8) (size 9 to 14) (size 15 to 20)
#    0.000    1.750    1.250    4.500    0.000    3.500 
#    2.250    4.375    0.000    0.000    0.000    0.000 
#    0.000    0.000    0.000    0.000    0.000    0.000 
#
# Total GULP energy -396855.470243 kJ/mol
# GULP energy per Si atom -12401.733445 kJ/mol
# Density = 2.129092 g / cm^3
# Si number density = 21.339490 Si / 1000 Ang^3
#
#
#
# Elastic Constant Matrix: (Units=GPa)
#
#
# Indices 1 2 3 4 5 6 
#
# 1 88.9324 16.6299 26.7197 0.0000 0.0000 0.0000
# 2 16.6299 31.3776 0.3170 0.0000 0.0000 0.0000
# 3 26.7197 0.3170 97.3424 0.0000 0.0000 0.0000
# 4 0.0000 0.0000 0.0000 29.3559 0.0000 0.0000
# 5 0.0000 0.0000 0.0000 0.0000 35.1239 0.0000
# 6 0.0000 0.0000 0.0000 0.0000 0.0000 28.0655
#
#
#
# Elastic Compliance Matrix: (Units=1/GPa)
#
#
# Indices 1 2 3 4 5 6 
#
# 1 0.013722 -0.007235 -0.003743 0.000000 0.000000 0.000000
# 2 -0.007235 0.035685 0.001870 0.000000 0.000000 0.000000
# 3 -0.003743 0.001870 0.011294 0.000000 0.000000 0.000000
# 4 0.000000 0.000000 0.000000 0.034065 0.000000 0.000000
# 5 0.000000 0.000000 0.000000 0.000000 0.028471 0.000000
# 6 0.000000 0.000000 0.000000 0.000000 0.000000 0.035631
#
#
# Mechanical properties :
#
#
# Convention : Reuss Voigt Hill
#
# Bulk Modulus (GPa) = 23.53745 33.88730 28.71238
# Shear Modulus (GPa) = 26.14435 30.10809 28.12622
#
# Velocity S-wave (km/s) = 3.50403 3.76028 3.63442
# Velocity P-wave (km/s) = 5.23688 5.89640 5.57640
#
# Compressibility (1/GPa) = 0.04248548
#
# Stress axis : x y z
#
# Youngs Moduli (GPa) = 72.87596 28.02274 88.53977
#
# Poissons Ratio (x) = 0.20274 0.33141
# Poissons Ratio (y) = 0.52724 -0.16554
# Poissons Ratio (z) = 0.27278 -0.05239
#
# Static dielectric constant tensor:
#      x y z
#    x 3.609330 0.000000 0.000000 
#    y 0.000000 3.664010 0.000000 
#    z 0.000000 0.000000 4.010320 
# 
# 
# High freq. dielectric constant tensor:
#      x y z
#    x 1.826680 0.000000 0.000000 
#    y 0.000000 1.818980 0.000000 
#    z 0.000000 0.000000 1.845850 
# 
# From -- ./inp_files/4929.got.cif
#   From: 2010.03.12/outbox.cif.g09.slc.cpg/sg31_3_cif.got.tgz:4929.got - 2010.04.14 01:42:59.
