data_PCOD8169085
_publ_section_title
;
Structure prediction by ZEFSAII (Michael W. Deem and Ramdas Pophale) SiO2 
 PCOD8169085
Probable space group: P C A 21
;
_chemical_formula_sum "Si O2"
_cell_formula_units_Z 20
_cell_length_a 18.036979
_cell_length_b 5.025398
_cell_length_c 9.276512
_cell_angle_alpha 90.000000
_cell_angle_beta 90.000000
_cell_angle_gamma 90.000000
_cell_volume 840.850860
_symmetry_space_group_name_H-M "P C A 21"
_symmetry_group_IT_number 29
_symmetry_cell_setting 'orthorhombic'
loop_
_space_group_symop_operation_xyz
x,y,z
-x,-y,1/2+z
1/2-x,y,1/2+z
1/2+x,-y,z
loop_
_atom_site_type_symbol
_atom_site_label
_atom_site_fract_x
_atom_site_fract_y
_atom_site_fract_z
Si Si1 0.594598 0.397647 0.691070
Si Si2 0.631538 0.731526 0.939420
Si Si3 0.786498 0.235703 0.382974
Si Si4 0.882803 0.383705 0.863208
Si Si5 0.055067 0.127076 0.217849
O O1 0.593548 0.678304 0.781303
O O2 0.673561 0.255188 0.725120
O O3 0.584565 0.435963 0.522048
O O4 0.528608 0.213686 0.753858
O O5 0.672061 0.453507 0.986821
O O6 0.699073 0.940858 0.940313
O O7 0.568636 0.842109 0.046416
O O8 0.700353 0.281423 0.367401
O O9 0.886258 0.670846 0.789592
O O10 0.932085 0.170658 0.775406
#
# Coordination Sequence:
#
# PCOD8169085 Si02
#       5
#     4   4   4   4   4
#     4  10  28  44  75 100 149 183 242 286 360 423
#     4  10  24  44  72  94 145 180 231 291 355 406
#     4  10  25  45  72  98 142 182 238 290 347 418
#     4  12  28  45  74 107 138 191 241 290 360 428
#     4  12  27  44  73 105 146 184 238 293 362 425
#
# _framework density 23.785430999999999
#
# number of rings (size 3 to 8) (size 9 to 14) (size 15 to 20)
#    1.200    0.000    0.000    3.600   14.000    0.000 
#    0.000    0.000    0.000    0.000    0.000    0.000 
#    0.000    0.000    0.000    0.000    0.000    0.000 
#
# Total GULP energy -247862.733222 kJ/mol
# GULP energy per Si atom -12393.136661 kJ/mol
# Density = 2.373129 g / cm^3
# Si number density = 23.785431 Si / 1000 Ang^3
#
#
#
# Elastic Constant Matrix: (Units=GPa)
#
#
# Indices 1 2 3 4 5 6 
#
# 1 65.0886 -18.0666 12.0652 0.0000 0.0000 0.0000
# 2 -18.0666 100.5115 26.3603 0.0000 0.0000 0.0000
# 3 12.0652 26.3603 123.2555 0.0000 0.0000 0.0000
# 4 0.0000 0.0000 0.0000 31.3710 0.0000 0.0000
# 5 0.0000 0.0000 0.0000 0.0000 28.0186 0.0000
# 6 0.0000 0.0000 0.0000 0.0000 0.0000 26.0876
#
#
#
# Elastic Compliance Matrix: (Units=1/GPa)
#
#
# Indices 1 2 3 4 5 6 
#
# 1 0.016831 0.003663 -0.002431 0.000000 0.000000 0.000000
# 2 0.003663 0.011337 -0.002783 0.000000 0.000000 0.000000
# 3 -0.002431 -0.002783 0.008946 0.000000 0.000000 0.000000
# 4 0.000000 0.000000 0.000000 0.031877 0.000000 0.000000
# 5 0.000000 0.000000 0.000000 0.000000 0.035691 0.000000
# 6 0.000000 0.000000 0.000000 0.000000 0.000000 0.038332
#
#
# Mechanical properties :
#
#
# Convention : Reuss Voigt Hill
#
# Bulk Modulus (GPa) = 29.40123 36.61928 33.01025
# Shear Modulus (GPa) = 31.75520 34.99520 33.37520
#
# Velocity S-wave (km/s) = 3.65782 3.83990 3.74997
# Velocity P-wave (km/s) = 5.49795 5.92358 5.71473
#
# Compressibility (1/GPa) = 0.03401219
#
# Stress axis : x y z
#
# Youngs Moduli (GPa) = 59.41428 88.20337 111.77645
#
# Poissons Ratio (x) = -0.32307 0.27172
# Poissons Ratio (y) = -0.21762 0.31110
# Poissons Ratio (z) = 0.14443 0.24549
#
# Static dielectric constant tensor:
#      x y z
#    x 4.013160 0.000000 0.000000 
#    y 0.000000 4.232380 0.000000 
#    z 0.000000 0.000000 4.148680 
# 
# 
# High freq. dielectric constant tensor:
#      x y z
#    x 1.945860 0.000000 0.000000 
#    y 0.000000 1.946300 0.000000 
#    z 0.000000 0.000000 1.927530 
# 
# From -- ./inp_files/1955.got.cif
#   From: 2010.03.12/outbox.cif.g09.slc.cpg/sg29_1_cif.got.tgz:1955.got - 2010.04.14 03:43:10.
