data_PCOD8169697
_publ_section_title
;
Structure prediction by ZEFSAII (Michael W. Deem and Ramdas Pophale) SiO2 
 PCOD8169697
Probable space group: P M N 21
;
_chemical_formula_sum "Si O2"
_cell_formula_units_Z 32
_cell_length_a 11.184993
_cell_length_b 5.041498
_cell_length_c 29.131316
_cell_angle_alpha 90.000000
_cell_angle_beta 90.000000
_cell_angle_gamma 90.000000
_cell_volume 1642.689269
_symmetry_space_group_name_H-M "P M N 21"
_symmetry_group_IT_number 31
_symmetry_cell_setting 'orthorhombic'
loop_
_space_group_symop_operation_xyz
x,y,z
1/2-x,-y,1/2+z
-x,y,z
1/2+x,-y,1/2+z
loop_
_atom_site_type_symbol
_atom_site_label
_atom_site_fract_x
_atom_site_fract_y
_atom_site_fract_z
Si Si1 0.267849 0.212498 0.325370
Si Si2 0.743734 0.219065 0.948994
Si Si3 0.633772 0.713987 0.543113
Si Si4 0.362365 0.789547 0.170450
Si Si5 0.137905 0.788081 0.103630
Si Si6 0.635000 0.287616 0.230874
Si Si7 0.369256 0.708994 0.911313
Si Si8 0.627346 0.705567 0.362062
O O1 0.263766 0.242216 0.270176
O O2 0.155817 0.315622 0.356134
O O3 0.373249 0.409351 0.341632
O O4 0.280529 0.902157 0.337052
O O5 0.637305 0.421279 0.935594
O O6 0.853096 0.312713 0.916793
O O7 0.717319 0.913770 0.937147
O O8 0.773195 0.241200 0.002349
O O9 0.500000 0.758451 0.524080
O O10 0.649223 0.418703 0.562159
O O11 0.659603 0.918746 0.584117
O O12 0.500000 0.767577 0.149224
O O13 0.250016 0.728539 0.137152
O O14 0.351797 0.584312 0.212251
O O15 0.341429 0.084027 0.189528
O O16 0.000000 0.767316 0.124637
O O17 0.500000 0.241348 0.250148
O O18 0.500000 0.824080 0.917721
O O19 0.500000 0.834358 0.352338
#
# Coordination Sequence:
#
# PCOD8169697 Si02
#       8
#     4   4   4   4   4   4   4   4
#     4  10  20  32  50  75 101 137 177 210 255 311
#     4  10  20  34  54  77 101 136 178 213 257 311
#     4  10  20  36  58  82 108 135 172 222 270 319
#     4  10  21  37  56  79 109 141 175 223 278 328
#     4  10  21  38  59  81 109 143 177 221 276 330
#     4  10  19  33  55  80 106 135 173 222 272 321
#     4  10  21  37  52  71 108 148 180 216 258 306
#     4  10  18  29  48  75 106 131 160 207 256 306
#
# _framework density 19.480252
#
# number of rings (size 3 to 8) (size 9 to 14) (size 15 to 20)
#    0.000    2.000    0.000    4.125    0.000    1.000 
#    0.000    8.750    0.000    0.000    0.000    0.000 
#    0.000    0.000    0.000    0.000    0.000    0.000 
#
# Total GULP energy -396418.090690 kJ/mol
# GULP energy per Si atom -12388.065334 kJ/mol
# Density = 1.943591 g / cm^3
# Si number density = 19.480252 Si / 1000 Ang^3
#
#
#
# Elastic Constant Matrix: (Units=GPa)
#
#
# Indices 1 2 3 4 5 6 
#
# 1 92.5490 10.7262 43.3439 0.0000 0.0000 0.0000
# 2 10.7262 82.2899 7.9775 0.0000 0.0000 0.0000
# 3 43.3439 7.9775 77.4387 0.0000 0.0000 0.0000
# 4 0.0000 0.0000 0.0000 25.9979 0.0000 0.0000
# 5 0.0000 0.0000 0.0000 0.0000 9.6955 0.0000
# 6 0.0000 0.0000 0.0000 0.0000 0.0000 13.5400
#
#
#
# Elastic Compliance Matrix: (Units=1/GPa)
#
#
# Indices 1 2 3 4 5 6 
#
# 1 0.014748 -0.001133 -0.008138 0.000000 0.000000 0.000000
# 2 -0.001133 0.012362 -0.000639 0.000000 0.000000 0.000000
# 3 -0.008138 -0.000639 0.017534 0.000000 0.000000 0.000000
# 4 0.000000 0.000000 0.000000 0.038465 0.000000 0.000000
# 5 0.000000 0.000000 0.000000 0.000000 0.103140 0.000000
# 6 0.000000 0.000000 0.000000 0.000000 0.000000 0.073855
#
#
# Mechanical properties :
#
#
# Convention : Reuss Voigt Hill
#
# Bulk Modulus (GPa) = 40.28506 41.81919 41.05213
# Shear Modulus (GPa) = 17.34916 22.52869 19.93892
#
# Velocity S-wave (km/s) = 2.98753 3.40441 3.20276
# Velocity P-wave (km/s) = 5.71186 6.08008 5.89884
#
# Compressibility (1/GPa) = 0.02482310
#
# Stress axis : x y z
#
# Youngs Moduli (GPa) = 67.80747 80.89404 57.03165
#
# Poissons Ratio (x) = 0.09168 0.46411
# Poissons Ratio (y) = 0.07685 0.03645
# Poissons Ratio (z) = 0.55180 0.05170
#
# Static dielectric constant tensor:
#      x y z
#    x 3.457820 0.000000 0.000000 
#    y 0.000000 3.626640 0.000000 
#    z 0.000000 0.000000 3.291800 
# 
# 
# High freq. dielectric constant tensor:
#      x y z
#    x 1.734190 0.000000 0.000000 
#    y 0.000000 1.782580 0.000000 
#    z 0.000000 0.000000 1.736820 
# 
# From -- ./inp_files/6592.got.cif
#   From: 2010.03.12/outbox.cif.g09.slc.cpg/sg31_4_cif.got.tgz:6592.got - 2010.04.14 01:42:59.
