data_PCOD8169482
_publ_section_title
;
Structure prediction by ZEFSAII (Michael W. Deem and Ramdas Pophale) SiO2 
 PCOD8169482
Probable space group: P N C 2
;
_chemical_formula_sum "Si O2"
_cell_formula_units_Z 24
_cell_length_a 7.364023
_cell_length_b 29.370869
_cell_length_c 5.202553
_cell_angle_alpha 90.000000
_cell_angle_beta 90.000000
_cell_angle_gamma 90.000000
_cell_volume 1125.248508
_symmetry_space_group_name_H-M "P N C 2"
_symmetry_group_IT_number 30
_symmetry_cell_setting 'orthorhombic'
loop_
_space_group_symop_operation_xyz
x,y,z
-x,-y,z
-x,1/2+y,1/2+z
x,1/2-y,1/2+z
loop_
_atom_site_type_symbol
_atom_site_label
_atom_site_fract_x
_atom_site_fract_y
_atom_site_fract_z
Si Si1 0.046752 0.230387 0.271660
Si Si2 0.131401 0.640163 0.849765
Si Si3 0.453251 0.230388 0.771669
Si Si4 0.368601 0.859837 0.849765
Si Si5 0.138071 0.539476 0.788549
Si Si6 0.638070 0.460524 0.288549
O O1 0.945788 0.255860 0.507202
O O2 0.250005 0.249998 0.236108
O O3 0.033921 0.175930 0.311756
O O4 0.284029 0.647419 0.631767
O O5 0.047522 0.589374 0.826371
O O6 0.215973 0.647420 0.131767
O O7 0.554219 0.244141 0.507213
O O8 0.466077 0.175931 0.811760
O O9 0.452479 0.910626 0.826368
O O10 0.199330 0.534540 0.493446
O O11 0.000000 0.500000 0.857631
O O12 0.300671 0.534539 0.993446
O O13 0.500000 0.500000 0.357633
#
# Coordination Sequence:
#
# PCOD8169482 Si02
#       6
#     4   4   4   4   4   4
#     4  10  21  37  53  80 117 145 192 237 281 338
#     4  10  21  37  59  83 115 154 192 234 289 343
#     4  10  21  37  53  80 117 145 192 237 281 338
#     4  10  21  37  59  83 115 154 192 234 289 343
#     4  10  21  40  61  91 122 154 199 246 296 357
#     4  10  21  40  61  91 122 154 199 246 296 357
#
# _framework density 21.328624999999999
#
# number of rings (size 3 to 8) (size 9 to 14) (size 15 to 20)
#    0.000    2.000    0.000    3.000    0.000    4.000 
#   12.000    0.000    0.000    0.000    0.000    0.000 
#    0.000    0.000    0.000    0.000    0.000    0.000 
#
# Total GULP energy -297406.939777 kJ/mol
# GULP energy per Si atom -12391.955824 kJ/mol
# Density = 2.128008 g / cm^3
# Si number density = 21.328625 Si / 1000 Ang^3
#
#
#
# Elastic Constant Matrix: (Units=GPa)
#
#
# Indices 1 2 3 4 5 6 
#
# 1 37.1634 46.9482 -9.8436 0.0000 0.0000 0.0000
# 2 46.9482 173.9914 10.2590 0.0000 0.0000 0.0000
# 3 -9.8436 10.2590 143.2856 0.0000 0.0000 0.0000
# 4 0.0000 0.0000 0.0000 31.1873 0.0000 0.0000
# 5 0.0000 0.0000 0.0000 0.0000 6.1100 0.0000
# 6 0.0000 0.0000 0.0000 0.0000 0.0000 45.9066
#
#
#
# Elastic Compliance Matrix: (Units=1/GPa)
#
#
# Indices 1 2 3 4 5 6 
#
# 1 0.042771 -0.011764 0.003781 0.000000 0.000000 0.000000
# 2 -0.011764 0.009007 -0.001453 0.000000 0.000000 0.000000
# 3 0.003781 -0.001453 0.007343 0.000000 0.000000 0.000000
# 4 0.000000 0.000000 0.000000 0.032064 0.000000 0.000000
# 5 0.000000 0.000000 0.000000 0.000000 0.163667 0.000000
# 6 0.000000 0.000000 0.000000 0.000000 0.000000 0.021783
#
#
# Mechanical properties :
#
#
# Convention : Reuss Voigt Hill
#
# Bulk Modulus (GPa) = 24.84579 49.90751 37.37665
# Shear Modulus (GPa) = 16.18524 37.11257 26.64890
#
# Velocity S-wave (km/s) = 2.75771 4.17590 3.53858
# Velocity P-wave (km/s) = 4.67058 6.83381 5.85300
#
# Compressibility (1/GPa) = 0.04024827
#
# Stress axis : x y z
#
# Youngs Moduli (GPa) = 23.38055 111.02110 136.18737
#
# Poissons Ratio (x) = 1.30602 -0.51487
# Poissons Ratio (y) = 0.27504 0.19789
# Poissons Ratio (z) = -0.08839 0.16132
#
# Static dielectric constant tensor:
#      x y z
#    x 3.178940 0.000000 0.000000 
#    y 0.000000 4.195000 0.000000 
#    z 0.000000 0.000000 5.052150 
# 
# 
# High freq. dielectric constant tensor:
#      x y z
#    x 1.775230 0.000000 0.000000 
#    y 0.000000 1.854010 0.000000 
#    z 0.000000 0.000000 1.878380 
# 
# From -- ./inp_files/434.got.cif
#   From: 2010.03.12/outbox.cif.g09.slc.cpg/sg30_1_cif.got.tgz:434.got - 2010.04.14 01:38:02.
