data_PCOD8169412
_publ_section_title
;
Structure prediction by ZEFSAII (Michael W. Deem and Ramdas Pophale) SiO2 
 PCOD8169412
Probable space group: P N C 2
;
_chemical_formula_sum "Si O2"
_cell_formula_units_Z 32
_cell_length_a 7.819237
_cell_length_b 23.713654
_cell_length_c 9.546168
_cell_angle_alpha 90.000000
_cell_angle_beta 90.000000
_cell_angle_gamma 90.000000
_cell_volume 1770.076062
_symmetry_space_group_name_H-M "P N C 2"
_symmetry_group_IT_number 30
_symmetry_cell_setting 'orthorhombic'
loop_
_space_group_symop_operation_xyz
x,y,z
-x,-y,z
-x,1/2+y,1/2+z
x,1/2-y,1/2+z
loop_
_atom_site_type_symbol
_atom_site_label
_atom_site_fract_x
_atom_site_fract_y
_atom_site_fract_z
Si Si1 1.000000 0.692129 0.154150
Si Si2 0.697102 0.000000 0.165732
Si Si3 0.702487 0.500000 0.976234
Si Si4 0.695263 0.393480 0.153716
Si Si5 0.188955 0.407607 0.453635
Si Si6 0.304738 0.393480 0.153716
Si Si7 0.000000 0.197269 0.972593
Si Si8 0.811045 0.092393 0.953635
O O1 0.826835 0.657231 0.125535
O O2 1.000000 0.746492 0.058754
O O3 0.000000 0.714932 0.310974
O O4 0.173164 0.657231 0.125535
O O5 0.741646 0.056315 0.081813
O O6 0.500000 0.000000 0.196205
O O7 0.785136 0.000000 0.319461
O O8 0.741647 0.943685 0.081813
O O9 0.500000 0.500000 0.972617
O O10 0.763537 0.444523 0.058258
O O11 0.763537 0.555477 0.058257
O O12 0.500000 0.375683 0.114945
O O13 0.692998 0.412805 0.316704
O O14 0.307001 0.412805 0.316703
O O15 0.168773 0.341879 0.502878
O O16 1.000000 0.429868 0.409602
O O17 0.831227 0.158121 0.002878
#
# Coordination Sequence:
#
# PCOD8169412 Si02
#       8
#     4   4   4   4   4   4   4   4
#     4  10  20  39  54  83 103 144 186 226 273 320
#     4  11  20  33  52  82 119 142 178 229 273 326
#     4   9  21  34  49  81 115 142 176 223 275 326
#     4  10  19  37  59  79 109 145 183 224 268 325
#     4   9  19  36  54  81 104 146 187 217 266 335
#     4  10  19  37  59  79 109 145 183 224 268 325
#     4   8  20  35  56  71 111 134 182 234 257 324
#     4   9  19  36  54  81 104 146 187 217 266 335
#
# _framework density 18.078320000000001
#
# number of rings (size 3 to 8) (size 9 to 14) (size 15 to 20)
#    0.750    1.750    1.250    1.875    0.000    3.500 
#    4.500    6.250    0.000    0.000    0.000    0.000 
#    0.000    0.000    0.000    0.000    0.000    0.000 
#
# Total GULP energy -396473.869368 kJ/mol
# GULP energy per Si atom -12389.808418 kJ/mol
# Density = 1.803717 g / cm^3
# Si number density = 18.078320 Si / 1000 Ang^3
#
#
#
# Elastic Constant Matrix: (Units=GPa)
#
#
# Indices 1 2 3 4 5 6 
#
# 1 74.9066 40.1228 28.3865 0.0000 0.0000 0.0000
# 2 40.1228 151.0224 106.9762 0.0000 0.0000 0.0000
# 3 28.3865 106.9762 134.4729 0.0000 0.0000 0.0000
# 4 0.0000 0.0000 0.0000 46.6696 0.0000 0.0000
# 5 0.0000 0.0000 0.0000 0.0000 19.4886 0.0000
# 6 0.0000 0.0000 0.0000 0.0000 0.0000 11.2924
#
#
#
# Elastic Compliance Matrix: (Units=1/GPa)
#
#
# Indices 1 2 3 4 5 6 
#
# 1 0.015565 -0.004142 0.000009 0.000000 0.000000 0.000000
# 2 -0.004142 0.016272 -0.012070 0.000000 0.000000 0.000000
# 3 0.000009 -0.012070 0.017037 0.000000 0.000000 0.000000
# 4 0.000000 0.000000 0.000000 0.021427 0.000000 0.000000
# 5 0.000000 0.000000 0.000000 0.000000 0.051312 0.000000
# 6 0.000000 0.000000 0.000000 0.000000 0.000000 0.088555
#
#
# Mechanical properties :
#
#
# Convention : Reuss Voigt Hill
#
# Bulk Modulus (GPa) = 60.72475 79.04144 69.88310
# Shear Modulus (GPa) = 20.15619 27.81787 23.98703
#
# Velocity S-wave (km/s) = 3.34269 3.92694 3.64653
# Velocity P-wave (km/s) = 6.96856 8.02357 7.51460
#
# Compressibility (1/GPa) = 0.01646775
#
# Stress axis : x y z
#
# Youngs Moduli (GPa) = 64.24695 61.45582 58.69664
#
# Poissons Ratio (x) = 0.25453 -0.00053
# Poissons Ratio (y) = 0.26609 0.70849
# Poissons Ratio (z) = -0.00059 0.74179
#
# Static dielectric constant tensor:
#      x y z
#    x 3.230240 0.000000 0.000000 
#    y 0.000000 3.050930 0.000000 
#    z 0.000000 0.000000 3.437250 
# 
# 
# High freq. dielectric constant tensor:
#      x y z
#    x 1.692780 0.000000 0.000000 
#    y 0.000000 1.688510 0.000000 
#    z 0.000000 0.000000 1.701090 
# 
# From -- ./inp_files/2163.got.cif
#   From: 2010.03.12/outbox.cif.g09.slc.cpg/sg30_2_cif.got.tgz:2163.got - 2010.04.14 01:38:02.
