data_PCOD8169184
_publ_section_title
;
Structure prediction by ZEFSAII (Michael W. Deem and Ramdas Pophale) SiO2 
 PCOD8169184
Probable space group: P C A 21
;
_chemical_formula_sum "Si O2"
_cell_formula_units_Z 32
_cell_length_a 9.597376
_cell_length_b 13.619838
_cell_length_c 12.264413
_cell_angle_alpha 90.000000
_cell_angle_beta 90.000000
_cell_angle_gamma 90.000000
_cell_volume 1603.139144
_symmetry_space_group_name_H-M "P C A 21"
_symmetry_group_IT_number 29
_symmetry_cell_setting 'orthorhombic'
loop_
_space_group_symop_operation_xyz
x,y,z
-x,-y,1/2+z
1/2-x,y,1/2+z
1/2+x,-y,z
loop_
_atom_site_type_symbol
_atom_site_label
_atom_site_fract_x
_atom_site_fract_y
_atom_site_fract_z
Si Si1 0.574341 0.402878 0.852820
Si Si2 0.887070 0.841954 0.160395
Si Si3 0.302516 0.102646 0.390932
Si Si4 0.381541 0.760519 0.529642
Si Si5 0.484892 0.051573 0.965121
Si Si6 0.186974 0.281725 0.038550
Si Si7 0.311011 0.479017 0.953469
Si Si8 0.386922 0.658752 0.105060
O O1 0.572909 0.326078 0.950925
O O2 0.428551 0.458630 0.863120
O O3 0.691683 0.482712 0.874499
O O4 0.597624 0.355322 0.734601
O O5 0.880590 0.891055 0.276663
O O6 0.749101 0.776114 0.142439
O O7 0.018344 0.769134 0.136617
O O8 0.899954 0.935864 0.079016
O O9 0.283853 0.212702 0.434678
O O10 0.146605 0.054263 0.379477
O O11 0.418208 0.044190 0.462106
O O12 0.402584 0.858658 0.455777
O O13 0.228187 0.741249 0.577034
O O14 0.025347 0.296693 0.055420
O O15 0.264601 0.383734 0.019946
O O16 0.355827 0.555922 0.046461
#
# Coordination Sequence:
#
# PCOD8169184 Si02
#       8
#     4   4   4   4   4   4   4   4
#     4  11  23  41  66  93 130 177 215 274 341 387
#     4   9  22  42  68  91 135 172 212 278 332 379
#     4  11  23  42  70  97 130 184 213 273 342 383
#     4   9  22  48  60  96 135 164 228 285 311 403
#     4   9  23  44  63  98 136 164 224 277 313 406
#     4  11  24  41  64  97 132 168 228 270 325 409
#     4  11  23  44  59  97 137 164 229 273 320 407
#     4  11  26  40  70  95 127 185 217 276 344 392
#
# _framework density 19.960837999999999
#
# number of rings (size 3 to 8) (size 9 to 14) (size 15 to 20)
#    0.750    1.000    2.500    0.000    7.000    4.000 
#    0.000    0.000    0.000    0.000    0.000    0.000 
#    0.000    0.000    0.000    0.000    0.000    0.000 
#
# Total GULP energy -396463.807304 kJ/mol
# GULP energy per Si atom -12389.493978 kJ/mol
# Density = 1.991541 g / cm^3
# Si number density = 19.960838 Si / 1000 Ang^3
#
#
#
# Elastic Constant Matrix: (Units=GPa)
#
#
# Indices 1 2 3 4 5 6 
#
# 1 148.2200 46.4879 38.9551 0.0000 0.0000 0.0000
# 2 46.4879 78.1364 19.2422 0.0000 0.0000 0.0000
# 3 38.9551 19.2422 65.5416 0.0000 0.0000 0.0000
# 4 0.0000 0.0000 0.0000 18.5469 0.0000 0.0000
# 5 0.0000 0.0000 0.0000 0.0000 25.6757 0.0000
# 6 0.0000 0.0000 0.0000 0.0000 0.0000 41.1447
#
#
#
# Elastic Compliance Matrix: (Units=1/GPa)
#
#
# Indices 1 2 3 4 5 6 
#
# 1 0.009249 -0.004472 -0.004184 0.000000 0.000000 0.000000
# 2 -0.004472 0.015958 -0.002027 0.000000 0.000000 0.000000
# 3 -0.004184 -0.002027 0.018339 0.000000 0.000000 0.000000
# 4 0.000000 0.000000 0.000000 0.053917 0.000000 0.000000
# 5 0.000000 0.000000 0.000000 0.000000 0.038947 0.000000
# 6 0.000000 0.000000 0.000000 0.000000 0.000000 0.024304
#
#
# Mechanical properties :
#
#
# Convention : Reuss Voigt Hill
#
# Bulk Modulus (GPa) = 45.08632 55.69649 50.39140
# Shear Modulus (GPa) = 26.38852 29.55432 27.97142
#
# Velocity S-wave (km/s) = 3.63990 3.85205 3.74748
# Velocity P-wave (km/s) = 6.34835 6.90998 6.63511
#
# Compressibility (1/GPa) = 0.02217968
#
# Stress axis : x y z
#
# Youngs Moduli (GPa) = 108.11777 62.66368 54.52712
#
# Poissons Ratio (x) = 0.28026 0.22816
# Poissons Ratio (y) = 0.48355 0.11052
# Poissons Ratio (z) = 0.45239 0.12701
#
# Static dielectric constant tensor:
#      x y z
#    x 3.894270 0.000000 0.000000 
#    y 0.000000 3.570170 0.000000 
#    z 0.000000 0.000000 3.392850 
# 
# 
# High freq. dielectric constant tensor:
#      x y z
#    x 1.797850 0.000000 0.000000 
#    y 0.000000 1.777580 0.000000 
#    z 0.000000 0.000000 1.758500 
# 
# From -- ./inp_files/2937.got.cif
#   From: 2010.03.12/outbox.cif.g09.slc.cpg/sg29_2_cif.got.tgz:2937.got - 2010.04.14 03:43:10.
