data_PCOD8169327
_publ_section_title
;
Structure prediction by ZEFSAII (Michael W. Deem and Ramdas Pophale) SiO2 
 PCOD8169327
Probable space group: P C A 21
;
_chemical_formula_sum "Si O2"
_cell_formula_units_Z 32
_cell_length_a 9.025150
_cell_length_b 12.837307
_cell_length_c 11.988937
_cell_angle_alpha 90.000000
_cell_angle_beta 90.000000
_cell_angle_gamma 90.000000
_cell_volume 1389.021711
_symmetry_space_group_name_H-M "P C A 21"
_symmetry_group_IT_number 29
_symmetry_cell_setting 'orthorhombic'
loop_
_space_group_symop_operation_xyz
x,y,z
-x,-y,1/2+z
1/2-x,y,1/2+z
1/2+x,-y,z
loop_
_atom_site_type_symbol
_atom_site_label
_atom_site_fract_x
_atom_site_fract_y
_atom_site_fract_z
Si Si1 0.663354 0.051904 0.199910
Si Si2 0.649897 0.601203 0.265338
Si Si3 0.066548 0.229532 0.437974
Si Si4 0.579133 0.023127 0.849175
Si Si5 0.490993 0.395454 0.313392
Si Si6 0.660759 0.870511 0.040148
Si Si7 0.846529 0.278340 0.617085
Si Si8 0.517354 0.319437 0.563573
O O1 0.764190 0.068578 0.308985
O O2 0.667108 0.153885 0.124396
O O3 0.498996 0.025820 0.240906
O O4 0.720905 0.953788 0.128538
O O5 0.604752 0.707596 0.326760
O O6 0.575207 0.504425 0.327934
O O7 0.826758 0.588132 0.264130
O O8 0.584430 0.604925 0.139660
O O9 0.211057 0.212720 0.513364
O O10 0.012587 0.114979 0.405212
O O11 0.949082 0.297404 0.508924
O O12 0.601584 0.928409 0.932060
O O13 0.582933 0.322436 0.229768
O O14 0.485681 0.343287 0.434479
O O15 0.525977 0.800915 0.088212
O O16 0.689386 0.333995 0.595868
#
# Coordination Sequence:
#
# PCOD8169327 Si02
#       8
#     4   4   4   4   4   4   4   4
#     4  12  25  42  71 104 153 199 255 312 373 461
#     4  12  29  53  82 114 151 207 259 330 393 465
#     4  12  26  48  75 110 159 202 265 321 389 464
#     4  12  26  41  70 106 152 200 256 310 375 456
#     4  12  30  53  83 113 153 202 262 323 397 464
#     4  12  25  47  70 109 149 212 250 310 383 464
#     4  12  28  46  78 114 157 200 261 325 389 460
#     4  12  29  50  81 114 156 198 260 321 391 466
#
# _framework density 23.037797000000001
#
# number of rings (size 3 to 8) (size 9 to 14) (size 15 to 20)
#    0.000    0.000    3.750    5.250   10.500    0.000 
#    0.000    0.000    0.000    0.000    0.000    0.000 
#    0.000    0.000    0.000    0.000    0.000    0.000 
#
# Total GULP energy -397039.638513 kJ/mol
# GULP energy per Si atom -12407.488704 kJ/mol
# Density = 2.298536 g / cm^3
# Si number density = 23.037797 Si / 1000 Ang^3
#
#
#
# Elastic Constant Matrix: (Units=GPa)
#
#
# Indices 1 2 3 4 5 6 
#
# 1 147.8275 36.9293 45.3261 0.0000 0.0000 0.0000
# 2 36.9293 72.8500 10.3739 0.0000 0.0000 0.0000
# 3 45.3261 10.3739 92.8210 0.0000 0.0000 0.0000
# 4 0.0000 0.0000 0.0000 34.1006 0.0000 0.0000
# 5 0.0000 0.0000 0.0000 0.0000 40.9637 0.0000
# 6 0.0000 0.0000 0.0000 0.0000 0.0000 27.3182
#
#
#
# Elastic Compliance Matrix: (Units=1/GPa)
#
#
# Indices 1 2 3 4 5 6 
#
# 1 0.008966 -0.003985 -0.003933 0.000000 0.000000 0.000000
# 2 -0.003985 0.015720 0.000189 0.000000 0.000000 0.000000
# 3 -0.003933 0.000189 0.012673 0.000000 0.000000 0.000000
# 4 0.000000 0.000000 0.000000 0.029325 0.000000 0.000000
# 5 0.000000 0.000000 0.000000 0.000000 0.024412 0.000000
# 6 0.000000 0.000000 0.000000 0.000000 0.000000 0.036606
#
#
# Mechanical properties :
#
#
# Convention : Reuss Voigt Hill
#
# Bulk Modulus (GPa) = 45.65982 55.41746 50.53864
# Shear Modulus (GPa) = 33.23153 35.20110 34.21632
#
# Velocity S-wave (km/s) = 3.80212 3.91317 3.85804
# Velocity P-wave (km/s) = 6.25599 6.67266 6.46768
#
# Compressibility (1/GPa) = 0.02190109
#
# Stress axis : x y z
#
# Youngs Moduli (GPa) = 111.53197 63.61314 78.90917
#
# Poissons Ratio (x) = 0.25350 0.31034
# Poissons Ratio (y) = 0.44446 -0.01492
# Poissons Ratio (z) = 0.43864 -0.01203
#
# Static dielectric constant tensor:
#      x y z
#    x 4.377320 0.000000 0.000000 
#    y 0.000000 4.042090 0.000000 
#    z 0.000000 0.000000 4.130920 
# 
# 
# High freq. dielectric constant tensor:
#      x y z
#    x 1.925620 0.000000 0.000000 
#    y 0.000000 1.909570 0.000000 
#    z 0.000000 0.000000 1.918310 
# 
# From -- ./inp_files/2950.got.cif
#   From: 2010.03.12/outbox.cif.g09.slc.cpg/sg29_2_cif.got.tgz:2950.got - 2010.04.14 03:43:10.
