data_PCOD8169092
_publ_section_title
;
Structure prediction by ZEFSAII (Michael W. Deem and Ramdas Pophale) SiO2 
 PCOD8169092
Probable space group: P C A 21
;
_chemical_formula_sum "Si O2"
_cell_formula_units_Z 24
_cell_length_a 11.071285
_cell_length_b 6.657729
_cell_length_c 13.414865
_cell_angle_alpha 90.000000
_cell_angle_beta 90.000000
_cell_angle_gamma 90.000000
_cell_volume 988.804537
_symmetry_space_group_name_H-M "P C A 21"
_symmetry_group_IT_number 29
_symmetry_cell_setting 'orthorhombic'
loop_
_space_group_symop_operation_xyz
x,y,z
-x,-y,1/2+z
1/2-x,y,1/2+z
1/2+x,-y,z
loop_
_atom_site_type_symbol
_atom_site_label
_atom_site_fract_x
_atom_site_fract_y
_atom_site_fract_z
Si Si1 0.655905 0.268029 0.130510
Si Si2 0.698080 0.627796 0.695051
Si Si3 0.052114 0.449921 0.517033
Si Si4 0.605811 0.932769 0.276850
Si Si5 0.917279 0.353999 0.329757
Si Si6 0.699499 0.185262 0.450188
O O1 0.748067 0.401370 0.193520
O O2 0.571634 0.438546 0.079723
O O3 0.586172 0.124398 0.206307
O O4 0.718832 0.125455 0.046145
O O5 0.650416 0.676476 0.582891
O O6 0.783839 0.799052 0.735909
O O7 0.589571 0.571653 0.773474
O O8 0.093934 0.676665 0.496767
O O9 0.027291 0.355970 0.409655
O O10 0.475112 0.825440 0.263554
O O11 0.639248 0.000228 0.390490
O O12 0.786607 0.305666 0.374828
#
# Coordination Sequence:
#
# PCOD8169092 Si02
#       6
#     4   4   4   4   4   4
#     4  10  24  48  70 108 145 195 247 301 380 450
#     4  11  24  46  71 104 148 196 243 312 368 450
#     4  10  24  45  75 100 149 192 242 304 381 442
#     4  12  26  43  78 108 146 200 254 310 371 460
#     4  11  24  45  71 108 143 199 246 303 386 437
#     4  10  24  47  69 108 147 186 248 310 370 451
#
# _framework density 24.271733000000001
#
# number of rings (size 3 to 8) (size 9 to 14) (size 15 to 20)
#    0.000    1.333    1.667    2.000    7.000    0.000 
#   18.000    0.000    0.000    0.000    0.000    0.000 
#    0.000    0.000    0.000    0.000    0.000    0.000 
#
# Total GULP energy -297319.984194 kJ/mol
# GULP energy per Si atom -12388.332675 kJ/mol
# Density = 2.421649 g / cm^3
# Si number density = 24.271733 Si / 1000 Ang^3
#
#
#
# Elastic Constant Matrix: (Units=GPa)
#
#
# Indices 1 2 3 4 5 6 
#
# 1 84.1765 37.1218 31.8292 0.0000 0.0000 0.0000
# 2 37.1218 70.4383 37.1827 0.0000 0.0000 0.0000
# 3 31.8292 37.1827 104.3002 0.0000 0.0000 0.0000
# 4 0.0000 0.0000 0.0000 42.8365 0.0000 0.0000
# 5 0.0000 0.0000 0.0000 0.0000 34.4118 0.0000
# 6 0.0000 0.0000 0.0000 0.0000 0.0000 46.8475
#
#
#
# Elastic Compliance Matrix: (Units=1/GPa)
#
#
# Indices 1 2 3 4 5 6 
#
# 1 0.015912 -0.007172 -0.002299 0.000000 0.000000 0.000000
# 2 -0.007172 0.020721 -0.005198 0.000000 0.000000 0.000000
# 3 -0.002299 -0.005198 0.012142 0.000000 0.000000 0.000000
# 4 0.000000 0.000000 0.000000 0.023345 0.000000 0.000000
# 5 0.000000 0.000000 0.000000 0.000000 0.029060 0.000000
# 6 0.000000 0.000000 0.000000 0.000000 0.000000 0.021346
#
#
# Mechanical properties :
#
#
# Convention : Reuss Voigt Hill
#
# Bulk Modulus (GPa) = 51.44980 52.35360 51.90170
# Shear Modulus (GPa) = 31.57706 35.00459 33.29082
#
# Velocity S-wave (km/s) = 3.61082 3.80175 3.70751
# Velocity P-wave (km/s) = 6.21510 6.39434 6.30536
#
# Compressibility (1/GPa) = 0.01943642
#
# Stress axis : x y z
#
# Youngs Moduli (GPa) = 62.84535 48.26102 82.35610
#
# Poissons Ratio (x) = 0.34614 0.18933
# Poissons Ratio (y) = 0.45074 0.42809
# Poissons Ratio (z) = 0.14448 0.25087
#
# Static dielectric constant tensor:
#      x y z
#    x 4.287300 0.000000 0.000000 
#    y 0.000000 3.883330 0.000000 
#    z 0.000000 0.000000 4.782370 
# 
# 
# High freq. dielectric constant tensor:
#      x y z
#    x 1.965040 0.000000 0.000000 
#    y 0.000000 1.931370 0.000000 
#    z 0.000000 0.000000 1.991710 
# 
# From -- ./inp_files/4458.got.cif
#   From: 2010.03.12/outbox.cif.g09.slc.cpg/sg29_3_cif.got.tgz:4458.got - 2010.04.14 03:43:10.
