data_PCOD8169992
_publ_section_title
;
Structure prediction by ZEFSAII (Michael W. Deem and Ramdas Pophale) SiO2 
 PCOD8169992
Probable space group: P M N 21
;
_chemical_formula_sum "Si O2"
_cell_formula_units_Z 32
_cell_length_a 9.021098
_cell_length_b 12.013163
_cell_length_c 15.298756
_cell_angle_alpha 90.000000
_cell_angle_beta 90.000000
_cell_angle_gamma 90.000000
_cell_volume 1657.955572
_symmetry_space_group_name_H-M "P M N 21"
_symmetry_group_IT_number 31
_symmetry_cell_setting 'orthorhombic'
loop_
_space_group_symop_operation_xyz
x,y,z
1/2-x,-y,1/2+z
-x,y,z
1/2+x,-y,1/2+z
loop_
_atom_site_type_symbol
_atom_site_label
_atom_site_fract_x
_atom_site_fract_y
_atom_site_fract_z
Si Si1 0.332462 0.525530 0.631320
Si Si2 0.174708 0.459901 0.800786
Si Si3 0.832867 0.246938 0.041333
Si Si4 0.324314 0.393276 0.461517
Si Si5 0.824434 0.990508 0.309628
Si Si6 0.673287 0.254072 0.867717
Si Si7 0.823333 0.860797 0.953731
Si Si8 0.675317 0.987283 0.612673
O O1 0.500000 0.487340 0.655998
O O2 0.218668 0.513923 0.709757
O O3 0.332669 0.656304 0.612112
O O4 0.271261 0.452779 0.550327
O O5 0.238224 0.537577 0.878877
O O6 0.246504 0.337671 0.801686
O O7 0.000000 0.447634 0.808335
O O8 0.770511 0.134699 0.084334
O O9 0.000000 0.228849 0.004635
O O10 0.724742 0.284627 0.964596
O O11 0.500000 0.395387 0.457545
O O12 0.266606 0.266369 0.458827
O O13 0.778459 0.871434 0.347703
O O14 0.000000 0.011064 0.313268
O O15 0.745728 0.084720 0.367169
O O16 0.762984 0.991822 0.210142
O O17 0.500000 0.271213 0.856960
O O18 0.000000 0.868334 0.946199
O O19 0.765785 0.922893 0.041826
O O20 0.500000 0.994681 0.616275
#
# Coordination Sequence:
#
# PCOD8169992 Si02
#       8
#     4   4   4   4   4   4   4   4
#     4  10  21  38  60  85 113 151 195 240 289 344
#     4  11  23  40  59  85 119 154 194 240 288 343
#     4  10  19  37  62  83 110 152 197 240 290 347
#     4   9  20  38  59  82 115 153 190 232 285 344
#     4  10  22  38  57  85 118 150 187 240 290 339
#     4  11  22  37  60  86 114 150 196 244 291 338
#     4  10  20  37  61  83 109 151 193 230 278 345
#     4   9  19  35  58  83 110 149 192 228 281 348
#
# _framework density 19.300878999999998
#
# number of rings (size 3 to 8) (size 9 to 14) (size 15 to 20)
#    0.000    2.000    2.500    0.750    3.500    1.000 
#    0.000    2.500    0.000    0.000    0.000    0.000 
#    0.000    0.000    0.000    0.000    0.000    0.000 
#
# Total GULP energy -396834.700722 kJ/mol
# GULP energy per Si atom -12401.084398 kJ/mol
# Density = 1.925695 g / cm^3
# Si number density = 19.300879 Si / 1000 Ang^3
#
#
#
# Elastic Constant Matrix: (Units=GPa)
#
#
# Indices 1 2 3 4 5 6 
#
# 1 39.3665 32.2101 23.9523 0.0000 0.0000 0.0000
# 2 32.2101 129.7777 42.1631 0.0000 0.0000 0.0000
# 3 23.9523 42.1631 120.8164 0.0000 0.0000 0.0000
# 4 0.0000 0.0000 0.0000 29.4435 0.0000 0.0000
# 5 0.0000 0.0000 0.0000 0.0000 31.8866 0.0000
# 6 0.0000 0.0000 0.0000 0.0000 0.0000 21.3817
#
#
#
# Elastic Compliance Matrix: (Units=1/GPa)
#
#
# Indices 1 2 3 4 5 6 
#
# 1 0.033700 -0.006985 -0.004243 0.000000 0.000000 0.000000
# 2 -0.006985 0.010139 -0.002153 0.000000 0.000000 0.000000
# 3 -0.004243 -0.002153 0.009870 0.000000 0.000000 0.000000
# 4 0.000000 0.000000 0.000000 0.033963 0.000000 0.000000
# 5 0.000000 0.000000 0.000000 0.000000 0.031361 0.000000
# 6 0.000000 0.000000 0.000000 0.000000 0.000000 0.046769
#
#
# Mechanical properties :
#
#
# Convention : Reuss Voigt Hill
#
# Bulk Modulus (GPa) = 37.11399 54.06796 45.59097
# Shear Modulus (GPa) = 24.80805 29.31803 27.06304
#
# Velocity S-wave (km/s) = 3.58904 3.90166 3.74861
# Velocity P-wave (km/s) = 6.03704 6.95495 6.51219
#
# Compressibility (1/GPa) = 0.02694402
#
# Stress axis : x y z
#
# Youngs Moduli (GPa) = 29.67384 98.63043 101.31945
#
# Poissons Ratio (x) = 0.68898 0.42992
# Poissons Ratio (y) = 0.20729 0.21818
# Poissons Ratio (z) = 0.12591 0.21239
#
# Static dielectric constant tensor:
#      x y z
#    x 3.202110 0.000000 0.000000 
#    y 0.000000 3.780030 0.000000 
#    z 0.000000 0.000000 3.613690 
# 
# 
# High freq. dielectric constant tensor:
#      x y z
#    x 1.718030 0.000000 0.000000 
#    y 0.000000 1.766470 0.000000 
#    z 0.000000 0.000000 1.756450 
# 
# From -- ./inp_files/4924.got.cif
#   From: 2010.03.12/outbox.cif.g09.slc.cpg/sg31_3_cif.got.tgz:4924.got - 2010.04.14 01:42:59.
