data_PCOD8169131
_publ_section_title
;
Structure prediction by ZEFSAII (Michael W. Deem and Ramdas Pophale) SiO2 
 PCOD8169131
Probable space group: P C A 21
;
_chemical_formula_sum "Si O2"
_cell_formula_units_Z 32
_cell_length_a 9.094364
_cell_length_b 11.601296
_cell_length_c 13.517835
_cell_angle_alpha 90.000000
_cell_angle_beta 90.000000
_cell_angle_gamma 90.000000
_cell_volume 1426.218224
_symmetry_space_group_name_H-M "P C A 21"
_symmetry_group_IT_number 29
_symmetry_cell_setting 'orthorhombic'
loop_
_space_group_symop_operation_xyz
x,y,z
-x,-y,1/2+z
1/2-x,y,1/2+z
1/2+x,-y,z
loop_
_atom_site_type_symbol
_atom_site_label
_atom_site_fract_x
_atom_site_fract_y
_atom_site_fract_z
Si Si1 0.551738 0.027942 0.512090
Si Si2 0.308872 0.928988 0.644801
Si Si3 0.415951 0.625689 0.494426
Si Si4 0.626035 0.759868 0.996664
Si Si5 0.406547 0.582145 0.921485
Si Si6 0.050309 0.707824 0.215302
Si Si7 0.589361 0.805528 0.397979
Si Si8 0.262405 0.176033 0.707928
O O1 0.691239 0.095714 0.557832
O O2 0.449060 0.121693 0.458792
O O3 0.467278 0.959326 0.598675
O O4 0.606776 0.937932 0.430862
O O5 0.331690 0.813254 0.709919
O O6 0.243362 0.037074 0.706364
O O7 0.532976 0.546358 0.436100
O O8 0.253898 0.584080 0.469173
O O9 0.443676 0.634255 0.612956
O O10 0.441851 0.751673 0.444948
O O11 0.680346 0.773204 0.107155
O O12 0.511206 0.657704 0.990536
O O13 0.768746 0.733020 0.932952
O O14 0.407653 0.623901 0.806764
O O15 0.889178 0.760627 0.237123
O O16 0.600324 0.797671 0.280303
#
# Coordination Sequence:
#
# PCOD8169131 Si02
#       8
#     4   4   4   4   4   4   4   4
#     4  11  21  39  68 102 153 192 231 296 367 443
#     4  11  20  42  66 105 147 192 233 288 374 434
#     4  12  28  53  74 106 147 188 247 326 362 437
#     4  11  23  44  67 108 146 188 245 302 363 435
#     4  12  30  48  80 108 138 198 253 304 384 440
#     4  12  25  49  78 107 151 192 252 307 370 451
#     4  12  23  43  71 104 146 197 242 296 374 435
#     4  11  24  40  76 106 148 199 233 301 364 445
#
# _framework density 22.436959999999999
#
# number of rings (size 3 to 8) (size 9 to 14) (size 15 to 20)
#    0.000    0.500    7.500    1.500    1.750    5.000 
#    0.000    0.000    0.000    0.000    0.000    0.000 
#    0.000    0.000    0.000    0.000    0.000    0.000 
#
# Total GULP energy -396721.240682 kJ/mol
# GULP energy per Si atom -12397.538771 kJ/mol
# Density = 2.238589 g / cm^3
# Si number density = 22.436960 Si / 1000 Ang^3
#
#
#
# Elastic Constant Matrix: (Units=GPa)
#
#
# Indices 1 2 3 4 5 6 
#
# 1 97.7801 19.1644 9.4040 0.0000 0.0000 0.0000
# 2 19.1644 76.4074 37.3296 0.0000 0.0000 0.0000
# 3 9.4040 37.3296 66.2908 0.0000 0.0000 0.0000
# 4 0.0000 0.0000 0.0000 27.1195 0.0000 0.0000
# 5 0.0000 0.0000 0.0000 0.0000 28.1714 0.0000
# 6 0.0000 0.0000 0.0000 0.0000 0.0000 38.4687
#
#
#
# Elastic Compliance Matrix: (Units=1/GPa)
#
#
# Indices 1 2 3 4 5 6 
#
# 1 0.010756 -0.002693 -0.000009 0.000000 0.000000 0.000000
# 2 -0.002693 0.018729 -0.010165 0.000000 0.000000 0.000000
# 3 -0.000009 -0.010165 0.020810 0.000000 0.000000 0.000000
# 4 0.000000 0.000000 0.000000 0.036874 0.000000 0.000000
# 5 0.000000 0.000000 0.000000 0.000000 0.035497 0.000000
# 6 0.000000 0.000000 0.000000 0.000000 0.000000 0.025995
#
#
# Mechanical properties :
#
#
# Convention : Reuss Voigt Hill
#
# Bulk Modulus (GPa) = 40.71495 41.36381 41.03938
# Shear Modulus (GPa) = 27.38481 30.39061 28.88771
#
# Velocity S-wave (km/s) = 3.49739 3.68433 3.59208
# Velocity P-wave (km/s) = 5.87322 6.04770 5.96110
#
# Compressibility (1/GPa) = 0.02456101
#
# Stress axis : x y z
#
# Youngs Moduli (GPa) = 92.97326 53.39208 48.05304
#
# Poissons Ratio (x) = 0.14380 0.00044
# Poissons Ratio (y) = 0.25040 0.48845
# Poissons Ratio (z) = 0.00085 0.54272
#
# Static dielectric constant tensor:
#      x y z
#    x 4.184180 0.000000 0.000000 
#    y 0.000000 4.152290 0.000000 
#    z 0.000000 0.000000 3.966970 
# 
# 
# High freq. dielectric constant tensor:
#      x y z
#    x 1.895210 0.000000 0.000000 
#    y 0.000000 1.878380 0.000000 
#    z 0.000000 0.000000 1.877360 
# 
# From -- ./inp_files/4304.got.cif
#   From: 2010.03.12/outbox.cif.g09.slc.cpg/sg29_3_cif.got.tgz:4304.got - 2010.04.14 03:43:10.
