data_PCOD8169617
_publ_section_title
;
Structure prediction by ZEFSAII (Michael W. Deem and Ramdas Pophale) SiO2 
 PCOD8169617
Probable space group: P N C 2
;
_chemical_formula_sum "Si O2"
_cell_formula_units_Z 16
_cell_length_a 5.187200
_cell_length_b 5.402775
_cell_length_c 22.376509
_cell_angle_alpha 90.000000
_cell_angle_beta 90.000000
_cell_angle_gamma 90.000000
_cell_volume 627.107807
_symmetry_space_group_name_H-M "P N C 2"
_symmetry_group_IT_number 30
_symmetry_cell_setting 'orthorhombic'
loop_
_space_group_symop_operation_xyz
x,y,z
-x,-y,z
-x,1/2+y,1/2+z
x,1/2-y,1/2+z
loop_
_atom_site_type_symbol
_atom_site_label
_atom_site_fract_x
_atom_site_fract_y
_atom_site_fract_z
Si Si1 0.500000 0.000000 0.462661
Si Si2 0.000000 0.500000 0.270305
Si Si3 0.163496 0.750101 0.551494
Si Si4 0.234170 0.148767 0.883428
Si Si5 0.743012 0.157451 0.183497
O O1 0.392967 0.772682 0.502960
O O2 0.728865 0.902466 0.419656
O O3 0.144352 0.301763 0.314338
O O4 0.222468 0.615832 0.228934
O O5 0.300426 0.752702 0.616169
O O6 0.000000 0.500000 0.541262
O O7 0.000000 0.000000 0.545282
O O8 0.500000 0.000000 0.884325
O O9 0.000000 0.000000 0.915995
O O10 0.500000 0.000000 0.205015
O O11 0.000000 0.000000 0.186219
#
# Coordination Sequence:
#
# PCOD8169617 Si02
#       5
#     2   2   4   4   4
#     4  12  30  50  86 114 180 216 290 344 428 508
#     4  10  26  54  82 114 168 216 286 348 426 506
#     4  11  29  51  83 127 170 224 285 354 435 507
#     4  10  28  50  78 117 161 218 285 335 427 496
#     4  11  27  48  82 121 165 219 280 354 431 503
#
# _framework density 25.513950999999999
#
# number of rings (size 3 to 8) (size 9 to 14) (size 15 to 20)
#    0.750    0.500    1.250    0.000   17.500    2.000 
#    0.000    2.500    0.000    0.000    0.000    0.000 
#    0.000    0.000    0.000    0.000    0.000    0.000 
#
# Total GULP energy -198361.883911 kJ/mol
# GULP energy per Si atom -12397.617744 kJ/mol
# Density = 2.545588 g / cm^3
# Si number density = 25.513951 Si / 1000 Ang^3
#
#
#
# Elastic Constant Matrix: (Units=GPa)
#
#
# Indices 1 2 3 4 5 6 
#
# 1 159.5778 55.9417 65.5873 0.0000 0.0000 0.0000
# 2 55.9417 137.4805 73.7674 0.0000 0.0000 0.0000
# 3 65.5873 73.7674 209.5233 0.0000 0.0000 0.0000
# 4 0.0000 0.0000 0.0000 14.4690 0.0000 0.0000
# 5 0.0000 0.0000 0.0000 0.0000 -11.7006 0.0000
# 6 0.0000 0.0000 0.0000 0.0000 0.0000 55.9828
#
#
#
# Elastic Compliance Matrix: (Units=1/GPa)
#
#
# Indices 1 2 3 4 5 6 
#
# 1 0.007730 -0.002277 -0.001618 0.000000 0.000000 0.000000
# 2 -0.002277 0.009639 -0.002681 0.000000 0.000000 0.000000
# 3 -0.001618 -0.002681 0.006223 0.000000 0.000000 0.000000
# 4 0.000000 0.000000 0.000000 0.069113 0.000000 0.000000
# 5 0.000000 0.000000 0.000000 0.000000 -0.085466 0.000000
# 6 0.000000 0.000000 0.000000 0.000000 0.000000 0.017863
#
#
# Mechanical properties :
#
#
# Convention : Reuss Voigt Hill
#
# Bulk Modulus (GPa) = 95.78630 99.68602 97.73616
# Shear Modulus (GPa) = 119.80835 32.50260 76.15547
#
# Velocity S-wave (km/s) = 6.86002 3.57307 5.46931
# Velocity P-wave (km/s) = 10.01852 7.49523 8.84729
#
# Compressibility (1/GPa) = 0.01043991
#
# Stress axis : x y z
#
# Youngs Moduli (GPa) = 129.36938 103.74808 160.69410
#
# Poissons Ratio (x) = 0.23625 0.25999
# Poissons Ratio (y) = 0.29460 0.43077
# Poissons Ratio (z) = 0.20931 0.27812
#
# Static dielectric constant tensor:
#      x y z
#    x 4.622010 0.000000 0.000000 
#    y 0.000000 4.430840 0.000000 
#    z 0.000000 0.000000 5.045210 
# 
# 
# High freq. dielectric constant tensor:
#      x y z
#    x 2.026030 0.000000 0.000000 
#    y 0.000000 1.997910 0.000000 
#    z 0.000000 0.000000 2.040070 
# 
# From -- ./inp_files/6719.got.cif
#   From: 2010.03.12/outbox.cif.g09.slc.cpg/sg30_4_cif.got.tgz:6719.got - 2010.04.14 01:38:02.
