data_PCOD8169529
_publ_section_title
;
Structure prediction by ZEFSAII (Michael W. Deem and Ramdas Pophale) SiO2 
 PCOD8169529
Probable space group: P N C 2
;
_chemical_formula_sum "Si O2"
_cell_formula_units_Z 26
_cell_length_a 6.851705
_cell_length_b 15.524457
_cell_length_c 12.928415
_cell_angle_alpha 90.000000
_cell_angle_beta 90.000000
_cell_angle_gamma 90.000000
_cell_volume 1375.182571
_symmetry_space_group_name_H-M "P N C 2"
_symmetry_group_IT_number 30
_symmetry_cell_setting 'orthorhombic'
loop_
_space_group_symop_operation_xyz
x,y,z
-x,-y,z
-x,1/2+y,1/2+z
x,1/2-y,1/2+z
loop_
_atom_site_type_symbol
_atom_site_label
_atom_site_fract_x
_atom_site_fract_y
_atom_site_fract_z
Si Si1 0.349507 0.925753 0.815790
Si Si2 0.000000 0.000000 0.686050
Si Si3 0.846638 0.293714 0.671355
Si Si4 0.112910 0.336812 0.073968
Si Si5 0.934317 0.099682 0.979981
Si Si6 0.891514 0.760503 0.364396
Si Si7 0.443462 0.270221 0.212778
O O1 0.153119 0.954707 0.759687
O O2 0.450528 0.857567 0.742796
O O3 0.500000 0.000000 0.839607
O O4 0.278913 0.889364 0.926998
O O5 0.883043 0.934251 0.613131
O O6 0.918789 0.374213 0.601107
O O7 0.611434 0.298018 0.681862
O O8 0.912203 0.206914 0.612549
O O9 0.939784 0.290512 0.785572
O O10 0.300430 0.285064 0.116262
O O11 0.117342 0.334754 0.950453
O O12 0.000000 0.000000 0.972637
O O13 0.076084 0.165828 0.916585
O O14 0.682364 0.762354 0.309374
#
# Coordination Sequence:
#
# PCOD8169529 Si02
#       7
#     4   2   4   4   4   4   4
#     4  12  21  34  60  90 121 145 194 260 303 345
#     4  12  20  38  56  90 120 152 196 254 298 352
#     4  10  22  40  60  85 121 159 197 245 304 369
#     4  10  22  36  60  86 118 155 199 244 302 357
#     4  11  22  40  62  89 122 162 202 250 311 357
#     4  10  22  41  61  85 121 161 202 248 293 366
#     4  11  20  36  60  89 115 153 200 251 300 357
#
# _framework density 18.906580000000002
#
# number of rings (size 3 to 8) (size 9 to 14) (size 15 to 20)
#    0.000    1.231    5.385    1.846    2.154    0.000 
#    4.154    0.000    0.000    0.000    0.000    0.000 
#    0.000    0.000    0.000    0.000    0.000    0.000 
#
# Total GULP energy -322319.240920 kJ/mol
# GULP energy per Si atom -12396.893882 kJ/mol
# Density = 1.886355 g / cm^3
# Si number density = 18.906580 Si / 1000 Ang^3
#
#
#
# Elastic Constant Matrix: (Units=GPa)
#
#
# Indices 1 2 3 4 5 6 
#
# 1 114.9133 12.6447 45.4987 0.0000 0.0000 0.0000
# 2 12.6447 51.7230 33.5268 0.0000 0.0000 0.0000
# 3 45.4987 33.5268 140.2676 0.0000 0.0000 0.0000
# 4 0.0000 0.0000 0.0000 29.6666 0.0000 0.0000
# 5 0.0000 0.0000 0.0000 0.0000 17.7423 0.0000
# 6 0.0000 0.0000 0.0000 0.0000 0.0000 25.2101
#
#
#
# Elastic Compliance Matrix: (Units=1/GPa)
#
#
# Indices 1 2 3 4 5 6 
#
# 1 0.009992 -0.000405 -0.003144 0.000000 0.000000 0.000000
# 2 -0.000405 0.022895 -0.005341 0.000000 0.000000 0.000000
# 3 -0.003144 -0.005341 0.009426 0.000000 0.000000 0.000000
# 4 0.000000 0.000000 0.000000 0.033708 0.000000 0.000000
# 5 0.000000 0.000000 0.000000 0.000000 0.056363 0.000000
# 6 0.000000 0.000000 0.000000 0.000000 0.000000 0.039667
#
#
# Mechanical properties :
#
#
# Convention : Reuss Voigt Hill
#
# Bulk Modulus (GPa) = 40.76249 54.47159 47.61704
# Shear Modulus (GPa) = 25.25167 28.87269 27.06218
#
# Velocity S-wave (km/s) = 3.65855 3.91208 3.78744
# Velocity P-wave (km/s) = 6.28120 7.01992 6.66081
#
# Compressibility (1/GPa) = 0.02453236
#
# Stress axis : x y z
#
# Youngs Moduli (GPa) = 100.08316 43.67812 106.09184
#
# Poissons Ratio (x) = 0.01767 0.33359
# Poissons Ratio (y) = 0.04048 0.56665
# Poissons Ratio (z) = 0.31469 0.23329
#
# Static dielectric constant tensor:
#      x y z
#    x 3.548090 0.000000 0.000000 
#    y 0.000000 3.337920 0.000000 
#    z 0.000000 0.000000 3.602520 
# 
# 
# High freq. dielectric constant tensor:
#      x y z
#    x 1.742370 0.000000 0.000000 
#    y 0.000000 1.708950 0.000000 
#    z 0.000000 0.000000 1.739780 
# 
# From -- ./inp_files/4746.got.cif
#   From: 2010.03.12/outbox.cif.g09.slc.cpg/sg30_3_cif.got.tgz:4746.got - 2010.04.14 01:38:02.
