data_PCOD8169364
_publ_section_title
;
Structure prediction by ZEFSAII (Michael W. Deem and Ramdas Pophale) SiO2 
 PCOD8169364
Probable space group: P N C 2
;
_chemical_formula_sum "Si O2"
_cell_formula_units_Z 32
_cell_length_a 16.413105
_cell_length_b 16.872765
_cell_length_c 5.291765
_cell_angle_alpha 90.000000
_cell_angle_beta 90.000000
_cell_angle_gamma 90.000000
_cell_volume 1465.472102
_symmetry_space_group_name_H-M "P N C 2"
_symmetry_group_IT_number 30
_symmetry_cell_setting 'orthorhombic'
loop_
_space_group_symop_operation_xyz
x,y,z
-x,-y,z
-x,1/2+y,1/2+z
x,1/2-y,1/2+z
loop_
_atom_site_type_symbol
_atom_site_label
_atom_site_fract_x
_atom_site_fract_y
_atom_site_fract_z
Si Si1 0.905250 0.211392 0.041620
Si Si2 0.414917 0.043232 0.367072
Si Si3 0.273902 0.210058 0.808428
Si Si4 0.916302 0.538035 0.958469
Si Si5 0.313735 0.032474 0.860298
Si Si6 0.085480 0.221976 0.518397
Si Si7 0.548283 0.723941 0.856247
Si Si8 0.150905 0.966819 0.971109
O O1 0.865396 0.241848 0.304048
O O2 0.888493 0.119032 0.006268
O O3 0.001484 0.229683 0.067674
O O4 0.358263 0.013032 0.596285
O O5 0.431186 0.134507 0.414996
O O6 0.500000 0.000000 0.377198
O O7 0.375558 0.029831 0.093843
O O8 0.235643 0.237443 0.538220
O O9 0.264000 0.115792 0.848128
O O10 0.370361 0.226238 0.790528
O O11 0.928914 0.631489 0.957715
O O12 0.894210 0.508993 0.237994
O O13 0.000000 0.500000 0.868875
O O14 0.853515 0.514825 0.736413
O O15 0.246678 0.963688 0.902635
O O16 0.132460 0.267401 0.288077
O O17 0.498838 0.736267 0.591634
#
# Coordination Sequence:
#
# PCOD8169364 Si02
#       8
#     4   4   4   4   4   4   4   4
#     4  10  20  39  64  90 109 168 227 248 310 401
#     4  12  23  38  65  96 125 167 215 261 313 376
#     4  10  16  32  59  83 113 164 205 240 294 389
#     4  12  23  41  65  95 129 162 222 278 324 378
#     4  12  23  41  61  93 136 163 212 261 322 388
#     4  10  19  35  59  83 122 161 210 261 310 374
#     4  10  16  32  59  86 112 157 212 242 292 383
#     4  12  26  42  66 100 130 174 211 278 339 382
#
# _framework density 21.835967
#
# number of rings (size 3 to 8) (size 9 to 14) (size 15 to 20)
#    0.000    1.000    5.000    6.000    0.000    0.000 
#    0.000    3.750    0.000    4.500    0.000    0.000 
#    0.000    0.000    0.000    0.000    0.000    0.000 
#
# Total GULP energy -396758.864232 kJ/mol
# GULP energy per Si atom -12398.714507 kJ/mol
# Density = 2.178627 g / cm^3
# Si number density = 21.835967 Si / 1000 Ang^3
#
#
#
# Elastic Constant Matrix: (Units=GPa)
#
#
# Indices 1 2 3 4 5 6 
#
# 1 63.5052 29.2871 28.5852 0.0000 0.0000 0.0000
# 2 29.2871 99.9853 45.4356 0.0000 0.0000 0.0000
# 3 28.5852 45.4356 200.4367 0.0000 0.0000 0.0000
# 4 0.0000 0.0000 0.0000 28.9663 0.0000 0.0000
# 5 0.0000 0.0000 0.0000 0.0000 25.1032 0.0000
# 6 0.0000 0.0000 0.0000 0.0000 0.0000 80.1389
#
#
#
# Elastic Compliance Matrix: (Units=1/GPa)
#
#
# Indices 1 2 3 4 5 6 
#
# 1 0.018647 -0.004742 -0.001584 0.000000 0.000000 0.000000
# 2 -0.004742 0.012356 -0.002125 0.000000 0.000000 0.000000
# 3 -0.001584 -0.002125 0.005697 0.000000 0.000000 0.000000
# 4 0.000000 0.000000 0.000000 0.034523 0.000000 0.000000
# 5 0.000000 0.000000 0.000000 0.000000 0.039836 0.000000
# 6 0.000000 0.000000 0.000000 0.000000 0.000000 0.012478
#
#
# Mechanical properties :
#
#
# Convention : Reuss Voigt Hill
#
# Bulk Modulus (GPa) = 50.51138 63.39367 56.95252
# Shear Modulus (GPa) = 34.00500 44.21630 39.11065
#
# Velocity S-wave (km/s) = 3.95054 4.50480 4.23674
# Velocity P-wave (km/s) = 6.63260 7.49350 7.07615
#
# Compressibility (1/GPa) = 0.01979752
#
# Stress axis : x y z
#
# Youngs Moduli (GPa) = 53.62860 80.93292 175.54096
#
# Poissons Ratio (x) = 0.38378 0.27813
# Poissons Ratio (y) = 0.25430 0.37296
# Poissons Ratio (z) = 0.08497 0.17195
#
# Static dielectric constant tensor:
#      x y z
#    x 3.425960 0.000000 0.000000 
#    y 0.000000 3.712560 0.000000 
#    z 0.000000 0.000000 5.236490 
# 
# 
# High freq. dielectric constant tensor:
#      x y z
#    x 1.826760 0.000000 0.000000 
#    y 0.000000 1.845510 0.000000 
#    z 0.000000 0.000000 1.911730 
# 
# From -- ./inp_files/1009.got.cif
#   From: 2010.03.12/outbox.cif.g09.slc.cpg/sg30_1_cif.got.tgz:1009.got - 2010.04.14 01:38:02.
