data_PCOD8169000
_publ_section_title
;
Structure prediction by ZEFSAII (Michael W. Deem and Ramdas Pophale) SiO2 
 PCOD8169000
Probable space group: P C A 21
;
_chemical_formula_sum "Si O2"
_cell_formula_units_Z 28
_cell_length_a 7.366491
_cell_length_b 18.955681
_cell_length_c 8.402797
_cell_angle_alpha 90.000000
_cell_angle_beta 90.000000
_cell_angle_gamma 90.000000
_cell_volume 1173.340134
_symmetry_space_group_name_H-M "P C A 21"
_symmetry_group_IT_number 29
_symmetry_cell_setting 'orthorhombic'
loop_
_space_group_symop_operation_xyz
x,y,z
-x,-y,1/2+z
1/2-x,y,1/2+z
1/2+x,-y,z
loop_
_atom_site_type_symbol
_atom_site_label
_atom_site_fract_x
_atom_site_fract_y
_atom_site_fract_z
Si Si1 0.630084 0.064734 0.399130
Si Si2 0.874584 0.433705 0.811377
Si Si3 0.817386 0.729138 0.798764
Si Si4 0.496031 0.077460 0.042153
Si Si5 0.066646 0.358066 0.574371
Si Si6 0.348341 0.172834 0.532451
Si Si7 0.825372 0.521478 0.525030
O O1 0.835673 0.093165 0.422787
O O2 0.490626 0.113160 0.493428
O O3 0.621930 0.987233 0.475374
O O4 0.579867 0.060738 0.214479
O O5 0.888081 0.504821 0.703519
O O6 0.700078 0.446338 0.925150
O O7 0.886861 0.366315 0.689764
O O8 0.041927 0.426192 0.932869
O O9 0.962287 0.690538 0.918110
O O10 0.730522 0.673243 0.678923
O O11 0.656793 0.766760 0.898275
O O12 0.915004 0.790807 0.696979
O O13 0.357981 0.143117 0.052299
O O14 0.129727 0.438297 0.530218
#
# Coordination Sequence:
#
# PCOD8169000 Si02
#       7
#     4   4   4   4   4   4   4
#     4  12  26  42  71 106 142 172 226 287 356 413
#     4  12  22  38  63  97 132 169 211 275 344 400
#     4  10  23  42  70  88 125 188 229 268 309 422
#     4  12  26  42  71 106 141 177 223 289 355 417
#     4  11  21  40  68  96 126 171 229 264 334 403
#     4  11  24  46  70  96 136 184 235 272 349 404
#     4  12  22  38  65  97 132 163 215 279 347 391
#
# _framework density 23.863499999999998
#
# number of rings (size 3 to 8) (size 9 to 14) (size 15 to 20)
#    0.000    0.571    7.143    0.857    4.000    0.000 
#    0.000    0.000   12.571    0.000    0.000    0.000 
#    0.000    0.000    0.000    0.000    0.000    0.000 
#
# Total GULP energy -346928.976998 kJ/mol
# GULP energy per Si atom -12390.320607 kJ/mol
# Density = 2.380919 g / cm^3
# Si number density = 23.863500 Si / 1000 Ang^3
#
#
#
# Elastic Constant Matrix: (Units=GPa)
#
#
# Indices 1 2 3 4 5 6 
#
# 1 62.8260 -7.7732 -3.1987 0.0000 0.0000 0.0000
# 2 -7.7732 51.1596 6.9827 0.0000 0.0000 0.0000
# 3 -3.1987 6.9827 96.5833 0.0000 0.0000 0.0000
# 4 0.0000 0.0000 0.0000 45.3874 0.0000 0.0000
# 5 0.0000 0.0000 0.0000 0.0000 30.0393 0.0000
# 6 0.0000 0.0000 0.0000 0.0000 0.0000 20.8555
#
#
#
# Elastic Compliance Matrix: (Units=1/GPa)
#
#
# Indices 1 2 3 4 5 6 
#
# 1 0.016235 0.002417 0.000363 0.000000 0.000000 0.000000
# 2 0.002417 0.020101 -0.001373 0.000000 0.000000 0.000000
# 3 0.000363 -0.001373 0.010465 0.000000 0.000000 0.000000
# 4 0.000000 0.000000 0.000000 0.022033 0.000000 0.000000
# 5 0.000000 0.000000 0.000000 0.000000 0.033290 0.000000
# 6 0.000000 0.000000 0.000000 0.000000 0.000000 0.047949
#
#
# Mechanical properties :
#
#
# Convention : Reuss Voigt Hill
#
# Bulk Modulus (GPa) = 20.15535 22.51005 21.33270
# Shear Modulus (GPa) = 30.52562 33.56031 32.04297
#
# Velocity S-wave (km/s) = 3.58044 3.75419 3.66835
# Velocity P-wave (km/s) = 5.05541 5.31463 5.18664
#
# Compressibility (1/GPa) = 0.04961463
#
# Stress axis : x y z
#
# Youngs Moduli (GPa) = 61.59711 49.74790 95.55615
#
# Poissons Ratio (x) = -0.12025 -0.03468
# Poissons Ratio (y) = -0.14889 0.13122
# Poissons Ratio (z) = -0.02235 0.06831
#
# Static dielectric constant tensor:
#      x y z
#    x 3.980630 0.000000 0.000000 
#    y 0.000000 4.234220 0.000000 
#    z 0.000000 0.000000 4.741270 
# 
# 
# High freq. dielectric constant tensor:
#      x y z
#    x 1.915950 0.000000 0.000000 
#    y 0.000000 1.928570 0.000000 
#    z 0.000000 0.000000 1.981920 
# 
# From -- ./inp_files/1212.got.cif
#   From: 2010.03.12/outbox.cif.g09.slc.cpg/sg29_1_cif.got.tgz:1212.got - 2010.04.14 03:43:10.
