data_PCOD8169333
_publ_section_title
;
Structure prediction by ZEFSAII (Michael W. Deem and Ramdas Pophale) SiO2 
 PCOD8169333
Probable space group: P C A 21
;
_chemical_formula_sum "Si O2"
_cell_formula_units_Z 32
_cell_length_a 8.566815
_cell_length_b 9.376137
_cell_length_c 16.819463
_cell_angle_alpha 90.000000
_cell_angle_beta 90.000000
_cell_angle_gamma 90.000000
_cell_volume 1351.000341
_symmetry_space_group_name_H-M "P C A 21"
_symmetry_group_IT_number 29
_symmetry_cell_setting 'orthorhombic'
loop_
_space_group_symop_operation_xyz
x,y,z
-x,-y,1/2+z
1/2-x,y,1/2+z
1/2+x,-y,z
loop_
_atom_site_type_symbol
_atom_site_label
_atom_site_fract_x
_atom_site_fract_y
_atom_site_fract_z
Si Si1 0.383132 0.862097 0.293840
Si Si2 0.513796 0.190175 0.071673
Si Si3 0.959630 0.125359 0.853552
Si Si4 0.905059 0.596084 0.789395
Si Si5 0.643538 0.594776 0.470624
Si Si6 0.978202 0.694339 0.507722
Si Si7 0.856787 0.096678 0.111637
Si Si8 0.585599 0.672546 0.730294
O O1 0.454780 0.706860 0.282958
O O2 0.351154 0.925273 0.206096
O O3 0.222127 0.847526 0.340492
O O4 0.500875 0.957107 0.347260
O O5 0.690731 0.138882 0.075339
O O6 0.473843 0.299180 0.142255
O O7 0.401155 0.053606 0.072105
O O8 0.485159 0.284211 0.992345
O O9 0.067645 0.187956 0.783968
O O10 0.007573 0.190123 0.937570
O O11 0.975750 0.443857 0.770613
O O12 0.829172 0.594075 0.876624
O O13 0.767118 0.629222 0.727311
O O14 0.803953 0.634528 0.514592
O O15 0.595191 0.437446 0.497873
O O16 0.020332 0.778783 0.588690
#
# Coordination Sequence:
#
# PCOD8169333 Si02
#       8
#     4   4   4   4   4   4   4   4
#     4  12  27  45  78 107 147 192 245 303 363 436
#     4  12  29  48  77 107 155 192 248 301 374 437
#     4  12  25  48  75 108 144 193 245 302 362 429
#     4  12  27  45  78 107 147 192 245 303 363 436
#     4  12  27  49  72 109 146 196 241 303 365 441
#     4  12  29  48  77 107 155 192 248 301 374 437
#     4  12  27  49  72 109 146 196 241 303 365 441
#     4  12  25  48  75 108 144 193 245 302 362 429
#
# _framework density 23.686152
#
# number of rings (size 3 to 8) (size 9 to 14) (size 15 to 20)
#    0.000    0.000    5.000    3.000   10.500    0.000 
#    0.000    0.000    0.000    0.000    0.000    0.000 
#    0.000    0.000    0.000    0.000    0.000    0.000 
#
# Total GULP energy -397074.280835 kJ/mol
# GULP energy per Si atom -12408.571276 kJ/mol
# Density = 2.363224 g / cm^3
# Si number density = 23.686152 Si / 1000 Ang^3
#
#
#
# Elastic Constant Matrix: (Units=GPa)
#
#
# Indices 1 2 3 4 5 6 
#
# 1 130.7389 23.4988 24.4720 0.0000 0.0000 0.0000
# 2 23.4988 106.0553 36.3362 0.0000 0.0000 0.0000
# 3 24.4720 36.3362 45.3007 0.0000 0.0000 0.0000
# 4 0.0000 0.0000 0.0000 38.3715 0.0000 0.0000
# 5 0.0000 0.0000 0.0000 0.0000 32.5841 0.0000
# 6 0.0000 0.0000 0.0000 0.0000 0.0000 29.1121
#
#
#
# Elastic Compliance Matrix: (Units=1/GPa)
#
#
# Indices 1 2 3 4 5 6 
#
# 1 0.008523 -0.000429 -0.004260 0.000000 0.000000 0.000000
# 2 -0.000429 0.013024 -0.010215 0.000000 0.000000 0.000000
# 3 -0.004260 -0.010215 0.032570 0.000000 0.000000 0.000000
# 4 0.000000 0.000000 0.000000 0.026061 0.000000 0.000000
# 5 0.000000 0.000000 0.000000 0.000000 0.030690 0.000000
# 6 0.000000 0.000000 0.000000 0.000000 0.000000 0.034350
#
#
# Mechanical properties :
#
#
# Convention : Reuss Voigt Hill
#
# Bulk Modulus (GPa) = 41.13776 50.07878 45.60827
# Shear Modulus (GPa) = 27.30315 33.19939 30.25127
#
# Velocity S-wave (km/s) = 3.39883 3.74791 3.57763
# Velocity P-wave (km/s) = 5.72786 6.31804 6.03017
#
# Compressibility (1/GPa) = 0.02430857
#
# Stress axis : x y z
#
# Youngs Moduli (GPa) = 117.32407 76.78227 30.70335
#
# Poissons Ratio (x) = 0.03293 0.13081
# Poissons Ratio (y) = 0.05031 0.31363
# Poissons Ratio (z) = 0.49986 0.78432
#
# Static dielectric constant tensor:
#      x y z
#    x 4.238680 0.000000 0.000000 
#    y 0.000000 4.470360 0.000000 
#    z 0.000000 0.000000 4.249510 
# 
# 
# High freq. dielectric constant tensor:
#      x y z
#    x 1.946210 0.000000 0.000000 
#    y 0.000000 1.957580 0.000000 
#    z 0.000000 0.000000 1.936500 
# 
# From -- ./inp_files/5425.got.cif
#   From: 2010.03.12/outbox.cif.g09.slc.cpg/sg29_3_cif.got.tgz:5425.got - 2010.04.14 03:43:10.
