data_PCOD8169624
_publ_section_title
;
Structure prediction by ZEFSAII (Michael W. Deem and Ramdas Pophale) SiO2 
 PCOD8169624
Probable space group: P N C 2
;
_chemical_formula_sum "Si O2"
_cell_formula_units_Z 24
_cell_length_a 9.992882
_cell_length_b 24.960790
_cell_length_c 5.128191
_cell_angle_alpha 90.000000
_cell_angle_beta 90.000000
_cell_angle_gamma 90.000000
_cell_volume 1279.125856
_symmetry_space_group_name_H-M "P N C 2"
_symmetry_group_IT_number 30
_symmetry_cell_setting 'orthorhombic'
loop_
_space_group_symop_operation_xyz
x,y,z
-x,-y,z
-x,1/2+y,1/2+z
x,1/2-y,1/2+z
loop_
_atom_site_type_symbol
_atom_site_label
_atom_site_fract_x
_atom_site_fract_y
_atom_site_fract_z
Si Si1 0.390630 0.957230 0.034420
Si Si2 0.197419 0.218908 0.515377
Si Si3 0.138163 0.470534 0.520486
Si Si4 0.476072 0.600129 0.046644
Si Si5 0.793164 0.595691 0.026157
Si Si6 0.484442 0.779778 0.500452
O O1 0.416185 0.939049 0.329625
O O2 0.500000 0.000000 0.946366
O O3 0.244953 0.982023 0.011848
O O4 0.406420 0.909529 0.825892
O O5 0.138723 0.247822 0.259099
O O6 0.153672 0.156796 0.531672
O O7 0.356384 0.222472 0.508305
O O8 0.132901 0.438017 0.250053
O O9 0.000000 0.500000 0.575177
O O10 0.171910 0.428482 0.746301
O O11 0.634773 0.592633 0.073179
O O12 0.436133 0.659752 0.963772
O O13 0.425399 0.745119 0.264249
#
# Coordination Sequence:
#
# PCOD8169624 Si02
#       6
#     4   4   4   4   4   4
#     4  12  21  36  56  80 110 142 187 223 264 322
#     4   9  17  29  49  79 108 136 171 219 274 324
#     4  12  25  38  54  80 112 153 185 223 272 324
#     4  11  20  33  57  84 106 146 182 226 276 319
#     4  11  20  36  56  80 114 145 178 226 277 321
#     4   9  17  29  46  76 114 137 165 216 279 331
#
# _framework density 18.762813000000001
#
# number of rings (size 3 to 8) (size 9 to 14) (size 15 to 20)
#    0.000    1.333    3.333    4.000    0.000    5.333 
#    0.000    0.000    0.000    0.000    0.000   23.333 
#    0.000    0.000    0.000    0.000    0.000    0.000 
#
# Total GULP energy -297657.549331 kJ/mol
# GULP energy per Si atom -12402.397889 kJ/mol
# Density = 1.872011 g / cm^3
# Si number density = 18.762813 Si / 1000 Ang^3
#
#
#
# Elastic Constant Matrix: (Units=GPa)
#
#
# Indices 1 2 3 4 5 6 
#
# 1 63.5311 27.1495 4.9092 0.0000 0.0000 0.0000
# 2 27.1495 105.8838 30.3953 0.0000 0.0000 0.0000
# 3 4.9092 30.3953 113.4354 0.0000 0.0000 0.0000
# 4 0.0000 0.0000 0.0000 42.3803 0.0000 0.0000
# 5 0.0000 0.0000 0.0000 0.0000 6.7918 0.0000
# 6 0.0000 0.0000 0.0000 0.0000 0.0000 11.1750
#
#
#
# Elastic Compliance Matrix: (Units=1/GPa)
#
#
# Indices 1 2 3 4 5 6 
#
# 1 0.017702 -0.004679 0.000488 0.000000 0.000000 0.000000
# 2 -0.004679 0.011468 -0.002870 0.000000 0.000000 0.000000
# 3 0.000488 -0.002870 0.009564 0.000000 0.000000 0.000000
# 4 0.000000 0.000000 0.000000 0.023596 0.000000 0.000000
# 5 0.000000 0.000000 0.000000 0.000000 0.147237 0.000000
# 6 0.000000 0.000000 0.000000 0.000000 0.000000 0.089485
#
#
# Mechanical properties :
#
#
# Convention : Reuss Voigt Hill
#
# Bulk Modulus (GPa) = 40.63331 45.30649 42.96990
# Shear Modulus (GPa) = 15.55799 26.76252 21.16025
#
# Velocity S-wave (km/s) = 2.88269 3.78082 3.36188
# Velocity P-wave (km/s) = 5.72566 6.57714 6.16612
#
# Compressibility (1/GPa) = 0.02461035
#
# Stress axis : x y z
#
# Youngs Moduli (GPa) = 56.49027 87.19896 104.56295
#
# Poissons Ratio (x) = 0.40800 -0.05099
# Poissons Ratio (y) = 0.26432 0.30014
# Poissons Ratio (z) = -0.02755 0.25030
#
# Static dielectric constant tensor:
#      x y z
#    x 3.000530 0.000000 0.000000 
#    y 0.000000 3.501450 0.000000 
#    z 0.000000 0.000000 3.637610 
# 
# 
# High freq. dielectric constant tensor:
#      x y z
#    x 1.665880 0.000000 0.000000 
#    y 0.000000 1.744970 0.000000 
#    z 0.000000 0.000000 1.751870 
# 
# From -- ./inp_files/431.got.cif
#   From: 2010.03.12/outbox.cif.g09.slc.cpg/sg30_1_cif.got.tgz:431.got - 2010.04.14 01:38:02.
