data_PCOD8169568
_publ_section_title
;
Structure prediction by ZEFSAII (Michael W. Deem and Ramdas Pophale) SiO2 
 PCOD8169568
Probable space group: P N C 2
;
_chemical_formula_sum "Si O2"
_cell_formula_units_Z 22
_cell_length_a 12.150218
_cell_length_b 6.129765
_cell_length_c 13.885309
_cell_angle_alpha 90.000000
_cell_angle_beta 90.000000
_cell_angle_gamma 90.000000
_cell_volume 1034.149780
_symmetry_space_group_name_H-M "P N C 2"
_symmetry_group_IT_number 30
_symmetry_cell_setting 'orthorhombic'
loop_
_space_group_symop_operation_xyz
x,y,z
-x,-y,z
-x,1/2+y,1/2+z
x,1/2-y,1/2+z
loop_
_atom_site_type_symbol
_atom_site_label
_atom_site_fract_x
_atom_site_fract_y
_atom_site_fract_z
Si Si1 0.000000 0.000000 0.177341
Si Si2 0.380472 0.441160 0.901066
Si Si3 0.724604 0.323270 0.061698
Si Si4 0.237036 0.049547 0.912211
Si Si5 0.779392 0.195550 0.262234
Si Si6 0.091434 0.155734 0.528153
O O1 0.042784 0.194611 0.111310
O O2 0.898900 0.092389 0.240848
O O3 0.500000 0.500000 0.857907
O O4 0.354154 0.181882 0.906983
O O5 0.285473 0.537395 0.833640
O O6 0.376383 0.556686 0.007038
O O7 0.701838 0.228823 0.168050
O O8 0.818203 0.503102 0.077475
O O9 0.762771 0.118879 0.999403
O O10 0.208183 0.931896 0.812411
O O11 0.139272 0.216146 0.936679
O O12 0.000000 0.000000 0.481802
#
# Coordination Sequence:
#
# PCOD8169568 Si02
#       6
#     2   4   4   4   4   4
#     4  12  24  42  66 100 144 184 238 290 352 432
#     4  10  25  48  70 103 138 181 240 299 354 417
#     4  10  22  44  66  96 133 185 230 281 358 412
#     4  10  23  45  66  97 145 174 234 290 345 419
#     4  11  24  44  66 106 138 191 234 286 355 431
#     4  11  20  40  65  92 138 187 231 280 346 418
#
# _framework density 21.273512
#
# number of rings (size 3 to 8) (size 9 to 14) (size 15 to 20)
#    0.000    1.455    3.636    0.000    2.545    2.909 
#   34.364    0.000    0.000    0.000    0.000    0.000 
#    0.000    0.000    0.000    0.000    0.000    0.000 
#
# Total GULP energy -272688.350341 kJ/mol
# GULP energy per Si atom -12394.925016 kJ/mol
# Density = 2.122509 g / cm^3
# Si number density = 21.273512 Si / 1000 Ang^3
#
#
#
# Elastic Constant Matrix: (Units=GPa)
#
#
# Indices 1 2 3 4 5 6 
#
# 1 122.4354 55.0340 35.9505 0.0000 0.0000 0.0000
# 2 55.0340 132.8808 47.4835 0.0000 0.0000 0.0000
# 3 35.9505 47.4835 120.9841 0.0000 0.0000 0.0000
# 4 0.0000 0.0000 0.0000 20.2835 0.0000 0.0000
# 5 0.0000 0.0000 0.0000 0.0000 22.8477 0.0000
# 6 0.0000 0.0000 0.0000 0.0000 0.0000 23.4346
#
#
#
# Elastic Compliance Matrix: (Units=1/GPa)
#
#
# Indices 1 2 3 4 5 6 
#
# 1 0.010299 -0.003689 -0.001612 0.000000 0.000000 0.000000
# 2 -0.003689 0.010075 -0.002858 0.000000 0.000000 0.000000
# 3 -0.001612 -0.002858 0.009866 0.000000 0.000000 0.000000
# 4 0.000000 0.000000 0.000000 0.049301 0.000000 0.000000
# 5 0.000000 0.000000 0.000000 0.000000 0.043768 0.000000
# 6 0.000000 0.000000 0.000000 0.000000 0.000000 0.042672
#
#
# Mechanical properties :
#
#
# Convention : Reuss Voigt Hill
#
# Bulk Modulus (GPa) = 71.83331 72.58182 72.20756
# Shear Modulus (GPa) = 26.74635 29.16865 27.95750
#
# Velocity S-wave (km/s) = 3.54963 3.70689 3.62911
# Velocity P-wave (km/s) = 7.11616 7.24664 7.18170
#
# Compressibility (1/GPa) = 0.01392112
#
# Stress axis : x y z
#
# Youngs Moduli (GPa) = 97.09301 99.25799 101.35498
#
# Poissons Ratio (x) = 0.36620 0.16343
# Poissons Ratio (y) = 0.35822 0.28965
# Poissons Ratio (z) = 0.15656 0.28366
#
# Static dielectric constant tensor:
#      x y z
#    x 3.697230 0.000000 0.000000 
#    y 0.000000 4.374550 0.000000 
#    z 0.000000 0.000000 3.902870 
# 
# 
# High freq. dielectric constant tensor:
#      x y z
#    x 1.809840 0.000000 0.000000 
#    y 0.000000 1.860000 0.000000 
#    z 0.000000 0.000000 1.832540 
# 
# From -- ./inp_files/5380.got.cif
#   From: 2010.03.12/outbox.cif.g09.slc.cpg/sg30_3_cif.got.tgz:5380.got - 2010.04.14 01:38:02.
