data_PCOD8169095
_publ_section_title
;
Structure prediction by ZEFSAII (Michael W. Deem and Ramdas Pophale) SiO2 
 PCOD8169095
Probable space group: P C A 21
;
_chemical_formula_sum "Si O2"
_cell_formula_units_Z 32
_cell_length_a 15.615595
_cell_length_b 8.253074
_cell_length_c 10.898963
_cell_angle_alpha 90.000000
_cell_angle_beta 90.000000
_cell_angle_gamma 90.000000
_cell_volume 1404.621961
_symmetry_space_group_name_H-M "P C A 21"
_symmetry_group_IT_number 29
_symmetry_cell_setting 'orthorhombic'
loop_
_space_group_symop_operation_xyz
x,y,z
-x,-y,1/2+z
1/2-x,y,1/2+z
1/2+x,-y,z
loop_
_atom_site_type_symbol
_atom_site_label
_atom_site_fract_x
_atom_site_fract_y
_atom_site_fract_z
Si Si1 0.666394 0.995263 0.522110
Si Si2 0.431737 0.291082 0.672092
Si Si3 0.499705 0.163798 0.906542
Si Si4 0.142930 0.080394 0.970500
Si Si5 0.361777 0.250759 0.230041
Si Si6 0.283459 0.513290 0.735974
Si Si7 0.457355 0.453938 0.054585
Si Si8 0.704456 0.358931 0.498499
O O1 0.586899 0.928439 0.444724
O O2 0.756726 0.958061 0.455333
O O3 0.663263 0.912073 0.655294
O O4 0.659093 0.188792 0.528632
O O5 0.493231 0.184762 0.760049
O O6 0.371919 0.163725 0.601406
O O7 0.376697 0.428776 0.742647
O O8 0.492181 0.381652 0.576229
O O9 0.585925 0.080201 0.954205
O O10 0.506468 0.346609 0.955624
O O11 0.111836 0.202914 0.866339
O O12 0.282238 0.368234 0.236955
O O13 0.444900 0.341514 0.175334
O O14 0.275888 0.612520 0.606114
O O15 0.264233 0.628319 0.855519
O O16 0.362576 0.495021 0.008027
#
# Coordination Sequence:
#
# PCOD8169095 Si02
#       8
#     4   4   4   4   4   4   4   4
#     4  11  26  47  70 102 147 186 243 299 368 424
#     4  12  25  44  72 101 139 187 242 292 368 440
#     4  11  27  47  69 103 148 185 240 300 367 432
#     4  12  27  42  76 103 140 189 241 291 368 435
#     4  10  24  46  69  99 140 187 232 300 360 432
#     4  11  23  45  72 102 141 186 245 291 371 433
#     4  10  25  44  67  95 141 183 234 299 356 423
#     4  11  25  43  71 103 140 191 237 308 354 439
#
# _framework density 22.781932000000001
#
# number of rings (size 3 to 8) (size 9 to 14) (size 15 to 20)
#    0.000    1.000    2.500    2.250   12.250    2.000 
#    0.000    0.000    0.000    0.000    0.000    0.000 
#    0.000    0.000    0.000    0.000    0.000    0.000 
#
# Total GULP energy -396742.181469 kJ/mol
# GULP energy per Si atom -12398.193171 kJ/mol
# Density = 2.273008 g / cm^3
# Si number density = 22.781932 Si / 1000 Ang^3
#
#
#
# Elastic Constant Matrix: (Units=GPa)
#
#
# Indices 1 2 3 4 5 6 
#
# 1 61.9654 11.6906 2.2409 0.0000 0.0000 0.0000
# 2 11.6906 96.9506 28.9450 0.0000 0.0000 0.0000
# 3 2.2409 28.9450 112.6164 0.0000 0.0000 0.0000
# 4 0.0000 0.0000 0.0000 37.7300 0.0000 0.0000
# 5 0.0000 0.0000 0.0000 0.0000 24.4801 0.0000
# 6 0.0000 0.0000 0.0000 0.0000 0.0000 34.0743
#
#
#
# Elastic Compliance Matrix: (Units=1/GPa)
#
#
# Indices 1 2 3 4 5 6 
#
# 1 0.016518 -0.002051 0.000198 0.000000 0.000000 0.000000
# 2 -0.002051 0.011426 -0.002896 0.000000 0.000000 0.000000
# 3 0.000198 -0.002896 0.009620 0.000000 0.000000 0.000000
# 4 0.000000 0.000000 0.000000 0.026504 0.000000 0.000000
# 5 0.000000 0.000000 0.000000 0.000000 0.040849 0.000000
# 6 0.000000 0.000000 0.000000 0.000000 0.000000 0.029348
#
#
# Mechanical properties :
#
#
# Convention : Reuss Voigt Hill
#
# Bulk Modulus (GPa) = 35.62878 39.69838 37.66358
# Shear Modulus (GPa) = 32.65442 34.50059 33.57751
#
# Velocity S-wave (km/s) = 3.79006 3.89573 3.84326
# Velocity P-wave (km/s) = 5.90134 6.13994 6.02182
#
# Compressibility (1/GPa) = 0.02806720
#
# Stress axis : x y z
#
# Youngs Moduli (GPa) = 60.54067 87.51599 103.94897
#
# Poissons Ratio (x) = 0.17950 -0.02063
# Poissons Ratio (y) = 0.12417 0.30104
# Poissons Ratio (z) = -0.01202 0.25345
#
# Static dielectric constant tensor:
#      x y z
#    x 3.923340 0.000000 0.000000 
#    y 0.000000 4.119000 0.000000 
#    z 0.000000 0.000000 4.322300 
# 
# 
# High freq. dielectric constant tensor:
#      x y z
#    x 1.890990 0.000000 0.000000 
#    y 0.000000 1.903930 0.000000 
#    z 0.000000 0.000000 1.903070 
# 
# From -- ./inp_files/3494.got.cif
#   From: 2010.03.12/outbox.cif.g09.slc.cpg/sg29_2_cif.got.tgz:3494.got - 2010.04.14 03:43:10.
