data_PCOD8169835
_publ_section_title
;
Structure prediction by ZEFSAII (Michael W. Deem and Ramdas Pophale) SiO2 
 PCOD8169835
Probable space group: P M N 21
;
_chemical_formula_sum "Si O2"
_cell_formula_units_Z 32
_cell_length_a 8.884464
_cell_length_b 11.354892
_cell_length_c 16.361415
_cell_angle_alpha 90.000000
_cell_angle_beta 90.000000
_cell_angle_gamma 90.000000
_cell_volume 1650.574382
_symmetry_space_group_name_H-M "P M N 21"
_symmetry_group_IT_number 31
_symmetry_cell_setting 'orthorhombic'
loop_
_space_group_symop_operation_xyz
x,y,z
1/2-x,-y,1/2+z
-x,y,z
1/2+x,-y,1/2+z
loop_
_atom_site_type_symbol
_atom_site_label
_atom_site_fract_x
_atom_site_fract_y
_atom_site_fract_z
Si Si1 0.332751 0.096289 0.782630
Si Si2 0.323094 0.068080 0.513678
Si Si3 0.674394 0.809425 0.572627
Si Si4 0.322837 0.569852 0.253386
Si Si5 0.324960 0.782393 0.144034
Si Si6 0.321549 0.309173 0.228788
Si Si7 0.675454 0.737910 0.395585
Si Si8 0.332505 0.853324 0.851168
O O1 0.500000 0.146868 0.761729
O O2 0.208589 0.124517 0.715012
O O3 0.274462 0.150446 0.867946
O O4 0.344161 0.956123 0.784410
O O5 0.500000 0.067824 0.499867
O O6 0.275511 0.180904 0.567320
O O7 0.244055 0.087501 0.428296
O O8 0.272451 0.943563 0.553748
O O9 0.500000 0.809242 0.597287
O O10 0.765804 0.755351 0.647435
O O11 0.702423 0.725631 0.492943
O O12 0.500000 0.558511 0.255558
O O13 0.274637 0.654711 0.178374
O O14 0.253971 0.441721 0.234899
O O15 0.271870 0.623878 0.341899
O O16 0.500000 0.786460 0.120250
O O17 0.500000 0.308117 0.227204
O O18 0.266364 0.249576 0.312354
O O19 0.500000 0.765273 0.378164
O O20 0.500000 0.806301 0.872804
#
# Coordination Sequence:
#
# PCOD8169835 Si02
#       8
#     4   4   4   4   4   4   4   4
#     4  10  19  32  54  84 115 143 183 231 280 338
#     4  11  22  37  58  88 119 145 188 238 287 348
#     4  10  21  37  59  87 118 149 189 241 294 351
#     4   8  18  38  60  81 110 149 197 239 278 337
#     4  10  20  36  59  83 113 151 187 228 286 341
#     4  11  23  39  59  83 116 156 198 242 284 337
#     4   9  17  35  61  83 109 149 191 236 290 341
#     4  11  23  38  56  81 118 154 185 231 289 347
#
# _framework density 19.387191999999999
#
# number of rings (size 3 to 8) (size 9 to 14) (size 15 to 20)
#    0.000    2.000    1.250    3.375    0.000    6.000 
#    2.250    6.250    0.000    0.000    0.000    0.000 
#    0.000    0.000    0.000    0.000    0.000    0.000 
#
# Total GULP energy -396628.912916 kJ/mol
# GULP energy per Si atom -12394.653529 kJ/mol
# Density = 1.934307 g / cm^3
# Si number density = 19.387192 Si / 1000 Ang^3
#
#
#
# Elastic Constant Matrix: (Units=GPa)
#
#
# Indices 1 2 3 4 5 6 
#
# 1 66.7133 41.1612 31.9915 0.0000 0.0000 0.0000
# 2 41.1612 129.6351 57.6087 0.0000 0.0000 0.0000
# 3 31.9915 57.6087 81.8819 0.0000 0.0000 0.0000
# 4 0.0000 0.0000 0.0000 27.1984 0.0000 0.0000
# 5 0.0000 0.0000 0.0000 0.0000 34.2598 0.0000
# 6 0.0000 0.0000 0.0000 0.0000 0.0000 19.3053
#
#
#
# Elastic Compliance Matrix: (Units=1/GPa)
#
#
# Indices 1 2 3 4 5 6 
#
# 1 0.019877 -0.004161 -0.004838 0.000000 0.000000 0.000000
# 2 -0.004161 0.012094 -0.006883 0.000000 0.000000 0.000000
# 3 -0.004838 -0.006883 0.018946 0.000000 0.000000 0.000000
# 4 0.000000 0.000000 0.000000 0.036767 0.000000 0.000000
# 5 0.000000 0.000000 0.000000 0.000000 0.029189 0.000000
# 6 0.000000 0.000000 0.000000 0.000000 0.000000 0.051799
#
#
# Mechanical properties :
#
#
# Convention : Reuss Voigt Hill
#
# Bulk Modulus (GPa) = 52.21509 59.97256 56.09383
# Shear Modulus (GPa) = 24.17555 25.98398 25.07976
#
# Velocity S-wave (km/s) = 3.53510 3.66493 3.60060
# Velocity P-wave (km/s) = 6.60710 6.99359 6.80309
#
# Compressibility (1/GPa) = 0.01915155
#
# Stress axis : x y z
#
# Youngs Moduli (GPa) = 50.30915 82.68614 52.78242
#
# Poissons Ratio (x) = 0.34407 0.25539
# Poissons Ratio (y) = 0.20934 0.36330
# Poissons Ratio (z) = 0.24342 0.56913
#
# Static dielectric constant tensor:
#      x y z
#    x 3.497310 0.000000 0.000000 
#    y 0.000000 3.829540 0.000000 
#    z 0.000000 0.000000 3.666850 
# 
# 
# High freq. dielectric constant tensor:
#      x y z
#    x 1.749510 0.000000 0.000000 
#    y 0.000000 1.742400 0.000000 
#    z 0.000000 0.000000 1.756340 
# 
# From -- ./inp_files/5069.got.cif
#   From: 2010.03.12/outbox.cif.g09.slc.cpg/sg31_3_cif.got.tgz:5069.got - 2010.04.14 01:42:59.
