data_PCOD8169838
_publ_section_title
;
Structure prediction by ZEFSAII (Michael W. Deem and Ramdas Pophale) SiO2 
 PCOD8169838
Probable space group: P M N 21
;
_chemical_formula_sum "Si O2"
_cell_formula_units_Z 32
_cell_length_a 9.344494
_cell_length_b 11.895723
_cell_length_c 14.552830
_cell_angle_alpha 90.000000
_cell_angle_beta 90.000000
_cell_angle_gamma 90.000000
_cell_volume 1617.685484
_symmetry_space_group_name_H-M "P M N 21"
_symmetry_group_IT_number 31
_symmetry_cell_setting 'orthorhombic'
loop_
_space_group_symop_operation_xyz
x,y,z
1/2-x,-y,1/2+z
-x,y,z
1/2+x,-y,1/2+z
loop_
_atom_site_type_symbol
_atom_site_label
_atom_site_fract_x
_atom_site_fract_y
_atom_site_fract_z
Si Si1 0.663277 0.392496 0.462050
Si Si2 0.838700 0.026496 0.485866
Si Si3 0.663276 0.829510 0.260135
Si Si4 0.831820 0.674162 0.762002
Si Si5 0.163486 0.921344 0.809672
Si Si6 0.160489 0.779145 0.435918
Si Si7 0.668547 0.420679 0.070232
Si Si8 0.838134 0.813030 0.092804
O O1 0.500000 0.436610 0.460543
O O2 0.726311 0.380307 0.357986
O O3 0.756301 0.471512 0.527046
O O4 0.670399 0.269617 0.506589
O O5 0.777744 0.069356 0.389868
O O6 0.739439 0.071171 0.567056
O O7 0.000000 0.073434 0.496737
O O8 0.836882 0.892853 0.494444
O O9 0.500000 0.789925 0.253149
O O10 0.723880 0.784464 0.355800
O O11 0.753645 0.766400 0.181379
O O12 0.676620 0.965233 0.249121
O O13 0.796951 0.807855 0.753584
O O14 0.770479 0.608131 0.672731
O O15 0.000000 0.658637 0.762861
O O16 0.000000 0.912111 0.848508
O O17 0.207161 0.682340 0.504779
O O18 0.000000 0.759329 0.396178
O O19 0.500000 0.443595 0.074187
O O20 0.000000 0.838287 0.122175
#
# Coordination Sequence:
#
# PCOD8169838 Si02
#       8
#     4   4   4   4   4   4   4   4
#     4  10  22  41  61  82 114 155 197 244 293 347
#     4  10  19  32  55  86 119 151 191 238 287 348
#     4  10  21  34  57  89 120 157 199 242 286 348
#     4   9  18  37  62  83 108 150 195 234 288 350
#     4   9  17  34  58  82 114 154 194 234 290 350
#     4   9  20  38  57  83 122 158 188 235 300 354
#     4  10  22  39  63  88 112 151 199 245 292 347
#     4  11  22  37  57  83 119 160 197 238 298 354
#
# _framework density 19.781348999999999
#
# number of rings (size 3 to 8) (size 9 to 14) (size 15 to 20)
#    0.000    2.250    1.250    1.125    1.750    3.500 
#    0.000    3.750    0.000    0.000    0.000    0.000 
#    0.000    0.000    0.000    0.000    0.000    0.000 
#
# Total GULP energy -396678.265244 kJ/mol
# GULP energy per Si atom -12396.195789 kJ/mol
# Density = 1.973633 g / cm^3
# Si number density = 19.781349 Si / 1000 Ang^3
#
#
#
# Elastic Constant Matrix: (Units=GPa)
#
#
# Indices 1 2 3 4 5 6 
#
# 1 104.9498 24.5280 47.4684 0.0000 0.0000 0.0000
# 2 24.5280 46.6742 24.5897 0.0000 0.0000 0.0000
# 3 47.4684 24.5897 108.1337 0.0000 0.0000 0.0000
# 4 0.0000 0.0000 0.0000 25.2679 0.0000 0.0000
# 5 0.0000 0.0000 0.0000 0.0000 30.7438 0.0000
# 6 0.0000 0.0000 0.0000 0.0000 0.0000 26.3046
#
#
#
# Elastic Compliance Matrix: (Units=1/GPa)
#
#
# Indices 1 2 3 4 5 6 
#
# 1 0.012575 -0.004204 -0.004564 0.000000 0.000000 0.000000
# 2 -0.004204 0.025747 -0.004009 0.000000 0.000000 0.000000
# 3 -0.004564 -0.004009 0.012163 0.000000 0.000000 0.000000
# 4 0.000000 0.000000 0.000000 0.039576 0.000000 0.000000
# 5 0.000000 0.000000 0.000000 0.000000 0.032527 0.000000
# 6 0.000000 0.000000 0.000000 0.000000 0.000000 0.038016
#
#
# Mechanical properties :
#
#
# Convention : Reuss Voigt Hill
#
# Bulk Modulus (GPa) = 40.11242 50.32556 45.21899
# Shear Modulus (GPa) = 25.71103 27.34138 26.52620
#
# Velocity S-wave (km/s) = 3.60913 3.72180 3.66590
# Velocity P-wave (km/s) = 6.13919 6.63063 6.38964
#
# Compressibility (1/GPa) = 0.02492993
#
# Stress axis : x y z
#
# Youngs Moduli (GPa) = 79.52111 38.84006 82.21527
#
# Poissons Ratio (x) = 0.16328 0.37526
# Poissons Ratio (y) = 0.33430 0.32963
# Poissons Ratio (z) = 0.36296 0.15573
#
# Static dielectric constant tensor:
#      x y z
#    x 3.547500 0.000000 0.000000 
#    y 0.000000 3.531090 0.000000 
#    z 0.000000 0.000000 3.720170 
# 
# 
# High freq. dielectric constant tensor:
#      x y z
#    x 1.759130 0.000000 0.000000 
#    y 0.000000 1.760270 0.000000 
#    z 0.000000 0.000000 1.774400 
# 
# From -- ./inp_files/4983.got.cif
#   From: 2010.03.12/outbox.cif.g09.slc.cpg/sg31_3_cif.got.tgz:4983.got - 2010.04.14 01:42:59.
