data_PCOD8169404
_publ_section_title
;
Structure prediction by ZEFSAII (Michael W. Deem and Ramdas Pophale) SiO2 
 PCOD8169404
Probable space group: P N C 2
;
_chemical_formula_sum "Si O2"
_cell_formula_units_Z 24
_cell_length_a 5.022162
_cell_length_b 8.237231
_cell_length_c 27.312917
_cell_angle_alpha 90.000000
_cell_angle_beta 90.000000
_cell_angle_gamma 90.000000
_cell_volume 1129.900102
_symmetry_space_group_name_H-M "P N C 2"
_symmetry_group_IT_number 30
_symmetry_cell_setting 'orthorhombic'
loop_
_space_group_symop_operation_xyz
x,y,z
-x,-y,z
-x,1/2+y,1/2+z
x,1/2-y,1/2+z
loop_
_atom_site_type_symbol
_atom_site_label
_atom_site_fract_x
_atom_site_fract_y
_atom_site_fract_z
Si Si1 0.546696 0.191139 0.229910
Si Si2 0.404230 0.682862 0.013214
Si Si3 0.244058 0.608461 0.316396
Si Si4 0.086112 0.314930 0.564690
Si Si5 0.956944 0.810198 0.176006
Si Si6 0.243023 0.608712 0.424901
O O1 0.670114 0.242618 0.281911
O O2 0.261065 0.265043 0.213946
O O3 0.752625 0.260299 0.188907
O O4 0.500000 0.000000 0.230434
O O5 0.500000 0.500000 0.008825
O O6 0.644764 0.791958 0.033821
O O7 0.149950 0.694751 0.048596
O O8 0.304103 0.740764 0.960107
O O9 0.500000 0.500000 0.321304
O O10 0.166814 0.675774 0.370610
O O11 0.000000 0.500000 0.295505
O O12 0.141051 0.273016 0.621282
O O13 0.000000 0.500000 0.557261
O O14 0.000000 0.000000 0.184612
O O15 0.500000 0.500000 0.421561
O O16 0.000000 0.500000 0.446073
#
# Coordination Sequence:
#
# PCOD8169404 Si02
#       6
#     4   4   4   4   4   4
#     4  10  19  35  58  83 112 146 187 235 285 334
#     4  12  24  38  58  89 122 147 187 249 304 341
#     4  10  21  37  57  84 115 147 188 235 282 339
#     4  11  22  40  63  83 112 159 204 234 279 351
#     4   9  19  35  57  83 109 146 196 237 270 334
#     4  10  21  39  61  82 110 153 198 232 277 351
#
# _framework density 21.240812999999999
#
# number of rings (size 3 to 8) (size 9 to 14) (size 15 to 20)
#    0.000    1.667    0.000    5.500    0.000    3.333 
#    0.000    8.333    0.000   10.000    0.000    0.000 
#    0.000    0.000    0.000    0.000    0.000    0.000 
#
# Total GULP energy -297450.916761 kJ/mol
# GULP energy per Si atom -12393.788198 kJ/mol
# Density = 2.119247 g / cm^3
# Si number density = 21.240813 Si / 1000 Ang^3
#
#
#
# Elastic Constant Matrix: (Units=GPa)
#
#
# Indices 1 2 3 4 5 6 
#
# 1 153.4463 33.0350 56.5330 0.0000 0.0000 0.0000
# 2 33.0350 57.7521 43.0606 0.0000 0.0000 0.0000
# 3 56.5330 43.0606 129.8390 0.0000 0.0000 0.0000
# 4 0.0000 0.0000 0.0000 26.6260 0.0000 0.0000
# 5 0.0000 0.0000 0.0000 0.0000 37.5769 0.0000
# 6 0.0000 0.0000 0.0000 0.0000 0.0000 28.8943
#
#
#
# Elastic Compliance Matrix: (Units=1/GPa)
#
#
# Indices 1 2 3 4 5 6 
#
# 1 0.008056 -0.002647 -0.002630 0.000000 0.000000 0.000000
# 2 -0.002647 0.023874 -0.006765 0.000000 0.000000 0.000000
# 3 -0.002630 -0.006765 0.011090 0.000000 0.000000 0.000000
# 4 0.000000 0.000000 0.000000 0.037557 0.000000 0.000000
# 5 0.000000 0.000000 0.000000 0.000000 0.026612 0.000000
# 6 0.000000 0.000000 0.000000 0.000000 0.000000 0.034609
#
#
# Mechanical properties :
#
#
# Convention : Reuss Voigt Hill
#
# Bulk Modulus (GPa) = 52.80926 67.36607 60.08767
# Shear Modulus (GPa) = 29.03710 32.51337 30.77524
#
# Velocity S-wave (km/s) = 3.70137 3.91666 3.81054
# Velocity P-wave (km/s) = 6.57137 7.22758 6.90727
#
# Compressibility (1/GPa) = 0.01893607
#
# Stress axis : x y z
#
# Youngs Moduli (GPa) = 124.13642 41.88710 90.16870
#
# Poissons Ratio (x) = 0.11089 0.23710
# Poissons Ratio (y) = 0.32863 0.60999
# Poissons Ratio (z) = 0.32642 0.28336
#
# Static dielectric constant tensor:
#      x y z
#    x 4.344480 0.000000 0.000000 
#    y 0.000000 3.379180 0.000000 
#    z 0.000000 0.000000 4.257820 
# 
# 
# High freq. dielectric constant tensor:
#      x y z
#    x 1.861560 0.000000 0.000000 
#    y 0.000000 1.792440 0.000000 
#    z 0.000000 0.000000 1.841270 
# 
# From -- ./inp_files/7491.got.cif
#   From: 2010.03.12/outbox.cif.g09.slc.cpg/sg30_4_cif.got.tgz:7491.got - 2010.04.14 01:38:02.
