data_PCOD8169225
_publ_section_title
;
Structure prediction by ZEFSAII (Michael W. Deem and Ramdas Pophale) SiO2 
 PCOD8169225
Probable space group: P C A 21
;
_chemical_formula_sum "Si O2"
_cell_formula_units_Z 24
_cell_length_a 8.447150
_cell_length_b 13.700440
_cell_length_c 9.363806
_cell_angle_alpha 90.000000
_cell_angle_beta 90.000000
_cell_angle_gamma 90.000000
_cell_volume 1083.670195
_symmetry_space_group_name_H-M "P C A 21"
_symmetry_group_IT_number 29
_symmetry_cell_setting 'orthorhombic'
loop_
_space_group_symop_operation_xyz
x,y,z
-x,-y,1/2+z
1/2-x,y,1/2+z
1/2+x,-y,z
loop_
_atom_site_type_symbol
_atom_site_label
_atom_site_fract_x
_atom_site_fract_y
_atom_site_fract_z
Si Si1 0.071346 0.788364 0.368390
Si Si2 0.429534 0.082019 0.135551
Si Si3 0.567287 0.872110 0.139178
Si Si4 0.122043 0.574842 0.303676
Si Si5 0.433702 0.580651 0.475949
Si Si6 0.561824 0.209418 0.908741
O O1 0.030217 0.676642 0.327171
O O2 0.249320 0.800014 0.426539
O O3 0.050230 0.856754 0.232260
O O4 0.944402 0.823636 0.484278
O O5 0.248283 0.103368 0.174516
O O6 0.458434 0.967697 0.150087
O O7 0.473684 0.115687 0.975968
O O8 0.493990 0.791260 0.244863
O O9 0.300638 0.587510 0.354006
O O10 0.117402 0.545674 0.135365
O O11 0.059866 0.492725 0.410917
O O12 0.500555 0.691191 0.484666
#
# Coordination Sequence:
#
# PCOD8169225 Si02
#       6
#     4   4   4   4   4   4
#     4  11  24  44  69  97 136 179 229 281 346 408
#     4  12  24  46  63 102 135 178 233 280 350 404
#     4  12  26  40  71  96 137 182 225 290 338 418
#     4  11  25  45  72 102 140 181 230 285 349 416
#     4  11  25  45  72 102 140 181 230 285 349 416
#     4  11  24  44  69  97 136 179 229 281 346 408
#
# _framework density 22.14696
#
# number of rings (size 3 to 8) (size 9 to 14) (size 15 to 20)
#    0.000    0.667    1.667    6.000    9.333    2.667 
#    0.000    0.000    0.000    0.000    0.000    0.000 
#    0.000    0.000    0.000    0.000    0.000    0.000 
#
# Total GULP energy -297672.541326 kJ/mol
# GULP energy per Si atom -12403.022555 kJ/mol
# Density = 2.209655 g / cm^3
# Si number density = 22.146960 Si / 1000 Ang^3
#
#
#
# Elastic Constant Matrix: (Units=GPa)
#
#
# Indices 1 2 3 4 5 6 
#
# 1 70.4124 26.5653 21.0557 0.0000 0.0000 0.0000
# 2 26.5653 84.0051 28.5447 0.0000 0.0000 0.0000
# 3 21.0557 28.5447 101.3542 0.0000 0.0000 0.0000
# 4 0.0000 0.0000 0.0000 41.5894 0.0000 0.0000
# 5 0.0000 0.0000 0.0000 0.0000 39.6350 0.0000
# 6 0.0000 0.0000 0.0000 0.0000 0.0000 28.2302
#
#
#
# Elastic Compliance Matrix: (Units=1/GPa)
#
#
# Indices 1 2 3 4 5 6 
#
# 1 0.016547 -0.004495 -0.002172 0.000000 0.000000 0.000000
# 2 -0.004495 0.014385 -0.003117 0.000000 0.000000 0.000000
# 3 -0.002172 -0.003117 0.011196 0.000000 0.000000 0.000000
# 4 0.000000 0.000000 0.000000 0.024045 0.000000 0.000000
# 5 0.000000 0.000000 0.000000 0.000000 0.025230 0.000000
# 6 0.000000 0.000000 0.000000 0.000000 0.000000 0.035423
#
#
# Mechanical properties :
#
#
# Convention : Reuss Voigt Hill
#
# Bulk Modulus (GPa) = 44.32715 45.34481 44.83598
# Shear Modulus (GPa) = 32.48581 33.86466 33.17524
#
# Velocity S-wave (km/s) = 3.83408 3.91460 3.87455
# Velocity P-wave (km/s) = 6.29751 6.39930 6.34861
#
# Compressibility (1/GPa) = 0.02255954
#
# Stress axis : x y z
#
# Youngs Moduli (GPa) = 60.43286 69.51794 89.32147
#
# Poissons Ratio (x) = 0.31248 0.19398
# Poissons Ratio (y) = 0.27164 0.27845
# Poissons Ratio (z) = 0.13124 0.21672
#
# Static dielectric constant tensor:
#      x y z
#    x 3.701730 0.000000 0.000000 
#    y 0.000000 4.302540 0.000000 
#    z 0.000000 0.000000 3.986620 
# 
# 
# High freq. dielectric constant tensor:
#      x y z
#    x 1.860480 0.000000 0.000000 
#    y 0.000000 1.879770 0.000000 
#    z 0.000000 0.000000 1.887600 
# 
# From -- ./inp_files/1123.got.cif
#   From: 2010.03.12/outbox.cif.g09.slc.cpg/sg29_1_cif.got.tgz:1123.got - 2010.04.14 03:43:10.
