data_PCOD8169241
_publ_section_title
;
Structure prediction by ZEFSAII (Michael W. Deem and Ramdas Pophale) SiO2 
 PCOD8169241
Probable space group: P C A 21
;
_chemical_formula_sum "Si O2"
_cell_formula_units_Z 24
_cell_length_a 14.413042
_cell_length_b 6.760207
_cell_length_c 11.095832
_cell_angle_alpha 90.000000
_cell_angle_beta 90.000000
_cell_angle_gamma 90.000000
_cell_volume 1081.124027
_symmetry_space_group_name_H-M "P C A 21"
_symmetry_group_IT_number 29
_symmetry_cell_setting 'orthorhombic'
loop_
_space_group_symop_operation_xyz
x,y,z
-x,-y,1/2+z
1/2-x,y,1/2+z
1/2+x,-y,z
loop_
_atom_site_type_symbol
_atom_site_label
_atom_site_fract_x
_atom_site_fract_y
_atom_site_fract_z
Si Si1 0.577876 0.397938 0.582030
Si Si2 0.069518 0.609590 0.221233
Si Si3 0.501882 0.084869 0.419594
Si Si4 0.126341 0.297922 0.392632
Si Si5 0.249040 0.807539 0.156165
Si Si6 0.216292 0.022491 0.905205
O O1 0.519281 0.575155 0.638769
O O2 0.515890 0.208409 0.542749
O O3 0.625430 0.502643 0.469779
O O4 0.659481 0.326540 0.669931
O O5 0.093615 0.387240 0.265714
O O6 0.155948 0.680601 0.141811
O O7 0.041097 0.782531 0.312277
O O8 0.393749 0.039507 0.402621
O O9 0.557428 0.879516 0.429292
O O10 0.234034 0.235027 0.395750
O O11 0.244947 0.918595 0.284245
O O12 0.254739 0.930889 0.031123
#
# Coordination Sequence:
#
# PCOD8169241 Si02
#       6
#     4   4   4   4   4   4
#     4  11  26  44  72 104 146 192 247 298 360 444
#     4  11  26  44  72 104 146 192 247 298 360 444
#     4  11  25  49  69 107 147 191 249 299 367 434
#     4  11  24  47  68 106 144 188 243 300 366 429
#     4  12  26  50  72 114 148 186 250 304 356 442
#     4  12  27  44  81 101 149 195 234 309 367 423
#
# _framework density 22.199117999999999
#
# number of rings (size 3 to 8) (size 9 to 14) (size 15 to 20)
#    0.000    0.667    3.333    3.000    9.333    4.000 
#    0.000    0.000    0.000    0.000    0.000    0.000 
#    0.000    0.000    0.000    0.000    0.000    0.000 
#
# Total GULP energy -297442.899932 kJ/mol
# GULP energy per Si atom -12393.454164 kJ/mol
# Density = 2.214859 g / cm^3
# Si number density = 22.199118 Si / 1000 Ang^3
#
#
#
# Elastic Constant Matrix: (Units=GPa)
#
#
# Indices 1 2 3 4 5 6 
#
# 1 127.4761 22.2584 16.4605 0.0000 0.0000 0.0000
# 2 22.2584 95.9375 26.1573 0.0000 0.0000 0.0000
# 3 16.4605 26.1573 102.2177 0.0000 0.0000 0.0000
# 4 0.0000 0.0000 0.0000 19.4090 0.0000 0.0000
# 5 0.0000 0.0000 0.0000 0.0000 32.3919 0.0000
# 6 0.0000 0.0000 0.0000 0.0000 0.0000 51.7950
#
#
#
# Elastic Compliance Matrix: (Units=1/GPa)
#
#
# Indices 1 2 3 4 5 6 
#
# 1 0.008252 -0.001669 -0.000902 0.000000 0.000000 0.000000
# 2 -0.001669 0.011543 -0.002685 0.000000 0.000000 0.000000
# 3 -0.000902 -0.002685 0.010615 0.000000 0.000000 0.000000
# 4 0.000000 0.000000 0.000000 0.051523 0.000000 0.000000
# 5 0.000000 0.000000 0.000000 0.000000 0.030872 0.000000
# 6 0.000000 0.000000 0.000000 0.000000 0.000000 0.019307
#
#
# Mechanical properties :
#
#
# Convention : Reuss Voigt Hill
#
# Bulk Modulus (GPa) = 50.25334 50.59818 50.42576
# Shear Modulus (GPa) = 33.49944 38.10284 35.80114
#
# Velocity S-wave (km/s) = 3.88886 4.14746 4.02024
# Velocity P-wave (km/s) = 6.54606 6.76591 6.65689
#
# Compressibility (1/GPa) = 0.01989918
#
# Stress axis : x y z
#
# Youngs Moduli (GPa) = 121.17620 86.63493 94.20302
#
# Poissons Ratio (x) = 0.14457 0.08496
# Poissons Ratio (y) = 0.20221 0.25294
# Poissons Ratio (z) = 0.10929 0.23262
#
# Static dielectric constant tensor:
#      x y z
#    x 4.116990 0.000000 0.000000 
#    y 0.000000 3.975720 0.000000 
#    z 0.000000 0.000000 4.042090 
# 
# 
# High freq. dielectric constant tensor:
#      x y z
#    x 1.890320 0.000000 0.000000 
#    y 0.000000 1.880950 0.000000 
#    z 0.000000 0.000000 1.873580 
# 
# From -- ./inp_files/3340.got.cif
#   From: 2010.03.12/outbox.cif.g09.slc.cpg/sg29_2_cif.got.tgz:3340.got - 2010.04.14 03:43:10.
