data_PCOD8169465
_publ_section_title
;
Structure prediction by ZEFSAII (Michael W. Deem and Ramdas Pophale) SiO2 
 PCOD8169465
Probable space group: P N C 2
;
_chemical_formula_sum "Si O2"
_cell_formula_units_Z 30
_cell_length_a 12.911046
_cell_length_b 20.390119
_cell_length_c 5.095150
_cell_angle_alpha 90.000000
_cell_angle_beta 90.000000
_cell_angle_gamma 90.000000
_cell_volume 1341.337798
_symmetry_space_group_name_H-M "P N C 2"
_symmetry_group_IT_number 30
_symmetry_cell_setting 'orthorhombic'
loop_
_space_group_symop_operation_xyz
x,y,z
-x,-y,z
-x,1/2+y,1/2+z
x,1/2-y,1/2+z
loop_
_atom_site_type_symbol
_atom_site_label
_atom_site_fract_x
_atom_site_fract_y
_atom_site_fract_z
Si Si1 0.645062 0.416440 0.333670
Si Si2 0.340786 0.209808 0.462634
Si Si3 0.447416 0.390278 0.639203
Si Si4 0.000442 0.290783 0.076153
Si Si5 0.836529 0.608978 0.943047
Si Si6 0.756864 0.209229 0.613258
Si Si7 0.500000 0.000000 0.474608
Si Si8 0.253667 0.451401 0.444042
O O1 0.564290 0.382918 0.535586
O O2 0.707817 0.360961 0.179696
O O3 0.573799 0.454073 0.133794
O O4 0.719012 0.470803 0.469618
O O5 0.349223 0.226195 0.771957
O O6 0.436006 0.166743 0.354937
O O7 0.233655 0.173582 0.414397
O O8 0.353652 0.400756 0.429274
O O9 0.425453 0.457786 0.792089
O O10 0.035558 0.262501 0.357561
O O11 0.049989 0.361695 0.006688
O O12 0.878653 0.302464 0.092773
O O13 0.803994 0.559328 0.170617
O O14 0.827062 0.567978 0.673949
O O15 0.721830 0.237607 0.331992
#
# Coordination Sequence:
#
# PCOD8169465 Si02
#       8
#     4   4   4   4   4   4   2   4
#     4  12  24  41  69  90 134 179 222 275 327 396
#     4  11  23  36  53  87 128 157 198 263 322 368
#     4  11  24  38  61  88 124 174 222 254 310 401
#     4  10  20  42  70  95 128 174 220 263 331 409
#     4  11  22  37  66  94 130 164 212 265 330 398
#     4  10  26  46  69 100 130 172 228 278 327 394
#     4  12  22  42  66  90 118 180 230 256 324 396
#     4  11  22  39  61  99 126 167 218 268 318 392
#
# _framework density 22.365731
#
# number of rings (size 3 to 8) (size 9 to 14) (size 15 to 20)
#    0.000    1.067    2.667    4.800    3.733    1.067 
#    0.000    0.667    0.000    3.200    0.000    0.000 
#    0.000    0.000    0.000    0.000    0.000    0.000 
#
# Total GULP energy -371811.945962 kJ/mol
# GULP energy per Si atom -12393.731532 kJ/mol
# Density = 2.231483 g / cm^3
# Si number density = 22.365731 Si / 1000 Ang^3
#
#
#
# Elastic Constant Matrix: (Units=GPa)
#
#
# Indices 1 2 3 4 5 6 
#
# 1 67.2143 42.8518 32.7350 0.0000 0.0000 0.0000
# 2 42.8518 96.9642 19.2266 0.0000 0.0000 0.0000
# 3 32.7350 19.2266 105.3672 0.0000 0.0000 0.0000
# 4 0.0000 0.0000 0.0000 74.2863 0.0000 0.0000
# 5 0.0000 0.0000 0.0000 0.0000 42.6790 0.0000
# 6 0.0000 0.0000 0.0000 0.0000 0.0000 37.6674
#
#
#
# Elastic Compliance Matrix: (Units=1/GPa)
#
#
# Indices 1 2 3 4 5 6 
#
# 1 0.023534 -0.009287 -0.005617 0.000000 0.000000 0.000000
# 2 -0.009287 0.014365 0.000264 0.000000 0.000000 0.000000
# 3 -0.005617 0.000264 0.011187 0.000000 0.000000 0.000000
# 4 0.000000 0.000000 0.000000 0.013461 0.000000 0.000000
# 5 0.000000 0.000000 0.000000 0.000000 0.023431 0.000000
# 6 0.000000 0.000000 0.000000 0.000000 0.000000 0.026548
#
#
# Mechanical properties :
#
#
# Convention : Reuss Voigt Hill
#
# Bulk Modulus (GPa) = 50.48698 51.01916 50.75307
# Shear Modulus (GPa) = 33.69086 42.57537 38.13311
#
# Velocity S-wave (km/s) = 3.88540 4.36776 4.13362
# Velocity P-wave (km/s) = 6.53841 6.94962 6.74715
#
# Compressibility (1/GPa) = 0.01980709
#
# Stress axis : x y z
#
# Youngs Moduli (GPa) = 42.49176 69.61424 89.38571
#
# Poissons Ratio (x) = 0.64649 0.50207
# Poissons Ratio (y) = 0.39461 -0.02359
# Poissons Ratio (z) = 0.23867 -0.01838
#
# Static dielectric constant tensor:
#      x y z
#    x 3.740220 0.000000 0.000000 
#    y 0.000000 3.819090 0.000000 
#    z 0.000000 0.000000 4.314790 
# 
# 
# High freq. dielectric constant tensor:
#      x y z
#    x 1.856540 0.000000 0.000000 
#    y 0.000000 1.878560 0.000000 
#    z 0.000000 0.000000 1.899130 
# 
# From -- ./inp_files/801.got.cif
#   From: 2010.03.12/outbox.cif.g09.slc.cpg/sg30_1_cif.got.tgz:801.got - 2010.04.14 01:38:02.
