data_PCOD8169208
_publ_section_title
;
Structure prediction by ZEFSAII (Michael W. Deem and Ramdas Pophale) SiO2 
 PCOD8169208
Probable space group: P C A 21
;
_chemical_formula_sum "Si O2"
_cell_formula_units_Z 20
_cell_length_a 9.810425
_cell_length_b 7.337572
_cell_length_c 10.468540
_cell_angle_alpha 90.000000
_cell_angle_beta 90.000000
_cell_angle_gamma 90.000000
_cell_volume 753.574709
_symmetry_space_group_name_H-M "P C A 21"
_symmetry_group_IT_number 29
_symmetry_cell_setting 'orthorhombic'
loop_
_space_group_symop_operation_xyz
x,y,z
-x,-y,1/2+z
1/2-x,y,1/2+z
1/2+x,-y,z
loop_
_atom_site_type_symbol
_atom_site_label
_atom_site_fract_x
_atom_site_fract_y
_atom_site_fract_z
Si Si1 0.067442 0.351844 0.078930
Si Si2 0.975047 0.035962 0.471782
Si Si3 0.482255 0.585163 0.816274
Si Si4 0.334608 0.197758 0.156953
Si Si5 0.210747 0.903109 0.315563
O O1 0.231270 0.338589 0.089080
O O2 0.009469 0.419451 0.215814
O O3 0.013001 0.481415 0.961856
O O4 0.010258 0.153130 0.048145
O O5 0.825001 0.090596 0.426023
O O6 0.030211 0.186728 0.570235
O O7 0.081235 0.026937 0.354575
O O8 0.610376 0.722327 0.791139
O O9 0.338114 0.693480 0.797304
O O10 0.263341 0.000713 0.185308
#
# Coordination Sequence:
#
# PCOD8169208 Si02
#       5
#     4   4   4   4   4
#     4  11  26  49  76 117 165 211 269 340 416 484
#     4  11  23  46  79 111 154 207 278 333 396 494
#     4  11  27  50  77 116 163 217 263 341 423 484
#     4  12  23  48  77 114 150 213 279 343 392 501
#     4  11  23  47  79 112 150 210 275 331 405 489
#
# _framework density 26.540168000000001
#
# number of rings (size 3 to 8) (size 9 to 14) (size 15 to 20)
#    0.000    0.800    6.000    1.200    0.000    4.800 
#    7.200    0.000    0.000    0.000    0.000    0.000 
#    0.000    0.000    0.000    0.000    0.000    0.000 
#
# Total GULP energy -247921.664906 kJ/mol
# GULP energy per Si atom -12396.083245 kJ/mol
# Density = 2.647976 g / cm^3
# Si number density = 26.540168 Si / 1000 Ang^3
#
#
#
# Elastic Constant Matrix: (Units=GPa)
#
#
# Indices 1 2 3 4 5 6 
#
# 1 138.3697 38.4722 51.2449 0.0000 0.0000 0.0000
# 2 38.4722 63.4569 48.8498 0.0000 0.0000 0.0000
# 3 51.2449 48.8498 142.8289 0.0000 0.0000 0.0000
# 4 0.0000 0.0000 0.0000 43.8211 0.0000 0.0000
# 5 0.0000 0.0000 0.0000 0.0000 53.7478 0.0000
# 6 0.0000 0.0000 0.0000 0.0000 0.0000 27.3849
#
#
#
# Elastic Compliance Matrix: (Units=1/GPa)
#
#
# Indices 1 2 3 4 5 6 
#
# 1 0.009042 -0.004051 -0.001858 0.000000 0.000000 0.000000
# 2 -0.004051 0.023206 -0.006483 0.000000 0.000000 0.000000
# 3 -0.001858 -0.006483 0.009886 0.000000 0.000000 0.000000
# 4 0.000000 0.000000 0.000000 0.022820 0.000000 0.000000
# 5 0.000000 0.000000 0.000000 0.000000 0.018605 0.000000
# 6 0.000000 0.000000 0.000000 0.000000 0.000000 0.036516
#
#
# Mechanical properties :
#
#
# Convention : Reuss Voigt Hill
#
# Bulk Modulus (GPa) = 57.64583 69.08769 63.36676
# Shear Modulus (GPa) = 33.19111 38.73000 35.96056
#
# Velocity S-wave (km/s) = 3.54022 3.82422 3.68496
# Velocity P-wave (km/s) = 6.20308 6.75185 6.48327
#
# Compressibility (1/GPa) = 0.01734731
#
# Stress axis : x y z
#
# Youngs Moduli (GPa) = 110.59931 43.09296 101.15757
#
# Poissons Ratio (x) = 0.17457 0.18800
# Poissons Ratio (y) = 0.44804 0.65583
# Poissons Ratio (z) = 0.20555 0.27938
#
# Static dielectric constant tensor:
#      x y z
#    x 4.864880 0.000000 0.000000 
#    y 0.000000 4.417030 0.000000 
#    z 0.000000 0.000000 4.945310 
# 
# 
# High freq. dielectric constant tensor:
#      x y z
#    x 2.072540 0.000000 0.000000 
#    y 0.000000 2.037540 0.000000 
#    z 0.000000 0.000000 2.075560 
# 
# From -- ./inp_files/2754.got.cif
#   From: 2010.03.12/outbox.cif.g09.slc.cpg/sg29_2_cif.got.tgz:2754.got - 2010.04.14 03:43:10.
