data_PCOD8169954
_publ_section_title
;
Structure prediction by ZEFSAII (Michael W. Deem and Ramdas Pophale) SiO2 
 PCOD8169954
Probable space group: P M N 21
;
_chemical_formula_sum "Si O2"
_cell_formula_units_Z 32
_cell_length_a 9.207409
_cell_length_b 16.027710
_cell_length_c 10.996671
_cell_angle_alpha 90.000000
_cell_angle_beta 90.000000
_cell_angle_gamma 90.000000
_cell_volume 1622.819222
_symmetry_space_group_name_H-M "P M N 21"
_symmetry_group_IT_number 31
_symmetry_cell_setting 'orthorhombic'
loop_
_space_group_symop_operation_xyz
x,y,z
1/2-x,-y,1/2+z
-x,y,z
1/2+x,-y,1/2+z
loop_
_atom_site_type_symbol
_atom_site_label
_atom_site_fract_x
_atom_site_fract_y
_atom_site_fract_z
Si Si1 0.827296 0.439832 0.166040
Si Si2 0.830946 0.277838 0.819730
Si Si3 0.830764 0.835890 0.155160
Si Si4 0.163156 0.724834 0.711478
Si Si5 0.337856 0.163769 0.992703
Si Si6 0.829983 0.858642 0.889025
Si Si7 0.829591 0.465178 0.887840
Si Si8 0.664742 0.017865 0.840734
O O1 0.775699 0.343812 0.164865
O O2 0.755501 0.480105 0.287006
O O3 0.000000 0.442466 0.181451
O O4 0.785543 0.479893 0.032203
O O5 0.746979 0.249108 0.698757
O O6 0.782908 0.220422 0.930536
O O7 0.788957 0.371563 0.853419
O O8 0.000000 0.267555 0.796737
O O9 0.792784 0.912670 0.241933
O O10 0.000000 0.815884 0.146484
O O11 0.767547 0.859945 0.024649
O O12 0.164329 0.810112 0.632273
O O13 0.208917 0.765572 0.839705
O O14 0.000000 0.685935 0.713630
O O15 0.500000 0.181577 0.935813
O O16 0.305670 0.065034 0.970897
O O17 0.000000 0.874137 0.882080
O O18 0.758861 0.936027 0.818837
O O19 0.000000 0.484178 0.872886
O O20 0.500000 0.988532 0.826659
#
# Coordination Sequence:
#
# PCOD8169954 Si02
#       8
#     4   4   4   4   4   4   4   4
#     4  11  24  42  65  93 125 161 206 255 308 369
#     4  10  19  35  60  85 110 142 187 240 285 336
#     4   9  20  38  54  77 115 151 190 236 292 356
#     4  10  21  38  60  85 117 156 196 242 296 356
#     4   9  18  34  57  82 112 148 186 230 285 344
#     4  10  22  37  55  81 114 154 195 240 293 352
#     4  10  23  42  62  92 128 158 198 253 306 369
#     4   9  19  34  53  79 111 150 192 240 287 340
#
# _framework density 19.718772000000001
#
# number of rings (size 3 to 8) (size 9 to 14) (size 15 to 20)
#    0.000    2.250    1.250    1.500    1.750    6.000 
#    0.000    3.750    0.000    0.000    0.000    0.000 
#    0.000    0.000    0.000    0.000    0.000    0.000 
#
# Total GULP energy -396466.084994 kJ/mol
# GULP energy per Si atom -12389.565156 kJ/mol
# Density = 1.967389 g / cm^3
# Si number density = 19.718772 Si / 1000 Ang^3
#
#
#
# Elastic Constant Matrix: (Units=GPa)
#
#
# Indices 1 2 3 4 5 6 
#
# 1 53.5797 39.0598 41.9923 0.0000 0.0000 0.0000
# 2 39.0598 75.2084 41.4147 0.0000 0.0000 0.0000
# 3 41.9923 41.4147 110.8889 0.0000 0.0000 0.0000
# 4 0.0000 0.0000 0.0000 23.0681 0.0000 0.0000
# 5 0.0000 0.0000 0.0000 0.0000 25.1298 0.0000
# 6 0.0000 0.0000 0.0000 0.0000 0.0000 36.5036
#
#
#
# Elastic Compliance Matrix: (Units=1/GPa)
#
#
# Indices 1 2 3 4 5 6 
#
# 1 0.035050 -0.013715 -0.008151 0.000000 0.000000 0.000000
# 2 -0.013715 0.022106 -0.003062 0.000000 0.000000 0.000000
# 3 -0.008151 -0.003062 0.013248 0.000000 0.000000 0.000000
# 4 0.000000 0.000000 0.000000 0.043350 0.000000 0.000000
# 5 0.000000 0.000000 0.000000 0.000000 0.039793 0.000000
# 6 0.000000 0.000000 0.000000 0.000000 0.000000 0.027395
#
#
# Mechanical properties :
#
#
# Convention : Reuss Voigt Hill
#
# Bulk Modulus (GPa) = 48.66679 53.84563 51.25621
# Shear Modulus (GPa) = 21.03956 24.75431 22.89694
#
# Velocity S-wave (km/s) = 3.27001 3.54696 3.41130
# Velocity P-wave (km/s) = 6.24430 6.64384 6.44717
#
# Compressibility (1/GPa) = 0.02054790
#
# Stress axis : x y z
#
# Youngs Moduli (GPa) = 28.53055 45.23733 75.48123
#
# Poissons Ratio (x) = 0.62043 0.61523
# Poissons Ratio (y) = 0.39130 0.23114
# Poissons Ratio (z) = 0.23255 0.13853
#
# Static dielectric constant tensor:
#      x y z
#    x 3.466260 0.000000 0.000000 
#    y 0.000000 3.473940 0.000000 
#    z 0.000000 0.000000 3.906990 
# 
# 
# High freq. dielectric constant tensor:
#      x y z
#    x 1.759330 0.000000 0.000000 
#    y 0.000000 1.759190 0.000000 
#    z 0.000000 0.000000 1.776320 
# 
# From -- ./inp_files/3722.got.cif
#   From: 2010.03.12/outbox.cif.g09.slc.cpg/sg31_2_cif.got.tgz:3722.got - 2010.04.14 01:42:59.
