data_PCOD8169541
_publ_section_title
;
Structure prediction by ZEFSAII (Michael W. Deem and Ramdas Pophale) SiO2 
 PCOD8169541
Probable space group: P N C 2
;
_chemical_formula_sum "Si O2"
_cell_formula_units_Z 20
_cell_length_a 12.290304
_cell_length_b 15.190618
_cell_length_c 4.995702
_cell_angle_alpha 90.000000
_cell_angle_beta 90.000000
_cell_angle_gamma 90.000000
_cell_volume 932.684141
_symmetry_space_group_name_H-M "P N C 2"
_symmetry_group_IT_number 30
_symmetry_cell_setting 'orthorhombic'
loop_
_space_group_symop_operation_xyz
x,y,z
-x,-y,z
-x,1/2+y,1/2+z
x,1/2-y,1/2+z
loop_
_atom_site_type_symbol
_atom_site_label
_atom_site_fract_x
_atom_site_fract_y
_atom_site_fract_z
Si Si1 0.621912 0.977215 0.701120
Si Si2 0.113060 0.693305 0.821119
Si Si3 0.924613 0.922529 0.461652
Si Si4 0.742908 0.465551 0.707540
Si Si5 0.246734 0.189266 0.739427
O O1 0.646026 0.872199 0.706947
O O2 0.500000 0.000000 0.787288
O O3 0.642530 0.015696 0.406237
O O4 0.704286 0.025544 0.903608
O O5 0.117855 0.777383 0.629666
O O6 0.215989 0.632919 0.754604
O O7 0.999584 0.641664 0.783438
O O8 0.861981 0.869461 0.695105
O O9 0.837349 0.963333 0.258339
O O10 0.000000 0.000000 0.591905
O O11 0.248120 0.271121 0.535943
#
# Coordination Sequence:
#
# PCOD8169541 Si02
#       5
#     4   4   4   4   4
#     4  11  23  43  66  86 116 161 206 251 309 368
#     4  11  22  37  58  90 124 159 196 240 294 356
#     4   9  20  37  60  88 125 166 200 236 296 370
#     4  10  22  40  61  87 119 158 201 245 297 364
#     4  11  22  39  61  91 121 152 199 258 300 344
#
# _framework density 21.443486
#
# number of rings (size 3 to 8) (size 9 to 14) (size 15 to 20)
#    0.000    1.600    0.000    5.400    0.000    3.200 
#    0.000   22.000    0.000    0.000    0.000    0.000 
#    0.000    0.000    0.000    0.000    0.000    0.000 
#
# Total GULP energy -248072.307077 kJ/mol
# GULP energy per Si atom -12403.615354 kJ/mol
# Density = 2.139468 g / cm^3
# Si number density = 21.443486 Si / 1000 Ang^3
#
#
#
# Elastic Constant Matrix: (Units=GPa)
#
#
# Indices 1 2 3 4 5 6 
#
# 1 105.6912 49.5591 3.9096 0.0000 0.0000 0.0000
# 2 49.5591 111.3085 16.5742 0.0000 0.0000 0.0000
# 3 3.9096 16.5742 60.4529 0.0000 0.0000 0.0000
# 4 0.0000 0.0000 0.0000 31.8833 0.0000 0.0000
# 5 0.0000 0.0000 0.0000 0.0000 21.8435 0.0000
# 6 0.0000 0.0000 0.0000 0.0000 0.0000 24.4810
#
#
#
# Elastic Compliance Matrix: (Units=1/GPa)
#
#
# Indices 1 2 3 4 5 6 
#
# 1 0.011988 -0.005444 0.000717 0.000000 0.000000 0.000000
# 2 -0.005444 0.011839 -0.002894 0.000000 0.000000 0.000000
# 3 0.000717 -0.002894 0.017289 0.000000 0.000000 0.000000
# 4 0.000000 0.000000 0.000000 0.031364 0.000000 0.000000
# 5 0.000000 0.000000 0.000000 0.000000 0.045780 0.000000
# 6 0.000000 0.000000 0.000000 0.000000 0.000000 0.040848
#
#
# Mechanical properties :
#
#
# Convention : Reuss Voigt Hill
#
# Bulk Modulus (GPa) = 38.64852 46.39314 42.52083
# Shear Modulus (GPa) = 27.32625 29.46888 28.39756
#
# Velocity S-wave (km/s) = 3.57366 3.71112 3.64304
# Velocity P-wave (km/s) = 5.92373 6.32813 6.12927
#
# Compressibility (1/GPa) = 0.02587421
#
# Stress axis : x y z
#
# Youngs Moduli (GPa) = 83.41782 84.46694 57.84101
#
# Poissons Ratio (x) = 0.45986 -0.04149
# Poissons Ratio (y) = 0.45415 0.16738
# Poissons Ratio (z) = -0.05984 0.24443
#
# Static dielectric constant tensor:
#      x y z
#    x 3.759150 0.000000 0.000000 
#    y 0.000000 4.050440 0.000000 
#    z 0.000000 0.000000 3.611440 
# 
# 
# High freq. dielectric constant tensor:
#      x y z
#    x 1.823660 0.000000 0.000000 
#    y 0.000000 1.851530 0.000000 
#    z 0.000000 0.000000 1.840360 
# 
# From -- ./inp_files/643.got.cif
#   From: 2010.03.12/outbox.cif.g09.slc.cpg/sg30_1_cif.got.tgz:643.got - 2010.04.14 01:38:02.
