data_PCOD8169375
_publ_section_title
;
Structure prediction by ZEFSAII (Michael W. Deem and Ramdas Pophale) SiO2 
 PCOD8169375
Probable space group: P N C 2
;
_chemical_formula_sum "Si O2"
_cell_formula_units_Z 32
_cell_length_a 10.947621
_cell_length_b 11.619277
_cell_length_c 12.935033
_cell_angle_alpha 90.000000
_cell_angle_beta 90.000000
_cell_angle_gamma 90.000000
_cell_volume 1645.380706
_symmetry_space_group_name_H-M "P N C 2"
_symmetry_group_IT_number 30
_symmetry_cell_setting 'orthorhombic'
loop_
_space_group_symop_operation_xyz
x,y,z
-x,-y,z
-x,1/2+y,1/2+z
x,1/2-y,1/2+z
loop_
_atom_site_type_symbol
_atom_site_label
_atom_site_fract_x
_atom_site_fract_y
_atom_site_fract_z
Si Si1 0.200904 0.600307 0.455670
Si Si2 0.181269 0.718213 0.792098
Si Si3 0.337913 0.596106 0.953257
Si Si4 0.007816 0.634155 0.627187
Si Si5 0.577024 0.612993 0.688393
Si Si6 0.644695 0.273296 0.604597
Si Si7 0.237167 0.358487 0.523362
Si Si8 0.609687 0.659070 0.911717
O O1 0.179756 0.653664 0.341455
O O2 0.100253 0.653060 0.532857
O O3 0.328216 0.642440 0.506503
O O4 0.196162 0.461210 0.445289
O O5 0.220781 0.628966 0.882516
O O6 0.051602 0.694156 0.734914
O O7 0.283880 0.697189 0.707493
O O8 0.462168 0.663698 0.917728
O O9 0.346405 0.460030 0.961820
O O10 0.320564 0.643260 0.070089
O O11 0.000000 0.500000 0.653338
O O12 0.880820 0.689509 0.585591
O O13 0.500000 0.500000 0.719741
O O14 0.497453 0.711978 0.632848
O O15 0.681714 0.576574 0.609178
O O16 0.641686 0.663204 0.790379
O O17 0.314054 0.260565 0.465643
#
# Coordination Sequence:
#
# PCOD8169375 Si02
#       8
#     4   4   4   4   4   4   4   4
#     4   9  20  37  61  85 114 154 201 260 288 352
#     4  10  19  38  64  85 112 155 207 251 294 363
#     4  10  20  35  57  87 120 157 192 245 303 357
#     4   9  21  38  61  87 115 159 209 247 302 364
#     4  12  20  34  61  87 118 159 198 237 299 372
#     4  10  18  34  58  85 115 149 199 240 294 354
#     4  11  23  39  58  90 124 158 197 252 310 358
#     4  11  22  35  55  87 129 154 190 249 304 371
#
# _framework density 19.448384999999998
#
# number of rings (size 3 to 8) (size 9 to 14) (size 15 to 20)
#    0.000    1.750    5.000    0.000    3.500    1.000 
#    2.250    0.000    0.000    0.000    0.000    0.000 
#    0.000    0.000    0.000    0.000    0.000    0.000 
#
# Total GULP energy -396532.374213 kJ/mol
# GULP energy per Si atom -12391.636694 kJ/mol
# Density = 1.940412 g / cm^3
# Si number density = 19.448385 Si / 1000 Ang^3
#
#
#
# Elastic Constant Matrix: (Units=GPa)
#
#
# Indices 1 2 3 4 5 6 
#
# 1 78.2340 34.4240 23.9676 0.0000 0.0000 0.0000
# 2 34.4240 98.0795 43.0514 0.0000 0.0000 0.0000
# 3 23.9676 43.0514 73.8582 0.0000 0.0000 0.0000
# 4 0.0000 0.0000 0.0000 29.4895 0.0000 0.0000
# 5 0.0000 0.0000 0.0000 0.0000 24.2600 0.0000
# 6 0.0000 0.0000 0.0000 0.0000 0.0000 25.9242
#
#
#
# Elastic Compliance Matrix: (Units=1/GPa)
#
#
# Indices 1 2 3 4 5 6 
#
# 1 0.015450 -0.004330 -0.002490 0.000000 0.000000 0.000000
# 2 -0.004330 0.014915 -0.007289 0.000000 0.000000 0.000000
# 3 -0.002490 -0.007289 0.018596 0.000000 0.000000 0.000000
# 4 0.000000 0.000000 0.000000 0.033910 0.000000 0.000000
# 5 0.000000 0.000000 0.000000 0.000000 0.041220 0.000000
# 6 0.000000 0.000000 0.000000 0.000000 0.000000 0.038574
#
#
# Mechanical properties :
#
#
# Convention : Reuss Voigt Hill
#
# Bulk Modulus (GPa) = 48.20624 50.33972 49.27298
# Shear Modulus (GPa) = 25.27846 25.84998 25.56422
#
# Velocity S-wave (km/s) = 3.60915 3.64972 3.62949
# Velocity P-wave (km/s) = 6.49681 6.61064 6.55397
#
# Compressibility (1/GPa) = 0.02074420
#
# Stress axis : x y z
#
# Youngs Moduli (GPa) = 64.72441 67.04755 53.77509
#
# Poissons Ratio (x) = 0.29030 0.13389
# Poissons Ratio (y) = 0.28024 0.39195
# Poissons Ratio (z) = 0.16116 0.48869
#
# Static dielectric constant tensor:
#      x y z
#    x 3.676420 0.000000 0.000000 
#    y 0.000000 3.367090 0.000000 
#    z 0.000000 0.000000 3.595800 
# 
# 
# High freq. dielectric constant tensor:
#      x y z
#    x 1.751440 0.000000 0.000000 
#    y 0.000000 1.736250 0.000000 
#    z 0.000000 0.000000 1.755080 
# 
# From -- ./inp_files/4147.got.cif
#   From: 2010.03.12/outbox.cif.g09.slc.cpg/sg30_3_cif.got.tgz:4147.got - 2010.04.14 01:38:02.
