data_PCOD8169719
_publ_section_title
;
Structure prediction by ZEFSAII (Michael W. Deem and Ramdas Pophale) SiO2 
 PCOD8169719
Probable space group: P M N 21
;
_chemical_formula_sum "Si O2"
_cell_formula_units_Z 32
_cell_length_a 9.439079
_cell_length_b 11.322901
_cell_length_c 16.442656
_cell_angle_alpha 90.000000
_cell_angle_beta 90.000000
_cell_angle_gamma 90.000000
_cell_volume 1757.354193
_symmetry_space_group_name_H-M "P M N 21"
_symmetry_group_IT_number 31
_symmetry_cell_setting 'orthorhombic'
loop_
_space_group_symop_operation_xyz
x,y,z
1/2-x,-y,1/2+z
-x,y,z
1/2+x,-y,1/2+z
loop_
_atom_site_type_symbol
_atom_site_label
_atom_site_fract_x
_atom_site_fract_y
_atom_site_fract_z
Si Si1 0.167847 0.187949 0.013230
Si Si2 0.656180 0.208916 0.410778
Si Si3 0.660518 0.710067 0.681204
Si Si4 0.336240 0.876882 0.223817
Si Si5 0.664142 0.685823 0.352851
Si Si6 0.340898 0.926222 0.794340
Si Si7 0.839565 0.930663 0.067162
Si Si8 0.662710 0.431222 0.311240
O O1 0.212523 0.274658 0.087852
O O2 0.000000 0.180685 0.006200
O O3 0.221148 0.052468 0.027359
O O4 0.233141 0.243263 0.929727
O O5 0.500000 0.168813 0.376857
O O6 0.789437 0.143740 0.372523
O O7 0.662352 0.179746 0.505625
O O8 0.675834 0.347152 0.390361
O O9 0.500000 0.661421 0.685562
O O10 0.667005 0.842980 0.715586
O O11 0.758158 0.621104 0.732128
O O12 0.500000 0.907205 0.210176
O O13 0.314768 0.751089 0.266885
O O14 0.257259 0.883423 0.138899
O O15 0.268705 0.968480 0.286098
O O16 0.500000 0.671012 0.374447
O O17 0.731071 0.555706 0.339492
O O18 0.500000 0.972628 0.808838
O O19 0.000000 0.952407 0.099531
O O20 0.500000 0.447820 0.284199
#
# Coordination Sequence:
#
# PCOD8169719 Si02
#       8
#     4   4   4   4   4   4   4   4
#     4   9  16  31  54  76 102 136 175 213 261 320
#     4   9  18  32  54  80 103 134 174 216 262 316
#     4   9  17  31  53  79 103 135 171 210 263 316
#     4  11  21  33  51  76 107 143 180 216 263 322
#     4   9  19  35  54  75 104 143 181 218 261 314
#     4  10  18  31  52  78 108 137 168 212 269 317
#     4  10  19  34  53  78 110 138 171 220 275 323
#     4   9  18  35  55  76 103 136 178 219 256 306
#
# _framework density 18.209191000000001
#
# number of rings (size 3 to 8) (size 9 to 14) (size 15 to 20)
#    0.000    2.500    1.250    1.500    0.000    3.000 
#    2.250    1.250    0.000    3.000    0.000    0.000 
#    0.000    0.000    0.000    0.000    0.000    0.000 
#
# Total GULP energy -396578.764829 kJ/mol
# GULP energy per Si atom -12393.086401 kJ/mol
# Density = 1.816775 g / cm^3
# Si number density = 18.209191 Si / 1000 Ang^3
#
#
#
# Elastic Constant Matrix: (Units=GPa)
#
#
# Indices 1 2 3 4 5 6 
#
# 1 75.2540 42.2173 42.2194 0.0000 0.0000 0.0000
# 2 42.2173 114.8296 60.3000 0.0000 0.0000 0.0000
# 3 42.2194 60.3000 94.9430 0.0000 0.0000 0.0000
# 4 0.0000 0.0000 0.0000 23.0045 0.0000 0.0000
# 5 0.0000 0.0000 0.0000 0.0000 25.4419 0.0000
# 6 0.0000 0.0000 0.0000 0.0000 0.0000 19.3336
#
#
#
# Elastic Compliance Matrix: (Units=1/GPa)
#
#
# Indices 1 2 3 4 5 6 
#
# 1 0.018734 -0.003770 -0.005936 0.000000 0.000000 0.000000
# 2 -0.003770 0.013825 -0.007104 0.000000 0.000000 0.000000
# 3 -0.005936 -0.007104 0.017684 0.000000 0.000000 0.000000
# 4 0.000000 0.000000 0.000000 0.043470 0.000000 0.000000
# 5 0.000000 0.000000 0.000000 0.000000 0.039305 0.000000
# 6 0.000000 0.000000 0.000000 0.000000 0.000000 0.051723
#
#
# Mechanical properties :
#
#
# Convention : Reuss Voigt Hill
#
# Bulk Modulus (GPa) = 60.15967 63.83334 61.99651
# Shear Modulus (GPa) = 22.33109 22.90865 22.61987
#
# Velocity S-wave (km/s) = 3.50575 3.55079 3.52834
# Velocity P-wave (km/s) = 7.03540 7.20711 7.12177
#
# Compressibility (1/GPa) = 0.01662243
#
# Stress axis : x y z
#
# Youngs Moduli (GPa) = 53.37971 72.33129 56.54780
#
# Poissons Ratio (x) = 0.27272 0.33566
# Poissons Ratio (y) = 0.20126 0.40172
# Poissons Ratio (z) = 0.31686 0.51385
#
# Static dielectric constant tensor:
#      x y z
#    x 3.217630 0.000000 0.000000 
#    y 0.000000 3.425150 0.000000 
#    z 0.000000 0.000000 3.363580 
# 
# 
# High freq. dielectric constant tensor:
#      x y z
#    x 1.680730 0.000000 0.000000 
#    y 0.000000 1.696380 0.000000 
#    z 0.000000 0.000000 1.704230 
# 
# From -- ./inp_files/5007.got.cif
#   From: 2010.03.12/outbox.cif.g09.slc.cpg/sg31_3_cif.got.tgz:5007.got - 2010.04.14 01:42:59.
