data_PCOD8169910
_publ_section_title
;
Structure prediction by ZEFSAII (Michael W. Deem and Ramdas Pophale) SiO2 
 PCOD8169910
Probable space group: P M N 21
;
_chemical_formula_sum "Si O2"
_cell_formula_units_Z 32
_cell_length_a 8.628914
_cell_length_b 14.637640
_cell_length_c 12.454525
_cell_angle_alpha 90.000000
_cell_angle_beta 90.000000
_cell_angle_gamma 90.000000
_cell_volume 1573.092901
_symmetry_space_group_name_H-M "P M N 21"
_symmetry_group_IT_number 31
_symmetry_cell_setting 'orthorhombic'
loop_
_space_group_symop_operation_xyz
x,y,z
1/2-x,-y,1/2+z
-x,y,z
1/2+x,-y,1/2+z
loop_
_atom_site_type_symbol
_atom_site_label
_atom_site_fract_x
_atom_site_fract_y
_atom_site_fract_z
Si Si1 0.825902 0.940216 0.576320
Si Si2 0.680443 0.374756 0.801283
Si Si3 0.682941 0.668312 0.072114
Si Si4 0.318155 0.444442 0.372398
Si Si5 0.316506 0.868371 0.005666
Si Si6 0.820712 0.331820 0.190057
Si Si7 0.818928 0.753411 0.488040
Si Si8 0.325489 0.162038 0.286580
O O1 0.748758 0.855988 0.507697
O O2 0.817726 0.919149 0.701579
O O3 0.000000 0.948383 0.532972
O O4 0.753045 0.041390 0.566978
O O5 0.500000 0.398325 0.794890
O O6 0.745473 0.370494 0.681326
O O7 0.764411 0.450747 0.874165
O O8 0.709102 0.279387 0.865809
O O9 0.500000 0.657705 0.079290
O O10 0.734573 0.774449 0.063391
O O11 0.739544 0.612706 0.968216
O O12 0.500000 0.437329 0.389647
O O13 0.270793 0.410223 0.253685
O O14 0.500000 0.866581 0.987974
O O15 0.225882 0.881505 0.896220
O O16 0.758456 0.319269 0.069365
O O17 0.796924 0.239729 0.257254
O O18 0.000000 0.358738 0.186501
O O19 0.000000 0.755464 0.518883
O O20 0.500000 0.203195 0.292700
#
# Coordination Sequence:
#
# PCOD8169910 Si02
#       8
#     4   4   4   4   4   4   4   4
#     4   8  17  35  58  86 119 162 206 250 308 367
#     4  11  25  43  64  91 126 167 210 257 314 377
#     4  11  24  42  63  92 129 166 209 258 313 371
#     4  12  25  42  65  90 121 160 205 258 315 373
#     4  10  20  36  60  87 122 162 204 256 311 364
#     4  11  21  36  61  89 118 152 200 256 310 368
#     4   9  20  40  63  88 124 165 207 254 309 366
#     4  10  19  34  56  83 117 156 205 255 306 364
#
# _framework density 20.342092000000001
#
# number of rings (size 3 to 8) (size 9 to 14) (size 15 to 20)
#    0.000    1.750    1.250    4.125    1.750    2.500 
#    0.000    3.125    0.000    0.000    0.000    0.000 
#    0.000    0.000    0.000    0.000    0.000    0.000 
#
# Total GULP energy -396647.392095 kJ/mol
# GULP energy per Si atom -12395.231003 kJ/mol
# Density = 2.029579 g / cm^3
# Si number density = 20.342092 Si / 1000 Ang^3
#
#
#
# Elastic Constant Matrix: (Units=GPa)
#
#
# Indices 1 2 3 4 5 6 
#
# 1 46.1359 18.7821 20.7257 0.0000 0.0000 0.0000
# 2 18.7821 114.5175 40.2678 0.0000 0.0000 0.0000
# 3 20.7257 40.2678 90.8225 0.0000 0.0000 0.0000
# 4 0.0000 0.0000 0.0000 25.2862 0.0000 0.0000
# 5 0.0000 0.0000 0.0000 0.0000 33.8901 0.0000
# 6 0.0000 0.0000 0.0000 0.0000 0.0000 19.0672
#
#
#
# Elastic Compliance Matrix: (Units=1/GPa)
#
#
# Indices 1 2 3 4 5 6 
#
# 1 0.024719 -0.002453 -0.004553 0.000000 0.000000 0.000000
# 2 -0.002453 0.010589 -0.004135 0.000000 0.000000 0.000000
# 3 -0.004553 -0.004135 0.013883 0.000000 0.000000 0.000000
# 4 0.000000 0.000000 0.000000 0.039547 0.000000 0.000000
# 5 0.000000 0.000000 0.000000 0.000000 0.029507 0.000000
# 6 0.000000 0.000000 0.000000 0.000000 0.000000 0.052446
#
#
# Mechanical properties :
#
#
# Convention : Reuss Voigt Hill
#
# Bulk Modulus (GPa) = 37.16355 45.66969 41.41662
# Shear Modulus (GPa) = 24.75947 27.09540 25.92743
#
# Velocity S-wave (km/s) = 3.49256 3.65360 3.57399
# Velocity P-wave (km/s) = 5.87987 6.34807 6.11845
#
# Compressibility (1/GPa) = 0.02690809
#
# Stress axis : x y z
#
# Youngs Moduli (GPa) = 40.45430 94.44159 72.03152
#
# Poissons Ratio (x) = 0.23168 0.32798
# Poissons Ratio (y) = 0.09924 0.29784
# Poissons Ratio (z) = 0.18420 0.39050
#
# Static dielectric constant tensor:
#      x y z
#    x 3.600400 0.000000 0.000000 
#    y 0.000000 3.946980 0.000000 
#    z 0.000000 0.000000 3.662280 
# 
# 
# High freq. dielectric constant tensor:
#      x y z
#    x 1.784300 0.000000 0.000000 
#    y 0.000000 1.800520 0.000000 
#    z 0.000000 0.000000 1.793980 
# 
# From -- ./inp_files/3696.got.cif
#   From: 2010.03.12/outbox.cif.g09.slc.cpg/sg31_2_cif.got.tgz:3696.got - 2010.04.14 01:42:59.
