data_PCOD8169682
_publ_section_title
;
Structure prediction by ZEFSAII (Michael W. Deem and Ramdas Pophale) SiO2 
 PCOD8169682
Probable space group: P M N 21
;
_chemical_formula_sum "Si O2"
_cell_formula_units_Z 32
_cell_length_a 9.194329
_cell_length_b 10.420431
_cell_length_c 19.410448
_cell_angle_alpha 90.000000
_cell_angle_beta 90.000000
_cell_angle_gamma 90.000000
_cell_volume 1859.693107
_symmetry_space_group_name_H-M "P M N 21"
_symmetry_group_IT_number 31
_symmetry_cell_setting 'orthorhombic'
loop_
_space_group_symop_operation_xyz
x,y,z
1/2-x,-y,1/2+z
-x,y,z
1/2+x,-y,1/2+z
loop_
_atom_site_type_symbol
_atom_site_label
_atom_site_fract_x
_atom_site_fract_y
_atom_site_fract_z
Si Si1 0.172442 0.512626 0.020090
Si Si2 0.172635 0.623812 0.881972
Si Si3 0.829745 0.220368 0.172878
Si Si4 0.827175 0.227100 0.019683
Si Si5 0.669424 0.480109 0.672500
Si Si6 0.327576 0.621455 0.297673
Si Si7 0.826506 0.872138 0.803099
Si Si8 0.827143 0.127728 0.877128
O O1 0.236152 0.370021 0.007099
O O2 0.217184 0.562460 0.095529
O O3 0.000000 0.501476 0.015743
O O4 0.229243 0.609790 0.960884
O O5 0.229399 0.500793 0.840277
O O6 0.234319 0.753280 0.848187
O O7 0.000000 0.628560 0.879933
O O8 0.779947 0.177212 0.095608
O O9 0.792751 0.370251 0.183868
O O10 0.739678 0.134905 0.226641
O O11 0.000000 0.194903 0.183999
O O12 0.000000 0.235408 0.018741
O O13 0.771807 0.136574 0.956884
O O14 0.500000 0.455802 0.685191
O O15 0.760358 0.387760 0.721875
O O16 0.500000 0.622363 0.291428
O O17 0.269895 0.749963 0.334384
O O18 0.000000 0.871261 0.796724
O O19 0.767625 0.999269 0.841218
O O20 0.000000 0.126483 0.876669
#
# Coordination Sequence:
#
# PCOD8169682 Si02
#       8
#     4   4   4   4   4   4   4   4
#     4   8  13  24  43  67  91 115 148 190 231 265
#     4   9  15  25  44  68  89 112 148 189 224 259
#     4   9  17  29  47  69  93 122 152 184 227 276
#     4   8  13  25  45  67  88 114 153 191 222 265
#     4   9  17  28  45  70  96 120 148 188 232 271
#     4  10  17  28  48  69  90 118 150 186 228 271
#     4  10  19  30  46  71  97 119 150 192 229 264
#     4   9  17  29  46  69  94 120 153 192 227 261
#
# _framework density 17.207141
#
# number of rings (size 3 to 8) (size 9 to 14) (size 15 to 20)
#    0.000    3.000    2.500    1.500    0.000    0.000 
#    0.000    1.875    0.000    6.000    0.000    0.000 
#    0.000    0.000    0.000    0.000    0.000    0.000 
#
# Total GULP energy -396561.072152 kJ/mol
# GULP energy per Si atom -12392.533505 kJ/mol
# Density = 1.716798 g / cm^3
# Si number density = 17.207141 Si / 1000 Ang^3
#
#
#
# Elastic Constant Matrix: (Units=GPa)
#
#
# Indices 1 2 3 4 5 6 
#
# 1 15.2685 17.0450 25.4648 0.0000 0.0000 0.0000
# 2 17.0450 113.5534 79.6440 0.0000 0.0000 0.0000
# 3 25.4648 79.6440 179.5740 0.0000 0.0000 0.0000
# 4 0.0000 0.0000 0.0000 29.3281 0.0000 0.0000
# 5 0.0000 0.0000 0.0000 0.0000 25.2614 0.0000
# 6 0.0000 0.0000 0.0000 0.0000 0.0000 10.2788
#
#
#
# Elastic Compliance Matrix: (Units=1/GPa)
#
#
# Indices 1 2 3 4 5 6 
#
# 1 0.089011 -0.006543 -0.009720 0.000000 0.000000 0.000000
# 2 -0.006543 0.013264 -0.004955 0.000000 0.000000 0.000000
# 3 -0.009720 -0.004955 0.009145 0.000000 0.000000 0.000000
# 4 0.000000 0.000000 0.000000 0.034097 0.000000 0.000000
# 5 0.000000 0.000000 0.000000 0.000000 0.039586 0.000000
# 6 0.000000 0.000000 0.000000 0.000000 0.000000 0.097287
#
#
# Mechanical properties :
#
#
# Convention : Reuss Voigt Hill
#
# Bulk Modulus (GPa) = 14.49651 61.41151 37.95401
# Shear Modulus (GPa) = 14.37522 25.38980 19.88251
#
# Velocity S-wave (km/s) = 2.89350 3.84544 3.40292
# Velocity P-wave (km/s) = 4.42788 7.44873 6.12739
#
# Compressibility (1/GPa) = 0.06898214
#
# Stress axis : x y z
#
# Youngs Moduli (GPa) = 11.23462 75.39290 109.35339
#
# Poissons Ratio (x) = 0.49333 1.06293
# Poissons Ratio (y) = 0.07351 0.54183
# Poissons Ratio (z) = 0.10920 0.37356
#
# Static dielectric constant tensor:
#      x y z
#    x 2.641940 0.000000 0.000000 
#    y 0.000000 3.202650 0.000000 
#    z 0.000000 0.000000 3.603410 
# 
# 
# High freq. dielectric constant tensor:
#      x y z
#    x 1.605340 0.000000 0.000000 
#    y 0.000000 1.640070 0.000000 
#    z 0.000000 0.000000 1.685040 
# 
# From -- ./inp_files/5936.got.cif
#   From: 2010.03.12/outbox.cif.g09.slc.cpg/sg31_3_cif.got.tgz:5936.got - 2010.04.14 01:42:59.
