data_PCOD8169490
_publ_section_title
;
Structure prediction by ZEFSAII (Michael W. Deem and Ramdas Pophale) SiO2 
 PCOD8169490
Probable space group: P N C 2
;
_chemical_formula_sum "Si O2"
_cell_formula_units_Z 32
_cell_length_a 12.715968
_cell_length_b 10.139700
_cell_length_c 12.904359
_cell_angle_alpha 90.000000
_cell_angle_beta 90.000000
_cell_angle_gamma 90.000000
_cell_volume 1663.837732
_symmetry_space_group_name_H-M "P N C 2"
_symmetry_group_IT_number 30
_symmetry_cell_setting 'orthorhombic'
loop_
_space_group_symop_operation_xyz
x,y,z
-x,-y,z
-x,1/2+y,1/2+z
x,1/2-y,1/2+z
loop_
_atom_site_type_symbol
_atom_site_label
_atom_site_fract_x
_atom_site_fract_y
_atom_site_fract_z
Si Si1 0.244062 0.392686 0.899600
Si Si2 0.145741 0.644437 0.999662
Si Si3 0.020282 0.356754 0.826654
Si Si4 0.483605 0.644696 0.341559
Si Si5 0.581536 0.883154 0.230281
Si Si6 0.337286 0.349903 0.504937
Si Si7 0.746276 0.111834 0.909558
Si Si8 0.084115 0.887727 0.732915
O O1 0.144087 0.332535 0.839313
O O2 0.338290 0.419896 0.820746
O O3 0.219274 0.531748 0.951776
O O4 0.276229 0.286169 0.985705
O O5 0.127269 0.606580 0.117529
O O6 0.203756 0.784924 0.990447
O O7 0.034761 0.650537 0.939694
O O8 0.000000 0.500000 0.776324
O O9 0.971759 0.252437 0.748021
O O10 0.500000 0.500000 0.291311
O O11 0.519586 0.749422 0.256336
O O12 0.551072 0.652741 0.446916
O O13 0.363466 0.671606 0.370492
O O14 0.646744 0.861944 0.126517
O O15 0.500000 0.000000 0.214587
O O16 0.267130 0.472256 0.466084
O O17 0.819484 0.091586 0.810205
O O18 0.000000 0.000000 0.755287
#
# Coordination Sequence:
#
# PCOD8169490 Si02
#       8
#     4   4   4   4   4   4   4   4
#     4  10  21  38  59  84 114 148 188 234 281 333
#     4  10  22  38  58  84 115 149 188 235 281 332
#     4   9  20  39  57  81 114 145 187 237 280 330
#     4   9  20  39  57  81 114 145 187 237 280 330
#     4  11  22  37  59  85 114 150 188 230 282 337
#     4  10  22  38  58  84 115 149 188 235 281 332
#     4  10  21  38  59  84 114 148 188 234 281 333
#     4  11  22  37  59  85 114 150 188 230 282 337
#
# _framework density 19.232644000000001
#
# number of rings (size 3 to 8) (size 9 to 14) (size 15 to 20)
#    0.000    2.000    0.000    3.750    0.000   10.000 
#    0.000    5.000    0.000    0.000    0.000    0.000 
#    0.000    0.000    0.000    0.000    0.000    0.000 
#
# Total GULP energy -396927.976282 kJ/mol
# GULP energy per Si atom -12403.999259 kJ/mol
# Density = 1.918887 g / cm^3
# Si number density = 19.232644 Si / 1000 Ang^3
#
#
#
# Elastic Constant Matrix: (Units=GPa)
#
#
# Indices 1 2 3 4 5 6 
#
# 1 75.9175 16.5160 -4.1111 0.0000 0.0000 0.0000
# 2 16.5160 85.5451 22.2145 0.0000 0.0000 0.0000
# 3 -4.1111 22.2145 57.4937 0.0000 0.0000 0.0000
# 4 0.0000 0.0000 0.0000 7.8212 0.0000 0.0000
# 5 0.0000 0.0000 0.0000 0.0000 16.9723 0.0000
# 6 0.0000 0.0000 0.0000 0.0000 0.0000 31.9767
#
#
#
# Elastic Compliance Matrix: (Units=1/GPa)
#
#
# Indices 1 2 3 4 5 6 
#
# 1 0.014013 -0.003296 0.002276 0.000000 0.000000 0.000000
# 2 -0.003296 0.013769 -0.005556 0.000000 0.000000 0.000000
# 3 0.002276 -0.005556 0.019703 0.000000 0.000000 0.000000
# 4 0.000000 0.000000 0.000000 0.127858 0.000000 0.000000
# 5 0.000000 0.000000 0.000000 0.000000 0.058920 0.000000
# 6 0.000000 0.000000 0.000000 0.000000 0.000000 0.031273
#
#
# Mechanical properties :
#
#
# Convention : Reuss Voigt Hill
#
# Bulk Modulus (GPa) = 29.12809 32.02166 30.57488
# Shear Modulus (GPa) = 17.23357 23.64315 20.43836
#
# Velocity S-wave (km/s) = 2.99667 3.50998 3.26343
# Velocity P-wave (km/s) = 5.21070 5.75433 5.48925
#
# Compressibility (1/GPa) = 0.03433112
#
# Stress axis : x y z
#
# Youngs Moduli (GPa) = 71.36462 72.62759 50.75480
#
# Poissons Ratio (x) = 0.23940 -0.11550
# Poissons Ratio (y) = 0.23524 0.28198
# Poissons Ratio (z) = -0.16240 0.40350
#
# Static dielectric constant tensor:
#      x y z
#    x 3.642770 0.000000 0.000000 
#    y 0.000000 3.879350 0.000000 
#    z 0.000000 0.000000 3.267270 
# 
# 
# High freq. dielectric constant tensor:
#      x y z
#    x 1.761600 0.000000 0.000000 
#    y 0.000000 1.765780 0.000000 
#    z 0.000000 0.000000 1.734080 
# 
# From -- ./inp_files/4389.got.cif
#   From: 2010.03.12/outbox.cif.g09.slc.cpg/sg30_3_cif.got.tgz:4389.got - 2010.04.14 01:38:02.
