data_PCOD8169019
_publ_section_title
;
Structure prediction by ZEFSAII (Michael W. Deem and Ramdas Pophale) SiO2 
 PCOD8169019
Probable space group: P C A 21
;
_chemical_formula_sum "Si O2"
_cell_formula_units_Z 32
_cell_length_a 18.904723
_cell_length_b 8.212325
_cell_length_c 8.763352
_cell_angle_alpha 90.000000
_cell_angle_beta 90.000000
_cell_angle_gamma 90.000000
_cell_volume 1360.525553
_symmetry_space_group_name_H-M "P C A 21"
_symmetry_group_IT_number 29
_symmetry_cell_setting 'orthorhombic'
loop_
_space_group_symop_operation_xyz
x,y,z
-x,-y,1/2+z
1/2-x,y,1/2+z
1/2+x,-y,z
loop_
_atom_site_type_symbol
_atom_site_label
_atom_site_fract_x
_atom_site_fract_y
_atom_site_fract_z
Si Si1 0.378743 0.147596 0.732340
Si Si2 0.111474 0.799386 0.133282
Si Si3 0.847190 0.805918 0.390806
Si Si4 0.246430 0.608812 0.173790
Si Si5 0.357604 0.848691 0.304824
Si Si6 0.024281 0.686481 0.657146
Si Si7 0.989749 0.635989 0.319190
Si Si8 0.788118 0.618019 0.908027
O O1 0.337821 0.175638 0.573418
O O2 0.453917 0.230171 0.716318
O O3 0.339989 0.225846 0.883168
O O4 0.385237 0.952249 0.750780
O O5 0.189889 0.727297 0.094966
O O6 0.050316 0.682611 0.196952
O O7 0.093451 0.846959 0.959060
O O8 0.925308 0.763312 0.330260
O O9 0.791423 0.665211 0.355825
O O10 0.823913 0.970267 0.300590
O O11 0.297524 0.712677 0.283101
O O12 0.190763 0.511665 0.279801
O O13 0.290078 0.480472 0.067543
O O14 0.413095 0.819276 0.167830
O O15 0.042202 0.536371 0.768920
O O16 0.023646 0.620121 0.485629
#
# Coordination Sequence:
#
# PCOD8169019 Si02
#       8
#     4   4   4   4   4   4   4   4
#     4  10  23  44  68  96 134 179 222 283 340 409
#     4  11  24  45  67  95 137 178 224 281 345 403
#     4  10  23  45  66  95 137 176 226 278 343 407
#     4  12  25  41  70  96 134 174 227 277 337 409
#     4  11  24  44  67  98 135 177 224 286 341 407
#     4  11  24  41  68  99 133 176 231 278 344 403
#     4  11  24  42  70  97 133 179 224 283 337 410
#     4  12  23  44  68  98 133 177 226 278 337 404
#
# _framework density 23.520323000000001
#
# number of rings (size 3 to 8) (size 9 to 14) (size 15 to 20)
#    0.000    1.000    2.500    3.750    5.250    0.000 
#    4.500    0.000    0.000    0.000    0.000    0.000 
#    0.000    0.000    0.000    0.000    0.000    0.000 
#
# Total GULP energy -396518.214868 kJ/mol
# GULP energy per Si atom -12391.194215 kJ/mol
# Density = 2.346679 g / cm^3
# Si number density = 23.520323 Si / 1000 Ang^3
#
#
#
# Elastic Constant Matrix: (Units=GPa)
#
#
# Indices 1 2 3 4 5 6 
#
# 1 59.9109 14.5262 16.1262 0.0000 0.0000 0.0000
# 2 14.5262 117.9856 28.2756 0.0000 0.0000 0.0000
# 3 16.1262 28.2756 66.1265 0.0000 0.0000 0.0000
# 4 0.0000 0.0000 0.0000 37.5726 0.0000 0.0000
# 5 0.0000 0.0000 0.0000 0.0000 28.4084 0.0000
# 6 0.0000 0.0000 0.0000 0.0000 0.0000 31.7343
#
#
#
# Elastic Compliance Matrix: (Units=1/GPa)
#
#
# Indices 1 2 3 4 5 6 
#
# 1 0.018041 -0.001300 -0.003844 0.000000 0.000000 0.000000
# 2 -0.001300 0.009537 -0.003761 0.000000 0.000000 0.000000
# 3 -0.003844 -0.003761 0.017668 0.000000 0.000000 0.000000
# 4 0.000000 0.000000 0.000000 0.026615 0.000000 0.000000
# 5 0.000000 0.000000 0.000000 0.000000 0.035201 0.000000
# 6 0.000000 0.000000 0.000000 0.000000 0.000000 0.031512
#
#
# Mechanical properties :
#
#
# Convention : Reuss Voigt Hill
#
# Bulk Modulus (GPa) = 36.44745 40.20876 38.32811
# Shear Modulus (GPa) = 30.20614 31.88273 31.04444
#
# Velocity S-wave (km/s) = 3.58754 3.68576 3.63698
# Velocity P-wave (km/s) = 5.71755 5.93680 5.82820
#
# Compressibility (1/GPa) = 0.02743676
#
# Stress axis : x y z
#
# Youngs Moduli (GPa) = 55.42837 104.85484 56.59913
#
# Poissons Ratio (x) = 0.13631 0.21756
# Poissons Ratio (y) = 0.07206 0.21287
# Poissons Ratio (z) = 0.21306 0.39436
#
# Static dielectric constant tensor:
#      x y z
#    x 3.918640 0.000000 0.000000 
#    y 0.000000 4.359530 0.000000 
#    z 0.000000 0.000000 4.107880 
# 
# 
# High freq. dielectric constant tensor:
#      x y z
#    x 1.923630 0.000000 0.000000 
#    y 0.000000 1.942980 0.000000 
#    z 0.000000 0.000000 1.924290 
# 
# From -- ./inp_files/2296.got.cif
#   From: 2010.03.12/outbox.cif.g09.slc.cpg/sg29_2_cif.got.tgz:2296.got - 2010.04.14 03:43:10.
