data_PCOD8169343
_publ_section_title
;
Structure prediction by ZEFSAII (Michael W. Deem and Ramdas Pophale) SiO2 
 PCOD8169343
Probable space group: P C A 21
;
_chemical_formula_sum "Si O2"
_cell_formula_units_Z 28
_cell_length_a 21.665269
_cell_length_b 5.316525
_cell_length_c 9.675257
_cell_angle_alpha 90.000000
_cell_angle_beta 90.000000
_cell_angle_gamma 90.000000
_cell_volume 1114.434263
_symmetry_space_group_name_H-M "P C A 21"
_symmetry_group_IT_number 29
_symmetry_cell_setting 'orthorhombic'
loop_
_space_group_symop_operation_xyz
x,y,z
-x,-y,1/2+z
1/2-x,y,1/2+z
1/2+x,-y,z
loop_
_atom_site_type_symbol
_atom_site_label
_atom_site_fract_x
_atom_site_fract_y
_atom_site_fract_z
Si Si1 0.401959 0.881145 0.883900
Si Si2 0.874646 0.794981 0.150508
Si Si3 0.726804 0.281572 0.311550
Si Si4 0.659786 0.976392 0.931706
Si Si5 0.251769 0.402868 0.052950
Si Si6 0.469571 0.525674 0.047498
Si Si7 0.955238 0.030417 0.603651
O O1 0.332496 0.896659 0.823497
O O2 0.448732 0.986562 0.769273
O O3 0.429107 0.598380 0.910715
O O4 0.404034 0.030908 0.029811
O O5 0.800606 0.769386 0.134516
O O6 0.913081 0.531503 0.155851
O O7 0.883511 0.906809 0.302054
O O8 0.788591 0.167577 0.377889
O O9 0.713191 0.516577 0.412531
O O10 0.734914 0.361284 0.152318
O O11 0.612271 0.085593 0.041750
O O12 0.690262 0.741580 0.011026
O O13 0.506812 0.265515 0.042279
O O14 0.514116 0.762176 0.071520
#
# Coordination Sequence:
#
# PCOD8169343 Si02
#       7
#     4   4   4   4   4   4   4
#     4  12  28  52  85 114 162 216 277 335 415 485
#     4  12  27  50  81 116 160 218 271 339 405 486
#     4  12  26  47  79 117 159 207 266 336 414 486
#     4  12  30  50  77 122 166 207 274 342 415 490
#     4  12  26  46  76 118 160 208 264 336 413 486
#     4  12  30  54  79 121 161 217 276 331 405 483
#     4  12  33  51  85 118 166 217 274 341 403 490
#
# _framework density 25.124855
#
# number of rings (size 3 to 8) (size 9 to 14) (size 15 to 20)
#    0.000    0.000    5.714    1.714   12.000    1.143 
#    0.000    0.000    0.000    0.000    0.000    0.000 
#    0.000    0.000    0.000    0.000    0.000    0.000 
#
# Total GULP energy -346885.314785 kJ/mol
# GULP energy per Si atom -12388.761242 kJ/mol
# Density = 2.506767 g / cm^3
# Si number density = 25.124855 Si / 1000 Ang^3
#
#
#
# Elastic Constant Matrix: (Units=GPa)
#
#
# Indices 1 2 3 4 5 6 
#
# 1 136.8180 46.7497 41.3421 0.0000 0.0000 0.0000
# 2 46.7497 106.1720 32.7449 0.0000 0.0000 0.0000
# 3 41.3421 32.7449 103.4576 0.0000 0.0000 0.0000
# 4 0.0000 0.0000 0.0000 36.7936 0.0000 0.0000
# 5 0.0000 0.0000 0.0000 0.0000 13.8385 0.0000
# 6 0.0000 0.0000 0.0000 0.0000 0.0000 47.4886
#
#
#
# Elastic Compliance Matrix: (Units=1/GPa)
#
#
# Indices 1 2 3 4 5 6 
#
# 1 0.009219 -0.003239 -0.002659 0.000000 0.000000 0.000000
# 2 -0.003239 0.011576 -0.002369 0.000000 0.000000 0.000000
# 3 -0.002659 -0.002369 0.011478 0.000000 0.000000 0.000000
# 4 0.000000 0.000000 0.000000 0.027179 0.000000 0.000000
# 5 0.000000 0.000000 0.000000 0.000000 0.072262 0.000000
# 6 0.000000 0.000000 0.000000 0.000000 0.000000 0.021058
#
#
# Mechanical properties :
#
#
# Convention : Reuss Voigt Hill
#
# Bulk Modulus (GPa) = 63.53966 65.34676 64.44321
# Shear Modulus (GPa) = 28.64467 34.66488 31.65478
#
# Velocity S-wave (km/s) = 3.38019 3.71847 3.55336
# Velocity P-wave (km/s) = 6.37014 6.67093 6.52227
#
# Compressibility (1/GPa) = 0.01573820
#
# Stress axis : x y z
#
# Youngs Moduli (GPa) = 108.46859 86.38721 87.12212
#
# Poissons Ratio (x) = 0.27985 0.23164
# Poissons Ratio (y) = 0.35138 0.20642
# Poissons Ratio (z) = 0.28839 0.20468
#
# Static dielectric constant tensor:
#      x y z
#    x 4.817900 0.000000 0.000000 
#    y 0.000000 4.488660 0.000000 
#    z 0.000000 0.000000 4.648770 
# 
# 
# High freq. dielectric constant tensor:
#      x y z
#    x 2.026720 0.000000 0.000000 
#    y 0.000000 1.990590 0.000000 
#    z 0.000000 0.000000 2.007280 
# 
# From -- ./inp_files/2429.got.cif
#   From: 2010.03.12/outbox.cif.g09.slc.cpg/sg29_2_cif.got.tgz:2429.got - 2010.04.14 03:43:10.
