data_PCOD8169730
_publ_section_title
;
Structure prediction by ZEFSAII (Michael W. Deem and Ramdas Pophale) SiO2 
 PCOD8169730
Probable space group: P M N 21
;
_chemical_formula_sum "Si O2"
_cell_formula_units_Z 32
_cell_length_a 8.662599
_cell_length_b 7.818733
_cell_length_c 24.197476
_cell_angle_alpha 90.000000
_cell_angle_beta 90.000000
_cell_angle_gamma 90.000000
_cell_volume 1638.908326
_symmetry_space_group_name_H-M "P M N 21"
_symmetry_group_IT_number 31
_symmetry_cell_setting 'orthorhombic'
loop_
_space_group_symop_operation_xyz
x,y,z
1/2-x,-y,1/2+z
-x,y,z
1/2+x,-y,1/2+z
loop_
_atom_site_type_symbol
_atom_site_label
_atom_site_fract_x
_atom_site_fract_y
_atom_site_fract_z
Si Si1 0.680848 0.943447 0.848300
Si Si2 0.316164 0.254562 0.923643
Si Si3 0.815315 0.752457 0.547972
Si Si4 0.319409 0.566246 0.853096
Si Si5 0.321294 0.916709 0.243675
Si Si6 0.682784 0.556362 0.121995
Si Si7 0.179692 0.062130 0.619805
Si Si8 0.680058 0.443271 0.737455
O O1 0.500000 0.965177 0.835837
O O2 0.715737 0.757335 0.875077
O O3 0.741121 0.087223 0.890581
O O4 0.772964 0.949593 0.790647
O O5 0.500000 0.258759 0.925997
O O6 0.246594 0.424339 0.894159
O O7 0.250386 0.246030 0.985736
O O8 0.754097 0.579480 0.577423
O O9 0.000000 0.755189 0.549719
O O10 0.746566 0.919444 0.579451
O O11 0.500000 0.527105 0.851436
O O12 0.258112 0.549916 0.790255
O O13 0.500000 0.863250 0.249382
O O14 0.291029 0.996686 0.183052
O O15 0.213480 0.753103 0.251819
O O16 0.500000 0.564065 0.120757
O O17 0.750550 0.747219 0.109545
O O18 0.730942 0.494538 0.182994
O O19 0.000000 0.072444 0.606572
O O20 0.500000 0.470472 0.726973
#
# Coordination Sequence:
#
# PCOD8169730 Si02
#       8
#     4   4   4   4   4   4   4   4
#     4  10  19  32  51  74 103 135 168 211 257 304
#     4   9  17  31  49  73 102 132 171 214 255 300
#     4   9  17  29  49  73 101 135 167 208 257 300
#     4   9  18  30  47  75 104 131 169 212 252 302
#     4  10  19  32  51  76 107 136 168 211 259 311
#     4   9  18  31  48  73 103 131 166 211 255 303
#     4   8  16  29  43  68 101 127 159 203 249 298
#     4  10  18  32  52  74 107 139 168 210 256 306
#
# _framework density 19.525192000000001
#
# number of rings (size 3 to 8) (size 9 to 14) (size 15 to 20)
#    0.000    2.750    1.250    1.500    1.750    1.000 
#    0.000    5.625    0.000    0.750    0.000    3.500 
#    0.000    0.000    0.000    0.000    0.000    0.000 
#
# Total GULP energy -396634.619236 kJ/mol
# GULP energy per Si atom -12394.831851 kJ/mol
# Density = 1.948075 g / cm^3
# Si number density = 19.525192 Si / 1000 Ang^3
#
#
#
# Elastic Constant Matrix: (Units=GPa)
#
#
# Indices 1 2 3 4 5 6 
#
# 1 9.7802 11.2341 12.1141 0.0000 0.0000 0.0000
# 2 11.2341 153.7831 99.9962 0.0000 0.0000 0.0000
# 3 12.1141 99.9962 163.0325 0.0000 0.0000 0.0000
# 4 0.0000 0.0000 0.0000 30.6270 0.0000 0.0000
# 5 0.0000 0.0000 0.0000 0.0000 20.2532 0.0000
# 6 0.0000 0.0000 0.0000 0.0000 0.0000 12.0406
#
#
#
# Elastic Compliance Matrix: (Units=1/GPa)
#
#
# Indices 1 2 3 4 5 6 
#
# 1 0.114632 -0.004717 -0.005625 0.000000 0.000000 0.000000
# 2 -0.004717 0.011011 -0.006403 0.000000 0.000000 0.000000
# 3 -0.005625 -0.006403 0.010479 0.000000 0.000000 0.000000
# 4 0.000000 0.000000 0.000000 0.032651 0.000000 0.000000
# 5 0.000000 0.000000 0.000000 0.000000 0.049375 0.000000
# 6 0.000000 0.000000 0.000000 0.000000 0.000000 0.083052
#
#
# Mechanical properties :
#
#
# Convention : Reuss Voigt Hill
#
# Bulk Modulus (GPa) = 9.74343 63.69828 36.72085
# Shear Modulus (GPa) = 13.55382 26.13426 19.84404
#
# Velocity S-wave (km/s) = 2.63757 3.66251 3.19145
# Velocity P-wave (km/s) = 3.77845 7.11194 5.69458
#
# Compressibility (1/GPa) = 0.10263330
#
# Stress axis : x y z
#
# Youngs Moduli (GPa) = 8.72354 90.82087 95.42951
#
# Poissons Ratio (x) = 0.42837 0.53677
# Poissons Ratio (y) = 0.04115 0.61103
# Poissons Ratio (z) = 0.04907 0.58152
#
# Static dielectric constant tensor:
#      x y z
#    x 2.988570 0.000000 0.000000 
#    y 0.000000 3.779180 0.000000 
#    z 0.000000 0.000000 3.716630 
# 
# 
# High freq. dielectric constant tensor:
#      x y z
#    x 1.700400 0.000000 0.000000 
#    y 0.000000 1.767220 0.000000 
#    z 0.000000 0.000000 1.759710 
# 
# From -- ./inp_files/6500.got.cif
#   From: 2010.03.12/outbox.cif.g09.slc.cpg/sg31_4_cif.got.tgz:6500.got - 2010.04.14 01:42:59.
