data_PCOD8169743
_publ_section_title
;
Structure prediction by ZEFSAII (Michael W. Deem and Ramdas Pophale) SiO2 
 PCOD8169743
Probable space group: P M N 21
;
_chemical_formula_sum "Si O2"
_cell_formula_units_Z 12
_cell_length_a 5.367718
_cell_length_b 12.517396
_cell_length_c 8.196513
_cell_angle_alpha 90.000000
_cell_angle_beta 90.000000
_cell_angle_gamma 90.000000
_cell_volume 550.722494
_symmetry_space_group_name_H-M "P M N 21"
_symmetry_group_IT_number 31
_symmetry_cell_setting 'orthorhombic'
loop_
_space_group_symop_operation_xyz
x,y,z
1/2-x,-y,1/2+z
-x,y,z
1/2+x,-y,1/2+z
loop_
_atom_site_type_symbol
_atom_site_label
_atom_site_fract_x
_atom_site_fract_y
_atom_site_fract_z
Si Si1 0.000000 0.139584 0.812750
Si Si2 0.500000 0.574158 0.691144
Si Si3 0.500000 0.226992 0.868675
Si Si4 0.000000 0.537786 0.515564
Si Si5 0.000000 0.176501 0.184202
Si Si6 0.500000 0.095066 0.197465
O O1 0.248576 0.206698 0.763787
O O2 0.000000 0.031992 0.707432
O O3 0.000000 0.117117 0.007901
O O4 0.750708 0.520925 0.620961
O O5 0.500000 0.556279 0.883760
O O6 0.500000 0.698482 0.649153
O O7 0.500000 0.346797 0.932548
O O8 0.500000 0.139718 0.013468
O O9 0.752155 0.140696 0.283319
#
# Coordination Sequence:
#
# PCOD8169743 Si02
#       6
#     2   2   2   2   2   2
#     4  10  18  32  61  82 112 158 209 243 319 380
#     4  12  23  43  72  97 131 179 222 276 340 398
#     4  10  19  37  58  85 120 162 201 265 326 376
#     4  12  23  43  72  97 131 179 222 276 340 398
#     4  10  19  37  58  85 120 162 201 265 326 376
#     4  10  18  32  61  82 112 158 209 243 319 380
#
# _framework density 21.789559000000001
#
# number of rings (size 3 to 8) (size 9 to 14) (size 15 to 20)
#    0.000    1.333    6.667    2.000    0.000    0.000 
#    0.000    0.000   44.000    0.000    0.000    0.000 
#    0.000    0.000    0.000    0.000    0.000    0.000 
#
# Total GULP energy -148718.766184 kJ/mol
# GULP energy per Si atom -12393.230515 kJ/mol
# Density = 2.173996 g / cm^3
# Si number density = 21.789559 Si / 1000 Ang^3
#
#
#
# Elastic Constant Matrix: (Units=GPa)
#
#
# Indices 1 2 3 4 5 6 
#
# 1 260.2442 5.3082 10.5480 0.0000 0.0000 0.0000
# 2 5.3082 20.0150 5.4365 0.0000 0.0000 0.0000
# 3 10.5480 5.4365 21.7729 0.0000 0.0000 0.0000
# 4 0.0000 0.0000 0.0000 33.4506 0.0000 0.0000
# 5 0.0000 0.0000 0.0000 0.0000 21.8102 0.0000
# 6 0.0000 0.0000 0.0000 0.0000 0.0000 12.4495
#
#
#
# Elastic Compliance Matrix: (Units=1/GPa)
#
#
# Indices 1 2 3 4 5 6 
#
# 1 0.003925 -0.000563 -0.001761 0.000000 0.000000 0.000000
# 2 -0.000563 0.053678 -0.013130 0.000000 0.000000 0.000000
# 3 -0.001761 -0.013130 0.050060 0.000000 0.000000 0.000000
# 4 0.000000 0.000000 0.000000 0.029895 0.000000 0.000000
# 5 0.000000 0.000000 0.000000 0.000000 0.045850 0.000000
# 6 0.000000 0.000000 0.000000 0.000000 0.000000 0.080325
#
#
# Mechanical properties :
#
#
# Convention : Reuss Voigt Hill
#
# Bulk Modulus (GPa) = 13.02834 38.29081 25.65958
# Shear Modulus (GPa) = 15.61391 32.25801 23.93596
#
# Velocity S-wave (km/s) = 2.67980 3.85182 3.31797
# Velocity P-wave (km/s) = 3.94554 6.11499 5.14589
#
# Compressibility (1/GPa) = 0.07675574
#
# Stress axis : x y z
#
# Youngs Moduli (GPa) = 254.75075 18.62949 19.97587
#
# Poissons Ratio (x) = 0.01048 0.03518
# Poissons Ratio (y) = 0.14335 0.26229
# Poissons Ratio (z) = 0.44866 0.24461
#
# Static dielectric constant tensor:
#      x y z
#    x 5.710370 0.000000 0.000000 
#    y 0.000000 3.652060 0.000000 
#    z 0.000000 0.000000 3.346620 
# 
# 
# High freq. dielectric constant tensor:
#      x y z
#    x 1.908780 0.000000 0.000000 
#    y 0.000000 1.843660 0.000000 
#    z 0.000000 0.000000 1.789210 
# 
# From -- ./inp_files/1404.got.cif
#   From: 2010.03.12/outbox.cif.g09.slc.cpg/sg31_1_cif.got.tgz:1404.got - 2010.04.14 01:42:59.
