data_PCOD8169487
_publ_section_title
;
Structure prediction by ZEFSAII (Michael W. Deem and Ramdas Pophale) SiO2 
 PCOD8169487
Probable space group: P N C 2
;
_chemical_formula_sum "Si O2"
_cell_formula_units_Z 16
_cell_length_a 8.087225
_cell_length_b 9.541944
_cell_length_c 8.294548
_cell_angle_alpha 90.000000
_cell_angle_beta 90.000000
_cell_angle_gamma 90.000000
_cell_volume 640.072420
_symmetry_space_group_name_H-M "P N C 2"
_symmetry_group_IT_number 30
_symmetry_cell_setting 'orthorhombic'
loop_
_space_group_symop_operation_xyz
x,y,z
-x,-y,z
-x,1/2+y,1/2+z
x,1/2-y,1/2+z
loop_
_atom_site_type_symbol
_atom_site_label
_atom_site_fract_x
_atom_site_fract_y
_atom_site_fract_z
Si Si1 0.273591 0.782765 0.310280
Si Si2 0.314018 0.452259 0.981786
Si Si3 0.177833 0.949472 0.003333
Si Si4 0.648378 0.818462 0.822109
O O1 0.152168 0.651254 0.345536
O O2 0.452943 0.707983 0.327824
O O3 0.219371 0.903626 0.440569
O O4 0.262466 0.848001 0.134113
O O5 0.500000 0.500000 0.951835
O O6 0.286564 0.390952 0.159505
O O7 0.263898 0.332123 0.852012
O O8 0.300316 0.079040 0.968752
O O9 0.000000 0.000000 0.063323
#
# Coordination Sequence:
#
# PCOD8169487 Si02
#       4
#     4   4   4   4
#     4  11  24  45  69 100 142 188 240 297 362 437
#     4  10  21  37  66  99 130 172 233 299 353 414
#     4  12  27  46  69 102 144 190 241 303 366 428
#     4  11  22  42  70 101 134 182 241 301 361 433
#
# _framework density 24.997174000000001
#
# number of rings (size 3 to 8) (size 9 to 14) (size 15 to 20)
#    0.000    1.000    0.000    8.250    0.000    8.000 
#    0.000    2.500    0.000    0.000    0.000    0.000 
#    0.000    0.000    0.000    0.000    0.000    0.000 
#
# Total GULP energy -198247.923413 kJ/mol
# GULP energy per Si atom -12390.495213 kJ/mol
# Density = 2.494028 g / cm^3
# Si number density = 24.997174 Si / 1000 Ang^3
#
#
#
# Elastic Constant Matrix: (Units=GPa)
#
#
# Indices 1 2 3 4 5 6 
#
# 1 74.3135 48.8268 31.0434 0.0000 0.0000 0.0000
# 2 48.8268 159.6960 39.2877 0.0000 0.0000 0.0000
# 3 31.0434 39.2877 98.6702 0.0000 0.0000 0.0000
# 4 0.0000 0.0000 0.0000 62.3828 0.0000 0.0000
# 5 0.0000 0.0000 0.0000 0.0000 17.3451 0.0000
# 6 0.0000 0.0000 0.0000 0.0000 0.0000 30.6061
#
#
#
# Elastic Compliance Matrix: (Units=1/GPa)
#
#
# Indices 1 2 3 4 5 6 
#
# 1 0.018078 -0.004576 -0.003866 0.000000 0.000000 0.000000
# 2 -0.004576 0.008100 -0.001786 0.000000 0.000000 0.000000
# 3 -0.003866 -0.001786 0.012062 0.000000 0.000000 0.000000
# 4 0.000000 0.000000 0.000000 0.016030 0.000000 0.000000
# 5 0.000000 0.000000 0.000000 0.000000 0.057653 0.000000
# 6 0.000000 0.000000 0.000000 0.000000 0.000000 0.032673
#
#
# Mechanical properties :
#
#
# Convention : Reuss Voigt Hill
#
# Bulk Modulus (GPa) = 56.22548 63.44394 59.83471
# Shear Modulus (GPa) = 29.24314 36.30160 32.77237
#
# Velocity S-wave (km/s) = 3.42403 3.81495 3.62476
# Velocity P-wave (km/s) = 6.17847 6.69631 6.44260
#
# Compressibility (1/GPa) = 0.01778553
#
# Stress axis : x y z
#
# Youngs Moduli (GPa) = 55.31550 123.45097 82.90576
#
# Poissons Ratio (x) = 0.56496 0.32047
# Poissons Ratio (y) = 0.25314 0.14803
# Poissons Ratio (z) = 0.21382 0.22043
#
# Static dielectric constant tensor:
#      x y z
#    x 3.816180 0.000000 0.000000 
#    y 0.000000 5.618500 0.000000 
#    z 0.000000 0.000000 4.412850 
# 
# 
# High freq. dielectric constant tensor:
#      x y z
#    x 1.935160 0.000000 0.000000 
#    y 0.000000 2.045700 0.000000 
#    z 0.000000 0.000000 1.995770 
# 
# From -- ./inp_files/1559.got.cif
#   From: 2010.03.12/outbox.cif.g09.slc.cpg/sg30_1_cif.got.tgz:1559.got - 2010.04.14 01:38:02.
