data_PCOD8169227
_publ_section_title
;
Structure prediction by ZEFSAII (Michael W. Deem and Ramdas Pophale) SiO2 
 PCOD8169227
Probable space group: P C A 21
;
_chemical_formula_sum "Si O2"
_cell_formula_units_Z 32
_cell_length_a 11.512119
_cell_length_b 9.037508
_cell_length_c 14.948473
_cell_angle_alpha 90.000000
_cell_angle_beta 90.000000
_cell_angle_gamma 90.000000
_cell_volume 1555.252100
_symmetry_space_group_name_H-M "P C A 21"
_symmetry_group_IT_number 29
_symmetry_cell_setting 'orthorhombic'
loop_
_space_group_symop_operation_xyz
x,y,z
-x,-y,1/2+z
1/2-x,y,1/2+z
1/2+x,-y,z
loop_
_atom_site_type_symbol
_atom_site_label
_atom_site_fract_x
_atom_site_fract_y
_atom_site_fract_z
Si Si1 0.754535 0.719342 0.299440
Si Si2 0.255539 0.752582 0.985057
Si Si3 0.974071 0.145609 0.068852
Si Si4 0.595181 0.345081 0.146195
Si Si5 0.131744 0.147446 0.630556
Si Si6 0.783364 0.384013 0.294446
Si Si7 0.025595 0.345248 0.216598
Si Si8 0.703573 0.903911 0.975809
O O1 0.794114 0.823701 0.218730
O O2 0.814325 0.558883 0.292687
O O3 0.617986 0.678872 0.295646
O O4 0.784831 0.809004 0.386989
O O5 0.245625 0.660981 0.894726
O O6 0.239475 0.926061 0.963593
O O7 0.386652 0.736966 0.022374
O O8 0.168145 0.676711 0.055436
O O9 0.052140 0.221977 0.143431
O O10 0.897015 0.024027 0.119322
O O11 0.067006 0.084315 0.998370
O O12 0.490121 0.231161 0.138325
O O13 0.679582 0.323440 0.231637
O O14 0.537929 0.504490 0.159737
O O15 0.214506 0.185326 0.545914
O O16 0.901057 0.312024 0.259138
#
# Coordination Sequence:
#
# PCOD8169227 Si02
#       8
#     4   4   4   4   4   4   4   4
#     4  11  26  43  68 100 135 177 222 285 333 405
#     4  11  26  43  68 100 135 177 222 285 333 405
#     4  11  24  44  70  96 135 178 225 275 339 401
#     4  11  24  46  67  96 138 178 225 279 335 398
#     4  11  24  46  67  96 138 178 225 279 335 398
#     4  11  26  43  67 104 134 178 229 272 346 401
#     4  11  24  44  70  96 135 178 225 275 339 401
#     4  11  26  43  67 104 134 178 229 272 346 401
#
# _framework density 20.575441999999999
#
# number of rings (size 3 to 8) (size 9 to 14) (size 15 to 20)
#    0.000    1.000    5.000    0.000    7.000    2.000 
#    0.000    0.000    0.000    0.000    0.000    0.000 
#    0.000    0.000    0.000    0.000    0.000    0.000 
#
# Total GULP energy -396625.153073 kJ/mol
# GULP energy per Si atom -12394.536034 kJ/mol
# Density = 2.052861 g / cm^3
# Si number density = 20.575442 Si / 1000 Ang^3
#
#
#
# Elastic Constant Matrix: (Units=GPa)
#
#
# Indices 1 2 3 4 5 6 
#
# 1 98.7760 23.9177 38.5412 0.0000 0.0000 0.0000
# 2 23.9177 61.4858 42.4273 0.0000 0.0000 0.0000
# 3 38.5412 42.4273 135.9647 0.0000 0.0000 0.0000
# 4 0.0000 0.0000 0.0000 40.1854 0.0000 0.0000
# 5 0.0000 0.0000 0.0000 0.0000 30.8369 0.0000
# 6 0.0000 0.0000 0.0000 0.0000 0.0000 33.7129
#
#
#
# Elastic Compliance Matrix: (Units=1/GPa)
#
#
# Indices 1 2 3 4 5 6 
#
# 1 0.011776 -0.002902 -0.002432 0.000000 0.000000 0.000000
# 2 -0.002902 0.021442 -0.005868 0.000000 0.000000 0.000000
# 3 -0.002432 -0.005868 0.009876 0.000000 0.000000 0.000000
# 4 0.000000 0.000000 0.000000 0.024885 0.000000 0.000000
# 5 0.000000 0.000000 0.000000 0.000000 0.032429 0.000000
# 6 0.000000 0.000000 0.000000 0.000000 0.000000 0.029662
#
#
# Mechanical properties :
#
#
# Convention : Reuss Voigt Hill
#
# Bulk Modulus (GPa) = 48.33809 56.22208 52.28008
# Shear Modulus (GPa) = 31.37339 33.70306 32.53822
#
# Velocity S-wave (km/s) = 3.90910 4.05164 3.98101
# Velocity P-wave (km/s) = 6.62713 7.01939 6.82608
#
# Compressibility (1/GPa) = 0.02068762
#
# Stress axis : x y z
#
# Youngs Moduli (GPa) = 84.92017 46.63707 101.26063
#
# Poissons Ratio (x) = 0.13535 0.24630
# Poissons Ratio (y) = 0.24646 0.59422
# Poissons Ratio (z) = 0.20656 0.27368
#
# Static dielectric constant tensor:
#      x y z
#    x 3.964110 0.000000 0.000000 
#    y 0.000000 3.819540 0.000000 
#    z 0.000000 0.000000 3.721480 
# 
# 
# High freq. dielectric constant tensor:
#      x y z
#    x 1.825710 0.000000 0.000000 
#    y 0.000000 1.803540 0.000000 
#    z 0.000000 0.000000 1.805410 
# 
# From -- ./inp_files/1856.got.cif
#   From: 2010.03.12/outbox.cif.g09.slc.cpg/sg29_1_cif.got.tgz:1856.got - 2010.04.14 03:43:10.
