data_PCOD8169745
_publ_section_title
;
Structure prediction by ZEFSAII (Michael W. Deem and Ramdas Pophale) SiO2 
 PCOD8169745
Probable space group: P M N 21
;
_chemical_formula_sum "Si O2"
_cell_formula_units_Z 32
_cell_length_a 9.284852
_cell_length_b 9.927667
_cell_length_c 18.834306
_cell_angle_alpha 90.000000
_cell_angle_beta 90.000000
_cell_angle_gamma 90.000000
_cell_volume 1736.088295
_symmetry_space_group_name_H-M "P M N 21"
_symmetry_group_IT_number 31
_symmetry_cell_setting 'orthorhombic'
loop_
_space_group_symop_operation_xyz
x,y,z
1/2-x,-y,1/2+z
-x,y,z
1/2+x,-y,1/2+z
loop_
_atom_site_type_symbol
_atom_site_label
_atom_site_fract_x
_atom_site_fract_y
_atom_site_fract_z
Si Si1 0.668583 0.545724 0.882670
Si Si2 0.168506 0.611580 0.740244
Si Si3 0.830524 0.154573 0.769855
Si Si4 0.832247 0.357568 0.652990
Si Si5 0.671496 0.743179 0.004227
Si Si6 0.670650 0.042351 0.029905
Si Si7 0.667568 0.240361 0.907604
Si Si8 0.830461 0.893253 0.684993
O O1 0.500000 0.565151 0.867932
O O2 0.750876 0.557932 0.809050
O O3 0.700133 0.398799 0.916111
O O4 0.729233 0.658658 0.936871
O O5 0.196766 0.511526 0.674273
O O6 0.233370 0.754223 0.715524
O O7 0.000000 0.618979 0.759072
O O8 0.766117 0.260779 0.713349
O O9 0.753818 0.174069 0.844000
O O10 0.000000 0.175283 0.781089
O O11 0.791966 0.006612 0.741960
O O12 0.764947 0.325324 0.575974
O O13 0.000000 0.322868 0.648880
O O14 0.500000 0.734259 0.004340
O O15 0.726414 0.897809 0.000396
O O16 0.500000 0.033902 0.036048
O O17 0.736759 0.070770 0.108018
O O18 0.719070 0.163636 0.978675
O O19 0.500000 0.214162 0.893366
O O20 0.000000 0.876464 0.675240
#
# Coordination Sequence:
#
# PCOD8169745 Si02
#       8
#     4   4   4   4   4   4   4   4
#     4  10  21  34  49  74 105 134 164 202 247 297
#     4  10  20  33  52  77 102 130 166 208 250 291
#     4  10  18  33  54  74  97 130 166 203 248 295
#     4   9  16  29  51  74  94 124 168 207 240 284
#     4   9  17  30  49  73 100 130 166 206 247 292
#     4   9  17  31  49  73 102 129 163 208 251 288
#     4  10  21  33  49  75 104 132 164 204 249 296
#     4   9  18  31  51  78 102 125 165 216 250 281
#
# _framework density 18.432244000000001
#
# number of rings (size 3 to 8) (size 9 to 14) (size 15 to 20)
#    0.000    2.500    2.500    0.000    3.500    0.000 
#    0.000    0.000    0.000    3.000    0.000    0.000 
#    0.000    0.000    0.000    0.000    0.000    0.000 
#
# Total GULP energy -396734.464837 kJ/mol
# GULP energy per Si atom -12397.952026 kJ/mol
# Density = 1.839029 g / cm^3
# Si number density = 18.432244 Si / 1000 Ang^3
#
#
#
# Elastic Constant Matrix: (Units=GPa)
#
#
# Indices 1 2 3 4 5 6 
#
# 1 19.6018 22.7571 23.0334 0.0000 0.0000 0.0000
# 2 22.7571 135.6707 43.5421 0.0000 0.0000 0.0000
# 3 23.0334 43.5421 94.0629 0.0000 0.0000 0.0000
# 4 0.0000 0.0000 0.0000 36.2111 0.0000 0.0000
# 5 0.0000 0.0000 0.0000 0.0000 20.5362 0.0000
# 6 0.0000 0.0000 0.0000 0.0000 0.0000 15.4927
#
#
#
# Elastic Compliance Matrix: (Units=1/GPa)
#
#
# Indices 1 2 3 4 5 6 
#
# 1 0.078770 -0.008248 -0.015471 0.000000 0.000000 0.000000
# 2 -0.008248 0.009520 -0.002387 0.000000 0.000000 0.000000
# 3 -0.015471 -0.002387 0.015525 0.000000 0.000000 0.000000
# 4 0.000000 0.000000 0.000000 0.027616 0.000000 0.000000
# 5 0.000000 0.000000 0.000000 0.000000 0.048694 0.000000
# 6 0.000000 0.000000 0.000000 0.000000 0.000000 0.064546
#
#
# Mechanical properties :
#
#
# Convention : Reuss Voigt Hill
#
# Bulk Modulus (GPa) = 19.37842 47.55561 33.46701
# Shear Modulus (GPa) = 15.91925 25.11488 20.51707
#
# Velocity S-wave (km/s) = 2.94200 3.69528 3.33995
# Velocity P-wave (km/s) = 4.69858 6.63800 5.75064
#
# Compressibility (1/GPa) = 0.05160380
#
# Stress axis : x y z
#
# Youngs Moduli (GPa) = 12.69513 105.03727 64.41327
#
# Poissons Ratio (x) = 0.86630 0.99653
# Poissons Ratio (y) = 0.10470 0.15378
# Poissons Ratio (z) = 0.19641 0.25077
#
# Static dielectric constant tensor:
#      x y z
#    x 2.819280 0.000000 0.000000 
#    y 0.000000 3.684870 0.000000 
#    z 0.000000 0.000000 3.515870 
# 
# 
# High freq. dielectric constant tensor:
#      x y z
#    x 1.647580 0.000000 0.000000 
#    y 0.000000 1.734820 0.000000 
#    z 0.000000 0.000000 1.723840 
# 
# From -- ./inp_files/6037.got.cif
#   From: 2010.03.12/outbox.cif.g09.slc.cpg/sg31_4_cif.got.tgz:6037.got - 2010.04.14 01:42:59.
