data_PCOD8169847
_publ_section_title
;
Structure prediction by ZEFSAII (Michael W. Deem and Ramdas Pophale) SiO2 
 PCOD8169847
Probable space group: P M N 21
;
_chemical_formula_sum "Si O2"
_cell_formula_units_Z 32
_cell_length_a 9.027071
_cell_length_b 14.600087
_cell_length_c 14.019677
_cell_angle_alpha 90.000000
_cell_angle_beta 90.000000
_cell_angle_gamma 90.000000
_cell_volume 1847.737658
_symmetry_space_group_name_H-M "P M N 21"
_symmetry_group_IT_number 31
_symmetry_cell_setting 'orthorhombic'
loop_
_space_group_symop_operation_xyz
x,y,z
1/2-x,-y,1/2+z
-x,y,z
1/2+x,-y,1/2+z
loop_
_atom_site_type_symbol
_atom_site_label
_atom_site_fract_x
_atom_site_fract_y
_atom_site_fract_z
Si Si1 0.834504 0.421543 0.511900
Si Si2 0.173749 0.131580 0.747265
Si Si3 0.176748 0.853089 0.782984
Si Si4 0.171494 0.010641 0.920529
Si Si5 0.672041 0.503192 0.672553
Si Si6 0.674409 0.661115 0.815464
Si Si7 0.165747 0.331186 0.699701
Si Si8 0.176871 0.025550 0.132721
O O1 0.740508 0.502085 0.564884
O O2 0.768361 0.391291 0.410317
O O3 0.834944 0.333325 0.583297
O O4 0.000000 0.459980 0.496670
O O5 0.200762 0.100395 0.856093
O O6 0.232196 0.235321 0.736216
O O7 0.270781 0.069691 0.677656
O O8 0.000000 0.122826 0.719711
O O9 0.230886 0.751962 0.805354
O O10 0.000000 0.855986 0.772727
O O11 0.234630 0.920446 0.867159
O O12 0.249051 0.887704 0.684606
O O13 0.000000 0.992866 0.935907
O O14 0.240501 0.026374 0.024635
O O15 0.500000 0.486797 0.663636
O O16 0.709327 0.598368 0.723992
O O17 0.737789 0.418297 0.735415
O O18 0.500000 0.683947 0.823820
O O19 0.000000 0.343056 0.740377
O O20 0.000000 0.034539 0.139051
#
# Coordination Sequence:
#
# PCOD8169847 Si02
#       8
#     4   4   4   4   4   4   4   4
#     4   8  17  33  51  74 101 129 165 206 253 304
#     4   9  17  32  51  72  98 130 167 209 252 299
#     4  10  21  36  53  78 105 135 174 215 254 304
#     4   8  17  32  49  70 100 133 166 204 250 299
#     4   9  18  32  50  73 102 131 163 209 256 302
#     4  10  20  35  54  76 105 138 171 213 262 307
#     4   8  16  31  51  72  96 128 164 206 253 301
#     4  10  19  33  51  73 103 136 166 206 256 304
#
# _framework density 17.318476
#
# number of rings (size 3 to 8) (size 9 to 14) (size 15 to 20)
#    0.750    2.250    0.000    1.500    1.750    2.000 
#    0.000    6.875    0.000    4.500    0.000    0.000 
#    0.000    0.000    0.000    0.000    0.000    0.000 
#
# Total GULP energy -396506.085244 kJ/mol
# GULP energy per Si atom -12390.815164 kJ/mol
# Density = 1.727906 g / cm^3
# Si number density = 17.318476 Si / 1000 Ang^3
#
#
#
# Elastic Constant Matrix: (Units=GPa)
#
#
# Indices 1 2 3 4 5 6 
#
# 1 61.7174 33.7084 35.7705 0.0000 0.0000 0.0000
# 2 33.7084 66.8069 36.0240 0.0000 0.0000 0.0000
# 3 35.7705 36.0240 114.2351 0.0000 0.0000 0.0000
# 4 0.0000 0.0000 0.0000 19.9312 0.0000 0.0000
# 5 0.0000 0.0000 0.0000 0.0000 21.9671 0.0000
# 6 0.0000 0.0000 0.0000 0.0000 0.0000 28.4966
#
#
#
# Elastic Compliance Matrix: (Units=1/GPa)
#
#
# Indices 1 2 3 4 5 6 
#
# 1 0.024129 -0.009760 -0.004478 0.000000 0.000000 0.000000
# 2 -0.009760 0.021983 -0.003876 0.000000 0.000000 0.000000
# 3 -0.004478 -0.003876 0.011378 0.000000 0.000000 0.000000
# 4 0.000000 0.000000 0.000000 0.050173 0.000000 0.000000
# 5 0.000000 0.000000 0.000000 0.000000 0.045523 0.000000
# 6 0.000000 0.000000 0.000000 0.000000 0.000000 0.035092
#
#
# Mechanical properties :
#
#
# Convention : Reuss Voigt Hill
#
# Bulk Modulus (GPa) = 47.03116 50.41835 48.72476
# Shear Modulus (GPa) = 21.58962 23.22941 22.40951
#
# Velocity S-wave (km/s) = 3.53459 3.66636 3.60108
# Velocity P-wave (km/s) = 6.62369 6.86284 6.74433
#
# Compressibility (1/GPa) = 0.02126250
#
# Stress axis : x y z
#
# Youngs Moduli (GPa) = 41.44440 45.48916 87.88637
#
# Poissons Ratio (x) = 0.44398 0.39352
# Poissons Ratio (y) = 0.40450 0.34067
# Poissons Ratio (z) = 0.18557 0.17633
#
# Static dielectric constant tensor:
#      x y z
#    x 3.094010 0.000000 0.000000 
#    y 0.000000 3.105400 0.000000 
#    z 0.000000 0.000000 3.322130 
# 
# 
# High freq. dielectric constant tensor:
#      x y z
#    x 1.659980 0.000000 0.000000 
#    y 0.000000 1.655730 0.000000 
#    z 0.000000 0.000000 1.660840 
# 
# From -- ./inp_files/5134.got.cif
#   From: 2010.03.12/outbox.cif.g09.slc.cpg/sg31_3_cif.got.tgz:5134.got - 2010.04.14 01:42:59.
