data_PCOD8169856
_publ_section_title
;
Structure prediction by ZEFSAII (Michael W. Deem and Ramdas Pophale) SiO2 
 PCOD8169856
Probable space group: P M N 21
;
_chemical_formula_sum "Si O2"
_cell_formula_units_Z 32
_cell_length_a 9.330742
_cell_length_b 11.446062
_cell_length_c 16.404567
_cell_angle_alpha 90.000000
_cell_angle_beta 90.000000
_cell_angle_gamma 90.000000
_cell_volume 1752.011880
_symmetry_space_group_name_H-M "P M N 21"
_symmetry_group_IT_number 31
_symmetry_cell_setting 'orthorhombic'
loop_
_space_group_symop_operation_xyz
x,y,z
1/2-x,-y,1/2+z
-x,y,z
1/2+x,-y,1/2+z
loop_
_atom_site_type_symbol
_atom_site_label
_atom_site_fract_x
_atom_site_fract_y
_atom_site_fract_z
Si Si1 0.329514 0.569065 0.647360
Si Si2 0.670374 0.941000 0.409707
Si Si3 0.831662 0.696122 0.125004
Si Si4 0.332482 0.711336 0.801396
Si Si5 0.343175 0.765461 0.536946
Si Si6 0.331887 0.870950 0.228677
Si Si7 0.669219 0.202530 0.448911
Si Si8 0.844704 0.075584 0.191035
O O1 0.500000 0.587233 0.645196
O O2 0.282150 0.438329 0.627520
O O3 0.277973 0.611532 0.737420
O O4 0.263401 0.650865 0.574368
O O5 0.500000 0.941795 0.420690
O O6 0.739088 0.837438 0.465925
O O7 0.716589 0.905672 0.319348
O O8 0.726654 0.069867 0.435290
O O9 0.746355 0.754223 0.199379
O O10 0.000000 0.707959 0.141384
O O11 0.788583 0.754916 0.039376
O O12 0.500000 0.694340 0.820781
O O13 0.243741 0.707590 0.885553
O O14 0.299165 0.837966 0.763436
O O15 0.500000 0.727536 0.503333
O O16 0.364023 0.855199 0.609185
O O17 0.500000 0.854301 0.218812
O O18 0.275866 0.978508 0.174462
O O19 0.500000 0.210879 0.434627
O O20 0.000000 0.017253 0.211504
#
# Coordination Sequence:
#
# PCOD8169856 Si02
#       8
#     4   4   4   4   4   4   4   4
#     4   8  16  33  54  75  99 133 178 217 252 302
#     4   9  17  29  46  73 107 133 160 207 264 312
#     4  10  21  37  55  75 102 140 183 220 254 306
#     4   9  17  31  54  80 104 134 171 214 260 308
#     4   8  14  28  52  76  97 126 169 214 251 297
#     4  11  21  32  48  74 110 142 164 207 269 314
#     4  10  19  33  53  78 106 137 174 218 265 310
#     4   9  16  29  52  77  99 131 171 207 251 309
#
# _framework density 18.264716
#
# number of rings (size 3 to 8) (size 9 to 14) (size 15 to 20)
#    0.000    2.750    1.250    2.625    0.000    2.500 
#    2.250    0.625    0.000    1.500    0.000    0.000 
#    0.000    0.000    0.000    0.000    0.000    0.000 
#
# Total GULP energy -396499.087782 kJ/mol
# GULP energy per Si atom -12390.596493 kJ/mol
# Density = 1.822314 g / cm^3
# Si number density = 18.264716 Si / 1000 Ang^3
#
#
#
# Elastic Constant Matrix: (Units=GPa)
#
#
# Indices 1 2 3 4 5 6 
#
# 1 34.9962 34.1373 28.8864 0.0000 0.0000 0.0000
# 2 34.1373 142.7866 71.6765 0.0000 0.0000 0.0000
# 3 28.8864 71.6765 88.1273 0.0000 0.0000 0.0000
# 4 0.0000 0.0000 0.0000 23.9950 0.0000 0.0000
# 5 0.0000 0.0000 0.0000 0.0000 22.2672 0.0000
# 6 0.0000 0.0000 0.0000 0.0000 0.0000 14.8316
#
#
#
# Elastic Compliance Matrix: (Units=1/GPa)
#
#
# Indices 1 2 3 4 5 6 
#
# 1 0.041344 -0.005208 -0.009316 0.000000 0.000000 0.000000
# 2 -0.005208 0.012492 -0.008453 0.000000 0.000000 0.000000
# 3 -0.009316 -0.008453 0.021276 0.000000 0.000000 0.000000
# 4 0.000000 0.000000 0.000000 0.041675 0.000000 0.000000
# 5 0.000000 0.000000 0.000000 0.000000 0.044909 0.000000
# 6 0.000000 0.000000 0.000000 0.000000 0.000000 0.067424
#
#
# Mechanical properties :
#
#
# Convention : Reuss Voigt Hill
#
# Bulk Modulus (GPa) = 34.29575 59.47894 46.88735
# Shear Modulus (GPa) = 17.55659 20.96608 19.26133
#
# Velocity S-wave (km/s) = 3.10373 3.39174 3.25093
# Velocity P-wave (km/s) = 5.62690 6.92634 6.31016
#
# Compressibility (1/GPa) = 0.02915813
#
# Stress axis : x y z
#
# Youngs Moduli (GPa) = 24.18706 80.05260 47.00198
#
# Poissons Ratio (x) = 0.41693 0.43787
# Poissons Ratio (y) = 0.12597 0.39730
# Poissons Ratio (z) = 0.22533 0.67667
#
# Static dielectric constant tensor:
#      x y z
#    x 3.415110 0.000000 0.000000 
#    y 0.000000 3.521170 0.000000 
#    z 0.000000 0.000000 3.529230 
# 
# 
# High freq. dielectric constant tensor:
#      x y z
#    x 1.661610 0.000000 0.000000 
#    y 0.000000 1.704210 0.000000 
#    z 0.000000 0.000000 1.710910 
# 
# From -- ./inp_files/5896.got.cif
#   From: 2010.03.12/outbox.cif.g09.slc.cpg/sg31_3_cif.got.tgz:5896.got - 2010.04.14 01:42:59.
