data_PCOD8169168
_publ_section_title
;
Structure prediction by ZEFSAII (Michael W. Deem and Ramdas Pophale) SiO2 
 PCOD8169168
Probable space group: P C A 21
;
_chemical_formula_sum "Si O2"
_cell_formula_units_Z 24
_cell_length_a 14.362719
_cell_length_b 8.194634
_cell_length_c 8.514415
_cell_angle_alpha 90.000000
_cell_angle_beta 90.000000
_cell_angle_gamma 90.000000
_cell_volume 1002.123022
_symmetry_space_group_name_H-M "P C A 21"
_symmetry_group_IT_number 29
_symmetry_cell_setting 'orthorhombic'
loop_
_space_group_symop_operation_xyz
x,y,z
-x,-y,1/2+z
1/2-x,y,1/2+z
1/2+x,-y,z
loop_
_atom_site_type_symbol
_atom_site_label
_atom_site_fract_x
_atom_site_fract_y
_atom_site_fract_z
Si Si1 0.193053 0.392828 0.498040
Si Si2 0.301055 0.082370 0.186083
Si Si3 0.995496 0.070894 0.716734
Si Si4 0.318692 0.591087 0.295082
Si Si5 0.004109 0.245265 0.388176
Si Si6 0.817681 0.122147 0.891294
O O1 0.232413 0.238690 0.591204
O O2 0.274815 0.430163 0.374857
O O3 0.177061 0.552547 0.609162
O O4 0.095496 0.353553 0.413908
O O5 0.399979 0.119962 0.270372
O O6 0.219907 0.044126 0.308909
O O7 0.319055 0.920911 0.075701
O O8 0.981547 0.126571 0.536392
O O9 0.920648 0.163811 0.827032
O O10 0.982860 0.875049 0.739012
O O11 0.421025 0.627683 0.360295
O O12 0.251532 0.737546 0.340989
#
# Coordination Sequence:
#
# PCOD8169168 Si02
#       6
#     4   4   4   4   4   4
#     4  11  26  46  67 106 148 187 239 294 377 434
#     4  11  24  43  68 104 135 189 242 303 350 434
#     4  11  22  44  69 107 136 184 254 303 361 422
#     4  12  26  47  72 108 147 194 239 300 379 438
#     4  11  25  47  72 106 146 193 245 312 367 445
#     4  12  23  43  74 101 140 187 247 298 356 429
#
# _framework density 23.949157
#
# number of rings (size 3 to 8) (size 9 to 14) (size 15 to 20)
#    0.000    0.667    5.000    4.000    0.000    4.000 
#    0.000    0.000    0.000    0.000    0.000    0.000 
#    0.000    0.000    0.000    0.000    0.000    0.000 
#
# Total GULP energy -297587.739124 kJ/mol
# GULP energy per Si atom -12399.489130 kJ/mol
# Density = 2.389465 g / cm^3
# Si number density = 23.949157 Si / 1000 Ang^3
#
#
#
# Elastic Constant Matrix: (Units=GPa)
#
#
# Indices 1 2 3 4 5 6 
#
# 1 105.4337 16.4990 32.1379 0.0000 0.0000 0.0000
# 2 16.4990 52.1072 -3.3354 0.0000 0.0000 0.0000
# 3 32.1379 -3.3354 73.6821 0.0000 0.0000 0.0000
# 4 0.0000 0.0000 0.0000 56.1465 0.0000 0.0000
# 5 0.0000 0.0000 0.0000 0.0000 33.9966 0.0000
# 6 0.0000 0.0000 0.0000 0.0000 0.0000 46.5338
#
#
#
# Elastic Compliance Matrix: (Units=1/GPa)
#
#
# Indices 1 2 3 4 5 6 
#
# 1 0.011735 -0.004055 -0.005302 0.000000 0.000000 0.000000
# 2 -0.004055 0.020648 0.002703 0.000000 0.000000 0.000000
# 3 -0.005302 0.002703 0.016007 0.000000 0.000000 0.000000
# 4 0.000000 0.000000 0.000000 0.017811 0.000000 0.000000
# 5 0.000000 0.000000 0.000000 0.000000 0.029415 0.000000
# 6 0.000000 0.000000 0.000000 0.000000 0.000000 0.021490
#
#
# Mechanical properties :
#
#
# Convention : Reuss Voigt Hill
#
# Bulk Modulus (GPa) = 28.50415 35.75844 32.13129
# Shear Modulus (GPa) = 35.18456 39.73015 37.45736
#
# Velocity S-wave (km/s) = 3.83709 4.07742 3.95908
# Velocity P-wave (km/s) = 5.61772 6.09349 5.86043
#
# Compressibility (1/GPa) = 0.03508261
#
# Stress axis : x y z
#
# Youngs Moduli (GPa) = 85.21207 48.43015 62.47319
#
# Poissons Ratio (x) = 0.19640 0.33125
# Poissons Ratio (y) = 0.34556 -0.16889
# Poissons Ratio (z) = 0.45181 -0.13093
#
# Static dielectric constant tensor:
#      x y z
#    x 4.415640 0.000000 0.000000 
#    y 0.000000 4.462180 0.000000 
#    z 0.000000 0.000000 4.460690 
# 
# 
# High freq. dielectric constant tensor:
#      x y z
#    x 1.958770 0.000000 0.000000 
#    y 0.000000 1.951000 0.000000 
#    z 0.000000 0.000000 1.946640 
# 
# From -- ./inp_files/1704.got.cif
#   From: 2010.03.12/outbox.cif.g09.slc.cpg/sg29_1_cif.got.tgz:1704.got - 2010.04.14 03:43:10.
