data_PCOD8169032
_publ_section_title
;
Structure prediction by ZEFSAII (Michael W. Deem and Ramdas Pophale) SiO2 
 PCOD8169032
Probable space group: P C A 21
;
_chemical_formula_sum "Si O2"
_cell_formula_units_Z 28
_cell_length_a 9.240609
_cell_length_b 10.823359
_cell_length_c 13.718863
_cell_angle_alpha 90.000000
_cell_angle_beta 90.000000
_cell_angle_gamma 90.000000
_cell_volume 1372.084244
_symmetry_space_group_name_H-M "P C A 21"
_symmetry_group_IT_number 29
_symmetry_cell_setting 'orthorhombic'
loop_
_space_group_symop_operation_xyz
x,y,z
-x,-y,1/2+z
1/2-x,y,1/2+z
1/2+x,-y,z
loop_
_atom_site_type_symbol
_atom_site_label
_atom_site_fract_x
_atom_site_fract_y
_atom_site_fract_z
Si Si1 0.457120 0.253217 0.484090
Si Si2 0.152851 0.264175 0.774792
Si Si3 0.143093 0.407482 0.147134
Si Si4 0.609754 0.168311 0.171465
Si Si5 0.678613 0.972825 0.333627
Si Si6 0.424906 0.963791 0.467016
Si Si7 0.329286 0.638052 0.118260
O O1 0.414501 0.302874 0.378076
O O2 0.339166 0.303850 0.562334
O O3 0.614494 0.310623 0.513060
O O4 0.459468 0.106197 0.490581
O O5 0.267595 0.367641 0.742411
O O6 0.230676 0.132095 0.780257
O O7 0.025166 0.256922 0.695502
O O8 0.205180 0.535727 0.105123
O O9 0.971132 0.417105 0.174949
O O10 0.758391 0.246464 0.175649
O O11 0.613273 0.062148 0.252326
O O12 0.582739 0.113085 0.065270
O O13 0.550222 0.911018 0.396539
O O14 0.775206 0.050871 0.409169
#
# Coordination Sequence:
#
# PCOD8169032 Si02
#       7
#     4   4   4   4   4   4   4
#     4   9  22  44  66  95 137 167 224 274 331 398
#     4  11  24  42  67  99 135 177 226 274 333 407
#     4  10  23  46  67  95 131 177 225 278 336 382
#     4  12  25  40  71  96 139 180 219 273 345 395
#     4  11  24  41  62 106 133 177 221 269 336 415
#     4  11  24  40  66  98 142 170 223 272 340 402
#     4  10  24  45  71  93 135 178 228 278 335 395
#
# _framework density 20.40691
#
# number of rings (size 3 to 8) (size 9 to 14) (size 15 to 20)
#    0.857    0.571    2.857    2.571   10.000    0.000 
#    5.143    0.000    0.000    0.000    0.000    0.000 
#    0.000    0.000    0.000    0.000    0.000    0.000 
#
# Total GULP energy -347101.411544 kJ/mol
# GULP energy per Si atom -12396.478984 kJ/mol
# Density = 2.036046 g / cm^3
# Si number density = 20.406910 Si / 1000 Ang^3
#
#
#
# Elastic Constant Matrix: (Units=GPa)
#
#
# Indices 1 2 3 4 5 6 
#
# 1 128.4601 30.6523 43.2630 0.0000 0.0000 0.0000
# 2 30.6523 61.5051 24.9056 0.0000 0.0000 0.0000
# 3 43.2630 24.9056 90.6105 0.0000 0.0000 0.0000
# 4 0.0000 0.0000 0.0000 16.3012 0.0000 0.0000
# 5 0.0000 0.0000 0.0000 0.0000 37.9628 0.0000
# 6 0.0000 0.0000 0.0000 0.0000 0.0000 42.8154
#
#
#
# Elastic Compliance Matrix: (Units=1/GPa)
#
#
# Indices 1 2 3 4 5 6 
#
# 1 0.009865 -0.003386 -0.003780 0.000000 0.000000 0.000000
# 2 -0.003386 0.019457 -0.003731 0.000000 0.000000 0.000000
# 3 -0.003780 -0.003731 0.013867 0.000000 0.000000 0.000000
# 4 0.000000 0.000000 0.000000 0.061345 0.000000 0.000000
# 5 0.000000 0.000000 0.000000 0.000000 0.026342 0.000000
# 6 0.000000 0.000000 0.000000 0.000000 0.000000 0.023356
#
#
# Mechanical properties :
#
#
# Convention : Reuss Voigt Hill
#
# Bulk Modulus (GPa) = 46.73998 53.13529 49.93763
# Shear Modulus (GPa) = 27.29884 31.53286 29.41585
#
# Velocity S-wave (km/s) = 3.66146 3.93517 3.80078
# Velocity P-wave (km/s) = 6.38974 6.83680 6.61705
#
# Compressibility (1/GPa) = 0.02139496
#
# Stress axis : x y z
#
# Youngs Moduli (GPa) = 101.36433 51.39451 72.11623
#
# Poissons Ratio (x) = 0.17403 0.27257
# Poissons Ratio (y) = 0.34323 0.26909
# Poissons Ratio (z) = 0.38312 0.19177
#
# Static dielectric constant tensor:
#      x y z
#    x 3.876140 0.000000 0.000000 
#    y 0.000000 3.469120 0.000000 
#    z 0.000000 0.000000 3.624070 
# 
# 
# High freq. dielectric constant tensor:
#      x y z
#    x 1.811110 0.000000 0.000000 
#    y 0.000000 1.783080 0.000000 
#    z 0.000000 0.000000 1.789190 
# 
# From -- ./inp_files/4233.got.cif
#   From: 2010.03.12/outbox.cif.g09.slc.cpg/sg29_3_cif.got.tgz:4233.got - 2010.04.14 03:43:10.
