data_PCOD8169071
_publ_section_title
;
Structure prediction by ZEFSAII (Michael W. Deem and Ramdas Pophale) SiO2 
 PCOD8169071
Probable space group: P C A 21
;
_chemical_formula_sum "Si O2"
_cell_formula_units_Z 32
_cell_length_a 21.242632
_cell_length_b 6.382644
_cell_length_c 10.365688
_cell_angle_alpha 90.000000
_cell_angle_beta 90.000000
_cell_angle_gamma 90.000000
_cell_volume 1405.423076
_symmetry_space_group_name_H-M "P C A 21"
_symmetry_group_IT_number 29
_symmetry_cell_setting 'orthorhombic'
loop_
_space_group_symop_operation_xyz
x,y,z
-x,-y,1/2+z
1/2-x,y,1/2+z
1/2+x,-y,z
loop_
_atom_site_type_symbol
_atom_site_label
_atom_site_fract_x
_atom_site_fract_y
_atom_site_fract_z
Si Si1 0.227928 0.977737 0.826000
Si Si2 0.882830 0.891825 0.475236
Si Si3 0.275120 0.720488 0.072672
Si Si4 0.009733 0.072818 0.144542
Si Si5 0.913950 0.406245 0.069576
Si Si6 0.201434 0.332399 0.177906
Si Si7 0.959692 0.684407 0.278266
Si Si8 0.424607 0.409999 0.809833
O O1 0.152764 0.998997 0.854973
O O2 0.259499 0.203417 0.788228
O O3 0.240498 0.837006 0.703770
O O4 0.253766 0.857610 0.951100
O O5 0.935011 0.029430 0.553620
O O6 0.827839 0.820205 0.570870
O O7 0.925507 0.703259 0.416842
O O8 0.348598 0.706884 0.049369
O O9 0.243326 0.492704 0.092956
O O10 0.045648 0.193866 0.260451
O O11 0.968791 0.232974 0.058450
O O12 0.962477 0.906743 0.205715
O O13 0.915191 0.519141 0.206796
O O14 0.921776 0.592047 0.964615
O O15 0.144464 0.451885 0.250095
O O16 0.031561 0.607659 0.276487
#
# Coordination Sequence:
#
# PCOD8169071 Si02
#       8
#     4   4   4   4   4   4   4   4
#     4  12  27  48  73 113 144 200 249 301 374 450
#     4  11  24  47  71 102 151 184 243 301 367 436
#     4  12  28  46  78 106 146 197 246 300 377 440
#     4  10  24  44  67 104 137 188 229 298 364 432
#     4  11  24  43  68 105 137 180 244 295 357 443
#     4  11  27  48  71 108 150 193 242 314 362 449
#     4  11  24  43  71 102 139 188 238 298 373 438
#     4  10  24  43  69 100 144 180 237 295 368 434
#
# _framework density 22.768947000000001
#
# number of rings (size 3 to 8) (size 9 to 14) (size 15 to 20)
#    0.000    1.000    2.500    2.250    8.750    4.000 
#    0.000    0.000    0.000    0.000    0.000    0.000 
#    0.000    0.000    0.000    0.000    0.000    0.000 
#
# Total GULP energy -396538.494909 kJ/mol
# GULP energy per Si atom -12391.827966 kJ/mol
# Density = 2.271712 g / cm^3
# Si number density = 22.768947 Si / 1000 Ang^3
#
#
#
# Elastic Constant Matrix: (Units=GPa)
#
#
# Indices 1 2 3 4 5 6 
#
# 1 118.7524 32.4313 28.6798 0.0000 0.0000 0.0000
# 2 32.4313 68.4421 21.8411 0.0000 0.0000 0.0000
# 3 28.6798 21.8411 89.2578 0.0000 0.0000 0.0000
# 4 0.0000 0.0000 0.0000 30.5809 0.0000 0.0000
# 5 0.0000 0.0000 0.0000 0.0000 44.8747 0.0000
# 6 0.0000 0.0000 0.0000 0.0000 0.0000 30.3383
#
#
#
# Elastic Compliance Matrix: (Units=1/GPa)
#
#
# Indices 1 2 3 4 5 6 
#
# 1 0.010070 -0.004056 -0.002243 0.000000 0.000000 0.000000
# 2 -0.004056 0.017482 -0.002975 0.000000 0.000000 0.000000
# 3 -0.002243 -0.002975 0.012652 0.000000 0.000000 0.000000
# 4 0.000000 0.000000 0.000000 0.032700 0.000000 0.000000
# 5 0.000000 0.000000 0.000000 0.000000 0.022284 0.000000
# 6 0.000000 0.000000 0.000000 0.000000 0.000000 0.032962
#
#
# Mechanical properties :
#
#
# Convention : Reuss Voigt Hill
#
# Bulk Modulus (GPa) = 46.17451 49.15074 47.66262
# Shear Modulus (GPa) = 32.48503 34.05881 33.27192
#
# Velocity S-wave (km/s) = 3.78130 3.87181 3.82682
# Velocity P-wave (km/s) = 6.27598 6.45147 6.36433
#
# Compressibility (1/GPa) = 0.02165697
#
# Stress axis : x y z
#
# Youngs Moduli (GPa) = 99.30152 57.20157 79.03793
#
# Poissons Ratio (x) = 0.23201 0.17730
# Poissons Ratio (y) = 0.40276 0.23510
# Poissons Ratio (z) = 0.22276 0.17015
#
# Static dielectric constant tensor:
#      x y z
#    x 4.337280 0.000000 0.000000 
#    y 0.000000 3.852350 0.000000 
#    z 0.000000 0.000000 4.515600 
# 
# 
# High freq. dielectric constant tensor:
#      x y z
#    x 1.916710 0.000000 0.000000 
#    y 0.000000 1.873790 0.000000 
#    z 0.000000 0.000000 1.914210 
# 
# From -- ./inp_files/3855.got.cif
#   From: 2010.03.12/outbox.cif.g09.slc.cpg/sg29_2_cif.got.tgz:3855.got - 2010.04.14 03:43:10.
