data_PCOD8169879
_publ_section_title
;
Structure prediction by ZEFSAII (Michael W. Deem and Ramdas Pophale) SiO2 
 PCOD8169879
Probable space group: P M N 21
;
_chemical_formula_sum "Si O2"
_cell_formula_units_Z 32
_cell_length_a 9.028504
_cell_length_b 11.903080
_cell_length_c 14.378657
_cell_angle_alpha 90.000000
_cell_angle_beta 90.000000
_cell_angle_gamma 90.000000
_cell_volume 1545.231209
_symmetry_space_group_name_H-M "P M N 21"
_symmetry_group_IT_number 31
_symmetry_cell_setting 'orthorhombic'
loop_
_space_group_symop_operation_xyz
x,y,z
1/2-x,-y,1/2+z
-x,y,z
1/2+x,-y,1/2+z
loop_
_atom_site_type_symbol
_atom_site_label
_atom_site_fract_x
_atom_site_fract_y
_atom_site_fract_z
Si Si1 0.670441 0.107756 0.170110
Si Si2 0.334020 0.782757 0.408589
Si Si3 0.669337 0.183247 0.367778
Si Si4 0.675219 0.549696 0.101601
Si Si5 0.175114 0.410715 0.392274
Si Si6 0.174769 0.627513 0.275963
Si Si7 0.174750 0.995338 0.014891
Si Si8 0.167033 0.324376 0.099219
O O1 0.500000 0.124404 0.140487
O O2 0.685615 0.095258 0.281677
O O3 0.737713 0.001183 0.113453
O O4 0.767962 0.214072 0.144627
O O5 0.500000 0.797377 0.368009
O O6 0.223982 0.740637 0.328672
O O7 0.275763 0.900184 0.450274
O O8 0.334043 0.687968 0.488266
O O9 0.500000 0.221963 0.377013
O O10 0.764359 0.294786 0.349765
O O11 0.719671 0.118767 0.461524
O O12 0.500000 0.556043 0.110089
O O13 0.749718 0.634343 0.174747
O O14 0.729339 0.426088 0.129636
O O15 0.731856 0.579202 0.998330
O O16 0.230585 0.516627 0.331609
O O17 0.000000 0.406603 0.390267
O O18 0.000000 0.628591 0.264250
O O19 0.000000 0.002371 0.034793
O O20 0.000000 0.344903 0.136773
#
# Coordination Sequence:
#
# PCOD8169879 Si02
#       8
#     4   4   4   4   4   4   4   4
#     4  10  20  35  59  90 116 151 197 242 290 346
#     4   9  18  34  57  80 107 145 186 232 287 340
#     4  10  22  40  61  85 118 155 194 239 291 349
#     4  11  22  37  55  82 118 156 193 235 289 347
#     4  10  23  40  58  84 120 155 190 238 289 343
#     4  11  22  37  57  85 118 151 192 239 288 348
#     4   9  20  40  61  84 115 151 192 243 293 341
#     4  10  19  33  56  84 114 150 190 238 287 338
#
# _framework density 20.708874999999999
#
# number of rings (size 3 to 8) (size 9 to 14) (size 15 to 20)
#    0.000    2.000    1.250    3.000    0.000    7.500 
#    2.250    0.000    0.000    0.000    0.000    0.000 
#    0.000    0.000    0.000    0.000    0.000    0.000 
#
# Total GULP energy -396793.494655 kJ/mol
# GULP energy per Si atom -12399.796708 kJ/mol
# Density = 2.066174 g / cm^3
# Si number density = 20.708875 Si / 1000 Ang^3
#
#
#
# Elastic Constant Matrix: (Units=GPa)
#
#
# Indices 1 2 3 4 5 6 
#
# 1 63.4804 8.1851 30.0012 0.0000 0.0000 0.0000
# 2 8.1851 35.9375 -1.8203 0.0000 0.0000 0.0000
# 3 30.0012 -1.8203 82.6987 0.0000 0.0000 0.0000
# 4 0.0000 0.0000 0.0000 24.8492 0.0000 0.0000
# 5 0.0000 0.0000 0.0000 0.0000 33.1058 0.0000
# 6 0.0000 0.0000 0.0000 0.0000 0.0000 23.8495
#
#
#
# Elastic Compliance Matrix: (Units=1/GPa)
#
#
# Indices 1 2 3 4 5 6 
#
# 1 0.019835 -0.004887 -0.007303 0.000000 0.000000 0.000000
# 2 -0.004887 0.029061 0.002413 0.000000 0.000000 0.000000
# 3 -0.007303 0.002413 0.014795 0.000000 0.000000 0.000000
# 4 0.000000 0.000000 0.000000 0.040243 0.000000 0.000000
# 5 0.000000 0.000000 0.000000 0.000000 0.030206 0.000000
# 6 0.000000 0.000000 0.000000 0.000000 0.000000 0.041930
#
#
# Mechanical properties :
#
#
# Convention : Reuss Voigt Hill
#
# Bulk Modulus (GPa) = 22.65773 28.31649 25.48711
# Shear Modulus (GPa) = 23.77146 26.07762 24.92454
#
# Velocity S-wave (km/s) = 3.39172 3.55244 3.47301
# Velocity P-wave (km/s) = 5.12867 5.52537 5.33071
#
# Compressibility (1/GPa) = 0.04413504
#
# Stress axis : x y z
#
# Youngs Moduli (GPa) = 50.41706 34.40985 67.59231
#
# Poissons Ratio (x) = 0.16818 0.49363
# Poissons Ratio (y) = 0.24641 -0.16308
# Poissons Ratio (z) = 0.36820 -0.08302
#
# Static dielectric constant tensor:
#      x y z
#    x 3.642910 0.000000 0.000000 
#    y 0.000000 3.501450 0.000000 
#    z 0.000000 0.000000 4.065590 
# 
# 
# High freq. dielectric constant tensor:
#      x y z
#    x 1.805920 0.000000 0.000000 
#    y 0.000000 1.788750 0.000000 
#    z 0.000000 0.000000 1.815910 
# 
# From -- ./inp_files/4928.got.cif
#   From: 2010.03.12/outbox.cif.g09.slc.cpg/sg31_3_cif.got.tgz:4928.got - 2010.04.14 01:42:59.
