data_PCOD8169203
_publ_section_title
;
Structure prediction by ZEFSAII (Michael W. Deem and Ramdas Pophale) SiO2 
 PCOD8169203
Probable space group: P C A 21
;
_chemical_formula_sum "Si O2"
_cell_formula_units_Z 32
_cell_length_a 10.535890
_cell_length_b 15.278665
_cell_length_c 8.840855
_cell_angle_alpha 90.000000
_cell_angle_beta 90.000000
_cell_angle_gamma 90.000000
_cell_volume 1423.150744
_symmetry_space_group_name_H-M "P C A 21"
_symmetry_group_IT_number 29
_symmetry_cell_setting 'orthorhombic'
loop_
_space_group_symop_operation_xyz
x,y,z
-x,-y,1/2+z
1/2-x,y,1/2+z
1/2+x,-y,z
loop_
_atom_site_type_symbol
_atom_site_label
_atom_site_fract_x
_atom_site_fract_y
_atom_site_fract_z
Si Si1 0.851712 0.205209 0.500000
Si Si2 0.143407 0.988782 0.097295
Si Si3 0.399115 0.276758 0.906523
Si Si4 0.788468 0.316528 0.773816
Si Si5 0.036947 0.581318 0.730513
Si Si6 0.019190 0.406764 0.893473
Si Si7 0.607001 0.942643 0.766047
Si Si8 0.657006 0.748028 0.738324
O O1 0.815937 0.109327 0.554228
O O2 0.867859 0.274046 0.637233
O O3 0.740057 0.238179 0.390616
O O4 0.985155 0.207383 0.411147
O O5 0.117154 0.042425 0.944843
O O6 0.015606 0.992845 0.198606
O O7 0.262471 0.028746 0.185959
O O8 0.441846 0.371742 0.847206
O O9 0.300035 0.232780 0.792148
O O10 0.339043 0.292536 0.071262
O O11 0.661951 0.360441 0.709625
O O12 0.872039 0.391748 0.851297
O O13 0.967546 0.571113 0.570033
O O14 0.074138 0.487243 0.797240
O O15 0.096670 0.319167 0.857294
O O16 0.581688 0.839816 0.737223
#
# Coordination Sequence:
#
# PCOD8169203 Si02
#       8
#     4   4   4   4   4   4   4   4
#     4  11  23  47  72 102 140 188 242 297 367 435
#     4  12  26  47  75 112 150 197 248 318 376 457
#     4  11  24  45  70 102 139 189 239 302 360 443
#     4  11  23  45  72 100 143 185 240 299 356 435
#     4  11  27  43  71 106 143 192 246 301 365 431
#     4  12  25  45  71 103 144 193 242 300 363 433
#     4  12  27  47  75 110 153 196 254 312 387 453
#     4  12  25  47  72 101 148 192 241 301 372 439
#
# _framework density 22.485320000000002
#
# number of rings (size 3 to 8) (size 9 to 14) (size 15 to 20)
#    0.000    0.500    3.750    3.750    5.250    1.000 
#    2.250    0.000    0.000    0.000    0.000    0.000 
#    0.000    0.000    0.000    0.000    0.000    0.000 
#
# Total GULP energy -397026.525907 kJ/mol
# GULP energy per Si atom -12407.078935 kJ/mol
# Density = 2.243414 g / cm^3
# Si number density = 22.485320 Si / 1000 Ang^3
#
#
#
# Elastic Constant Matrix: (Units=GPa)
#
#
# Indices 1 2 3 4 5 6 
#
# 1 92.8672 22.3190 40.2707 0.0000 0.0000 0.0000
# 2 22.3190 117.4101 37.8221 0.0000 0.0000 0.0000
# 3 40.2707 37.8221 120.7831 0.0000 0.0000 0.0000
# 4 0.0000 0.0000 0.0000 37.6519 0.0000 0.0000
# 5 0.0000 0.0000 0.0000 0.0000 44.9942 0.0000
# 6 0.0000 0.0000 0.0000 0.0000 0.0000 32.0798
#
#
#
# Elastic Compliance Matrix: (Units=1/GPa)
#
#
# Indices 1 2 3 4 5 6 
#
# 1 0.012731 -0.001171 -0.003878 0.000000 0.000000 0.000000
# 2 -0.001171 0.009580 -0.002610 0.000000 0.000000 0.000000
# 3 -0.003878 -0.002610 0.010389 0.000000 0.000000 0.000000
# 4 0.000000 0.000000 0.000000 0.026559 0.000000 0.000000
# 5 0.000000 0.000000 0.000000 0.000000 0.022225 0.000000
# 6 0.000000 0.000000 0.000000 0.000000 0.000000 0.031172
#
#
# Mechanical properties :
#
#
# Convention : Reuss Voigt Hill
#
# Bulk Modulus (GPa) = 57.52453 59.09820 58.31137
# Shear Modulus (GPa) = 37.37783 38.32177 37.84980
#
# Velocity S-wave (km/s) = 4.08158 4.13280 4.10727
# Velocity P-wave (km/s) = 6.91745 7.00810 6.96292
#
# Compressibility (1/GPa) = 0.01738389
#
# Stress axis : x y z
#
# Youngs Moduli (GPa) = 78.54752 104.37996 96.25115
#
# Poissons Ratio (x) = 0.12221 0.37327
# Poissons Ratio (y) = 0.09197 0.25118
# Poissons Ratio (z) = 0.30461 0.27239
#
# Static dielectric constant tensor:
#      x y z
#    x 4.070090 0.000000 0.000000 
#    y 0.000000 3.891080 0.000000 
#    z 0.000000 0.000000 4.178740 
# 
# 
# High freq. dielectric constant tensor:
#      x y z
#    x 1.893460 0.000000 0.000000 
#    y 0.000000 1.882180 0.000000 
#    z 0.000000 0.000000 1.900290 
# 
# From -- ./inp_files/1522.got.cif
#   From: 2010.03.12/outbox.cif.g09.slc.cpg/sg29_1_cif.got.tgz:1522.got - 2010.04.14 03:43:10.
