data_PCOD8169216
_publ_section_title
;
Structure prediction by ZEFSAII (Michael W. Deem and Ramdas Pophale) SiO2 
 PCOD8169216
Probable space group: P C A 21
;
_chemical_formula_sum "Si O2"
_cell_formula_units_Z 32
_cell_length_a 18.276408
_cell_length_b 6.009235
_cell_length_c 12.388571
_cell_angle_alpha 90.000000
_cell_angle_beta 90.000000
_cell_angle_gamma 90.000000
_cell_volume 1360.602444
_symmetry_space_group_name_H-M "P C A 21"
_symmetry_group_IT_number 29
_symmetry_cell_setting 'orthorhombic'
loop_
_space_group_symop_operation_xyz
x,y,z
-x,-y,1/2+z
1/2-x,y,1/2+z
1/2+x,-y,z
loop_
_atom_site_type_symbol
_atom_site_label
_atom_site_fract_x
_atom_site_fract_y
_atom_site_fract_z
Si Si1 0.691286 0.660868 0.730170
Si Si2 0.314117 0.342854 0.580225
Si Si3 0.004909 0.894294 0.914709
Si Si4 0.098400 0.739616 0.409053
Si Si5 0.238505 0.026068 0.408554
Si Si6 0.563620 0.601756 0.589808
Si Si7 0.562202 0.601990 0.232947
Si Si8 0.151716 0.672617 0.902786
O O1 0.752515 0.544628 0.655489
O O2 0.734686 0.843845 0.801383
O O3 0.625440 0.747483 0.653353
O O4 0.647591 0.478470 0.797883
O O5 0.271452 0.150664 0.513514
O O6 0.380618 0.263479 0.656784
O O7 0.355728 0.521828 0.507775
O O8 0.962991 0.782883 0.817118
O O9 0.092026 0.869413 0.899654
O O10 0.983596 0.154660 0.916719
O O11 0.984423 0.778399 0.026250
O O12 0.106202 0.573085 0.510784
O O13 0.103160 0.601055 0.297084
O O14 0.152303 0.959948 0.413310
O O15 0.268789 0.778098 0.405045
O O16 0.509064 0.477274 0.669834
#
# Coordination Sequence:
#
# PCOD8169216 Si02
#       8
#     4   4   4   4   4   4   4   4
#     4  11  24  44  69  95 136 179 228 279 352 411
#     4  11  24  44  69  95 136 179 228 279 352 411
#     4  11  24  43  68 103 140 181 227 294 341 415
#     4  11  26  44  71 103 145 180 239 291 350 416
#     4  11  26  44  67 101 135 176 231 293 339 410
#     4  11  24  44  70 101 142 186 230 287 358 416
#     4  11  24  44  70 101 142 186 230 287 358 416
#     4  11  24  41  68  97 134 175 231 282 344 413
#
# _framework density 23.518996000000001
#
# number of rings (size 3 to 8) (size 9 to 14) (size 15 to 20)
#    0.000    1.000    2.500    3.000    3.500   10.000 
#    0.000    0.000    0.000    0.000    0.000    0.000 
#    0.000    0.000    0.000    0.000    0.000    0.000 
#
# Total GULP energy -396548.723935 kJ/mol
# GULP energy per Si atom -12392.147623 kJ/mol
# Density = 2.346547 g / cm^3
# Si number density = 23.518996 Si / 1000 Ang^3
#
#
#
# Elastic Constant Matrix: (Units=GPa)
#
#
# Indices 1 2 3 4 5 6 
#
# 1 99.1735 2.0444 40.4760 0.0000 0.0000 0.0000
# 2 2.0444 52.4757 25.5113 0.0000 0.0000 0.0000
# 3 40.4760 25.5113 111.5420 0.0000 0.0000 0.0000
# 4 0.0000 0.0000 0.0000 1.5632 0.0000 0.0000
# 5 0.0000 0.0000 0.0000 0.0000 34.3809 0.0000
# 6 0.0000 0.0000 0.0000 0.0000 0.0000 51.0825
#
#
#
# Elastic Compliance Matrix: (Units=1/GPa)
#
#
# Indices 1 2 3 4 5 6 
#
# 1 0.011995 0.001855 -0.004777 0.000000 0.000000 0.000000
# 2 0.001855 0.021727 -0.005642 0.000000 0.000000 0.000000
# 3 -0.004777 -0.005642 0.011989 0.000000 0.000000 0.000000
# 4 0.000000 0.000000 0.000000 0.639724 0.000000 0.000000
# 5 0.000000 0.000000 0.000000 0.000000 0.029086 0.000000
# 6 0.000000 0.000000 0.000000 0.000000 0.000000 0.019576
#
#
# Mechanical properties :
#
#
# Convention : Reuss Voigt Hill
#
# Bulk Modulus (GPa) = 34.98652 44.36163 39.67407
# Shear Modulus (GPa) = 6.57243 30.41596 18.49419
#
# Velocity S-wave (km/s) = 1.67350 3.60008 2.80724
# Velocity P-wave (km/s) = 4.31767 6.01529 5.23574
#
# Compressibility (1/GPa) = 0.02858243
#
# Stress axis : x y z
#
# Youngs Moduli (GPa) = 83.37016 46.02513 83.40867
#
# Poissons Ratio (x) = -0.08538 0.39843
# Poissons Ratio (y) = -0.15465 0.47063
# Poissons Ratio (z) = 0.39825 0.25970
#
# Static dielectric constant tensor:
#      x y z
#    x 4.330780 0.000000 0.000000 
#    y 0.000000 3.870260 0.000000 
#    z 0.000000 0.000000 4.578210 
# 
# 
# High freq. dielectric constant tensor:
#      x y z
#    x 1.951160 0.000000 0.000000 
#    y 0.000000 1.903080 0.000000 
#    z 0.000000 0.000000 1.951000 
# 
# From -- ./inp_files/3908.got.cif
#   From: 2010.03.12/outbox.cif.g09.slc.cpg/sg29_2_cif.got.tgz:3908.got - 2010.04.14 03:43:10.
