data_PCOD8169994
_publ_section_title
;
Structure prediction by ZEFSAII (Michael W. Deem and Ramdas Pophale) SiO2 
 PCOD8169994
Probable space group: P M N 21
;
_chemical_formula_sum "Si O2"
_cell_formula_units_Z 32
_cell_length_a 8.801395
_cell_length_b 12.099688
_cell_length_c 15.280220
_cell_angle_alpha 90.000000
_cell_angle_beta 90.000000
_cell_angle_gamma 90.000000
_cell_volume 1627.253788
_symmetry_space_group_name_H-M "P M N 21"
_symmetry_group_IT_number 31
_symmetry_cell_setting 'orthorhombic'
loop_
_space_group_symop_operation_xyz
x,y,z
1/2-x,-y,1/2+z
-x,y,z
1/2+x,-y,1/2+z
loop_
_atom_site_type_symbol
_atom_site_label
_atom_site_fract_x
_atom_site_fract_y
_atom_site_fract_z
Si Si1 0.820787 0.963776 0.986070
Si Si2 0.680760 0.357745 0.830944
Si Si3 0.168286 0.732271 0.720330
Si Si4 0.830097 0.738290 0.921582
Si Si5 0.318273 0.494972 0.477985
Si Si6 0.822914 0.486672 0.175429
Si Si7 0.675947 0.027900 0.162748
Si Si8 0.678924 0.882085 0.330829
O O1 0.760541 0.057192 0.918849
O O2 0.000000 0.955279 0.971397
O O3 0.747300 0.842936 0.966533
O O4 0.782096 0.988819 0.085055
O O5 0.500000 0.363441 0.835430
O O6 0.747131 0.406159 0.921309
O O7 0.744987 0.427746 0.747251
O O8 0.732775 0.232222 0.819645
O O9 0.167602 0.766475 0.820446
O O10 0.290530 0.638284 0.703308
O O11 0.213471 0.842703 0.669660
O O12 0.000000 0.690319 0.692590
O O13 0.751505 0.620516 0.940240
O O14 0.000000 0.726996 0.959991
O O15 0.500000 0.506338 0.471135
O O16 0.257308 0.497772 0.577745
O O17 0.000000 0.506788 0.172080
O O18 0.500000 0.008985 0.139578
O O19 0.720009 0.960948 0.249568
O O20 0.500000 0.857447 0.335645
#
# Coordination Sequence:
#
# PCOD8169994 Si02
#       8
#     4   4   4   4   4   4   4   4
#     4  10  21  38  62  87 113 151 196 237 282 341
#     4  11  24  40  58  86 120 151 191 245 290 332
#     4  10  19  37  63  84 109 148 192 237 284 338
#     4   9  17  35  63  85 105 145 197 237 277 338
#     4  10  21  39  62  84 113 154 194 231 284 352
#     4  10  23  39  57  86 118 148 189 240 288 339
#     4  10  22  39  59  88 120 150 190 239 287 340
#     4  10  22  41  60  82 118 161 195 228 282 354
#
# _framework density 19.665032
#
# number of rings (size 3 to 8) (size 9 to 14) (size 15 to 20)
#    0.000    2.000    2.500    0.375    3.500    2.500 
#    0.000    1.250    0.000    0.000    0.000    0.000 
#    0.000    0.000    0.000    0.000    0.000    0.000 
#
# Total GULP energy -396723.115437 kJ/mol
# GULP energy per Si atom -12397.597357 kJ/mol
# Density = 1.962027 g / cm^3
# Si number density = 19.665032 Si / 1000 Ang^3
#
#
#
# Elastic Constant Matrix: (Units=GPa)
#
#
# Indices 1 2 3 4 5 6 
#
# 1 25.8190 20.4413 23.0041 0.0000 0.0000 0.0000
# 2 20.4413 103.7978 26.6227 0.0000 0.0000 0.0000
# 3 23.0041 26.6227 100.3416 0.0000 0.0000 0.0000
# 4 0.0000 0.0000 0.0000 33.5032 0.0000 0.0000
# 5 0.0000 0.0000 0.0000 0.0000 27.6383 0.0000
# 6 0.0000 0.0000 0.0000 0.0000 0.0000 20.0557
#
#
#
# Elastic Compliance Matrix: (Units=1/GPa)
#
#
# Indices 1 2 3 4 5 6 
#
# 1 0.054289 -0.008047 -0.010311 0.000000 0.000000 0.000000
# 2 -0.008047 0.011530 -0.001214 0.000000 0.000000 0.000000
# 3 -0.010311 -0.001214 0.012652 0.000000 0.000000 0.000000
# 4 0.000000 0.000000 0.000000 0.029848 0.000000 0.000000
# 5 0.000000 0.000000 0.000000 0.000000 0.036182 0.000000
# 6 0.000000 0.000000 0.000000 0.000000 0.000000 0.049861
#
#
# Mechanical properties :
#
#
# Convention : Reuss Voigt Hill
#
# Bulk Modulus (GPa) = 25.42810 41.12163 33.27487
# Shear Modulus (GPa) = 20.27450 26.89879 23.58665
#
# Velocity S-wave (km/s) = 3.21439 3.70246 3.46702
# Velocity P-wave (km/s) = 5.17060 6.26371 5.74322
#
# Compressibility (1/GPa) = 0.03932658
#
# Stress axis : x y z
#
# Youngs Moduli (GPa) = 18.42001 86.72830 79.03817
#
# Poissons Ratio (x) = 0.69787 0.81498
# Poissons Ratio (y) = 0.14822 0.09599
# Poissons Ratio (z) = 0.18993 0.10533
#
# Static dielectric constant tensor:
#      x y z
#    x 3.298270 0.000000 0.000000 
#    y 0.000000 3.707940 0.000000 
#    z 0.000000 0.000000 3.689220 
# 
# 
# High freq. dielectric constant tensor:
#      x y z
#    x 1.732450 0.000000 0.000000 
#    y 0.000000 1.783160 0.000000 
#    z 0.000000 0.000000 1.775560 
# 
# From -- ./inp_files/4953.got.cif
#   From: 2010.03.12/outbox.cif.g09.slc.cpg/sg31_3_cif.got.tgz:4953.got - 2010.04.14 01:42:59.
