data_PCOD8169054
_publ_section_title
;
Structure prediction by ZEFSAII (Michael W. Deem and Ramdas Pophale) SiO2 
 PCOD8169054
Probable space group: P C A 21
;
_chemical_formula_sum "Si O2"
_cell_formula_units_Z 24
_cell_length_a 10.411749
_cell_length_b 5.271250
_cell_length_c 20.797284
_cell_angle_alpha 90.000000
_cell_angle_beta 90.000000
_cell_angle_gamma 90.000000
_cell_volume 1141.415922
_symmetry_space_group_name_H-M "P C A 21"
_symmetry_group_IT_number 29
_symmetry_cell_setting 'orthorhombic'
loop_
_space_group_symop_operation_xyz
x,y,z
-x,-y,1/2+z
1/2-x,y,1/2+z
1/2+x,-y,z
loop_
_atom_site_type_symbol
_atom_site_label
_atom_site_fract_x
_atom_site_fract_y
_atom_site_fract_z
Si Si1 0.735257 0.312322 0.593860
Si Si2 0.967776 0.563441 0.288289
Si Si3 0.119675 0.927187 0.987212
Si Si4 0.380325 0.927187 0.342747
Si Si5 0.735257 0.312323 0.236099
Si Si6 0.467776 0.436559 0.541670
O O1 0.750000 0.191972 0.664979
O O2 0.593415 0.424119 0.585772
O O3 0.763628 0.100085 0.538825
O O4 0.841218 0.537619 0.586905
O O5 0.976763 0.313452 0.333798
O O6 0.841218 0.537619 0.243053
O O7 0.093415 0.575881 0.244187
O O8 0.957488 0.814154 0.331556
O O9 0.176053 0.925792 0.914979
O O10 0.023237 0.686548 0.996161
O O11 0.042512 0.185846 0.998402
O O12 0.263628 0.899915 0.291134
#
# Coordination Sequence:
#
# PCOD8169054 Si02
#       6
#     4   4   4   4   4   4
#     4  10  24  44  69  98 133 172 219 271 326 388
#     4  10  24  42  65  96 128 171 218 267 328 383
#     4  10  24  41  64  94 132 173 218 267 324 387
#     4  10  24  41  64  94 132 173 218 267 324 387
#     4  10  24  44  69  98 133 172 219 271 326 388
#     4  10  24  42  65  96 128 171 218 267 328 383
#
# _framework density 21.026517999999999
#
# number of rings (size 3 to 8) (size 9 to 14) (size 15 to 20)
#    2.000    0.000    0.000    2.000    4.667    5.333 
#    0.000    0.000    0.000    0.000    0.000    0.000 
#    0.000    0.000    0.000    0.000    0.000    0.000 
#
# Total GULP energy -297327.108207 kJ/mol
# GULP energy per Si atom -12388.629509 kJ/mol
# Density = 2.097866 g / cm^3
# Si number density = 21.026518 Si / 1000 Ang^3
#
#
#
# Elastic Constant Matrix: (Units=GPa)
#
#
# Indices 1 2 3 4 5 6 
#
# 1 125.3602 26.7173 45.5062 0.0000 0.0000 0.0000
# 2 26.7173 134.2742 41.6359 0.0000 0.0000 0.0000
# 3 45.5062 41.6359 188.0463 0.0000 0.0000 0.0000
# 4 0.0000 0.0000 0.0000 18.3829 0.0000 0.0000
# 5 0.0000 0.0000 0.0000 0.0000 22.5995 0.0000
# 6 0.0000 0.0000 0.0000 0.0000 0.0000 15.8458
#
#
#
# Elastic Compliance Matrix: (Units=1/GPa)
#
#
# Indices 1 2 3 4 5 6 
#
# 1 0.008918 -0.001187 -0.001895 0.000000 0.000000 0.000000
# 2 -0.001187 0.008154 -0.001518 0.000000 0.000000 0.000000
# 3 -0.001895 -0.001518 0.006113 0.000000 0.000000 0.000000
# 4 0.000000 0.000000 0.000000 0.054398 0.000000 0.000000
# 5 0.000000 0.000000 0.000000 0.000000 0.044249 0.000000
# 6 0.000000 0.000000 0.000000 0.000000 0.000000 0.063108
#
#
# Mechanical properties :
#
#
# Convention : Reuss Voigt Hill
#
# Bulk Modulus (GPa) = 71.50909 75.04439 73.27674
# Shear Modulus (GPa) = 25.15055 33.62038 29.38547
#
# Velocity S-wave (km/s) = 3.46227 4.00303 3.74243
# Velocity P-wave (km/s) = 7.07573 7.55867 7.32118
#
# Compressibility (1/GPa) = 0.01398424
#
# Stress axis : x y z
#
# Youngs Moduli (GPa) = 112.13335 122.63354 163.59459
#
# Poissons Ratio (x) = 0.14554 0.31007
# Poissons Ratio (y) = 0.13307 0.24839
# Poissons Ratio (z) = 0.21253 0.18619
#
# Static dielectric constant tensor:
#      x y z
#    x 3.483790 0.000000 0.000000 
#    y 0.000000 3.570900 0.000000 
#    z 0.000000 0.000000 3.576620 
# 
# 
# High freq. dielectric constant tensor:
#      x y z
#    x 1.806490 0.000000 0.000000 
#    y 0.000000 1.812230 0.000000 
#    z 0.000000 0.000000 1.819010 
# 
# From -- ./inp_files/5080.got.cif
#   From: 2010.03.12/outbox.cif.g09.slc.cpg/sg29_3_cif.got.tgz:5080.got - 2010.04.14 03:43:10.
