data_PCOD8169831
_publ_section_title
;
Structure prediction by ZEFSAII (Michael W. Deem and Ramdas Pophale) SiO2 
 PCOD8169831
Probable space group: P M N 21
;
_chemical_formula_sum "Si O2"
_cell_formula_units_Z 32
_cell_length_a 8.696360
_cell_length_b 12.147160
_cell_length_c 14.734409
_cell_angle_alpha 90.000000
_cell_angle_beta 90.000000
_cell_angle_gamma 90.000000
_cell_volume 1556.485154
_symmetry_space_group_name_H-M "P M N 21"
_symmetry_group_IT_number 31
_symmetry_cell_setting 'orthorhombic'
loop_
_space_group_symop_operation_xyz
x,y,z
1/2-x,-y,1/2+z
-x,y,z
1/2+x,-y,1/2+z
loop_
_atom_site_type_symbol
_atom_site_label
_atom_site_fract_x
_atom_site_fract_y
_atom_site_fract_z
Si Si1 0.327989 0.407775 0.010320
Si Si2 0.816866 0.095538 0.793156
Si Si3 0.818263 0.491428 0.693182
Si Si4 0.171369 0.808778 0.615095
Si Si5 0.316792 0.327553 0.824932
Si Si6 0.175740 0.301261 0.273104
Si Si7 0.181756 0.109770 0.400858
Si Si8 0.678374 0.946352 0.093795
O O1 0.500000 0.453927 0.002935
O O2 0.249579 0.479748 0.091720
O O3 0.325904 0.279326 0.035232
O O4 0.255660 0.406500 0.908682
O O5 0.749701 0.205640 0.837910
O O6 0.748930 0.090121 0.689898
O O7 0.000000 0.100489 0.794841
O O8 0.765949 0.986466 0.845950
O O9 0.741548 0.380217 0.730428
O O10 0.782298 0.591740 0.761888
O O11 0.000000 0.475847 0.688259
O O12 0.298877 0.781572 0.689735
O O13 0.000000 0.810893 0.660167
O O14 0.212210 0.925922 0.572964
O O15 0.500000 0.321595 0.826298
O O16 0.219122 0.231368 0.362398
O O17 0.000000 0.341431 0.275502
O O18 0.243652 0.115651 0.504866
O O19 0.000000 0.084666 0.396442
O O20 0.500000 0.920714 0.101744
#
# Coordination Sequence:
#
# PCOD8169831 Si02
#       8
#     4   4   4   4   4   4   4   4
#     4   8  17  34  60  85 106 146 193 228 275 343
#     4  11  22  37  58  86 119 155 193 235 285 340
#     4  10  21  40  62  83 110 146 191 237 283 337
#     4   9  15  30  55  78 105 144 190 230 268 322
#     4  11  22  40  62  85 116 151 191 236 287 342
#     4  10  19  32  54  82 110 139 182 234 284 327
#     4  10  20  36  57  82 114 153 194 232 278 338
#     4   9  18  33  54  79 112 156 194 222 272 349
#
# _framework density 20.559142000000001
#
# number of rings (size 3 to 8) (size 9 to 14) (size 15 to 20)
#    0.000    2.250    1.250    3.000    0.000    2.500 
#    2.250   10.625    0.000    0.000    0.000    0.000 
#    0.000    0.000    0.000    0.000    0.000    0.000 
#
# Total GULP energy -396497.476721 kJ/mol
# GULP energy per Si atom -12390.546148 kJ/mol
# Density = 2.051235 g / cm^3
# Si number density = 20.559142 Si / 1000 Ang^3
#
#
#
# Elastic Constant Matrix: (Units=GPa)
#
#
# Indices 1 2 3 4 5 6 
#
# 1 49.8654 13.9345 18.3558 0.0000 0.0000 0.0000
# 2 13.9345 39.7780 6.6281 0.0000 0.0000 0.0000
# 3 18.3558 6.6281 99.4728 0.0000 0.0000 0.0000
# 4 0.0000 0.0000 0.0000 26.9013 0.0000 0.0000
# 5 0.0000 0.0000 0.0000 0.0000 20.4487 0.0000
# 6 0.0000 0.0000 0.0000 0.0000 0.0000 27.1689
#
#
#
# Elastic Compliance Matrix: (Units=1/GPa)
#
#
# Indices 1 2 3 4 5 6 
#
# 1 0.023601 -0.007627 -0.003847 0.000000 0.000000 0.000000
# 2 -0.007627 0.027886 -0.000451 0.000000 0.000000 0.000000
# 3 -0.003847 -0.000451 0.010793 0.000000 0.000000 0.000000
# 4 0.000000 0.000000 0.000000 0.037173 0.000000 0.000000
# 5 0.000000 0.000000 0.000000 0.000000 0.048903 0.000000
# 6 0.000000 0.000000 0.000000 0.000000 0.000000 0.036807
#
#
# Mechanical properties :
#
#
# Convention : Reuss Voigt Hill
#
# Bulk Modulus (GPa) = 26.02021 29.66144 27.84082
# Shear Modulus (GPa) = 22.54056 24.91698 23.72877
#
# Velocity S-wave (km/s) = 3.31475 3.48511 3.40100
# Velocity P-wave (km/s) = 5.22818 5.53654 5.38457
#
# Compressibility (1/GPa) = 0.03843167
#
# Stress axis : x y z
#
# Youngs Moduli (GPa) = 42.37058 35.85995 92.65330
#
# Poissons Ratio (x) = 0.27349 0.35644
# Poissons Ratio (y) = 0.32315 0.04177
# Poissons Ratio (z) = 0.16300 0.01616
#
# Static dielectric constant tensor:
#      x y z
#    x 3.453650 0.000000 0.000000 
#    y 0.000000 3.620040 0.000000 
#    z 0.000000 0.000000 4.112910 
# 
# 
# High freq. dielectric constant tensor:
#      x y z
#    x 1.771120 0.000000 0.000000 
#    y 0.000000 1.795300 0.000000 
#    z 0.000000 0.000000 1.811300 
# 
# From -- ./inp_files/5050.got.cif
#   From: 2010.03.12/outbox.cif.g09.slc.cpg/sg31_3_cif.got.tgz:5050.got - 2010.04.14 01:42:59.
