data_PCOD8169220
_publ_section_title
;
Structure prediction by ZEFSAII (Michael W. Deem and Ramdas Pophale) SiO2 
 PCOD8169220
Probable space group: P C A 21
;
_chemical_formula_sum "Si O2"
_cell_formula_units_Z 20
_cell_length_a 10.541010
_cell_length_b 10.976759
_cell_length_c 7.455443
_cell_angle_alpha 90.000000
_cell_angle_beta 90.000000
_cell_angle_gamma 90.000000
_cell_volume 862.640430
_symmetry_space_group_name_H-M "P C A 21"
_symmetry_group_IT_number 29
_symmetry_cell_setting 'orthorhombic'
loop_
_space_group_symop_operation_xyz
x,y,z
-x,-y,1/2+z
1/2-x,y,1/2+z
1/2+x,-y,z
loop_
_atom_site_type_symbol
_atom_site_label
_atom_site_fract_x
_atom_site_fract_y
_atom_site_fract_z
Si Si1 0.103931 0.906730 0.684090
Si Si2 0.397565 0.393389 0.984289
Si Si3 0.156495 0.028653 0.015990
Si Si4 0.549919 0.358519 0.641191
Si Si5 0.351057 0.287693 0.355349
O O1 0.208674 0.997945 0.603430
O O2 0.128274 0.767672 0.622061
O O3 0.118137 0.912023 0.897655
O O4 0.958581 0.948862 0.652969
O O5 0.371057 0.529618 0.058681
O O6 0.415183 0.306527 0.159264
O O7 0.284148 0.353244 0.855246
O O8 0.518400 0.385675 0.850755
O O9 0.170640 0.144571 0.885113
O O10 0.426214 0.346627 0.518759
#
# Coordination Sequence:
#
# PCOD8169220 Si02
#       5
#     4   4   4   4   4
#     4  11  26  46  73 106 148 190 239 304 372 434
#     4  12  23  44  71 102 137 192 242 301 364 445
#     4  11  25  46  71 107 145 191 241 302 368 445
#     4  11  26  44  68 107 144 186 244 306 365 435
#     4  11  24  42  73  98 142 193 242 297 375 445
#
# _framework density 23.184631
#
# number of rings (size 3 to 8) (size 9 to 14) (size 15 to 20)
#    0.000    0.800    4.000    2.400    8.400    1.600 
#    0.000    0.000    0.000    0.000    0.000    0.000 
#    0.000    0.000    0.000    0.000    0.000    0.000 
#
# Total GULP energy -247894.527322 kJ/mol
# GULP energy per Si atom -12394.726366 kJ/mol
# Density = 2.313186 g / cm^3
# Si number density = 23.184631 Si / 1000 Ang^3
#
#
#
# Elastic Constant Matrix: (Units=GPa)
#
#
# Indices 1 2 3 4 5 6 
#
# 1 84.3977 43.2218 21.4986 0.0000 0.0000 0.0000
# 2 43.2218 69.6988 23.0195 0.0000 0.0000 0.0000
# 3 21.4986 23.0195 123.8688 0.0000 0.0000 0.0000
# 4 0.0000 0.0000 0.0000 43.9888 0.0000 0.0000
# 5 0.0000 0.0000 0.0000 0.0000 30.4313 0.0000
# 6 0.0000 0.0000 0.0000 0.0000 0.0000 30.8339
#
#
#
# Elastic Compliance Matrix: (Units=1/GPa)
#
#
# Indices 1 2 3 4 5 6 
#
# 1 0.017499 -0.010492 -0.001087 0.000000 0.000000 0.000000
# 2 -0.010492 0.021577 -0.002189 0.000000 0.000000 0.000000
# 3 -0.001087 -0.002189 0.008669 0.000000 0.000000 0.000000
# 4 0.000000 0.000000 0.000000 0.022733 0.000000 0.000000
# 5 0.000000 0.000000 0.000000 0.000000 0.032861 0.000000
# 6 0.000000 0.000000 0.000000 0.000000 0.000000 0.032432
#
#
# Mechanical properties :
#
#
# Convention : Reuss Voigt Hill
#
# Bulk Modulus (GPa) = 49.48632 50.38279 49.93456
# Shear Modulus (GPa) = 29.40434 33.73250 31.56842
#
# Velocity S-wave (km/s) = 3.56514 3.81852 3.69400
# Velocity P-wave (km/s) = 6.19175 6.42026 6.30704
#
# Compressibility (1/GPa) = 0.02020761
#
# Stress axis : x y z
#
# Youngs Moduli (GPa) = 57.14606 46.34577 115.36015
#
# Poissons Ratio (x) = 0.48628 0.12542
# Poissons Ratio (y) = 0.59960 0.25249
# Poissons Ratio (z) = 0.06213 0.10144
#
# Static dielectric constant tensor:
#      x y z
#    x 3.865580 0.000000 0.000000 
#    y 0.000000 4.386720 0.000000 
#    z 0.000000 0.000000 4.330930 
# 
# 
# High freq. dielectric constant tensor:
#      x y z
#    x 1.891190 0.000000 0.000000 
#    y 0.000000 1.926490 0.000000 
#    z 0.000000 0.000000 1.932020 
# 
# From -- ./inp_files/1076.got.cif
#   From: 2010.03.12/outbox.cif.g09.slc.cpg/sg29_1_cif.got.tgz:1076.got - 2010.04.14 03:43:10.
