data_PCOD8169695
_publ_section_title
;
Structure prediction by ZEFSAII (Michael W. Deem and Ramdas Pophale) SiO2 
 PCOD8169695
Probable space group: P M N 21
;
_chemical_formula_sum "Si O2"
_cell_formula_units_Z 24
_cell_length_a 8.646701
_cell_length_b 9.290208
_cell_length_c 16.717905
_cell_angle_alpha 90.000000
_cell_angle_beta 90.000000
_cell_angle_gamma 90.000000
_cell_volume 1342.943471
_symmetry_space_group_name_H-M "P M N 21"
_symmetry_group_IT_number 31
_symmetry_cell_setting 'orthorhombic'
loop_
_space_group_symop_operation_xyz
x,y,z
1/2-x,-y,1/2+z
-x,y,z
1/2+x,-y,1/2+z
loop_
_atom_site_type_symbol
_atom_site_label
_atom_site_fract_x
_atom_site_fract_y
_atom_site_fract_z
Si Si1 0.319341 0.841786 0.080800
Si Si2 0.179678 0.091582 0.166050
Si Si3 0.819226 0.159495 0.401341
Si Si4 0.679112 0.651333 0.225427
Si Si5 0.820741 0.072333 0.810619
Si Si6 0.183284 0.663617 0.756687
O O1 0.500000 0.863210 0.097419
O O2 0.251170 0.726533 0.145073
O O3 0.242475 0.999667 0.091103
O O4 0.285539 0.785712 0.991334
O O5 0.266336 0.244199 0.178783
O O6 0.000000 0.122641 0.154412
O O7 0.211876 0.999530 0.244825
O O8 0.751488 0.274514 0.339252
O O9 0.000000 0.141564 0.385731
O O10 0.737134 0.001311 0.392730
O O11 0.500000 0.624547 0.208894
O O12 0.703835 0.755422 0.303185
O O13 0.754302 0.496661 0.244048
O O14 0.000000 0.033269 0.794625
O O15 0.000000 0.662538 0.764954
#
# Coordination Sequence:
#
# PCOD8169695 Si02
#       6
#     4   4   4   4   4   4
#     4   9  18  34  52  69  93 126 163 202 243 285
#     4  10  18  29  47  71  95 119 155 196 233 278
#     4  10  19  31  49  73  98 123 158 203 245 285
#     4   8  16  31  51  71  91 125 166 196 229 283
#     4   9  16  30  50  69  93 124 158 192 230 280
#     4  10  18  31  51  71  96 129 162 193 234 291
#
# _framework density 17.871192000000001
#
# number of rings (size 3 to 8) (size 9 to 14) (size 15 to 20)
#    0.000    2.667    0.000    6.000    0.000    1.333 
#    0.000   10.000    0.000    6.000    0.000    0.000 
#    0.000    0.000    0.000    0.000    0.000    0.000 
#
# Total GULP energy -297346.609398 kJ/mol
# GULP energy per Si atom -12389.442058 kJ/mol
# Density = 1.783052 g / cm^3
# Si number density = 17.871192 Si / 1000 Ang^3
#
#
#
# Elastic Constant Matrix: (Units=GPa)
#
#
# Indices 1 2 3 4 5 6 
#
# 1 59.5962 35.3347 35.7512 0.0000 0.0000 0.0000
# 2 35.3347 157.0293 56.6739 0.0000 0.0000 0.0000
# 3 35.7512 56.6739 89.5613 0.0000 0.0000 0.0000
# 4 0.0000 0.0000 0.0000 20.1554 0.0000 0.0000
# 5 0.0000 0.0000 0.0000 0.0000 23.7871 0.0000
# 6 0.0000 0.0000 0.0000 0.0000 0.0000 13.3413
#
#
#
# Elastic Compliance Matrix: (Units=1/GPa)
#
#
# Indices 1 2 3 4 5 6 
#
# 1 0.022732 -0.002385 -0.007565 0.000000 0.000000 0.000000
# 2 -0.002385 0.008503 -0.004429 0.000000 0.000000 0.000000
# 3 -0.007565 -0.004429 0.016988 0.000000 0.000000 0.000000
# 4 0.000000 0.000000 0.000000 0.049614 0.000000 0.000000
# 5 0.000000 0.000000 0.000000 0.000000 0.042040 0.000000
# 6 0.000000 0.000000 0.000000 0.000000 0.000000 0.074955
#
#
# Mechanical properties :
#
#
# Convention : Reuss Voigt Hill
#
# Bulk Modulus (GPa) = 51.37267 62.41182 56.89224
# Shear Modulus (GPa) = 19.99375 23.35189 21.67282
#
# Velocity S-wave (km/s) = 3.34843 3.61872 3.48620
# Velocity P-wave (km/s) = 6.61497 7.24287 6.93603
#
# Compressibility (1/GPa) = 0.01946560
#
# Stress axis : x y z
#
# Youngs Moduli (GPa) = 43.99142 117.60138 58.86541
#
# Poissons Ratio (x) = 0.28045 0.44532
# Poissons Ratio (y) = 0.10491 0.26071
# Poissons Ratio (z) = 0.33279 0.52084
#
# Static dielectric constant tensor:
#      x y z
#    x 3.223080 0.000000 0.000000 
#    y 0.000000 3.737760 0.000000 
#    z 0.000000 0.000000 3.349410 
# 
# 
# High freq. dielectric constant tensor:
#      x y z
#    x 1.685520 0.000000 0.000000 
#    y 0.000000 1.686330 0.000000 
#    z 0.000000 0.000000 1.667730 
# 
# From -- ./inp_files/5711.got.cif
#   From: 2010.03.12/outbox.cif.g09.slc.cpg/sg31_3_cif.got.tgz:5711.got - 2010.04.14 01:42:59.
