data_PCOD8169844
_publ_section_title
;
Structure prediction by ZEFSAII (Michael W. Deem and Ramdas Pophale) SiO2 
 PCOD8169844
Probable space group: P M N 21
;
_chemical_formula_sum "Si O2"
_cell_formula_units_Z 32
_cell_length_a 8.770584
_cell_length_b 11.890222
_cell_length_c 14.515098
_cell_angle_alpha 90.000000
_cell_angle_beta 90.000000
_cell_angle_gamma 90.000000
_cell_volume 1513.695250
_symmetry_space_group_name_H-M "P M N 21"
_symmetry_group_IT_number 31
_symmetry_cell_setting 'orthorhombic'
loop_
_space_group_symop_operation_xyz
x,y,z
1/2-x,-y,1/2+z
-x,y,z
1/2+x,-y,1/2+z
loop_
_atom_site_type_symbol
_atom_site_label
_atom_site_fract_x
_atom_site_fract_y
_atom_site_fract_z
Si Si1 0.176584 0.010334 0.143880
Si Si2 0.176164 0.776672 0.236558
Si Si3 0.174460 0.881137 0.968880
Si Si4 0.321270 0.615022 0.366414
Si Si5 0.826628 0.564054 0.550195
Si Si6 0.819392 0.412464 0.249558
Si Si7 0.825144 0.819847 0.771759
Si Si8 0.170831 0.311316 0.566792
O O1 0.220406 0.902394 0.205828
O O2 0.000000 0.040556 0.154897
O O3 0.271767 0.116431 0.179498
O O4 0.218731 0.985644 0.036140
O O5 0.276954 0.735564 0.322406
O O6 0.212797 0.693281 0.152032
O O7 0.000000 0.766071 0.262904
O O8 0.194328 0.904820 0.859854
O O9 0.000000 0.847947 0.993046
O O10 0.281799 0.775583 0.988412
O O11 0.500000 0.594336 0.360027
O O12 0.269614 0.627010 0.472077
O O13 0.238977 0.513214 0.313624
O O14 0.752221 0.582560 0.648645
O O15 0.822920 0.433528 0.521954
O O16 0.000000 0.609342 0.552141
O O17 0.771525 0.292139 0.291466
O O18 0.000000 0.421198 0.243429
O O19 0.000000 0.784539 0.758924
O O20 0.000000 0.283846 0.602224
#
# Coordination Sequence:
#
# PCOD8169844 Si02
#       8
#     4   4   4   4   4   4   4   4
#     4   9  20  40  63  88 119 157 203 256 310 366
#     4  10  20  37  61  85 117 157 199 251 306 360
#     4   9  20  38  61  88 119 159 206 253 306 369
#     4  12  24  39  61  92 127 165 208 254 308 374
#     4  11  23  39  59  89 126 164 207 253 307 374
#     4  12  25  42  64  91 127 169 207 257 316 372
#     4  11  23  41  64  91 123 162 207 259 313 372
#     4  10  19  32  57  88 118 151 197 253 300 357
#
# _framework density 21.140318000000001
#
# number of rings (size 3 to 8) (size 9 to 14) (size 15 to 20)
#    0.000    1.500    1.250    5.250    0.000    7.000 
#    2.250    0.000    0.000    0.000    0.000    0.000 
#    0.000    0.000    0.000    0.000    0.000    0.000 
#
# Total GULP energy -396787.159085 kJ/mol
# GULP energy per Si atom -12399.598721 kJ/mol
# Density = 2.109220 g / cm^3
# Si number density = 21.140318 Si / 1000 Ang^3
#
#
#
# Elastic Constant Matrix: (Units=GPa)
#
#
# Indices 1 2 3 4 5 6 
#
# 1 103.5412 16.7783 19.3322 0.0000 0.0000 0.0000
# 2 16.7783 36.6000 2.2449 0.0000 0.0000 0.0000
# 3 19.3322 2.2449 91.1199 0.0000 0.0000 0.0000
# 4 0.0000 0.0000 0.0000 25.8818 0.0000 0.0000
# 5 0.0000 0.0000 0.0000 0.0000 32.9118 0.0000
# 6 0.0000 0.0000 0.0000 0.0000 0.0000 29.5201
#
#
#
# Elastic Compliance Matrix: (Units=1/GPa)
#
#
# Indices 1 2 3 4 5 6 
#
# 1 0.010850 -0.004840 -0.002183 0.000000 0.000000 0.000000
# 2 -0.004840 0.029523 0.000300 0.000000 0.000000 0.000000
# 3 -0.002183 0.000300 0.011430 0.000000 0.000000 0.000000
# 4 0.000000 0.000000 0.000000 0.038637 0.000000 0.000000
# 5 0.000000 0.000000 0.000000 0.000000 0.030384 0.000000
# 6 0.000000 0.000000 0.000000 0.000000 0.000000 0.033875
#
#
# Mechanical properties :
#
#
# Convention : Reuss Voigt Hill
#
# Bulk Modulus (GPa) = 26.07111 34.21911 30.14511
# Shear Modulus (GPa) = 27.63480 30.52312 29.07896
#
# Velocity S-wave (km/s) = 3.61946 3.80390 3.71283
# Velocity P-wave (km/s) = 5.46136 5.95942 5.71582
#
# Compressibility (1/GPa) = 0.03835663
#
# Stress axis : x y z
#
# Youngs Moduli (GPa) = 92.16759 33.87214 87.48714
#
# Poissons Ratio (x) = 0.16394 0.19096
# Poissons Ratio (y) = 0.44608 -0.02620
# Poissons Ratio (z) = 0.20117 -0.01014
#
# Static dielectric constant tensor:
#      x y z
#    x 3.857860 0.000000 0.000000 
#    y 0.000000 3.654050 0.000000 
#    z 0.000000 0.000000 3.852480 
# 
# 
# High freq. dielectric constant tensor:
#      x y z
#    x 1.835140 0.000000 0.000000 
#    y 0.000000 1.807970 0.000000 
#    z 0.000000 0.000000 1.832970 
# 
# From -- ./inp_files/4914.got.cif
#   From: 2010.03.12/outbox.cif.g09.slc.cpg/sg31_3_cif.got.tgz:4914.got - 2010.04.14 01:42:59.
