data_PCOD8169773
_publ_section_title
;
Structure prediction by ZEFSAII (Michael W. Deem and Ramdas Pophale) SiO2 
 PCOD8169773
Probable space group: P M N 21
;
_chemical_formula_sum "Si O2"
_cell_formula_units_Z 32
_cell_length_a 9.297473
_cell_length_b 11.456883
_cell_length_c 17.688019
_cell_angle_alpha 90.000000
_cell_angle_beta 90.000000
_cell_angle_gamma 90.000000
_cell_volume 1884.128851
_symmetry_space_group_name_H-M "P M N 21"
_symmetry_group_IT_number 31
_symmetry_cell_setting 'orthorhombic'
loop_
_space_group_symop_operation_xyz
x,y,z
1/2-x,-y,1/2+z
-x,y,z
1/2+x,-y,1/2+z
loop_
_atom_site_type_symbol
_atom_site_label
_atom_site_fract_x
_atom_site_fract_y
_atom_site_fract_z
Si Si1 0.838468 0.039762 0.303310
Si Si2 0.669625 0.725592 0.010405
Si Si3 0.331279 0.248352 0.365193
Si Si4 0.332055 0.361464 0.206113
Si Si5 0.341653 0.964288 0.082839
Si Si6 0.170806 0.382183 0.665512
Si Si7 0.160397 0.155990 0.744009
Si Si8 0.660310 0.841937 0.640835
O O1 0.765631 0.911448 0.301820
O O2 0.000000 0.029073 0.336441
O O3 0.743691 0.122631 0.356487
O O4 0.843757 0.092471 0.220116
O O5 0.500000 0.710163 0.995266
O O6 0.708864 0.860485 0.027858
O O7 0.722477 0.644822 0.080071
O O8 0.760114 0.686971 0.936973
O O9 0.500000 0.229355 0.377794
O O10 0.300255 0.329199 0.292795
O O11 0.500000 0.350775 0.187433
O O12 0.273394 0.491873 0.191876
O O13 0.249900 0.277012 0.148375
O O14 0.500000 0.008567 0.058770
O O15 0.350688 0.916424 0.167311
O O16 0.233084 0.073670 0.078407
O O17 0.226621 0.283920 0.724747
O O18 0.000000 0.373331 0.666525
O O19 0.000000 0.165339 0.779735
O O20 0.500000 0.811496 0.613078
#
# Coordination Sequence:
#
# PCOD8169773 Si02
#       8
#     4   4   4   4   4   4   4   4
#     4   9  16  26  41  62  88 115 142 175 219 268
#     4   9  17  30  48  68  90 116 148 189 235 281
#     4  10  19  29  44  67  93 120 150 188 233 278
#     4   9  17  30  47  66  90 123 162 194 222 269
#     4   8  14  25  42  63  85 110 138 171 217 271
#     4   8  15  29  49  69  88 118 160 197 228 270
#     4   8  13  24  43  65  86 107 138 180 222 264
#     4   9  16  25  40  64  90 113 140 180 224 259
#
# _framework density 16.983976999999999
#
# number of rings (size 3 to 8) (size 9 to 14) (size 15 to 20)
#    0.000    3.250    0.000    2.625    0.000    4.000 
#    0.000    3.125    0.000    1.500    0.000    3.500 
#    0.000    0.000    0.000    0.000    0.000    0.000 
#
# Total GULP energy -396628.133422 kJ/mol
# GULP energy per Si atom -12394.629169 kJ/mol
# Density = 1.694532 g / cm^3
# Si number density = 16.983977 Si / 1000 Ang^3
#
#
#
# Elastic Constant Matrix: (Units=GPa)
#
#
# Indices 1 2 3 4 5 6 
#
# 1 88.8314 54.1104 32.7683 0.0000 0.0000 0.0000
# 2 54.1104 126.4519 35.9924 0.0000 0.0000 0.0000
# 3 32.7683 35.9924 52.8804 0.0000 0.0000 0.0000
# 4 0.0000 0.0000 0.0000 14.5678 0.0000 0.0000
# 5 0.0000 0.0000 0.0000 0.0000 21.3990 0.0000
# 6 0.0000 0.0000 0.0000 0.0000 0.0000 15.9879
#
#
#
# Elastic Compliance Matrix: (Units=1/GPa)
#
#
# Indices 1 2 3 4 5 6 
#
# 1 0.017064 -0.005324 -0.006951 0.000000 0.000000 0.000000
# 2 -0.005324 0.011469 -0.004508 0.000000 0.000000 0.000000
# 3 -0.006951 -0.004508 0.026286 0.000000 0.000000 0.000000
# 4 0.000000 0.000000 0.000000 0.068645 0.000000 0.000000
# 5 0.000000 0.000000 0.000000 0.000000 0.046731 0.000000
# 6 0.000000 0.000000 0.000000 0.000000 0.000000 0.062547
#
#
# Mechanical properties :
#
#
# Convention : Reuss Voigt Hill
#
# Bulk Modulus (GPa) = 47.04671 57.10065 52.07368
# Shear Modulus (GPa) = 18.28888 20.07712 19.18300
#
# Velocity S-wave (km/s) = 3.28507 3.44193 3.36441
# Velocity P-wave (km/s) = 6.49228 7.03485 6.76900
#
# Compressibility (1/GPa) = 0.02125547
#
# Stress axis : x y z
#
# Youngs Moduli (GPa) = 58.60294 87.19053 38.04354
#
# Poissons Ratio (x) = 0.46416 0.26443
# Poissons Ratio (y) = 0.31197 0.17148
# Poissons Ratio (z) = 0.40733 0.39301
#
# Static dielectric constant tensor:
#      x y z
#    x 3.248500 0.000000 0.000000 
#    y 0.000000 3.282800 0.000000 
#    z 0.000000 0.000000 2.893550 
# 
# 
# High freq. dielectric constant tensor:
#      x y z
#    x 1.648030 0.000000 0.000000 
#    y 0.000000 1.641440 0.000000 
#    z 0.000000 0.000000 1.617760 
# 
# From -- ./inp_files/5856.got.cif
#   From: 2010.03.12/outbox.cif.g09.slc.cpg/sg31_3_cif.got.tgz:5856.got - 2010.04.14 01:42:59.
