data_PCOD8169296
_publ_section_title
;
Structure prediction by ZEFSAII (Michael W. Deem and Ramdas Pophale) SiO2 
 PCOD8169296
Probable space group: P C A 21
;
_chemical_formula_sum "Si O2"
_cell_formula_units_Z 20
_cell_length_a 9.184240
_cell_length_b 9.073564
_cell_length_c 9.604400
_cell_angle_alpha 90.000000
_cell_angle_beta 90.000000
_cell_angle_gamma 90.000000
_cell_volume 800.371047
_symmetry_space_group_name_H-M "P C A 21"
_symmetry_group_IT_number 29
_symmetry_cell_setting 'orthorhombic'
loop_
_space_group_symop_operation_xyz
x,y,z
-x,-y,1/2+z
1/2-x,y,1/2+z
1/2+x,-y,z
loop_
_atom_site_type_symbol
_atom_site_label
_atom_site_fract_x
_atom_site_fract_y
_atom_site_fract_z
Si Si1 0.064396 0.573052 0.531350
Si Si2 0.179245 0.765055 0.949095
Si Si3 0.598146 0.655832 0.766665
Si Si4 0.615486 0.092371 0.227582
Si Si5 0.919813 0.749173 0.765065
O O1 0.231104 0.624636 0.506529
O O2 0.065919 0.421828 0.618536
O O3 0.980495 0.557444 0.384488
O O4 0.981657 0.700727 0.616352
O O5 0.256986 0.841113 0.819856
O O6 0.025109 0.705135 0.892562
O O7 0.159332 0.888303 0.067123
O O8 0.534059 0.820637 0.759685
O O9 0.769100 0.665867 0.798113
O O10 0.595610 0.923710 0.262487
#
# Coordination Sequence:
#
# PCOD8169296 Si02
#       5
#     4   4   4   4   4
#     4  11  29  53  74 118 162 212 263 328 399 472
#     4  11  26  51  77 113 161 203 262 331 397 471
#     4  11  30  51  82 117 160 213 265 325 401 477
#     4  11  27  49  81 117 159 207 262 340 394 473
#     4  12  28  48  84 115 158 209 274 322 405 473
#
# _framework density 24.988410999999999
#
# number of rings (size 3 to 8) (size 9 to 14) (size 15 to 20)
#    0.000    0.800    2.000    1.200   16.800    0.000 
#    0.000    4.000    0.000    0.000    0.000    0.000 
#    0.000    0.000    0.000    0.000    0.000    0.000 
#
# Total GULP energy -248159.578532 kJ/mol
# GULP energy per Si atom -12407.978927 kJ/mol
# Density = 2.493154 g / cm^3
# Si number density = 24.988411 Si / 1000 Ang^3
#
#
#
# Elastic Constant Matrix: (Units=GPa)
#
#
# Indices 1 2 3 4 5 6 
#
# 1 178.6494 35.9480 63.3500 0.0000 0.0000 0.0000
# 2 35.9480 115.0015 22.3636 0.0000 0.0000 0.0000
# 3 63.3500 22.3636 137.8746 0.0000 0.0000 0.0000
# 4 0.0000 0.0000 0.0000 36.2602 0.0000 0.0000
# 5 0.0000 0.0000 0.0000 0.0000 47.0060 0.0000
# 6 0.0000 0.0000 0.0000 0.0000 0.0000 22.6221
#
#
#
# Elastic Compliance Matrix: (Units=1/GPa)
#
#
# Indices 1 2 3 4 5 6 
#
# 1 0.006963 -0.001605 -0.002939 0.000000 0.000000 0.000000
# 2 -0.001605 0.009349 -0.000779 0.000000 0.000000 0.000000
# 3 -0.002939 -0.000779 0.008730 0.000000 0.000000 0.000000
# 4 0.000000 0.000000 0.000000 0.027578 0.000000 0.000000
# 5 0.000000 0.000000 0.000000 0.000000 0.021274 0.000000
# 6 0.000000 0.000000 0.000000 0.000000 0.000000 0.044205
#
#
# Mechanical properties :
#
#
# Convention : Reuss Voigt Hill
#
# Bulk Modulus (GPa) = 69.46602 74.98317 72.22460
# Shear Modulus (GPa) = 37.44144 41.83524 39.63834
#
# Velocity S-wave (km/s) = 3.87505 4.09612 3.98712
# Velocity P-wave (km/s) = 6.91961 7.24177 7.08252
#
# Compressibility (1/GPa) = 0.01439553
#
# Stress axis : x y z
#
# Youngs Moduli (GPa) = 143.62399 106.96673 114.55229
#
# Poissons Ratio (x) = 0.17167 0.33665
# Poissons Ratio (y) = 0.23051 0.08923
# Poissons Ratio (z) = 0.42209 0.08332
#
# Static dielectric constant tensor:
#      x y z
#    x 4.789510 0.000000 0.000000 
#    y 0.000000 4.245470 0.000000 
#    z 0.000000 0.000000 4.585300 
# 
# 
# High freq. dielectric constant tensor:
#      x y z
#    x 2.008600 0.000000 0.000000 
#    y 0.000000 2.002660 0.000000 
#    z 0.000000 0.000000 2.012230 
# 
# From -- ./inp_files/1050.got.cif
#   From: 2010.03.12/outbox.cif.g09.slc.cpg/sg29_1_cif.got.tgz:1050.got - 2010.04.14 03:43:10.
