data_PCOD8169434
_publ_section_title
;
Structure prediction by ZEFSAII (Michael W. Deem and Ramdas Pophale) SiO2 
 PCOD8169434
Probable space group: P N C 2
;
_chemical_formula_sum "Si O2"
_cell_formula_units_Z 30
_cell_length_a 13.835733
_cell_length_b 12.027712
_cell_length_c 8.440105
_cell_angle_alpha 90.000000
_cell_angle_beta 90.000000
_cell_angle_gamma 90.000000
_cell_volume 1404.536541
_symmetry_space_group_name_H-M "P N C 2"
_symmetry_group_IT_number 30
_symmetry_cell_setting 'orthorhombic'
loop_
_space_group_symop_operation_xyz
x,y,z
-x,-y,z
-x,1/2+y,1/2+z
x,1/2-y,1/2+z
loop_
_atom_site_type_symbol
_atom_site_label
_atom_site_fract_x
_atom_site_fract_y
_atom_site_fract_z
Si Si1 0.184198 0.150029 0.447880
Si Si2 0.621214 0.905964 0.293889
Si Si3 0.421439 0.641649 0.900930
Si Si4 0.190892 0.962681 0.705435
Si Si5 0.000000 0.500000 0.403266
Si Si6 0.308205 0.748358 0.141670
Si Si7 0.116911 0.134930 0.122737
Si Si8 0.719540 0.013878 0.019145
O O1 0.286286 0.162588 0.354772
O O2 0.099731 0.148359 0.312349
O O3 0.169664 0.255024 0.559599
O O4 0.183348 0.039173 0.551402
O O5 0.525041 0.831428 0.319030
O O6 0.603707 0.011723 0.406214
O O7 0.631106 0.949893 0.110237
O O8 0.334493 0.704952 0.812542
O O9 0.406899 0.688173 0.077934
O O10 0.219071 0.838440 0.650124
O O11 0.271636 0.011412 0.830047
O O12 0.087469 0.961415 0.791772
O O13 0.022858 0.393899 0.517848
O O14 0.282040 0.853438 0.032101
O O15 0.184693 0.027293 0.107389
#
# Coordination Sequence:
#
# PCOD8169434 Si02
#       8
#     4   4   4   4   2   4   4   4
#     4  11  22  42  71  92 131 175 215 268 343 396
#     4   9  20  38  62  91 131 174 221 271 316 386
#     4  10  20  36  60  94 133 171 223 265 315 394
#     4  11  22  42  68  97 131 171 223 273 340 401
#     4  10  24  46  62 100 134 162 232 276 320 414
#     4  11  20  38  63  94 131 174 212 264 334 388
#     4  10  22  42  64  95 128 168 214 273 331 401
#     4   9  20  38  62  90 127 174 210 267 332 389
#
# _framework density 21.359359000000001
#
# number of rings (size 3 to 8) (size 9 to 14) (size 15 to 20)
#    0.000    1.867    2.667    1.600    0.000    2.667 
#    9.600    1.333    2.933    0.000    0.000    0.000 
#    0.000    0.000    0.000    0.000    0.000    0.000 
#
# Total GULP energy -371698.712098 kJ/mol
# GULP energy per Si atom -12389.957070 kJ/mol
# Density = 2.131074 g / cm^3
# Si number density = 21.359359 Si / 1000 Ang^3
#
#
#
# Elastic Constant Matrix: (Units=GPa)
#
#
# Indices 1 2 3 4 5 6 
#
# 1 87.9761 36.6176 32.8827 0.0000 0.0000 0.0000
# 2 36.6176 94.2765 38.4972 0.0000 0.0000 0.0000
# 3 32.8827 38.4972 113.2144 0.0000 0.0000 0.0000
# 4 0.0000 0.0000 0.0000 30.6717 0.0000 0.0000
# 5 0.0000 0.0000 0.0000 0.0000 32.8495 0.0000
# 6 0.0000 0.0000 0.0000 0.0000 0.0000 29.2802
#
#
#
# Elastic Compliance Matrix: (Units=1/GPa)
#
#
# Indices 1 2 3 4 5 6 
#
# 1 0.014193 -0.004447 -0.002610 0.000000 0.000000 0.000000
# 2 -0.004447 0.013711 -0.003371 0.000000 0.000000 0.000000
# 3 -0.002610 -0.003371 0.010737 0.000000 0.000000 0.000000
# 4 0.000000 0.000000 0.000000 0.032603 0.000000 0.000000
# 5 0.000000 0.000000 0.000000 0.000000 0.030442 0.000000
# 6 0.000000 0.000000 0.000000 0.000000 0.000000 0.034153
#
#
# Mechanical properties :
#
#
# Convention : Reuss Voigt Hill
#
# Bulk Modulus (GPa) = 56.22543 56.82912 56.52728
# Shear Modulus (GPa) = 30.74599 31.05825 30.90212
#
# Velocity S-wave (km/s) = 3.79814 3.81738 3.80777
# Velocity P-wave (km/s) = 6.75390 6.78924 6.77159
#
# Compressibility (1/GPa) = 0.01778555
#
# Stress axis : x y z
#
# Youngs Moduli (GPa) = 70.45609 72.93614 93.13530
#
# Poissons Ratio (x) = 0.32434 0.24311
# Poissons Ratio (y) = 0.31331 0.31392
# Poissons Ratio (z) = 0.18391 0.24584
#
# Static dielectric constant tensor:
#      x y z
#    x 3.856270 0.000000 0.000000 
#    y 0.000000 3.833660 0.000000 
#    z 0.000000 0.000000 4.112620 
# 
# 
# High freq. dielectric constant tensor:
#      x y z
#    x 1.809830 0.000000 0.000000 
#    y 0.000000 1.834730 0.000000 
#    z 0.000000 0.000000 1.848810 
# 
# From -- ./inp_files/2670.got.cif
#   From: 2010.03.12/outbox.cif.g09.slc.cpg/sg30_2_cif.got.tgz:2670.got - 2010.04.14 01:38:02.
