data_PCOD8169387
_publ_section_title
;
Structure prediction by ZEFSAII (Michael W. Deem and Ramdas Pophale) SiO2 
 PCOD8169387
Probable space group: P N C 2
;
_chemical_formula_sum "Si O2"
_cell_formula_units_Z 20
_cell_length_a 8.432237
_cell_length_b 8.250186
_cell_length_c 14.121250
_cell_angle_alpha 90.000000
_cell_angle_beta 90.000000
_cell_angle_gamma 90.000000
_cell_volume 982.380393
_symmetry_space_group_name_H-M "P N C 2"
_symmetry_group_IT_number 30
_symmetry_cell_setting 'orthorhombic'
loop_
_space_group_symop_operation_xyz
x,y,z
-x,-y,z
-x,1/2+y,1/2+z
x,1/2-y,1/2+z
loop_
_atom_site_type_symbol
_atom_site_label
_atom_site_fract_x
_atom_site_fract_y
_atom_site_fract_z
Si Si1 0.795926 0.213974 0.595440
Si Si2 0.458648 0.182558 0.651703
Si Si3 0.000000 0.500000 0.234136
Si Si4 0.674390 0.551619 0.969361
Si Si5 0.000000 0.000000 0.146001
Si Si6 0.201754 0.290207 0.785808
O O1 0.623455 0.276892 0.631537
O O2 0.872458 0.094538 0.671783
O O3 0.908545 0.370174 0.579275
O O4 0.771290 0.110646 0.499375
O O5 0.344732 0.175957 0.558304
O O6 0.374559 0.258846 0.741969
O O7 0.500000 0.000000 0.678168
O O8 0.902868 0.627626 0.298019
O O9 0.500000 0.500000 0.932725
O O10 0.777662 0.636738 0.889539
O O11 0.124001 0.083983 0.214793
#
# Coordination Sequence:
#
# PCOD8169387 Si02
#       6
#     4   4   2   4   2   4
#     4   9  19  39  63  91 126 171 204 260 322 380
#     4   9  18  39  67  86 124 174 206 260 317 377
#     4  10  18  37  67  92 130 162 202 257 339 368
#     4   9  20  38  65  93 120 172 219 260 318 373
#     4  10  24  35  61 100 126 168 204 255 335 380
#     4  11  21  38  66  96 126 165 217 262 318 391
#
# _framework density 20.358712000000001
#
# number of rings (size 3 to 8) (size 9 to 14) (size 15 to 20)
#    0.000    2.800    4.000    0.000    2.800    0.800 
#    0.000    1.000   13.200    0.000    0.000    0.000 
#    0.000    0.000    0.000    0.000    0.000    0.000 
#
# Total GULP energy -247891.118153 kJ/mol
# GULP energy per Si atom -12394.555908 kJ/mol
# Density = 2.031237 g / cm^3
# Si number density = 20.358712 Si / 1000 Ang^3
#
#
#
# Elastic Constant Matrix: (Units=GPa)
#
#
# Indices 1 2 3 4 5 6 
#
# 1 116.3720 62.7831 63.9787 0.0000 0.0000 0.0000
# 2 62.7831 112.5129 66.9423 0.0000 0.0000 0.0000
# 3 63.9787 66.9423 90.9084 0.0000 0.0000 0.0000
# 4 0.0000 0.0000 0.0000 33.7086 0.0000 0.0000
# 5 0.0000 0.0000 0.0000 0.0000 2.3492 0.0000
# 6 0.0000 0.0000 0.0000 0.0000 0.0000 33.1972
#
#
#
# Elastic Compliance Matrix: (Units=1/GPa)
#
#
# Indices 1 2 3 4 5 6 
#
# 1 0.014823 -0.003675 -0.007726 0.000000 0.000000 0.000000
# 2 -0.003675 0.016729 -0.009733 0.000000 0.000000 0.000000
# 3 -0.007726 -0.009733 0.023605 0.000000 0.000000 0.000000
# 4 0.000000 0.000000 0.000000 0.029666 0.000000 0.000000
# 5 0.000000 0.000000 0.000000 0.000000 0.425671 0.000000
# 6 0.000000 0.000000 0.000000 0.000000 0.000000 0.030123
#
#
# Mechanical properties :
#
#
# Convention : Reuss Voigt Hill
#
# Bulk Modulus (GPa) = 77.58186 78.57793 78.07989
# Shear Modulus (GPa) = 8.51526 22.25695 15.38611
#
# Velocity S-wave (km/s) = 2.04736 3.31000 2.75207
# Velocity P-wave (km/s) = 6.61658 7.29991 6.96663
#
# Compressibility (1/GPa) = 0.01288961
#
# Stress axis : x y z
#
# Youngs Moduli (GPa) = 67.46097 59.77643 42.36455
#
# Poissons Ratio (x) = 0.21965 0.32733
# Poissons Ratio (y) = 0.24789 0.41232
# Poissons Ratio (z) = 0.52124 0.58179
#
# Static dielectric constant tensor:
#      x y z
#    x 4.343230 0.000000 0.000000 
#    y 0.000000 3.690490 0.000000 
#    z 0.000000 0.000000 3.309030 
# 
# 
# High freq. dielectric constant tensor:
#      x y z
#    x 1.817110 0.000000 0.000000 
#    y 0.000000 1.787460 0.000000 
#    z 0.000000 0.000000 1.759960 
# 
# From -- ./inp_files/3551.got.cif
#   From: 2010.03.12/outbox.cif.g09.slc.cpg/sg30_2_cif.got.tgz:3551.got - 2010.04.14 01:38:02.
