data_PCOD8169987
_publ_section_title
;
Structure prediction by ZEFSAII (Michael W. Deem and Ramdas Pophale) SiO2 
 PCOD8169987
Probable space group: P M N 21
;
_chemical_formula_sum "Si O2"
_cell_formula_units_Z 24
_cell_length_a 13.337420
_cell_length_b 18.829577
_cell_length_c 4.909723
_cell_angle_alpha 90.000000
_cell_angle_beta 90.000000
_cell_angle_gamma 90.000000
_cell_volume 1233.017901
_symmetry_space_group_name_H-M "P M N 21"
_symmetry_group_IT_number 31
_symmetry_cell_setting 'orthorhombic'
loop_
_space_group_symop_operation_xyz
x,y,z
1/2-x,-y,1/2+z
-x,y,z
1/2+x,-y,1/2+z
loop_
_atom_site_type_symbol
_atom_site_label
_atom_site_fract_x
_atom_site_fract_y
_atom_site_fract_z
Si Si1 0.788264 0.543115 0.742860
Si Si2 0.313214 0.919821 0.228934
Si Si3 0.385152 0.002454 0.728602
Si Si4 0.171535 0.321122 0.204526
Si Si5 0.500000 0.583134 0.920387
Si Si6 0.000000 0.507402 0.917514
Si Si7 0.881742 0.235172 0.683581
O O1 0.780962 0.492684 0.476989
O O2 0.764314 0.625123 0.667774
O O3 0.901405 0.551164 0.845852
O O4 0.192891 0.931962 0.263151
O O5 0.352843 0.939079 0.929638
O O6 0.338075 0.838640 0.293718
O O7 0.375497 0.970769 0.427932
O O8 0.500000 0.028107 0.776820
O O9 0.183648 0.255197 0.414388
O O10 0.094309 0.370002 0.360068
O O11 0.135408 0.294151 0.913528
O O12 0.500000 0.512176 0.735677
O O13 0.500000 0.564988 0.240292
O O14 0.000000 0.229111 0.613917
#
# Coordination Sequence:
#
# PCOD8169987 Si02
#       7
#     4   4   4   4   2   2   4
#     4  12  23  37  59  82 107 141 185 233 275 326
#     4  10  22  35  57  89 113 145 186 224 269 323
#     4  10  19  37  60  84 115 146 184 228 268 312
#     4  12  23  35  54  82 110 145 179 224 280 335
#     4  12  20  36  58  84 106 144 180 218 294 334
#     4  12  22  38  60  80 108 136 184 238 278 322
#     4  12  22  35  55  81 116 145 176 223 276 330
#
# _framework density 19.464437
#
# number of rings (size 3 to 8) (size 9 to 14) (size 15 to 20)
#    0.000    0.667    5.000    4.500    0.000    0.000 
#    0.000    0.000    3.667    0.000    0.000    0.000 
#    0.000    0.000    0.000    0.000    0.000    0.000 
#
# Total GULP energy -297539.247477 kJ/mol
# GULP energy per Si atom -12397.468645 kJ/mol
# Density = 1.942013 g / cm^3
# Si number density = 19.464437 Si / 1000 Ang^3
#
#
#
# Elastic Constant Matrix: (Units=GPa)
#
#
# Indices 1 2 3 4 5 6 
#
# 1 113.0216 35.0225 -0.0078 0.0000 0.0000 0.0000
# 2 35.0225 90.7471 10.4444 0.0000 0.0000 0.0000
# 3 -0.0078 10.4444 69.7722 0.0000 0.0000 0.0000
# 4 0.0000 0.0000 0.0000 27.1908 0.0000 0.0000
# 5 0.0000 0.0000 0.0000 0.0000 25.8154 0.0000
# 6 0.0000 0.0000 0.0000 0.0000 0.0000 33.2908
#
#
#
# Elastic Compliance Matrix: (Units=1/GPa)
#
#
# Indices 1 2 3 4 5 6 
#
# 1 0.010074 -0.003956 0.000593 0.000000 0.000000 0.000000
# 2 -0.003956 0.012766 -0.001911 0.000000 0.000000 0.000000
# 3 0.000593 -0.001911 0.014619 0.000000 0.000000 0.000000
# 4 0.000000 0.000000 0.000000 0.036777 0.000000 0.000000
# 5 0.000000 0.000000 0.000000 0.000000 0.038736 0.000000
# 6 0.000000 0.000000 0.000000 0.000000 0.000000 0.030038
#
#
# Mechanical properties :
#
#
# Convention : Reuss Voigt Hill
#
# Bulk Modulus (GPa) = 37.16058 40.49546 38.82802
# Shear Modulus (GPa) = 30.76366 32.46486 31.61426
#
# Velocity S-wave (km/s) = 3.97987 4.08843 4.03452
# Velocity P-wave (km/s) = 6.34446 6.56788 6.45713
#
# Compressibility (1/GPa) = 0.02691024
#
# Stress axis : x y z
#
# Youngs Moduli (GPa) = 99.26733 78.33034 68.40623
#
# Poissons Ratio (x) = 0.30988 -0.04059
# Poissons Ratio (y) = 0.39271 0.13076
# Poissons Ratio (z) = -0.05890 0.14973
#
# Static dielectric constant tensor:
#      x y z
#    x 3.468240 0.000000 0.000000 
#    y 0.000000 3.534310 0.000000 
#    z 0.000000 0.000000 3.805870 
# 
# 
# High freq. dielectric constant tensor:
#      x y z
#    x 1.746970 0.000000 0.000000 
#    y 0.000000 1.735650 0.000000 
#    z 0.000000 0.000000 1.780540 
# 
# From -- ./inp_files/626.got.cif
#   From: 2010.03.12/outbox.cif.g09.slc.cpg/sg31_1_cif.got.tgz:626.got - 2010.04.14 01:42:59.
