data_PCOD8169121
_publ_section_title
;
Structure prediction by ZEFSAII (Michael W. Deem and Ramdas Pophale) SiO2 
 PCOD8169121
Probable space group: P C A 21
;
_chemical_formula_sum "Si O2"
_cell_formula_units_Z 32
_cell_length_a 11.681750
_cell_length_b 6.845063
_cell_length_c 17.518005
_cell_angle_alpha 90.000000
_cell_angle_beta 90.000000
_cell_angle_gamma 90.000000
_cell_volume 1400.780229
_symmetry_space_group_name_H-M "P C A 21"
_symmetry_group_IT_number 29
_symmetry_cell_setting 'orthorhombic'
loop_
_space_group_symop_operation_xyz
x,y,z
-x,-y,1/2+z
1/2-x,y,1/2+z
1/2+x,-y,z
loop_
_atom_site_type_symbol
_atom_site_label
_atom_site_fract_x
_atom_site_fract_y
_atom_site_fract_z
Si Si1 0.409169 0.018007 0.895950
Si Si2 0.212092 0.219354 0.649414
Si Si3 0.456658 0.218694 0.285239
Si Si4 0.482695 0.289231 0.027668
Si Si5 0.854880 0.367013 0.981732
Si Si6 0.216039 0.810989 0.109538
Si Si7 0.834969 0.450692 0.733372
Si Si8 0.734907 0.640100 0.878215
O O1 0.301874 0.154468 0.877566
O O2 0.477841 0.975576 0.816468
O O3 0.368670 0.803419 0.920369
O O4 0.483737 0.120617 0.962616
O O5 0.138606 0.154835 0.723637
O O6 0.127469 0.288949 0.583043
O O7 0.310789 0.373991 0.672924
O O8 0.283369 0.042995 0.612965
O O9 0.532850 0.388803 0.245877
O O10 0.396927 0.313695 0.360408
O O11 0.597402 0.266472 0.075048
O O12 0.471743 0.504353 0.988712
O O13 0.752972 0.517481 0.955815
O O14 0.822722 0.268310 0.061595
O O15 0.228554 0.735519 0.196136
O O16 0.782445 0.495447 0.814218
#
# Coordination Sequence:
#
# PCOD8169121 Si02
#       8
#     4   4   4   4   4   4   4   4
#     4  11  25  47  68 105 139 186 240 291 357 425
#     4  11  25  47  66 107 143 179 243 298 349 438
#     4  11  25  46  70 100 140 192 231 292 364 416
#     4  11  25  45  69 108 137 184 235 290 360 424
#     4  11  24  45  71 100 143 179 236 291 352 419
#     4  12  26  45  73 101 141 190 232 295 363 419
#     4  11  24  46  67 100 142 180 240 292 355 424
#     4  10  26  45  68 101 141 176 241 291 342 429
#
# _framework density 22.844411999999998
#
# number of rings (size 3 to 8) (size 9 to 14) (size 15 to 20)
#    0.000    1.000    5.000    0.000    7.000    1.000 
#   11.250    0.000    0.000    0.000    0.000    0.000 
#    0.000    0.000    0.000    0.000    0.000    0.000 
#
# Total GULP energy -396622.172285 kJ/mol
# GULP energy per Si atom -12394.442884 kJ/mol
# Density = 2.279242 g / cm^3
# Si number density = 22.844412 Si / 1000 Ang^3
#
#
#
# Elastic Constant Matrix: (Units=GPa)
#
#
# Indices 1 2 3 4 5 6 
#
# 1 67.5745 38.4399 21.8987 0.0000 0.0000 0.0000
# 2 38.4399 119.1505 33.0400 0.0000 0.0000 0.0000
# 3 21.8987 33.0400 79.4384 0.0000 0.0000 0.0000
# 4 0.0000 0.0000 0.0000 52.2525 0.0000 0.0000
# 5 0.0000 0.0000 0.0000 0.0000 34.5775 0.0000
# 6 0.0000 0.0000 0.0000 0.0000 0.0000 19.8278
#
#
#
# Elastic Compliance Matrix: (Units=1/GPa)
#
#
# Indices 1 2 3 4 5 6 
#
# 1 0.018735 -0.005213 -0.002996 0.000000 0.000000 0.000000
# 2 -0.005213 0.010938 -0.003112 0.000000 0.000000 0.000000
# 3 -0.002996 -0.003112 0.014709 0.000000 0.000000 0.000000
# 4 0.000000 0.000000 0.000000 0.019138 0.000000 0.000000
# 5 0.000000 0.000000 0.000000 0.000000 0.028921 0.000000
# 6 0.000000 0.000000 0.000000 0.000000 0.000000 0.050434
#
#
# Mechanical properties :
#
#
# Convention : Reuss Voigt Hill
#
# Bulk Modulus (GPa) = 46.00239 50.32453 48.16346
# Shear Modulus (GPa) = 28.94127 32.85054 30.89590
#
# Velocity S-wave (km/s) = 3.56320 3.79623 3.68156
# Velocity P-wave (km/s) = 6.09175 6.42590 6.26106
#
# Compressibility (1/GPa) = 0.02173800
#
# Stress axis : x y z
#
# Youngs Moduli (GPa) = 53.37561 91.42759 67.98684
#
# Poissons Ratio (x) = 0.47665 0.20371
# Poissons Ratio (y) = 0.27827 0.21158
# Poissons Ratio (z) = 0.15993 0.28452
#
# Static dielectric constant tensor:
#      x y z
#    x 4.007160 0.000000 0.000000 
#    y 0.000000 4.168050 0.000000 
#    z 0.000000 0.000000 4.373060 
# 
# 
# High freq. dielectric constant tensor:
#      x y z
#    x 1.881470 0.000000 0.000000 
#    y 0.000000 1.906450 0.000000 
#    z 0.000000 0.000000 1.920930 
# 
# From -- ./inp_files/5521.got.cif
#   From: 2010.03.12/outbox.cif.g09.slc.cpg/sg29_3_cif.got.tgz:5521.got - 2010.04.14 03:43:10.
