data_PCOD8169290
_publ_section_title
;
Structure prediction by ZEFSAII (Michael W. Deem and Ramdas Pophale) SiO2 
 PCOD8169290
Probable space group: P C A 21
;
_chemical_formula_sum "Si O2"
_cell_formula_units_Z 28
_cell_length_a 5.155605
_cell_length_b 22.896411
_cell_length_c 10.144712
_cell_angle_alpha 90.000000
_cell_angle_beta 90.000000
_cell_angle_gamma 90.000000
_cell_volume 1197.531017
_symmetry_space_group_name_H-M "P C A 21"
_symmetry_group_IT_number 29
_symmetry_cell_setting 'orthorhombic'
loop_
_space_group_symop_operation_xyz
x,y,z
-x,-y,1/2+z
1/2-x,y,1/2+z
1/2+x,-y,z
loop_
_atom_site_type_symbol
_atom_site_label
_atom_site_fract_x
_atom_site_fract_y
_atom_site_fract_z
Si Si1 0.927691 0.779318 0.145100
Si Si2 0.223154 0.385235 0.007374
Si Si3 0.835301 0.038179 0.297484
Si Si4 0.709956 0.310321 0.008926
Si Si5 0.463949 0.213358 0.430115
Si Si6 0.756746 0.112591 0.546240
Si Si7 0.170625 0.461565 0.754748
O O1 0.134467 0.725581 0.143071
O O2 0.032925 0.841640 0.097580
O O3 0.813707 0.788059 0.291192
O O4 0.705165 0.758155 0.045762
O O5 0.457766 0.344479 0.954269
O O6 0.309160 0.410242 0.148209
O O7 0.950018 0.353350 0.029727
O O8 0.183967 0.436244 0.901679
O O9 0.882302 0.069383 0.438442
O O10 0.870421 0.080566 0.171835
O O11 0.546514 0.012613 0.288481
O O12 0.788455 0.256617 0.910913
O O13 0.532811 0.147277 0.468645
O O14 0.393383 0.508877 0.733073
#
# Coordination Sequence:
#
# PCOD8169290 Si02
#       7
#     4   4   4   4   4   4   4
#     4  11  26  46  76 107 153 192 243 297 358 463
#     4  12  26  45  76 104 148 187 238 308 360 424
#     4  12  28  48  74 106 144 186 248 308 360 426
#     4  11  26  45  70 114 142 187 236 295 372 424
#     4  11  26  46  76 107 153 192 243 297 358 463
#     4  11  26  46  72 108 142 200 236 297 372 432
#     4  12  26  48  72 104 140 192 248 296 358 424
#
# _framework density 23.381439
#
# number of rings (size 3 to 8) (size 9 to 14) (size 15 to 20)
#    0.000    0.571    2.857    3.429   10.000    1.143 
#    0.000    0.000    0.000    0.000    0.000    0.000 
#    0.000    0.000    0.000    0.000    0.000    0.000 
#
# Total GULP energy -347130.841008 kJ/mol
# GULP energy per Si atom -12397.530036 kJ/mol
# Density = 2.332822 g / cm^3
# Si number density = 23.381439 Si / 1000 Ang^3
#
#
#
# Elastic Constant Matrix: (Units=GPa)
#
#
# Indices 1 2 3 4 5 6 
#
# 1 91.9081 21.3224 17.0739 0.0000 0.0000 0.0000
# 2 21.3224 87.9732 9.8985 0.0000 0.0000 0.0000
# 3 17.0739 9.8985 122.3072 0.0000 0.0000 0.0000
# 4 0.0000 0.0000 0.0000 14.2334 0.0000 0.0000
# 5 0.0000 0.0000 0.0000 0.0000 27.0662 0.0000
# 6 0.0000 0.0000 0.0000 0.0000 0.0000 31.5205
#
#
#
# Elastic Compliance Matrix: (Units=1/GPa)
#
#
# Indices 1 2 3 4 5 6 
#
# 1 0.011770 -0.002692 -0.001425 0.000000 0.000000 0.000000
# 2 -0.002692 0.012087 -0.000602 0.000000 0.000000 0.000000
# 3 -0.001425 -0.000602 0.008424 0.000000 0.000000 0.000000
# 4 0.000000 0.000000 0.000000 0.070257 0.000000 0.000000
# 5 0.000000 0.000000 0.000000 0.000000 0.036946 0.000000
# 6 0.000000 0.000000 0.000000 0.000000 0.000000 0.031725
#
#
# Mechanical properties :
#
#
# Convention : Reuss Voigt Hill
#
# Bulk Modulus (GPa) = 43.78039 44.30867 44.04453
# Shear Modulus (GPa) = 26.55848 31.49027 29.02437
#
# Velocity S-wave (km/s) = 3.37394 3.67387 3.52709
# Velocity P-wave (km/s) = 5.82606 6.08177 5.95529
#
# Compressibility (1/GPa) = 0.02284128
#
# Stress axis : x y z
#
# Youngs Moduli (GPa) = 84.96325 82.73055 118.71073
#
# Poissons Ratio (x) = 0.22274 0.16918
# Poissons Ratio (y) = 0.22875 0.07151
# Poissons Ratio (z) = 0.12109 0.04984
#
# Static dielectric constant tensor:
#      x y z
#    x 4.253280 0.000000 0.000000 
#    y 0.000000 4.360400 0.000000 
#    z 0.000000 0.000000 4.242040 
# 
# 
# High freq. dielectric constant tensor:
#      x y z
#    x 1.925020 0.000000 0.000000 
#    y 0.000000 1.943330 0.000000 
#    z 0.000000 0.000000 1.924930 
# 
# From -- ./inp_files/1005.got.cif
#   From: 2010.03.12/outbox.cif.g09.slc.cpg/sg29_1_cif.got.tgz:1005.got - 2010.04.14 03:43:10.
