data_PCOD8169471
_publ_section_title
;
Structure prediction by ZEFSAII (Michael W. Deem and Ramdas Pophale) SiO2 
 PCOD8169471
Probable space group: P N C 2
;
_chemical_formula_sum "Si O2"
_cell_formula_units_Z 14
_cell_length_a 7.604163
_cell_length_b 13.415559
_cell_length_c 5.246240
_cell_angle_alpha 90.000000
_cell_angle_beta 90.000000
_cell_angle_gamma 90.000000
_cell_volume 535.190438
_symmetry_space_group_name_H-M "P N C 2"
_symmetry_group_IT_number 30
_symmetry_cell_setting 'orthorhombic'
loop_
_space_group_symop_operation_xyz
x,y,z
-x,-y,z
-x,1/2+y,1/2+z
x,1/2-y,1/2+z
loop_
_atom_site_type_symbol
_atom_site_label
_atom_site_fract_x
_atom_site_fract_y
_atom_site_fract_z
Si Si1 0.524587 0.618528 0.626060
Si Si2 0.657974 0.577196 0.122707
Si Si3 0.000000 0.000000 0.385016
Si Si4 0.865760 0.191235 0.123726
O O1 0.500000 0.500000 0.667218
O O2 0.654326 0.640490 0.386058
O O3 0.342760 0.676258 0.608559
O O4 0.621642 0.652791 0.887534
O O5 0.500000 0.500000 0.167408
O O6 0.837838 0.517531 0.076324
O O7 0.964547 0.089836 0.191225
O O8 0.921023 0.270570 0.343338
#
# Coordination Sequence:
#
# PCOD8169471 Si02
#       4
#     4   4   2   4
#     4  10  20  44  71 103 144 194 257 309 403 457
#     4  10  21  40  76 109 134 208 250 312 406 459
#     4  12  26  50  84 110 172 204 274 344 394 484
#     4  12  28  48  76 118 162 213 267 337 404 470
#
# _framework density 26.158912999999998
#
# number of rings (size 3 to 8) (size 9 to 14) (size 15 to 20)
#    0.000    1.143    5.714    1.714    4.000    4.571 
#    0.000    8.571    0.000    0.000    0.000    0.000 
#    0.000    0.000    0.000    0.000    0.000    0.000 
#
# Total GULP energy -173536.366830 kJ/mol
# GULP energy per Si atom -12395.454774 kJ/mol
# Density = 2.609937 g / cm^3
# Si number density = 26.158913 Si / 1000 Ang^3
#
#
#
# Elastic Constant Matrix: (Units=GPa)
#
#
# Indices 1 2 3 4 5 6 
#
# 1 102.7281 16.6834 -7.2466 0.0000 0.0000 0.0000
# 2 16.6834 85.0668 5.9833 0.0000 0.0000 0.0000
# 3 -7.2466 5.9833 180.9596 0.0000 0.0000 0.0000
# 4 0.0000 0.0000 0.0000 9.2812 0.0000 0.0000
# 5 0.0000 0.0000 0.0000 0.0000 14.0656 0.0000
# 6 0.0000 0.0000 0.0000 0.0000 0.0000 43.6384
#
#
#
# Elastic Compliance Matrix: (Units=1/GPa)
#
#
# Indices 1 2 3 4 5 6 
#
# 1 0.010095 -0.002013 0.000471 0.000000 0.000000 0.000000
# 2 -0.002013 0.012184 -0.000483 0.000000 0.000000 0.000000
# 3 0.000471 -0.000483 0.005561 0.000000 0.000000 0.000000
# 4 0.000000 0.000000 0.000000 0.107745 0.000000 0.000000
# 5 0.000000 0.000000 0.000000 0.000000 0.071095 0.000000
# 6 0.000000 0.000000 0.000000 0.000000 0.000000 0.022916
#
#
# Mechanical properties :
#
#
# Convention : Reuss Voigt Hill
#
# Bulk Modulus (GPa) = 42.03690 44.39943 43.21816
# Shear Modulus (GPa) = 20.69742 36.95266 28.82504
#
# Velocity S-wave (km/s) = 2.81591 3.76256 3.32312
# Velocity P-wave (km/s) = 5.16500 5.99046 5.59298
#
# Compressibility (1/GPa) = 0.02378863
#
# Stress axis : x y z
#
# Youngs Moduli (GPa) = 99.06339 82.07322 179.82593
#
# Poissons Ratio (x) = 0.16520 -0.08466
# Poissons Ratio (y) = 0.19940 0.08694
# Poissons Ratio (z) = -0.04664 0.03968
#
# Static dielectric constant tensor:
#      x y z
#    x 4.560660 0.000000 0.000000 
#    y 0.000000 4.399450 0.000000 
#    z 0.000000 0.000000 6.473130 
# 
# 
# High freq. dielectric constant tensor:
#      x y z
#    x 2.033200 0.000000 0.000000 
#    y 0.000000 2.024680 0.000000 
#    z 0.000000 0.000000 2.081220 
# 
# From -- ./inp_files/283.got.cif
#   From: 2010.03.12/outbox.cif.g09.slc.cpg/sg30_1_cif.got.tgz:283.got - 2010.04.14 01:38:02.
