data_PCOD8169794
_publ_section_title
;
Structure prediction by ZEFSAII (Michael W. Deem and Ramdas Pophale) SiO2 
 PCOD8169794
Probable space group: P M N 21
;
_chemical_formula_sum "Si O2"
_cell_formula_units_Z 32
_cell_length_a 9.090561
_cell_length_b 14.494505
_cell_length_c 14.059984
_cell_angle_alpha 90.000000
_cell_angle_beta 90.000000
_cell_angle_gamma 90.000000
_cell_volume 1852.588229
_symmetry_space_group_name_H-M "P M N 21"
_symmetry_group_IT_number 31
_symmetry_cell_setting 'orthorhombic'
loop_
_space_group_symop_operation_xyz
x,y,z
1/2-x,-y,1/2+z
-x,y,z
1/2+x,-y,1/2+z
loop_
_atom_site_type_symbol
_atom_site_label
_atom_site_fract_x
_atom_site_fract_y
_atom_site_fract_z
Si Si1 0.833945 0.697966 0.843530
Si Si2 0.325303 0.608808 0.002855
Si Si3 0.328009 0.014473 0.109902
Si Si4 0.675060 0.651410 0.213660
Si Si5 0.665981 0.504027 0.362346
Si Si6 0.329164 0.017880 0.892765
Si Si7 0.172724 0.144065 0.753498
Si Si8 0.827607 0.142042 0.248842
O O1 0.745768 0.695124 0.944489
O O2 0.836987 0.592737 0.803210
O O3 0.749855 0.760646 0.767639
O O4 0.000000 0.734875 0.859702
O O5 0.500000 0.614349 0.994013
O O6 0.265528 0.512149 0.957224
O O7 0.269964 0.616143 0.111153
O O8 0.500000 0.036391 0.120988
O O9 0.285584 0.920221 0.163964
O O10 0.237029 0.099856 0.152114
O O11 0.280506 0.002425 0.000997
O O12 0.500000 0.650139 0.214433
O O13 0.735754 0.583183 0.295634
O O14 0.735679 0.754004 0.233206
O O15 0.500000 0.530607 0.393952
O O16 0.500000 0.040517 0.883783
O O17 0.243988 0.105127 0.849669
O O18 0.288668 0.924940 0.836600
O O19 0.000000 0.147440 0.770021
O O20 0.000000 0.157806 0.236352
#
# Coordination Sequence:
#
# PCOD8169794 Si02
#       8
#     4   4   4   4   4   4   4   4
#     4   9  18  32  50  71 100 130 159 201 253 302
#     4   9  17  30  52  77  98 125 168 210 245 295
#     4   9  18  32  50  71  99 135 171 204 252 307
#     4   9  17  32  55  76 100 134 171 210 255 303
#     4   8  17  33  49  70 102 133 161 202 255 304
#     4   9  19  34  50  71 103 136 164 208 258 300
#     4   9  18  32  53  77  98 130 173 211 249 303
#     4  10  19  31  51  75 100 129 169 214 251 292
#
# _framework density 17.273132
#
# number of rings (size 3 to 8) (size 9 to 14) (size 15 to 20)
#    0.750    2.250    0.000    0.750    1.750    1.000 
#    0.000    4.375    0.000    4.500    0.000    0.000 
#    0.000    0.000    0.000    0.000    0.000    0.000 
#
# Total GULP energy -396613.350185 kJ/mol
# GULP energy per Si atom -12394.167193 kJ/mol
# Density = 1.723382 g / cm^3
# Si number density = 17.273132 Si / 1000 Ang^3
#
#
#
# Elastic Constant Matrix: (Units=GPa)
#
#
# Indices 1 2 3 4 5 6 
#
# 1 57.6595 27.4757 29.6655 0.0000 0.0000 0.0000
# 2 27.4757 92.0013 47.4154 0.0000 0.0000 0.0000
# 3 29.6655 47.4154 94.6992 0.0000 0.0000 0.0000
# 4 0.0000 0.0000 0.0000 24.4312 0.0000 0.0000
# 5 0.0000 0.0000 0.0000 0.0000 26.6143 0.0000
# 6 0.0000 0.0000 0.0000 0.0000 0.0000 22.4974
#
#
#
# Elastic Compliance Matrix: (Units=1/GPa)
#
#
# Indices 1 2 3 4 5 6 
#
# 1 0.021724 -0.004017 -0.004794 0.000000 0.000000 0.000000
# 2 -0.004017 0.015393 -0.006449 0.000000 0.000000 0.000000
# 3 -0.004794 -0.006449 0.015290 0.000000 0.000000 0.000000
# 4 0.000000 0.000000 0.000000 0.040931 0.000000 0.000000
# 5 0.000000 0.000000 0.000000 0.000000 0.037574 0.000000
# 6 0.000000 0.000000 0.000000 0.000000 0.000000 0.044450
#
#
# Mechanical properties :
#
#
# Convention : Reuss Voigt Hill
#
# Bulk Modulus (GPa) = 45.68803 50.38593 48.03698
# Shear Modulus (GPa) = 23.45477 24.02880 23.74178
#
# Velocity S-wave (km/s) = 3.68893 3.73380 3.71144
# Velocity P-wave (km/s) = 6.68222 6.91533 6.79978
#
# Compressibility (1/GPa) = 0.02188757
#
# Stress axis : x y z
#
# Youngs Moduli (GPa) = 46.03239 64.96655 65.40106
#
# Poissons Ratio (x) = 0.26097 0.31353
# Poissons Ratio (y) = 0.18491 0.42174
# Poissons Ratio (z) = 0.22067 0.41894
#
# Static dielectric constant tensor:
#      x y z
#    x 3.086390 0.000000 0.000000 
#    y 0.000000 3.180400 0.000000 
#    z 0.000000 0.000000 3.167480 
# 
# 
# High freq. dielectric constant tensor:
#      x y z
#    x 1.659080 0.000000 0.000000 
#    y 0.000000 1.655350 0.000000 
#    z 0.000000 0.000000 1.654250 
# 
# From -- ./inp_files/5135.got.cif
#   From: 2010.03.12/outbox.cif.g09.slc.cpg/sg31_3_cif.got.tgz:5135.got - 2010.04.14 01:42:59.
