data_PCOD8169804
_publ_section_title
;
Structure prediction by ZEFSAII (Michael W. Deem and Ramdas Pophale) SiO2 
 PCOD8169804
Probable space group: P M N 21
;
_chemical_formula_sum "Si O2"
_cell_formula_units_Z 32
_cell_length_a 8.901416
_cell_length_b 21.700359
_cell_length_c 9.615283
_cell_angle_alpha 90.000000
_cell_angle_beta 90.000000
_cell_angle_gamma 90.000000
_cell_volume 1857.325783
_symmetry_space_group_name_H-M "P M N 21"
_symmetry_group_IT_number 31
_symmetry_cell_setting 'orthorhombic'
loop_
_space_group_symop_operation_xyz
x,y,z
1/2-x,-y,1/2+z
-x,y,z
1/2+x,-y,1/2+z
loop_
_atom_site_type_symbol
_atom_site_label
_atom_site_fract_x
_atom_site_fract_y
_atom_site_fract_z
Si Si1 0.830576 0.938333 0.448780
Si Si2 0.827189 0.627877 0.896547
Si Si3 0.676782 0.268666 0.181687
Si Si4 0.330442 0.023869 0.242760
Si Si5 0.178273 0.139337 0.158954
Si Si6 0.824486 0.599971 0.202843
Si Si7 0.823354 0.460441 0.196574
Si Si8 0.322357 0.640006 0.478442
O O1 0.831984 0.988265 0.575681
O O2 0.741412 0.877686 0.504028
O O3 0.000000 0.919311 0.407624
O O4 0.749367 0.966462 0.315335
O O5 0.783544 0.690400 0.816867
O O6 0.737233 0.569622 0.837766
O O7 0.000000 0.611249 0.872299
O O8 0.792373 0.636197 0.059534
O O9 0.500000 0.258205 0.163544
O O10 0.758712 0.204461 0.207326
O O11 0.741818 0.300542 0.043659
O O12 0.500000 0.030972 0.300366
O O13 0.238812 0.087737 0.268685
O O14 0.000000 0.139930 0.157487
O O15 0.764664 0.530119 0.184346
O O16 0.729485 0.634236 0.320084
O O17 0.000000 0.601175 0.242619
O O18 0.769560 0.420975 0.062711
O O19 0.000000 0.459575 0.204265
O O20 0.500000 0.649963 0.485777
#
# Coordination Sequence:
#
# PCOD8169804 Si02
#       8
#     4   4   4   4   4   4   4   4
#     4   9  18  31  51  79 109 138 170 205 248 295
#     4   9  19  33  51  71  96 129 165 205 251 299
#     4  10  19  35  55  73  95 129 173 212 247 299
#     4   9  18  31  51  79 109 138 170 206 248 296
#     4  10  19  32  54  78 104 137 171 210 251 297
#     4  10  19  32  48  70  99 128 158 203 257 305
#     4   9  18  31  48  71  98 126 162 202 248 305
#     4  10  20  33  50  73  98 129 165 207 252 300
#
# _framework density 17.229073
#
# number of rings (size 3 to 8) (size 9 to 14) (size 15 to 20)
#    0.750    1.750    0.000    3.000    0.000    3.000 
#    0.000    0.000    2.750    0.000    0.000    0.000 
#    0.000    0.000    0.000    0.000    0.000    0.000 
#
# Total GULP energy -396674.304435 kJ/mol
# GULP energy per Si atom -12396.072014 kJ/mol
# Density = 1.718986 g / cm^3
# Si number density = 17.229073 Si / 1000 Ang^3
#
#
#
# Elastic Constant Matrix: (Units=GPa)
#
#
# Indices 1 2 3 4 5 6 
#
# 1 84.4626 21.3388 14.4458 0.0000 0.0000 0.0000
# 2 21.3388 52.8036 8.4004 0.0000 0.0000 0.0000
# 3 14.4458 8.4004 63.5290 0.0000 0.0000 0.0000
# 4 0.0000 0.0000 0.0000 16.8241 0.0000 0.0000
# 5 0.0000 0.0000 0.0000 0.0000 27.9348 0.0000
# 6 0.0000 0.0000 0.0000 0.0000 0.0000 29.2017
#
#
#
# Elastic Compliance Matrix: (Units=1/GPa)
#
#
# Indices 1 2 3 4 5 6 
#
# 1 0.013536 -0.005088 -0.002405 0.000000 0.000000 0.000000
# 2 -0.005088 0.021257 -0.001654 0.000000 0.000000 0.000000
# 3 -0.002405 -0.001654 0.016506 0.000000 0.000000 0.000000
# 4 0.000000 0.000000 0.000000 0.059438 0.000000 0.000000
# 5 0.000000 0.000000 0.000000 0.000000 0.035798 0.000000
# 6 0.000000 0.000000 0.000000 0.000000 0.000000 0.034245
#
#
# Mechanical properties :
#
#
# Convention : Reuss Voigt Hill
#
# Bulk Modulus (GPa) = 30.29724 32.12948 31.21336
# Shear Modulus (GPa) = 23.80086 25.23280 24.51683
#
# Velocity S-wave (km/s) = 3.72080 3.83109 3.77635
# Velocity P-wave (km/s) = 6.00685 6.18535 6.09675
#
# Compressibility (1/GPa) = 0.03300631
#
# Stress axis : x y z
#
# Youngs Moduli (GPa) = 73.87557 47.04285 60.58224
#
# Poissons Ratio (x) = 0.23933 0.14572
# Poissons Ratio (y) = 0.37585 0.10020
# Poissons Ratio (z) = 0.17769 0.07781
#
# Static dielectric constant tensor:
#      x y z
#    x 3.242350 0.000000 0.000000 
#    y 0.000000 3.052610 0.000000 
#    z 0.000000 0.000000 3.086880 
# 
# 
# High freq. dielectric constant tensor:
#      x y z
#    x 1.675940 0.000000 0.000000 
#    y 0.000000 1.643670 0.000000 
#    z 0.000000 0.000000 1.649630 
# 
# From -- ./inp_files/1890.got.cif
#   From: 2010.03.12/outbox.cif.g09.slc.cpg/sg31_1_cif.got.tgz:1890.got - 2010.04.14 01:42:59.
