data_PCOD8169439
_publ_section_title
;
Structure prediction by ZEFSAII (Michael W. Deem and Ramdas Pophale) SiO2 
 PCOD8169439
Probable space group: P N C 2
;
_chemical_formula_sum "Si O2"
_cell_formula_units_Z 32
_cell_length_a 8.260461
_cell_length_b 20.833749
_cell_length_c 9.481727
_cell_angle_alpha 90.000000
_cell_angle_beta 90.000000
_cell_angle_gamma 90.000000
_cell_volume 1631.770808
_symmetry_space_group_name_H-M "P N C 2"
_symmetry_group_IT_number 30
_symmetry_cell_setting 'orthorhombic'
loop_
_space_group_symop_operation_xyz
x,y,z
-x,-y,z
-x,1/2+y,1/2+z
x,1/2-y,1/2+z
loop_
_atom_site_type_symbol
_atom_site_label
_atom_site_fract_x
_atom_site_fract_y
_atom_site_fract_z
Si Si1 0.152218 0.739187 0.938660
Si Si2 0.394803 0.289978 0.274538
Si Si3 0.649923 0.037210 0.810840
Si Si4 0.387648 0.652308 0.495737
Si Si5 0.965765 0.690161 0.202251
Si Si6 0.585041 0.340802 0.803998
Si Si7 0.873952 0.950834 0.657749
Si Si8 0.541429 0.899478 0.569074
O O1 0.281743 0.783519 0.019023
O O2 0.239975 0.677909 0.868340
O O3 0.093534 0.784287 0.812919
O O4 0.012623 0.715235 0.045407
O O5 0.443396 0.330052 0.415825
O O6 0.203936 0.281850 0.256002
O O7 0.472290 0.220753 0.281943
O O8 0.458965 0.328564 0.138297
O O9 0.703117 0.097584 0.905034
O O10 0.587134 0.057835 0.654528
O O11 0.500000 0.000000 0.885896
O O12 0.802833 0.989610 0.793440
O O13 0.410142 0.624435 0.652542
O O14 0.969386 0.612800 0.206019
O O15 0.508354 0.393255 0.907335
O O16 0.721424 0.929865 0.563226
O O17 0.000000 0.000000 0.580741
#
# Coordination Sequence:
#
# PCOD8169439 Si02
#       8
#     4   4   4   4   4   4   4   4
#     4  11  23  38  57  92 125 157 193 248 312 376
#     4   9  20  35  57  86 122 160 195 241 306 377
#     4   9  19  39  62  84 112 156 216 249 283 361
#     4  10  20  37  61  87 120 158 203 254 303 364
#     4  11  24  38  60  91 125 157 198 250 314 363
#     4  11  21  35  58  90 122 159 191 252 308 365
#     4  10  21  38  62  89 111 159 205 253 285 354
#     4   9  20  36  59  86 117 156 205 246 292 356
#
# _framework density 19.610598
#
# number of rings (size 3 to 8) (size 9 to 14) (size 15 to 20)
#    0.000    2.000    1.250    3.000   10.500    0.000 
#    0.000    1.875    0.000    1.500    3.250    0.000 
#    0.000    0.000    0.000    0.000    0.000    0.000 
#
# Total GULP energy -396630.864987 kJ/mol
# GULP energy per Si atom -12394.714531 kJ/mol
# Density = 1.956596 g / cm^3
# Si number density = 19.610598 Si / 1000 Ang^3
#
#
#
# Elastic Constant Matrix: (Units=GPa)
#
#
# Indices 1 2 3 4 5 6 
#
# 1 83.8567 35.1549 39.1231 0.0000 0.0000 0.0000
# 2 35.1549 94.9752 37.6528 0.0000 0.0000 0.0000
# 3 39.1231 37.6528 129.9613 0.0000 0.0000 0.0000
# 4 0.0000 0.0000 0.0000 13.8366 0.0000 0.0000
# 5 0.0000 0.0000 0.0000 0.0000 21.3738 0.0000
# 6 0.0000 0.0000 0.0000 0.0000 0.0000 35.8964
#
#
#
# Elastic Compliance Matrix: (Units=1/GPa)
#
#
# Indices 1 2 3 4 5 6 
#
# 1 0.015307 -0.004337 -0.003351 0.000000 0.000000 0.000000
# 2 -0.004337 0.013124 -0.002497 0.000000 0.000000 0.000000
# 3 -0.003351 -0.002497 0.009427 0.000000 0.000000 0.000000
# 4 0.000000 0.000000 0.000000 0.072272 0.000000 0.000000
# 5 0.000000 0.000000 0.000000 0.000000 0.046786 0.000000
# 6 0.000000 0.000000 0.000000 0.000000 0.000000 0.027858
#
#
# Mechanical properties :
#
#
# Convention : Reuss Voigt Hill
#
# Bulk Modulus (GPa) = 57.18384 59.18388 58.18386
# Shear Modulus (GPa) = 23.69956 27.34551 25.52253
#
# Velocity S-wave (km/s) = 3.48013 3.73825 3.61150
# Velocity P-wave (km/s) = 6.73583 6.99126 6.86473
#
# Compressibility (1/GPa) = 0.01748746
#
# Stress axis : x y z
#
# Youngs Moduli (GPa) = 65.32979 76.19450 106.07997
#
# Poissons Ratio (x) = 0.33047 0.35551
# Poissons Ratio (y) = 0.28335 0.26486
# Poissons Ratio (z) = 0.21894 0.19024
#
# Static dielectric constant tensor:
#      x y z
#    x 3.595870 0.000000 0.000000 
#    y 0.000000 3.627480 0.000000 
#    z 0.000000 0.000000 3.425660 
# 
# 
# High freq. dielectric constant tensor:
#      x y z
#    x 1.763100 0.000000 0.000000 
#    y 0.000000 1.764400 0.000000 
#    z 0.000000 0.000000 1.738980 
# 
# From -- ./inp_files/2150.got.cif
#   From: 2010.03.12/outbox.cif.g09.slc.cpg/sg30_2_cif.got.tgz:2150.got - 2010.04.14 01:38:02.
