data_PCOD8169863
_publ_section_title
;
Structure prediction by ZEFSAII (Michael W. Deem and Ramdas Pophale) SiO2 
 PCOD8169863
Probable space group: P M N 21
;
_chemical_formula_sum "Si O2"
_cell_formula_units_Z 32
_cell_length_a 9.716064
_cell_length_b 13.291929
_cell_length_c 13.022523
_cell_angle_alpha 90.000000
_cell_angle_beta 90.000000
_cell_angle_gamma 90.000000
_cell_volume 1681.796765
_symmetry_space_group_name_H-M "P M N 21"
_symmetry_group_IT_number 31
_symmetry_cell_setting 'orthorhombic'
loop_
_space_group_symop_operation_xyz
x,y,z
1/2-x,-y,1/2+z
-x,y,z
1/2+x,-y,1/2+z
loop_
_atom_site_type_symbol
_atom_site_label
_atom_site_fract_x
_atom_site_fract_y
_atom_site_fract_z
Si Si1 0.338701 0.408032 0.155630
Si Si2 0.347867 0.875643 0.830376
Si Si3 0.841067 0.957175 0.180563
Si Si4 0.153208 0.979505 0.515030
Si Si5 0.837093 0.756482 0.491239
Si Si6 0.340135 0.312202 0.371713
Si Si7 0.663392 0.401374 0.592518
Si Si8 0.338443 0.252213 0.767623
O O1 0.500000 0.433539 0.140282
O O2 0.305970 0.383538 0.274631
O O3 0.244757 0.498010 0.117634
O O4 0.292805 0.313949 0.085302
O O5 0.500000 0.825653 0.823566
O O6 0.239526 0.792162 0.861825
O O7 0.307292 0.931715 0.725091
O O8 0.353562 0.971357 0.904231
O O9 0.749357 0.946583 0.079829
O O10 0.798532 0.864548 0.253551
O O11 0.000000 0.946999 0.149619
O O12 0.000000 0.974342 0.563659
O O13 0.220600 0.868473 0.509561
O O14 0.781478 0.714841 0.380504
O O15 0.000000 0.764903 0.482310
O O16 0.500000 0.283623 0.372765
O O17 0.297189 0.366893 0.477187
O O18 0.500000 0.420623 0.601177
O O19 0.720507 0.319968 0.674687
O O20 0.500000 0.267593 0.763804
#
# Coordination Sequence:
#
# PCOD8169863 Si02
#       8
#     4   4   4   4   4   4   4   4
#     4  10  22  38  59  83 109 145 187 232 282 333
#     4  10  20  34  55  84 114 146 185 228 269 320
#     4  10  19  33  54  81 113 147 185 226 267 321
#     4  10  19  33  54  81 113 147 185 226 267 321
#     4   9  17  33  56  80 106 143 188 223 262 327
#     4  10  22  40  57  82 118 150 183 228 285 344
#     4  10  22  38  59  83 109 145 187 232 282 333
#     4   9  17  33  56  80 106 143 188 223 262 327
#
# _framework density 19.027270000000001
#
# number of rings (size 3 to 8) (size 9 to 14) (size 15 to 20)
#    0.000    2.250    1.250    1.500    1.750    4.000 
#    0.000    1.250    0.000    1.500    0.000    0.000 
#    0.000    0.000    0.000    0.000    0.000    0.000 
#
# Total GULP energy -396634.360773 kJ/mol
# GULP energy per Si atom -12394.823774 kJ/mol
# Density = 1.898396 g / cm^3
# Si number density = 19.027270 Si / 1000 Ang^3
#
#
#
# Elastic Constant Matrix: (Units=GPa)
#
#
# Indices 1 2 3 4 5 6 
#
# 1 43.1642 40.0669 24.6652 0.0000 0.0000 0.0000
# 2 40.0669 94.7401 30.4603 0.0000 0.0000 0.0000
# 3 24.6652 30.4603 114.8974 0.0000 0.0000 0.0000
# 4 0.0000 0.0000 0.0000 28.6530 0.0000 0.0000
# 5 0.0000 0.0000 0.0000 0.0000 19.8039 0.0000
# 6 0.0000 0.0000 0.0000 0.0000 0.0000 32.1892
#
#
#
# Elastic Compliance Matrix: (Units=1/GPa)
#
#
# Indices 1 2 3 4 5 6 
#
# 1 0.040163 -0.015538 -0.004503 0.000000 0.000000 0.000000
# 2 -0.015538 0.017550 -0.001317 0.000000 0.000000 0.000000
# 3 -0.004503 -0.001317 0.010019 0.000000 0.000000 0.000000
# 4 0.000000 0.000000 0.000000 0.034900 0.000000 0.000000
# 5 0.000000 0.000000 0.000000 0.000000 0.050495 0.000000
# 6 0.000000 0.000000 0.000000 0.000000 0.000000 0.031066
#
#
# Mechanical properties :
#
#
# Convention : Reuss Voigt Hill
#
# Bulk Modulus (GPa) = 39.97290 49.24297 44.60794
# Shear Modulus (GPa) = 21.25414 26.63651 23.94533
#
# Velocity S-wave (km/s) = 3.34583 3.74560 3.55135
# Velocity P-wave (km/s) = 5.99833 6.68150 6.34911
#
# Compressibility (1/GPa) = 0.02501695
#
# Stress axis : x y z
#
# Youngs Moduli (GPa) = 24.89840 56.98060 99.80857
#
# Poissons Ratio (x) = 0.88536 0.44941
# Poissons Ratio (y) = 0.38687 0.13145
# Poissons Ratio (z) = 0.11211 0.07505
#
# Static dielectric constant tensor:
#      x y z
#    x 3.204450 0.000000 0.000000 
#    y 0.000000 3.354490 0.000000 
#    z 0.000000 0.000000 3.815300 
# 
# 
# High freq. dielectric constant tensor:
#      x y z
#    x 1.706740 0.000000 0.000000 
#    y 0.000000 1.736890 0.000000 
#    z 0.000000 0.000000 1.756800 
# 
# From -- ./inp_files/3740.got.cif
#   From: 2010.03.12/outbox.cif.g09.slc.cpg/sg31_2_cif.got.tgz:3740.got - 2010.04.14 01:42:59.
