data_PCOD8169872
_publ_section_title
;
Structure prediction by ZEFSAII (Michael W. Deem and Ramdas Pophale) SiO2 
 PCOD8169872
Probable space group: P M N 21
;
_chemical_formula_sum "Si O2"
_cell_formula_units_Z 32
_cell_length_a 29.837474
_cell_length_b 6.922262
_cell_length_c 8.444648
_cell_angle_alpha 90.000000
_cell_angle_beta 90.000000
_cell_angle_gamma 90.000000
_cell_volume 1744.181348
_symmetry_space_group_name_H-M "P M N 21"
_symmetry_group_IT_number 31
_symmetry_cell_setting 'orthorhombic'
loop_
_space_group_symop_operation_xyz
x,y,z
1/2-x,-y,1/2+z
-x,y,z
1/2+x,-y,1/2+z
loop_
_atom_site_type_symbol
_atom_site_label
_atom_site_fract_x
_atom_site_fract_y
_atom_site_fract_z
Si Si1 0.707874 0.606844 0.961190
Si Si2 0.879550 0.379092 0.256088
Si Si3 0.412616 0.946258 0.972008
Si Si4 0.134520 0.379626 0.890644
Si Si5 0.949631 0.376841 0.686511
Si Si6 0.173218 0.063046 0.666826
Si Si7 0.448954 0.353226 0.896450
Si Si8 0.794516 0.656825 0.753041
O O1 0.663267 0.568968 0.861270
O O2 0.750662 0.607285 0.851106
O O3 0.711830 0.426713 0.078350
O O4 0.705652 0.807150 0.057887
O O5 0.901422 0.181206 0.317864
O O6 0.915498 0.553151 0.267982
O O7 0.864058 0.351842 0.077350
O O8 0.440746 0.126055 0.910031
O O9 0.442287 0.824332 0.095183
O O10 0.367573 0.016116 0.060038
O O11 0.083351 0.403094 0.834227
O O12 0.162127 0.569248 0.840339
O O13 0.155874 0.190575 0.812537
O O14 0.939838 0.551823 0.566887
O O15 0.000000 0.383028 0.753326
O O16 0.200754 0.886686 0.739369
O O17 0.500000 0.389900 0.841172
#
# Coordination Sequence:
#
# PCOD8169872 Si02
#       8
#     4   4   4   4   4   4   4   4
#     4  10  22  36  55  81 106 140 179 214 266 319
#     4  10  21  36  52  78 113 141 174 219 265 316
#     4   9  17  34  55  76 104 138 179 221 261 311
#     4  10  21  36  55  81 109 142 179 215 267 318
#     4   9  18  33  54  78 105 139 179 223 266 315
#     4   9  20  36  55  78 105 139 177 218 262 312
#     4  10  19  33  56  80 103 140 183 220 266 317
#     4  11  21  38  59  80 109 139 175 222 262 312
#
# _framework density 18.346716000000001
#
# number of rings (size 3 to 8) (size 9 to 14) (size 15 to 20)
#    0.000    2.250    0.000    4.875    0.000    5.000 
#    0.000    2.500    0.000    0.000    0.000    0.000 
#    0.000    0.000    0.000    0.000    0.000    0.000 
#
# Total GULP energy -396908.084663 kJ/mol
# GULP energy per Si atom -12403.377646 kJ/mol
# Density = 1.830496 g / cm^3
# Si number density = 18.346716 Si / 1000 Ang^3
#
#
#
# Elastic Constant Matrix: (Units=GPa)
#
#
# Indices 1 2 3 4 5 6 
#
# 1 108.2162 43.2154 44.7040 0.0000 0.0000 0.0000
# 2 43.2154 98.7136 38.9416 0.0000 0.0000 0.0000
# 3 44.7040 38.9416 106.9110 0.0000 0.0000 0.0000
# 4 0.0000 0.0000 0.0000 11.8971 0.0000 0.0000
# 5 0.0000 0.0000 0.0000 0.0000 28.9885 0.0000
# 6 0.0000 0.0000 0.0000 0.0000 0.0000 22.6748
#
#
#
# Elastic Compliance Matrix: (Units=1/GPa)
#
#
# Indices 1 2 3 4 5 6 
#
# 1 0.012354 -0.003936 -0.003732 0.000000 0.000000 0.000000
# 2 -0.003936 0.013084 -0.003120 0.000000 0.000000 0.000000
# 3 -0.003732 -0.003120 0.012051 0.000000 0.000000 0.000000
# 4 0.000000 0.000000 0.000000 0.084054 0.000000 0.000000
# 5 0.000000 0.000000 0.000000 0.000000 0.034496 0.000000
# 6 0.000000 0.000000 0.000000 0.000000 0.000000 0.044102
#
#
# Mechanical properties :
#
#
# Convention : Reuss Voigt Hill
#
# Bulk Modulus (GPa) = 62.84342 63.06255 62.95298
# Shear Modulus (GPa) = 22.02421 25.17739 23.60080
#
# Velocity S-wave (km/s) = 3.46850 3.70849 3.59050
# Velocity P-wave (km/s) = 7.09706 7.26529 7.18167
#
# Compressibility (1/GPa) = 0.01591256
#
# Stress axis : x y z
#
# Youngs Moduli (GPa) = 80.94258 76.42711 82.98371
#
# Poissons Ratio (x) = 0.30084 0.30971
# Poissons Ratio (y) = 0.31861 0.25891
# Poissons Ratio (z) = 0.30209 0.23845
#
# Static dielectric constant tensor:
#      x y z
#    x 3.475410 0.000000 0.000000 
#    y 0.000000 3.311250 0.000000 
#    z 0.000000 0.000000 3.236040 
# 
# 
# High freq. dielectric constant tensor:
#      x y z
#    x 1.721900 0.000000 0.000000 
#    y 0.000000 1.710880 0.000000 
#    z 0.000000 0.000000 1.698360 
# 
# From -- ./inp_files/3194.got.cif
#   From: 2010.03.12/outbox.cif.g09.slc.cpg/sg31_2_cif.got.tgz:3194.got - 2010.04.14 01:42:59.
