data_PCOD8169754
_publ_section_title
;
Structure prediction by ZEFSAII (Michael W. Deem and Ramdas Pophale) SiO2 
 PCOD8169754
Probable space group: P M N 21
;
_chemical_formula_sum "Si O2"
_cell_formula_units_Z 32
_cell_length_a 9.040608
_cell_length_b 12.016676
_cell_length_c 15.489361
_cell_angle_alpha 90.000000
_cell_angle_beta 90.000000
_cell_angle_gamma 90.000000
_cell_volume 1682.734086
_symmetry_space_group_name_H-M "P M N 21"
_symmetry_group_IT_number 31
_symmetry_cell_setting 'orthorhombic'
loop_
_space_group_symop_operation_xyz
x,y,z
1/2-x,-y,1/2+z
-x,y,z
1/2+x,-y,1/2+z
loop_
_atom_site_type_symbol
_atom_site_label
_atom_site_fract_x
_atom_site_fract_y
_atom_site_fract_z
Si Si1 0.326409 0.761287 0.587970
Si Si2 0.174764 0.767651 0.762098
Si Si3 0.323934 0.618191 0.426517
Si Si4 0.675596 0.999743 0.331209
Si Si5 0.173864 0.235029 0.771400
Si Si6 0.673474 0.774557 0.078627
Si Si7 0.324944 0.366354 0.430688
Si Si8 0.673741 0.006729 0.528212
O O1 0.500000 0.744758 0.598466
O O2 0.248569 0.720838 0.675444
O O3 0.265989 0.685456 0.509749
O O4 0.285419 0.888916 0.569884
O O5 0.234907 0.892377 0.780148
O O6 0.223891 0.689504 0.841125
O O7 0.000000 0.765204 0.750042
O O8 0.500000 0.619144 0.423941
O O9 0.260120 0.676247 0.339615
O O10 0.265164 0.492333 0.430589
O O11 0.500000 0.999392 0.328124
O O12 0.728107 0.006970 0.429728
O O13 0.742237 0.887748 0.288917
O O14 0.208120 0.274172 0.674070
O O15 0.000000 0.225444 0.787628
O O16 0.500000 0.777025 0.059478
O O17 0.734754 0.899731 0.078049
O O18 0.752888 0.697037 0.010192
O O19 0.500000 0.359222 0.443012
O O20 0.500000 0.032952 0.534882
#
# Coordination Sequence:
#
# PCOD8169754 Si02
#       8
#     4   4   4   4   4   4   4   4
#     4  10  20  34  57  85 110 139 177 227 274 314
#     4  10  20  34  54  78 107 145 183 220 267 327
#     4   9  18  35  57  79 104 140 188 228 261 316
#     4   9  15  29  53  77 103 138 177 213 255 315
#     4   9  17  31  53  80 106 136 177 221 266 317
#     4  11  22  34  55  85 114 140 173 227 278 316
#     4  10  21  38  58  77 103 146 191 224 261 319
#     4  10  18  33  57  81 109 144 180 214 262 330
#
# _framework density 19.016670999999999
#
# number of rings (size 3 to 8) (size 9 to 14) (size 15 to 20)
#    0.000    2.250    2.500    1.125    0.000    3.000 
#    0.000    1.875    0.000    3.750    0.000    0.000 
#    0.000    0.000    0.000    0.000    0.000    0.000 
#
# Total GULP energy -396793.360370 kJ/mol
# GULP energy per Si atom -12399.792512 kJ/mol
# Density = 1.897339 g / cm^3
# Si number density = 19.016671 Si / 1000 Ang^3
#
#
#
# Elastic Constant Matrix: (Units=GPa)
#
#
# Indices 1 2 3 4 5 6 
#
# 1 24.2618 29.9732 35.1720 0.0000 0.0000 0.0000
# 2 29.9732 151.6761 79.7468 0.0000 0.0000 0.0000
# 3 35.1720 79.7468 161.9987 0.0000 0.0000 0.0000
# 4 0.0000 0.0000 0.0000 12.9729 0.0000 0.0000
# 5 0.0000 0.0000 0.0000 0.0000 25.2897 0.0000
# 6 0.0000 0.0000 0.0000 0.0000 0.0000 9.7306
#
#
#
# Elastic Compliance Matrix: (Units=1/GPa)
#
#
# Indices 1 2 3 4 5 6 
#
# 1 0.065790 -0.007408 -0.010637 0.000000 0.000000 0.000000
# 2 -0.007408 0.009730 -0.003181 0.000000 0.000000 0.000000
# 3 -0.010637 -0.003181 0.010048 0.000000 0.000000 0.000000
# 4 0.000000 0.000000 0.000000 0.077084 0.000000 0.000000
# 5 0.000000 0.000000 0.000000 0.000000 0.039542 0.000000
# 6 0.000000 0.000000 0.000000 0.000000 0.000000 0.102769
#
#
# Mechanical properties :
#
#
# Convention : Reuss Voigt Hill
#
# Bulk Modulus (GPa) = 23.19394 69.74676 46.47035
# Shear Modulus (GPa) = 13.82034 22.46827 18.14431
#
# Velocity S-wave (km/s) = 2.69875 3.44103 3.09224
# Velocity P-wave (km/s) = 4.68339 7.24871 6.10238
#
# Compressibility (1/GPa) = 0.04311471
#
# Stress axis : x y z
#
# Youngs Moduli (GPa) = 15.19997 102.78017 99.51993
#
# Poissons Ratio (x) = 0.76143 1.05858
# Poissons Ratio (y) = 0.11261 0.31658
# Poissons Ratio (z) = 0.16168 0.32695
#
# Static dielectric constant tensor:
#      x y z
#    x 2.993730 0.000000 0.000000 
#    y 0.000000 3.691240 0.000000 
#    z 0.000000 0.000000 3.607980 
# 
# 
# High freq. dielectric constant tensor:
#      x y z
#    x 1.690650 0.000000 0.000000 
#    y 0.000000 1.742460 0.000000 
#    z 0.000000 0.000000 1.755630 
# 
# From -- ./inp_files/4988.got.cif
#   From: 2010.03.12/outbox.cif.g09.slc.cpg/sg31_3_cif.got.tgz:4988.got - 2010.04.14 01:42:59.
