data_PCOD8169059
_publ_section_title
;
Structure prediction by ZEFSAII (Michael W. Deem and Ramdas Pophale) SiO2 
 PCOD8169059
Probable space group: P C A 21
;
_chemical_formula_sum "Si O2"
_cell_formula_units_Z 28
_cell_length_a 8.841722
_cell_length_b 5.132496
_cell_length_c 26.640866
_cell_angle_alpha 90.000000
_cell_angle_beta 90.000000
_cell_angle_gamma 90.000000
_cell_volume 1208.965238
_symmetry_space_group_name_H-M "P C A 21"
_symmetry_group_IT_number 29
_symmetry_cell_setting 'orthorhombic'
loop_
_space_group_symop_operation_xyz
x,y,z
-x,-y,1/2+z
1/2-x,y,1/2+z
1/2+x,-y,z
loop_
_atom_site_type_symbol
_atom_site_label
_atom_site_fract_x
_atom_site_fract_y
_atom_site_fract_z
Si Si1 0.973593 0.174511 0.915690
Si Si2 0.011201 0.813555 0.528114
Si Si3 0.858727 0.314295 0.379975
Si Si4 0.358364 0.683650 0.264529
Si Si5 0.989498 0.813396 0.115783
Si Si6 0.748503 0.508027 0.571038
Si Si7 0.473617 0.826184 0.728677
O O1 0.800295 0.236936 0.904186
O O2 0.072986 0.434631 0.908111
O O3 0.992776 0.066597 0.972600
O O4 0.029423 0.934205 0.881783
O O5 0.135456 0.584366 0.526845
O O6 0.843721 0.728125 0.543167
O O7 0.071754 0.990502 0.573547
O O8 0.833934 0.392151 0.322299
O O9 0.425601 0.430612 0.237002
O O10 0.199198 0.761170 0.240412
O O11 0.471660 0.929765 0.261668
O O12 0.854605 0.602563 0.117867
O O13 0.013076 0.926381 0.171189
O O14 0.147639 0.709130 0.095537
#
# Coordination Sequence:
#
# PCOD8169059 Si02
#       7
#     4   4   4   4   4   4   4
#     4  12  28  45  78 106 145 190 241 292 372 426
#     4  11  25  42  69 100 143 182 234 282 349 425
#     4  12  26  49  74 106 142 186 244 305 359 425
#     4  12  26  49  74 106 142 186 244 305 359 425
#     4  11  25  42  69 100 143 182 234 282 349 425
#     4  10  24  42  66  94 144 180 232 282 340 406
#     4  12  28  45  78 106 145 190 241 292 372 426
#
# _framework density 23.160301
#
# number of rings (size 3 to 8) (size 9 to 14) (size 15 to 20)
#    0.000    0.571    0.000    6.857   16.000    0.000 
#    0.000    0.000    0.000    0.000    0.000    0.000 
#    0.000    0.000    0.000    0.000    0.000    0.000 
#
# Total GULP energy -347188.291920 kJ/mol
# GULP energy per Si atom -12399.581854 kJ/mol
# Density = 2.310759 g / cm^3
# Si number density = 23.160301 Si / 1000 Ang^3
#
#
#
# Elastic Constant Matrix: (Units=GPa)
#
#
# Indices 1 2 3 4 5 6 
#
# 1 113.6292 26.8757 17.1532 0.0000 0.0000 0.0000
# 2 26.8757 103.4562 24.8776 0.0000 0.0000 0.0000
# 3 17.1532 24.8776 134.4937 0.0000 0.0000 0.0000
# 4 0.0000 0.0000 0.0000 33.4043 0.0000 0.0000
# 5 0.0000 0.0000 0.0000 0.0000 16.6306 0.0000
# 6 0.0000 0.0000 0.0000 0.0000 0.0000 9.7207
#
#
#
# Elastic Compliance Matrix: (Units=1/GPa)
#
#
# Indices 1 2 3 4 5 6 
#
# 1 0.009456 -0.002267 -0.000787 0.000000 0.000000 0.000000
# 2 -0.002267 0.010659 -0.001683 0.000000 0.000000 0.000000
# 3 -0.000787 -0.001683 0.007847 0.000000 0.000000 0.000000
# 4 0.000000 0.000000 0.000000 0.029936 0.000000 0.000000
# 5 0.000000 0.000000 0.000000 0.000000 0.060130 0.000000
# 6 0.000000 0.000000 0.000000 0.000000 0.000000 0.102873
#
#
# Mechanical properties :
#
#
# Convention : Reuss Voigt Hill
#
# Bulk Modulus (GPa) = 54.08562 54.37689 54.23126
# Shear Modulus (GPa) = 21.13836 30.79597 25.96717
#
# Velocity S-wave (km/s) = 3.02437 3.65044 3.35205
# Velocity P-wave (km/s) = 5.96650 6.42628 6.20066
#
# Compressibility (1/GPa) = 0.01848920
#
# Stress axis : x y z
#
# Youngs Moduli (GPa) = 105.75817 93.81309 127.43987
#
# Poissons Ratio (x) = 0.21269 0.10024
# Poissons Ratio (y) = 0.23977 0.21442
# Poissons Ratio (z) = 0.08319 0.15785
#
# Static dielectric constant tensor:
#      x y z
#    x 4.289200 0.000000 0.000000 
#    y 0.000000 4.784180 0.000000 
#    z 0.000000 0.000000 4.302820 
# 
# 
# High freq. dielectric constant tensor:
#      x y z
#    x 1.941200 0.000000 0.000000 
#    y 0.000000 1.916610 0.000000 
#    z 0.000000 0.000000 1.917690 
# 
# From -- ./inp_files/2548.got.cif
#   From: 2010.03.12/outbox.cif.g09.slc.cpg/sg29_2_cif.got.tgz:2548.got - 2010.04.14 03:43:10.
