data_PCOD8169125
_publ_section_title
;
Structure prediction by ZEFSAII (Michael W. Deem and Ramdas Pophale) SiO2 
 PCOD8169125
Probable space group: P C A 21
;
_chemical_formula_sum "Si O2"
_cell_formula_units_Z 32
_cell_length_a 9.608957
_cell_length_b 10.733942
_cell_length_c 16.555593
_cell_angle_alpha 90.000000
_cell_angle_beta 90.000000
_cell_angle_gamma 90.000000
_cell_volume 1707.576760
_symmetry_space_group_name_H-M "P C A 21"
_symmetry_group_IT_number 29
_symmetry_cell_setting 'orthorhombic'
loop_
_space_group_symop_operation_xyz
x,y,z
-x,-y,1/2+z
1/2-x,y,1/2+z
1/2+x,-y,z
loop_
_atom_site_type_symbol
_atom_site_label
_atom_site_fract_x
_atom_site_fract_y
_atom_site_fract_z
Si Si1 0.541870 0.768298 0.207970
Si Si2 0.081475 0.072025 0.355371
Si Si3 0.349061 0.261652 0.543050
Si Si4 0.388686 0.150192 0.378205
Si Si5 0.248130 0.376376 0.311894
Si Si6 0.423664 0.297038 0.962594
Si Si7 0.061571 0.535049 0.085320
Si Si8 0.823611 0.430759 0.190143
O O1 0.541232 0.886925 0.265214
O O2 0.600590 0.813309 0.121820
O O3 0.644511 0.660666 0.239797
O O4 0.389570 0.706014 0.201084
O O5 0.247125 0.068690 0.370617
O O6 0.014960 0.173979 0.417664
O O7 0.021372 0.933843 0.358950
O O8 0.421933 0.195450 0.467952
O O9 0.182888 0.253256 0.532268
O O10 0.396538 0.403925 0.547865
O O11 0.370749 0.272061 0.320797
O O12 0.162537 0.381197 0.396628
O O13 0.308500 0.508091 0.280513
O O14 0.543700 0.374467 0.007290
O O15 0.177970 0.590427 0.144758
O O16 0.918651 0.521465 0.135293
#
# Coordination Sequence:
#
# PCOD8169125 Si02
#       8
#     4   4   4   4   4   4   4   4
#     4   9  18  35  56  78 113 143 172 227 275 323
#     4   9  20  40  56  75 109 142 188 230 269 312
#     4   9  17  34  56  77 108 147 172 212 285 324
#     4   9  20  38  57  76 104 144 187 226 268 324
#     4   9  18  34  57  77 109 148 178 214 283 326
#     4   9  19  33  57  79 109 147 182 220 275 327
#     4  11  19  34  55  82 114 141 177 225 272 338
#     4  11  19  34  56  82 114 140 180 222 273 334
#
# _framework density 18.740008
#
# number of rings (size 3 to 8) (size 9 to 14) (size 15 to 20)
#    0.000    3.000    3.750    0.000    0.000    4.000 
#    6.750    6.250    0.000    0.000    0.000    0.000 
#    0.000    0.000    0.000    0.000    0.000    0.000 
#
# Total GULP energy -396528.272088 kJ/mol
# GULP energy per Si atom -12391.508503 kJ/mol
# Density = 1.869736 g / cm^3
# Si number density = 18.740008 Si / 1000 Ang^3
#
#
#
# Elastic Constant Matrix: (Units=GPa)
#
#
# Indices 1 2 3 4 5 6 
#
# 1 51.5393 17.1781 34.0235 0.0000 0.0000 0.0000
# 2 17.1781 49.7982 42.8707 0.0000 0.0000 0.0000
# 3 34.0235 42.8707 103.2980 0.0000 0.0000 0.0000
# 4 0.0000 0.0000 0.0000 27.9327 0.0000 0.0000
# 5 0.0000 0.0000 0.0000 0.0000 25.4661 0.0000
# 6 0.0000 0.0000 0.0000 0.0000 0.0000 28.7368
#
#
#
# Elastic Compliance Matrix: (Units=1/GPa)
#
#
# Indices 1 2 3 4 5 6 
#
# 1 0.024975 -0.002386 -0.007236 0.000000 0.000000 0.000000
# 2 -0.002386 0.031472 -0.012276 0.000000 0.000000 0.000000
# 3 -0.007236 -0.012276 0.017159 0.000000 0.000000 0.000000
# 4 0.000000 0.000000 0.000000 0.035800 0.000000 0.000000
# 5 0.000000 0.000000 0.000000 0.000000 0.039268 0.000000
# 6 0.000000 0.000000 0.000000 0.000000 0.000000 0.034799
#
#
# Mechanical properties :
#
#
# Convention : Reuss Voigt Hill
#
# Bulk Modulus (GPa) = 33.54508 43.64224 38.59366
# Shear Modulus (GPa) = 21.07895 23.79801 22.43848
#
# Velocity S-wave (km/s) = 3.35746 3.56744 3.46404
# Velocity P-wave (km/s) = 5.74188 6.34883 6.05296
#
# Compressibility (1/GPa) = 0.02981063
#
# Stress axis : x y z
#
# Youngs Moduli (GPa) = 40.04080 31.77419 58.27971
#
# Poissons Ratio (x) = 0.07581 0.42170
# Poissons Ratio (y) = 0.09553 0.71542
# Poissons Ratio (z) = 0.28972 0.39005
#
# Static dielectric constant tensor:
#      x y z
#    x 3.291530 0.000000 0.000000 
#    y 0.000000 3.115370 0.000000 
#    z 0.000000 0.000000 3.661090 
# 
# 
# High freq. dielectric constant tensor:
#      x y z
#    x 1.711690 0.000000 0.000000 
#    y 0.000000 1.694710 0.000000 
#    z 0.000000 0.000000 1.739530 
# 
# From -- ./inp_files/5018.got.cif
#   From: 2010.03.12/outbox.cif.g09.slc.cpg/sg29_3_cif.got.tgz:5018.got - 2010.04.14 03:43:10.
