data_PCOD8169158
_publ_section_title
;
Structure prediction by ZEFSAII (Michael W. Deem and Ramdas Pophale) SiO2 
 PCOD8169158
Probable space group: P C A 21
;
_chemical_formula_sum "Si O2"
_cell_formula_units_Z 24
_cell_length_a 13.565041
_cell_length_b 6.957743
_cell_length_c 8.827516
_cell_angle_alpha 90.000000
_cell_angle_beta 90.000000
_cell_angle_gamma 90.000000
_cell_volume 833.159225
_symmetry_space_group_name_H-M "P C A 21"
_symmetry_group_IT_number 29
_symmetry_cell_setting 'orthorhombic'
loop_
_space_group_symop_operation_xyz
x,y,z
-x,-y,1/2+z
1/2-x,y,1/2+z
1/2+x,-y,z
loop_
_atom_site_type_symbol
_atom_site_label
_atom_site_fract_x
_atom_site_fract_y
_atom_site_fract_z
Si Si1 0.737140 0.956840 0.840640
Si Si2 0.261298 0.769129 0.096304
Si Si3 0.560480 0.487742 0.566813
Si Si4 0.938104 0.787507 0.768011
Si Si5 0.960736 0.967833 0.476654
Si Si6 0.560881 0.309489 0.266075
O O1 0.706008 0.029684 0.674109
O O2 0.825493 0.800121 0.831578
O O3 0.642281 0.869215 0.924316
O O4 0.761158 0.166027 0.920750
O O5 0.336002 0.594317 0.123658
O O6 0.155341 0.704356 0.159817
O O7 0.465593 0.364203 0.633137
O O8 0.562883 0.510908 0.378803
O O9 0.537212 0.685473 0.657844
O O10 0.953410 0.985968 0.660484
O O11 0.018123 0.821426 0.903356
O O12 0.051256 0.833555 0.412259
#
# Coordination Sequence:
#
# PCOD8169158 Si02
#       6
#     4   4   4   4   4   4
#     4  12  22  40  69 101 132 173 223 286 345 407
#     4  12  23  45  69  99 137 182 223 280 354 410
#     4  11  26  44  67  99 139 181 230 279 342 414
#     4  11  23  40  65  98 129 170 226 283 335 404
#     4  11  22  40  65  97 129 168 228 279 338 403
#     4  11  26  45  67 100 138 184 228 283 340 412
#
# _framework density 28.806021000000001
#
# number of rings (size 3 to 8) (size 9 to 14) (size 15 to 20)
#    0.000    0.667    6.667    1.000    2.333    2.667 
#    0.000    3.333    0.000    0.000    0.000    0.000 
#    0.000    0.000    0.000    0.000    0.000    0.000 
#
# Total GULP energy -297314.298534 kJ/mol
# GULP energy per Si atom -12388.095772 kJ/mol
# Density = 2.874046 g / cm^3
# Si number density = 28.806021 Si / 1000 Ang^3
#
#
#
# Elastic Constant Matrix: (Units=GPa)
#
#
# Indices 1 2 3 4 5 6 
#
# 1 131.6238 5.4163 33.3401 0.0000 0.0000 0.0000
# 2 5.4163 26.3211 2.1236 0.0000 0.0000 0.0000
# 3 33.3401 2.1236 146.9523 0.0000 0.0000 0.0000
# 4 0.0000 0.0000 0.0000 39.8146 0.0000 0.0000
# 5 0.0000 0.0000 0.0000 0.0000 46.8077 0.0000
# 6 0.0000 0.0000 0.0000 0.0000 0.0000 50.4400
#
#
#
# Elastic Compliance Matrix: (Units=1/GPa)
#
#
# Indices 1 2 3 4 5 6 
#
# 1 0.008121 -0.001524 -0.001820 0.000000 0.000000 0.000000
# 2 -0.001524 0.038323 -0.000208 0.000000 0.000000 0.000000
# 3 -0.001820 -0.000208 0.007221 0.000000 0.000000 0.000000
# 4 0.000000 0.000000 0.000000 0.025116 0.000000 0.000000
# 5 0.000000 0.000000 0.000000 0.000000 0.021364 0.000000
# 6 0.000000 0.000000 0.000000 0.000000 0.000000 0.019826
#
#
# Mechanical properties :
#
#
# Convention : Reuss Voigt Hill
#
# Bulk Modulus (GPa) = 21.47787 42.96188 32.21988
# Shear Modulus (GPa) = 35.06399 45.01360 40.03880
#
# Velocity S-wave (km/s) = 3.49269 3.95732 3.73224
# Velocity P-wave (km/s) = 4.87210 5.98557 5.45731
#
# Compressibility (1/GPa) = 0.04655954
#
# Stress axis : x y z
#
# Youngs Moduli (GPa) = 123.13350 26.09409 138.48564
#
# Poissons Ratio (x) = 0.03978 0.25211
# Poissons Ratio (y) = 0.18769 0.02880
# Poissons Ratio (z) = 0.22416 0.00543
#
# Static dielectric constant tensor:
#      x y z
#    x 4.887690 0.000000 0.000000 
#    y 0.000000 6.570180 0.000000 
#    z 0.000000 0.000000 6.230920 
# 
# 
# High freq. dielectric constant tensor:
#      x y z
#    x 2.159050 0.000000 0.000000 
#    y 0.000000 2.177990 0.000000 
#    z 0.000000 0.000000 2.217760 
# 
# From -- ./inp_files/1736.got.cif
#   From: 2010.03.12/outbox.cif.g09.slc.cpg/sg29_1_cif.got.tgz:1736.got - 2010.04.14 03:43:10.
