data_PCOD8169442
_publ_section_title
;
Structure prediction by ZEFSAII (Michael W. Deem and Ramdas Pophale) SiO2 
 PCOD8169442
Probable space group: P N C 2
;
_chemical_formula_sum "Si O2"
_cell_formula_units_Z 28
_cell_length_a 5.466022
_cell_length_b 12.077834
_cell_length_c 21.194125
_cell_angle_alpha 90.000000
_cell_angle_beta 90.000000
_cell_angle_gamma 90.000000
_cell_volume 1399.187521
_symmetry_space_group_name_H-M "P N C 2"
_symmetry_group_IT_number 30
_symmetry_cell_setting 'orthorhombic'
loop_
_space_group_symop_operation_xyz
x,y,z
-x,-y,z
-x,1/2+y,1/2+z
x,1/2-y,1/2+z
loop_
_atom_site_type_symbol
_atom_site_label
_atom_site_fract_x
_atom_site_fract_y
_atom_site_fract_z
Si Si1 0.500000 0.500000 0.314901
Si Si2 0.001619 0.766669 0.322354
Si Si3 0.155075 0.893382 0.916711
Si Si4 0.000000 0.500000 0.629757
Si Si5 0.511175 0.129402 0.283763
Si Si6 0.630703 0.387097 0.544548
Si Si7 0.658325 0.691998 0.656681
Si Si8 0.130686 0.110272 0.721965
O O1 0.663577 0.423874 0.359955
O O2 0.649126 0.581332 0.269461
O O3 0.977381 0.700736 0.388647
O O4 0.245660 0.841923 0.323948
O O5 0.744361 0.829094 0.314114
O O6 0.053551 0.681182 0.264791
O O7 0.291136 0.837530 0.976926
O O8 0.000000 0.000000 0.939426
O O9 0.863931 0.410353 0.587080
O O10 0.825579 0.581423 0.670066
O O11 0.540498 0.179646 0.212699
O O12 0.500000 0.000000 0.280977
O O13 0.500000 0.500000 0.526586
O O14 0.453179 0.308420 0.586024
O O15 0.787809 0.811952 0.663408
O O16 0.000000 0.000000 0.694926
#
# Coordination Sequence:
#
# PCOD8169442 Si02
#       8
#     2   4   4   2   4   4   4   4
#     4  12  20  38  60  90 132 164 208 262 342 390
#     4  11  23  38  62  96 124 168 207 266 330 392
#     4  12  21  35  59  92 130 160 205 269 328 401
#     4  10  20  38  56  84 122 152 210 252 310 372
#     4  11  24  40  63  91 131 165 214 264 328 388
#     4  10  21  35  55  87 121 168 202 258 320 385
#     4  10  24  36  58  89 124 169 211 261 318 394
#     4  11  23  36  61  90 131 163 207 267 333 394
#
# _framework density 20.011616
#
# number of rings (size 3 to 8) (size 9 to 14) (size 15 to 20)
#    0.000    1.143    4.286    3.429    8.000    0.000 
#    0.000    0.000    0.000    0.000    5.571    0.000 
#    0.000    0.000    0.000    0.000    0.000    0.000 
#
# Total GULP energy -346978.099637 kJ/mol
# GULP energy per Si atom -12392.074987 kJ/mol
# Density = 1.996607 g / cm^3
# Si number density = 20.011616 Si / 1000 Ang^3
#
#
#
# Elastic Constant Matrix: (Units=GPa)
#
#
# Indices 1 2 3 4 5 6 
#
# 1 102.6624 37.6081 41.7196 0.0000 0.0000 0.0000
# 2 37.6081 109.0611 49.9433 0.0000 0.0000 0.0000
# 3 41.7196 49.9433 118.3308 0.0000 0.0000 0.0000
# 4 0.0000 0.0000 0.0000 18.6521 0.0000 0.0000
# 5 0.0000 0.0000 0.0000 0.0000 12.1074 0.0000
# 6 0.0000 0.0000 0.0000 0.0000 0.0000 22.9811
#
#
#
# Elastic Compliance Matrix: (Units=1/GPa)
#
#
# Indices 1 2 3 4 5 6 
#
# 1 0.011989 -0.002725 -0.003077 0.000000 0.000000 0.000000
# 2 -0.002725 0.011986 -0.004098 0.000000 0.000000 0.000000
# 3 -0.003077 -0.004098 0.011265 0.000000 0.000000 0.000000
# 4 0.000000 0.000000 0.000000 0.053613 0.000000 0.000000
# 5 0.000000 0.000000 0.000000 0.000000 0.082594 0.000000
# 6 0.000000 0.000000 0.000000 0.000000 0.000000 0.043514
#
#
# Mechanical properties :
#
#
# Convention : Reuss Voigt Hill
#
# Bulk Modulus (GPa) = 64.76605 65.39960 65.08283
# Shear Modulus (GPa) = 20.84128 24.13366 22.48747
#
# Velocity S-wave (km/s) = 3.23067 3.47649 3.35583
# Velocity P-wave (km/s) = 6.80814 6.99045 6.89990
#
# Compressibility (1/GPa) = 0.01544019
#
# Stress axis : x y z
#
# Youngs Moduli (GPa) = 83.40712 83.43408 88.76906
#
# Poissons Ratio (x) = 0.22739 0.27312
# Poissons Ratio (y) = 0.22732 0.36376
# Poissons Ratio (z) = 0.25663 0.34189
#
# Static dielectric constant tensor:
#      x y z
#    x 3.896830 0.000000 0.000000 
#    y 0.000000 3.868780 0.000000 
#    z 0.000000 0.000000 3.481960 
# 
# 
# High freq. dielectric constant tensor:
#      x y z
#    x 1.794640 0.000000 0.000000 
#    y 0.000000 1.761680 0.000000 
#    z 0.000000 0.000000 1.755290 
# 
# From -- ./inp_files/6845.got.cif
#   From: 2010.03.12/outbox.cif.g09.slc.cpg/sg30_4_cif.got.tgz:6845.got - 2010.04.14 01:38:02.
