data_PCOD8169493
_publ_section_title
;
Structure prediction by ZEFSAII (Michael W. Deem and Ramdas Pophale) SiO2 
 PCOD8169493
Probable space group: P N C 2
;
_chemical_formula_sum "Si O2"
_cell_formula_units_Z 28
_cell_length_a 8.279181
_cell_length_b 19.142963
_cell_length_c 8.704540
_cell_angle_alpha 90.000000
_cell_angle_beta 90.000000
_cell_angle_gamma 90.000000
_cell_volume 1379.565619
_symmetry_space_group_name_H-M "P N C 2"
_symmetry_group_IT_number 30
_symmetry_cell_setting 'orthorhombic'
loop_
_space_group_symop_operation_xyz
x,y,z
-x,-y,z
-x,1/2+y,1/2+z
x,1/2-y,1/2+z
loop_
_atom_site_type_symbol
_atom_site_label
_atom_site_fract_x
_atom_site_fract_y
_atom_site_fract_z
Si Si1 0.344188 0.036138 0.644540
Si Si2 0.405751 0.176167 0.451806
Si Si3 0.759279 0.314021 0.812800
Si Si4 0.090064 0.806933 0.005550
Si Si5 0.929461 0.883076 0.768148
Si Si6 0.779630 0.759658 0.186367
Si Si7 0.114244 0.939451 0.480107
O O1 0.385493 0.101573 0.534448
O O2 0.210752 0.057121 0.774550
O O3 0.500000 0.000000 0.724737
O O4 0.277823 0.973788 0.540262
O O5 0.583359 0.188268 0.385895
O O6 0.281823 0.183042 0.309232
O O7 0.367763 0.237523 0.573917
O O8 0.761466 0.310427 0.626633
O O9 0.844949 0.387478 0.844194
O O10 0.867173 0.251588 0.879978
O O11 0.925699 0.792345 0.094166
O O12 0.055275 0.879959 0.911844
O O13 0.840034 0.809049 0.773934
O O14 0.027660 0.894516 0.612473
O O15 0.000000 0.000000 0.414331
#
# Coordination Sequence:
#
# PCOD8169493 Si02
#       7
#     4   4   4   4   4   4   4
#     4  10  21  41  66  86 123 166 218 253 307 390
#     4  11  23  37  62  96 125 164 206 261 327 371
#     4  12  22  38  59  94 125 160 204 263 315 372
#     4  12  22  38  63  89 129 161 206 260 317 380
#     4  10  21  38  61  92 117 164 209 260 310 374
#     4  11  20  37  60  91 127 156 202 256 326 378
#     4  10  21  38  62  87 115 163 212 252 299 374
#
# _framework density 20.296244000000002
#
# number of rings (size 3 to 8) (size 9 to 14) (size 15 to 20)
#    0.000    1.143    5.714    0.857    4.000    0.000 
#    0.000    2.143    0.000    0.857    0.000    0.000 
#    0.000    0.000    0.000    0.000    0.000    0.000 
#
# Total GULP energy -346989.647595 kJ/mol
# GULP energy per Si atom -12392.487414 kJ/mol
# Density = 2.025005 g / cm^3
# Si number density = 20.296244 Si / 1000 Ang^3
#
#
#
# Elastic Constant Matrix: (Units=GPa)
#
#
# Indices 1 2 3 4 5 6 
#
# 1 59.1977 23.6521 18.0812 0.0000 0.0000 0.0000
# 2 23.6521 56.6804 16.1233 0.0000 0.0000 0.0000
# 3 18.0812 16.1233 73.8469 0.0000 0.0000 0.0000
# 4 0.0000 0.0000 0.0000 26.0387 0.0000 0.0000
# 5 0.0000 0.0000 0.0000 0.0000 35.5176 0.0000
# 6 0.0000 0.0000 0.0000 0.0000 0.0000 30.8178
#
#
#
# Elastic Compliance Matrix: (Units=1/GPa)
#
#
# Indices 1 2 3 4 5 6 
#
# 1 0.021067 -0.007809 -0.003453 0.000000 0.000000 0.000000
# 2 -0.007809 0.021705 -0.002827 0.000000 0.000000 0.000000
# 3 -0.003453 -0.002827 0.015004 0.000000 0.000000 0.000000
# 4 0.000000 0.000000 0.000000 0.038404 0.000000 0.000000
# 5 0.000000 0.000000 0.000000 0.000000 0.028155 0.000000
# 6 0.000000 0.000000 0.000000 0.000000 0.000000 0.032449
#
#
# Mechanical properties :
#
#
# Convention : Reuss Voigt Hill
#
# Bulk Modulus (GPa) = 33.78530 33.93755 33.86142
# Shear Modulus (GPa) = 25.66341 27.26605 26.46473
#
# Velocity S-wave (km/s) = 3.55976 3.66922 3.61490
# Velocity P-wave (km/s) = 5.79466 5.89138 5.84322
#
# Compressibility (1/GPa) = 0.02959867
#
# Stress axis : x y z
#
# Youngs Moduli (GPa) = 47.46694 46.07133 66.64750
#
# Poissons Ratio (x) = 0.35976 0.23016
# Poissons Ratio (y) = 0.37066 0.18842
# Poissons Ratio (z) = 0.16392 0.13025
#
# Static dielectric constant tensor:
#      x y z
#    x 3.900290 0.000000 0.000000 
#    y 0.000000 3.706450 0.000000 
#    z 0.000000 0.000000 3.781050 
# 
# 
# High freq. dielectric constant tensor:
#      x y z
#    x 1.805870 0.000000 0.000000 
#    y 0.000000 1.784790 0.000000 
#    z 0.000000 0.000000 1.773930 
# 
# From -- ./inp_files/2073.got.cif
#   From: 2010.03.12/outbox.cif.g09.slc.cpg/sg30_2_cif.got.tgz:2073.got - 2010.04.14 01:38:02.
