data_PCOD8169461
_publ_section_title
;
Structure prediction by ZEFSAII (Michael W. Deem and Ramdas Pophale) SiO2 
 PCOD8169461
Probable space group: P N C 2
;
_chemical_formula_sum "Si O2"
_cell_formula_units_Z 20
_cell_length_a 9.883936
_cell_length_b 7.496784
_cell_length_c 14.527154
_cell_angle_alpha 90.000000
_cell_angle_beta 90.000000
_cell_angle_gamma 90.000000
_cell_volume 1076.429182
_symmetry_space_group_name_H-M "P N C 2"
_symmetry_group_IT_number 30
_symmetry_cell_setting 'orthorhombic'
loop_
_space_group_symop_operation_xyz
x,y,z
-x,-y,z
-x,1/2+y,1/2+z
x,1/2-y,1/2+z
loop_
_atom_site_type_symbol
_atom_site_label
_atom_site_fract_x
_atom_site_fract_y
_atom_site_fract_z
Si Si1 0.500000 0.000000 0.239460
Si Si2 0.733942 0.154886 0.334362
Si Si3 0.000000 0.500000 0.563754
Si Si4 0.116891 0.643307 0.015172
Si Si5 0.844319 0.030689 0.717868
Si Si6 0.772754 0.865523 0.199581
O O1 0.574420 0.141101 0.308590
O O2 0.385184 0.090031 0.174177
O O3 0.760305 0.130499 0.442855
O O4 0.787096 0.342809 0.296791
O O5 0.814128 0.989693 0.286176
O O6 0.057386 0.658381 0.501571
O O7 0.121431 0.408997 0.620282
O O8 0.000000 0.500000 0.995041
O O9 0.177731 0.620362 0.117530
O O10 0.770876 0.841726 0.724522
O O11 0.000000 0.000000 0.737834
#
# Coordination Sequence:
#
# PCOD8169461 Si02
#       6
#     2   4   2   4   4   4
#     4   8  22  42  62  86 128 172 198 252 312 368
#     4  10  23  39  60  88 126 167 200 253 306 371
#     4  12  20  40  62  96 126 152 220 260 306 368
#     4  11  23  35  61  95 124 158 204 262 309 361
#     4  11  21  38  64  97 118 159 207 256 322 355
#     4  10  20  41  64  86 127 162 201 260 303 370
#
# _framework density 18.57995
#
# number of rings (size 3 to 8) (size 9 to 14) (size 15 to 20)
#    1.200    0.400    6.000    0.000    5.600    0.800 
#    0.000    4.000    0.000    0.000    0.000    0.000 
#    0.000    0.000    0.000    0.000    0.000    0.000 
#
# Total GULP energy -247796.043413 kJ/mol
# GULP energy per Si atom -12389.802171 kJ/mol
# Density = 1.853766 g / cm^3
# Si number density = 18.579950 Si / 1000 Ang^3
#
#
#
# Elastic Constant Matrix: (Units=GPa)
#
#
# Indices 1 2 3 4 5 6 
#
# 1 94.9860 14.9515 22.7821 0.0000 0.0000 0.0000
# 2 14.9515 129.2735 10.7633 0.0000 0.0000 0.0000
# 3 22.7821 10.7633 46.8743 0.0000 0.0000 0.0000
# 4 0.0000 0.0000 0.0000 19.5962 0.0000 0.0000
# 5 0.0000 0.0000 0.0000 0.0000 19.1947 0.0000
# 6 0.0000 0.0000 0.0000 0.0000 0.0000 30.3948
#
#
#
# Elastic Compliance Matrix: (Units=1/GPa)
#
#
# Indices 1 2 3 4 5 6 
#
# 1 0.012024 -0.000922 -0.005632 0.000000 0.000000 0.000000
# 2 -0.000922 0.007957 -0.001379 0.000000 0.000000 0.000000
# 3 -0.005632 -0.001379 0.024388 0.000000 0.000000 0.000000
# 4 0.000000 0.000000 0.000000 0.051030 0.000000 0.000000
# 5 0.000000 0.000000 0.000000 0.000000 0.052098 0.000000
# 6 0.000000 0.000000 0.000000 0.000000 0.000000 0.032900
#
#
# Mechanical properties :
#
#
# Convention : Reuss Voigt Hill
#
# Bulk Modulus (GPa) = 35.08478 40.90309 37.99393
# Shear Modulus (GPa) = 24.29972 28.67961 26.48967
#
# Velocity S-wave (km/s) = 3.62034 3.93310 3.77996
# Velocity P-wave (km/s) = 6.03324 6.53362 6.28841
#
# Compressibility (1/GPa) = 0.02850239
#
# Stress axis : x y z
#
# Youngs Moduli (GPa) = 83.16822 125.67603 41.00425
#
# Poissons Ratio (x) = 0.11584 0.23095
# Poissons Ratio (y) = 0.07666 0.05655
# Poissons Ratio (z) = 0.46842 0.17332
#
# Static dielectric constant tensor:
#      x y z
#    x 3.271330 0.000000 0.000000 
#    y 0.000000 3.555280 0.000000 
#    z 0.000000 0.000000 3.113310 
# 
# 
# High freq. dielectric constant tensor:
#      x y z
#    x 1.706700 0.000000 0.000000 
#    y 0.000000 1.737860 0.000000 
#    z 0.000000 0.000000 1.695170 
# 
# From -- ./inp_files/4952.got.cif
#   From: 2010.03.12/outbox.cif.g09.slc.cpg/sg30_3_cif.got.tgz:4952.got - 2010.04.14 01:38:02.
