data_PCOD8169867
_publ_section_title
;
Structure prediction by ZEFSAII (Michael W. Deem and Ramdas Pophale) SiO2 
 PCOD8169867
Probable space group: P M N 21
;
_chemical_formula_sum "Si O2"
_cell_formula_units_Z 32
_cell_length_a 9.324356
_cell_length_b 11.746668
_cell_length_c 14.406465
_cell_angle_alpha 90.000000
_cell_angle_beta 90.000000
_cell_angle_gamma 90.000000
_cell_volume 1577.941757
_symmetry_space_group_name_H-M "P M N 21"
_symmetry_group_IT_number 31
_symmetry_cell_setting 'orthorhombic'
loop_
_space_group_symop_operation_xyz
x,y,z
1/2-x,-y,1/2+z
-x,y,z
1/2+x,-y,1/2+z
loop_
_atom_site_type_symbol
_atom_site_label
_atom_site_fract_x
_atom_site_fract_y
_atom_site_fract_z
Si Si1 0.840678 0.185490 0.878850
Si Si2 0.161445 0.417172 0.775273
Si Si3 0.832445 0.908182 0.061094
Si Si4 0.830547 0.133703 0.174998
Si Si5 0.837031 0.936325 0.846687
Si Si6 0.333341 0.506472 0.937615
Si Si7 0.331724 0.682084 0.087958
Si Si8 0.668538 0.276307 0.037337
O O1 0.823356 0.287646 0.807930
O O2 0.000000 0.186992 0.926356
O O3 0.822586 0.069662 0.821477
O O4 0.719580 0.189335 0.957639
O O5 0.255671 0.501902 0.837926
O O6 0.210481 0.410475 0.667864
O O7 0.000000 0.463141 0.783792
O O8 0.752146 0.798915 0.102104
O O9 0.000000 0.887091 0.074170
O O10 0.785950 0.020886 0.117380
O O11 0.790732 0.920241 0.953353
O O12 0.772061 0.129571 0.280041
O O13 0.754622 0.244306 0.130266
O O14 0.000000 0.152198 0.177486
O O15 0.000000 0.893699 0.830124
O O16 0.500000 0.497696 0.915955
O O17 0.293154 0.623909 0.989265
O O18 0.287125 0.402749 0.004713
O O19 0.500000 0.708812 0.095708
O O20 0.500000 0.263347 0.054919
#
# Coordination Sequence:
#
# PCOD8169867 Si02
#       8
#     4   4   4   4   4   4   4   4
#     4   9  16  31  54  78 109 142 181 232 276 323
#     4   9  18  33  58  86 108 145 193 233 280 336
#     4  10  22  39  58  83 118 153 186 231 283 336
#     4  11  22  37  56  83 116 149 187 231 279 336
#     4  10  20  36  55  80 115 152 185 225 281 339
#     4   9  20  38  58  82 113 145 185 239 284 328
#     4  10  21  39  60  83 115 151 190 234 283 338
#     4  10  19  33  55  79 106 143 185 229 280 330
#
# _framework density 20.279582000000001
#
# number of rings (size 3 to 8) (size 9 to 14) (size 15 to 20)
#    0.000    2.250    1.250    1.500    0.000    4.500 
#    2.250    2.500    0.000    0.000    0.000    0.000 
#    0.000    0.000    0.000    0.000    0.000    0.000 
#
# Total GULP energy -396753.008694 kJ/mol
# GULP energy per Si atom -12398.531522 kJ/mol
# Density = 2.023343 g / cm^3
# Si number density = 20.279582 Si / 1000 Ang^3
#
#
#
# Elastic Constant Matrix: (Units=GPa)
#
#
# Indices 1 2 3 4 5 6 
#
# 1 59.8805 13.8787 26.1123 0.0000 0.0000 0.0000
# 2 13.8787 31.5927 -2.8085 0.0000 0.0000 0.0000
# 3 26.1123 -2.8085 78.6247 0.0000 0.0000 0.0000
# 4 0.0000 0.0000 0.0000 23.0007 0.0000 0.0000
# 5 0.0000 0.0000 0.0000 0.0000 35.2821 0.0000
# 6 0.0000 0.0000 0.0000 0.0000 0.0000 20.8020
#
#
#
# Elastic Compliance Matrix: (Units=1/GPa)
#
#
# Indices 1 2 3 4 5 6 
#
# 1 0.022603 -0.010630 -0.007886 0.000000 0.000000 0.000000
# 2 -0.010630 0.036753 0.004843 0.000000 0.000000 0.000000
# 3 -0.007886 0.004843 0.015511 0.000000 0.000000 0.000000
# 4 0.000000 0.000000 0.000000 0.043477 0.000000 0.000000
# 5 0.000000 0.000000 0.000000 0.000000 0.028343 0.000000
# 6 0.000000 0.000000 0.000000 0.000000 0.000000 0.048072
#
#
# Mechanical properties :
#
#
# Convention : Reuss Voigt Hill
#
# Bulk Modulus (GPa) = 21.04377 27.16253 24.10315
# Shear Modulus (GPa) = 21.01313 24.67798 22.84555
#
# Velocity S-wave (km/s) = 3.22245 3.49218 3.36002
# Velocity P-wave (km/s) = 4.92392 5.44826 5.19271
#
# Compressibility (1/GPa) = 0.04752000
#
# Stress axis : x y z
#
# Youngs Moduli (GPa) = 44.24226 27.20834 64.47108
#
# Poissons Ratio (x) = 0.28924 0.50845
# Poissons Ratio (y) = 0.47032 -0.31226
# Poissons Ratio (z) = 0.34891 -0.13178
#
# Static dielectric constant tensor:
#      x y z
#    x 3.586460 0.000000 0.000000 
#    y 0.000000 3.560470 0.000000 
#    z 0.000000 0.000000 3.683760 
# 
# 
# High freq. dielectric constant tensor:
#      x y z
#    x 1.783020 0.000000 0.000000 
#    y 0.000000 1.777850 0.000000 
#    z 0.000000 0.000000 1.793390 
# 
# From -- ./inp_files/5004.got.cif
#   From: 2010.03.12/outbox.cif.g09.slc.cpg/sg31_3_cif.got.tgz:5004.got - 2010.04.14 01:42:59.
