data_PCOD8169578
_publ_section_title
;
Structure prediction by ZEFSAII (Michael W. Deem and Ramdas Pophale) SiO2 
 PCOD8169578
Probable space group: P N C 2
;
_chemical_formula_sum "Si O2"
_cell_formula_units_Z 30
_cell_length_a 9.554890
_cell_length_b 10.402304
_cell_length_c 12.835015
_cell_angle_alpha 90.000000
_cell_angle_beta 90.000000
_cell_angle_gamma 90.000000
_cell_volume 1275.708983
_symmetry_space_group_name_H-M "P N C 2"
_symmetry_group_IT_number 30
_symmetry_cell_setting 'orthorhombic'
loop_
_space_group_symop_operation_xyz
x,y,z
-x,-y,z
-x,1/2+y,1/2+z
x,1/2-y,1/2+z
loop_
_atom_site_type_symbol
_atom_site_label
_atom_site_fract_x
_atom_site_fract_y
_atom_site_fract_z
Si Si1 0.000000 0.000000 0.815551
Si Si2 0.740510 0.273312 0.136288
Si Si3 0.567597 0.791599 0.143249
Si Si4 0.956826 0.220783 0.951367
Si Si5 0.378337 0.414502 0.859623
Si Si6 0.278181 0.338932 0.453603
Si Si7 0.122844 0.579893 0.792936
Si Si8 0.730217 0.555885 0.233007
O O1 0.897781 0.914990 0.741451
O O2 0.097705 0.903574 0.885048
O O3 0.587494 0.231443 0.098294
O O4 0.794132 0.180458 0.225111
O O5 0.716797 0.415152 0.183700
O O6 0.853554 0.257327 0.044984
O O7 0.559166 0.867510 0.250226
O O8 0.652298 0.657642 0.160367
O O9 0.648910 0.884282 0.061096
O O10 0.964384 0.347138 0.881772
O O11 0.114069 0.176585 0.980214
O O12 0.500000 0.500000 0.912556
O O13 0.348950 0.299125 0.937007
O O14 0.233901 0.487952 0.846615
O O15 0.318076 0.430012 0.355050
O O16 0.000000 0.500000 0.732126
#
# Coordination Sequence:
#
# PCOD8169578 Si02
#       8
#     2   4   4   4   4   4   4   4
#     4  10  22  48  68 108 142 188 242 308 370 430
#     4  12  27  45  73 108 147 189 246 303 365 440
#     4  11  26  46  69 109 141 195 240 292 373 438
#     4  11  26  43  72 107 137 187 244 297 368 426
#     4  11  24  46  69  96 144 187 237 297 356 436
#     4  10  25  46  73 100 144 189 244 301 369 431
#     4  12  26  47  71 101 144 186 243 297 363 425
#     4  10  24  45  74 101 146 188 241 301 370 436
#
# _framework density 23.516335999999999
#
# number of rings (size 3 to 8) (size 9 to 14) (size 15 to 20)
#    0.000    1.067    4.000    0.400    8.400    1.067 
#    2.400    0.000    0.000    0.000    0.000    0.000 
#    0.000    0.000    0.000    0.000    0.000    0.000 
#
# Total GULP energy -371698.348978 kJ/mol
# GULP energy per Si atom -12389.944966 kJ/mol
# Density = 2.346281 g / cm^3
# Si number density = 23.516336 Si / 1000 Ang^3
#
#
#
# Elastic Constant Matrix: (Units=GPa)
#
#
# Indices 1 2 3 4 5 6 
#
# 1 130.3097 21.6857 35.6362 0.0000 0.0000 0.0000
# 2 21.6857 76.4198 -2.9520 0.0000 0.0000 0.0000
# 3 35.6362 -2.9520 70.6160 0.0000 0.0000 0.0000
# 4 0.0000 0.0000 0.0000 222.6778 0.0000 0.0000
# 5 0.0000 0.0000 0.0000 0.0000 24.1263 0.0000
# 6 0.0000 0.0000 0.0000 0.0000 0.0000 43.8761
#
#
#
# Elastic Compliance Matrix: (Units=1/GPa)
#
#
# Indices 1 2 3 4 5 6 
#
# 1 0.009498 -0.002885 -0.004914 0.000000 0.000000 0.000000
# 2 -0.002885 0.013983 0.002040 0.000000 0.000000 0.000000
# 3 -0.004914 0.002040 0.016726 0.000000 0.000000 0.000000
# 4 0.000000 0.000000 0.000000 0.004491 0.000000 0.000000
# 5 0.000000 0.000000 0.000000 0.000000 0.041449 0.000000
# 6 0.000000 0.000000 0.000000 0.000000 0.000000 0.022791
#
#
# Mechanical properties :
#
#
# Convention : Reuss Voigt Hill
#
# Bulk Modulus (GPa) = 34.85468 42.89838 38.87653
# Shear Modulus (GPa) = 38.45623 73.00109 55.72866
#
# Velocity S-wave (km/s) = 4.04827 5.57764 4.87332
# Velocity P-wave (km/s) = 6.05846 7.73057 6.94502
#
# Compressibility (1/GPa) = 0.02869055
#
# Stress axis : x y z
#
# Youngs Moduli (GPa) = 105.28636 71.51483 59.78689
#
# Poissons Ratio (x) = 0.20632 0.29377
# Poissons Ratio (y) = 0.30375 -0.12199
# Poissons Ratio (z) = 0.51735 -0.14592
#
# Static dielectric constant tensor:
#      x y z
#    x 4.417450 0.000000 0.000000 
#    y 0.000000 4.138320 0.000000 
#    z 0.000000 0.000000 4.221670 
# 
# 
# High freq. dielectric constant tensor:
#      x y z
#    x 1.945220 0.000000 0.000000 
#    y 0.000000 1.938620 0.000000 
#    z 0.000000 0.000000 1.919030 
# 
# From -- ./inp_files/5176.got.cif
#   From: 2010.03.12/outbox.cif.g09.slc.cpg/sg30_3_cif.got.tgz:5176.got - 2010.04.14 01:38:02.
