data_PCOD8169858
_publ_section_title
;
Structure prediction by ZEFSAII (Michael W. Deem and Ramdas Pophale) SiO2 
 PCOD8169858
Probable space group: P M N 21
;
_chemical_formula_sum "Si O2"
_cell_formula_units_Z 32
_cell_length_a 9.161630
_cell_length_b 11.863786
_cell_length_c 14.494776
_cell_angle_alpha 90.000000
_cell_angle_beta 90.000000
_cell_angle_gamma 90.000000
_cell_volume 1575.460652
_symmetry_space_group_name_H-M "P M N 21"
_symmetry_group_IT_number 31
_symmetry_cell_setting 'orthorhombic'
loop_
_space_group_symop_operation_xyz
x,y,z
1/2-x,-y,1/2+z
-x,y,z
1/2+x,-y,1/2+z
loop_
_atom_site_type_symbol
_atom_site_label
_atom_site_fract_x
_atom_site_fract_y
_atom_site_fract_z
Si Si1 0.668588 0.178147 0.293320
Si Si2 0.828844 0.998596 0.646406
Si Si3 0.172738 0.622959 0.386387
Si Si4 0.672787 0.595478 0.771406
Si Si5 0.829392 0.913049 0.982302
Si Si6 0.162070 0.685977 0.060934
Si Si7 0.674448 0.558883 0.562537
Si Si8 0.837209 0.804038 0.244446
O O1 0.500000 0.213627 0.297367
O O2 0.760897 0.289999 0.313535
O O3 0.698641 0.082061 0.372650
O O4 0.707947 0.120140 0.195893
O O5 0.755352 0.994693 0.544404
O O6 0.770409 0.098068 0.712025
O O7 0.000000 0.016073 0.634862
O O8 0.228842 0.513191 0.329073
O O9 0.250971 0.636165 0.485373
O O10 0.216545 0.740434 0.336544
O O11 0.000000 0.615406 0.399919
O O12 0.500000 0.602909 0.777248
O O13 0.725769 0.591528 0.665127
O O14 0.000000 0.923545 0.008618
O O15 0.760515 0.792293 0.013176
O O16 0.237792 0.566625 0.041141
O O17 0.156696 0.702841 0.170695
O O18 0.000000 0.680104 0.019023
O O19 0.500000 0.564737 0.555439
O O20 0.000000 0.855665 0.256883
#
# Coordination Sequence:
#
# PCOD8169858 Si02
#       8
#     4   4   4   4   4   4   4   4
#     4  10  22  40  59  81 114 151 187 231 284 336
#     4  10  21  37  57  84 113 139 181 242 284 318
#     4  10  20  35  55  82 114 147 184 227 275 330
#     4  10  21  37  58  84 116 151 188 231 276 331
#     4   9  18  35  60  83 104 147 193 224 275 340
#     4   8  13  27  53  76  98 134 180 219 255 315
#     4  10  19  33  53  80 113 150 184 220 275 336
#     4   9  17  34  57  76 102 143 183 220 272 332
#
# _framework density 20.311519000000001
#
# number of rings (size 3 to 8) (size 9 to 14) (size 15 to 20)
#    0.000    2.500    1.250    1.875    0.000    4.000 
#    2.250    3.750    0.000    0.000    0.000    0.000 
#    0.000    0.000    0.000    0.000    0.000    0.000 
#
# Total GULP energy -396556.829318 kJ/mol
# GULP energy per Si atom -12392.400916 kJ/mol
# Density = 2.026529 g / cm^3
# Si number density = 20.311519 Si / 1000 Ang^3
#
#
#
# Elastic Constant Matrix: (Units=GPa)
#
#
# Indices 1 2 3 4 5 6 
#
# 1 46.6465 16.8881 21.2164 0.0000 0.0000 0.0000
# 2 16.8881 34.1211 0.5004 0.0000 0.0000 0.0000
# 3 21.2164 0.5004 89.3253 0.0000 0.0000 0.0000
# 4 0.0000 0.0000 0.0000 27.0740 0.0000 0.0000
# 5 0.0000 0.0000 0.0000 0.0000 31.5987 0.0000
# 6 0.0000 0.0000 0.0000 0.0000 0.0000 18.0844
#
#
#
# Elastic Compliance Matrix: (Units=1/GPa)
#
#
# Indices 1 2 3 4 5 6 
#
# 1 0.029971 -0.014731 -0.007036 0.000000 0.000000 0.000000
# 2 -0.014731 0.036550 0.003294 0.000000 0.000000 0.000000
# 3 -0.007036 0.003294 0.012848 0.000000 0.000000 0.000000
# 4 0.000000 0.000000 0.000000 0.036936 0.000000 0.000000
# 5 0.000000 0.000000 0.000000 0.000000 0.031647 0.000000
# 6 0.000000 0.000000 0.000000 0.000000 0.000000 0.055296
#
#
# Mechanical properties :
#
#
# Convention : Reuss Voigt Hill
#
# Bulk Modulus (GPa) = 23.57205 27.47807 25.52506
# Shear Modulus (GPa) = 19.65905 24.11730 21.88817
#
# Velocity S-wave (km/s) = 3.11445 3.44956 3.28628
# Velocity P-wave (km/s) = 4.95616 5.42436 5.19553
#
# Compressibility (1/GPa) = 0.04242313
#
# Stress axis : x y z
#
# Youngs Moduli (GPa) = 33.36505 27.35964 77.83420
#
# Poissons Ratio (x) = 0.40304 0.54766
# Poissons Ratio (y) = 0.49150 -0.25640
# Poissons Ratio (z) = 0.23477 -0.09013
#
# Static dielectric constant tensor:
#      x y z
#    x 3.311050 0.000000 0.000000 
#    y 0.000000 3.514330 0.000000 
#    z 0.000000 0.000000 3.857420 
# 
# 
# High freq. dielectric constant tensor:
#      x y z
#    x 1.762390 0.000000 0.000000 
#    y 0.000000 1.777980 0.000000 
#    z 0.000000 0.000000 1.803150 
# 
# From -- ./inp_files/5091.got.cif
#   From: 2010.03.12/outbox.cif.g09.slc.cpg/sg31_3_cif.got.tgz:5091.got - 2010.04.14 01:42:59.
