data_PCOD8169551
_publ_section_title
;
Structure prediction by ZEFSAII (Michael W. Deem and Ramdas Pophale) SiO2 
 PCOD8169551
Probable space group: P N C 2
;
_chemical_formula_sum "Si O2"
_cell_formula_units_Z 32
_cell_length_a 8.534812
_cell_length_b 15.017610
_cell_length_c 11.859719
_cell_angle_alpha 90.000000
_cell_angle_beta 90.000000
_cell_angle_gamma 90.000000
_cell_volume 1520.089573
_symmetry_space_group_name_H-M "P N C 2"
_symmetry_group_IT_number 30
_symmetry_cell_setting 'orthorhombic'
loop_
_space_group_symop_operation_xyz
x,y,z
-x,-y,z
-x,1/2+y,1/2+z
x,1/2-y,1/2+z
loop_
_atom_site_type_symbol
_atom_site_label
_atom_site_fract_x
_atom_site_fract_y
_atom_site_fract_z
Si Si1 0.120099 0.583872 0.979250
Si Si2 0.977543 0.238999 0.626284
Si Si3 0.958314 0.094022 0.989332
Si Si4 0.341036 0.959006 0.683902
Si Si5 0.609903 0.085819 0.045896
Si Si6 0.182662 0.128682 0.785136
Si Si7 0.485719 0.686309 0.349933
Si Si8 0.723798 0.166427 0.268606
O O1 0.185765 0.599867 0.853446
O O2 0.000000 0.500000 0.978523
O O3 0.048804 0.678489 0.015665
O O4 0.253752 0.572954 0.072660
O O5 0.022267 0.335652 0.579887
O O6 0.832014 0.256908 0.711404
O O7 0.119943 0.191208 0.686769
O O8 0.771476 0.087145 0.974353
O O9 0.000000 0.000000 0.043431
O O10 0.041127 0.113718 0.871340
O O11 0.388051 0.882706 0.772702
O O12 0.500000 0.000000 0.636365
O O13 0.230986 0.030716 0.745246
O O14 0.643238 0.103084 0.176197
O O15 0.500000 0.000000 0.029026
O O16 0.520540 0.165870 0.983718
O O17 0.329768 0.184493 0.828003
O O18 0.417396 0.784738 0.333082
#
# Coordination Sequence:
#
# PCOD8169551 Si02
#       8
#     4   4   4   4   4   4   4   4
#     4  12  24  43  69  99 138 183 230 285 351 419
#     4  11  23  43  64  99 134 178 228 280 345 413
#     4  11  24  40  67  95 131 175 226 284 341 408
#     4  10  22  41  67 100 133 173 228 285 346 414
#     4  11  24  44  67  94 131 175 228 275 340 412
#     4  11  23  39  67 104 133 174 225 290 346 408
#     4  11  22  41  67 100 134 171 230 283 343 416
#     4  11  25  43  67  95 135 184 225 282 347 417
#
# _framework density 21.051392
#
# number of rings (size 3 to 8) (size 9 to 14) (size 15 to 20)
#    0.000    1.000    2.500    5.625    1.750    4.500 
#    2.250    1.250    0.000    0.000    0.000    0.000 
#    0.000    0.000    0.000    0.000    0.000    0.000 
#
# Total GULP energy -396536.219544 kJ/mol
# GULP energy per Si atom -12391.756861 kJ/mol
# Density = 2.100348 g / cm^3
# Si number density = 21.051392 Si / 1000 Ang^3
#
#
#
# Elastic Constant Matrix: (Units=GPa)
#
#
# Indices 1 2 3 4 5 6 
#
# 1 105.4687 40.6920 52.1755 0.0000 0.0000 0.0000
# 2 40.6920 94.6246 36.5918 0.0000 0.0000 0.0000
# 3 52.1755 36.5918 127.2375 0.0000 0.0000 0.0000
# 4 0.0000 0.0000 0.0000 39.4831 0.0000 0.0000
# 5 0.0000 0.0000 0.0000 0.0000 -42.2378 0.0000
# 6 0.0000 0.0000 0.0000 0.0000 0.0000 36.5096
#
#
#
# Elastic Compliance Matrix: (Units=1/GPa)
#
#
# Indices 1 2 3 4 5 6 
#
# 1 0.013119 -0.004007 -0.004227 0.000000 0.000000 0.000000
# 2 -0.004007 0.013114 -0.002128 0.000000 0.000000 0.000000
# 3 -0.004227 -0.002128 0.010205 0.000000 0.000000 0.000000
# 4 0.000000 0.000000 0.000000 0.025327 0.000000 0.000000
# 5 0.000000 0.000000 0.000000 0.000000 -0.023675 0.000000
# 6 0.000000 0.000000 0.000000 0.000000 0.000000 0.027390
#
#
# Mechanical properties :
#
#
# Convention : Reuss Voigt Hill
#
# Bulk Modulus (GPa) = 63.64213 65.13881 64.39047
# Shear Modulus (GPa) = 54.67956 19.94242 37.31099
#
# Velocity S-wave (km/s) = 5.10203 3.08120 4.21453
# Velocity P-wave (km/s) = 8.06257 6.60820 7.37134
#
# Compressibility (1/GPa) = 0.01571286
#
# Stress axis : x y z
#
# Youngs Moduli (GPa) = 76.22782 76.25309 97.99287
#
# Poissons Ratio (x) = 0.30553 0.41423
# Poissons Ratio (y) = 0.30543 0.20857
# Poissons Ratio (z) = 0.32223 0.16230
#
# Static dielectric constant tensor:
#      x y z
#    x 6.388850 0.000000 0.000000 
#    y 0.000000 3.880810 0.000000 
#    z 0.000000 0.000000 3.785040 
# 
# 
# High freq. dielectric constant tensor:
#      x y z
#    x 1.830890 0.000000 0.000000 
#    y 0.000000 1.826860 0.000000 
#    z 0.000000 0.000000 1.827720 
# 
# From -- ./inp_files/3790.got.cif
#   From: 2010.03.12/outbox.cif.g09.slc.cpg/sg30_2_cif.got.tgz:3790.got - 2010.04.14 01:38:02.
