data_PCOD8169980
_publ_section_title
;
Structure prediction by ZEFSAII (Michael W. Deem and Ramdas Pophale) SiO2 
 PCOD8169980
Probable space group: P M N 21
;
_chemical_formula_sum "Si O2"
_cell_formula_units_Z 32
_cell_length_a 8.835432
_cell_length_b 11.769313
_cell_length_c 15.292390
_cell_angle_alpha 90.000000
_cell_angle_beta 90.000000
_cell_angle_gamma 90.000000
_cell_volume 1590.209219
_symmetry_space_group_name_H-M "P M N 21"
_symmetry_group_IT_number 31
_symmetry_cell_setting 'orthorhombic'
loop_
_space_group_symop_operation_xyz
x,y,z
1/2-x,-y,1/2+z
-x,y,z
1/2+x,-y,1/2+z
loop_
_atom_site_type_symbol
_atom_site_label
_atom_site_fract_x
_atom_site_fract_y
_atom_site_fract_z
Si Si1 0.825067 0.255434 0.183900
Si Si2 0.674351 0.742679 0.374706
Si Si3 0.174741 0.510495 0.927751
Si Si4 0.673725 0.733202 0.881630
Si Si5 0.679325 0.501373 0.626363
Si Si6 0.176791 0.880719 0.027222
Si Si7 0.678193 0.122800 0.031802
Si Si8 0.178327 0.736309 0.196553
O O1 0.805923 0.217249 0.284131
O O2 0.759763 0.383197 0.170946
O O3 0.734875 0.166257 0.125475
O O4 0.000000 0.252409 0.154386
O O5 0.500000 0.777812 0.380741
O O6 0.697596 0.607919 0.378819
O O7 0.758945 0.799746 0.454829
O O8 0.741770 0.785550 0.282865
O O9 0.278822 0.601417 0.878552
O O10 0.000000 0.549746 0.926039
O O11 0.234568 0.499835 0.026591
O O12 0.500000 0.744387 0.912024
O O13 0.783116 0.799519 0.946670
O O14 0.500000 0.497671 0.629930
O O15 0.742841 0.389818 0.675404
O O16 0.220845 0.818988 0.117090
O O17 0.000000 0.909311 0.023795
O O18 0.271542 0.994367 0.017650
O O19 0.500000 0.129166 0.029195
O O20 0.000000 0.733600 0.212735
#
# Coordination Sequence:
#
# PCOD8169980 Si02
#       8
#     4   4   4   4   4   4   4   4
#     4  10  21  40  64  90 125 165 200 243 306 369
#     4  11  23  40  64  92 126 164 202 250 306 367
#     4  10  19  36  62  90 124 166 205 244 301 367
#     4  11  23  38  63  96 128 161 202 253 303 361
#     4   9  16  34  62  89 122 162 200 241 298 364
#     4  11  24  44  67  87 119 166 207 252 308 366
#     4  12  26  43  64  90 120 156 207 264 305 358
#     4  10  21  39  64  92 122 160 203 249 305 364
#
# _framework density 20.123138999999998
#
# number of rings (size 3 to 8) (size 9 to 14) (size 15 to 20)
#    0.000    1.500    2.500    3.000    0.000    5.000 
#    0.000    1.875    0.000    0.000    0.000    0.000 
#    0.000    0.000    0.000    0.000    0.000    0.000 
#
# Total GULP energy -396941.368611 kJ/mol
# GULP energy per Si atom -12404.417769 kJ/mol
# Density = 2.007734 g / cm^3
# Si number density = 20.123139 Si / 1000 Ang^3
#
#
#
# Elastic Constant Matrix: (Units=GPa)
#
#
# Indices 1 2 3 4 5 6 
#
# 1 85.8729 34.5811 49.6090 0.0000 0.0000 0.0000
# 2 34.5811 76.4682 24.7110 0.0000 0.0000 0.0000
# 3 49.6090 24.7110 120.5050 0.0000 0.0000 0.0000
# 4 0.0000 0.0000 0.0000 7.7506 0.0000 0.0000
# 5 0.0000 0.0000 0.0000 0.0000 30.4531 0.0000
# 6 0.0000 0.0000 0.0000 0.0000 0.0000 29.2007
#
#
#
# Elastic Compliance Matrix: (Units=1/GPa)
#
#
# Indices 1 2 3 4 5 6 
#
# 1 0.017511 -0.005986 -0.005981 0.000000 0.000000 0.000000
# 2 -0.005986 0.016052 -0.000827 0.000000 0.000000 0.000000
# 3 -0.005981 -0.000827 0.010930 0.000000 0.000000 0.000000
# 4 0.000000 0.000000 0.000000 0.129023 0.000000 0.000000
# 5 0.000000 0.000000 0.000000 0.000000 0.032837 0.000000
# 6 0.000000 0.000000 0.000000 0.000000 0.000000 0.034246
#
#
# Mechanical properties :
#
#
# Convention : Reuss Voigt Hill
#
# Bulk Modulus (GPa) = 52.89945 55.62762 54.26353
# Shear Modulus (GPa) = 18.34928 25.07720 21.71324
#
# Velocity S-wave (km/s) = 3.02296 3.53397 3.28841
# Velocity P-wave (km/s) = 6.20720 6.65999 6.43758
#
# Compressibility (1/GPa) = 0.01890379
#
# Stress axis : x y z
#
# Youngs Moduli (GPa) = 57.10616 62.29842 91.48750
#
# Poissons Ratio (x) = 0.37293 0.54723
# Poissons Ratio (y) = 0.34185 0.07568
# Poissons Ratio (z) = 0.34158 0.05154
#
# Static dielectric constant tensor:
#      x y z
#    x 3.483920 0.000000 0.000000 
#    y 0.000000 3.673530 0.000000 
#    z 0.000000 0.000000 3.688180 
# 
# 
# High freq. dielectric constant tensor:
#      x y z
#    x 1.772100 0.000000 0.000000 
#    y 0.000000 1.784590 0.000000 
#    z 0.000000 0.000000 1.798550 
# 
# From -- ./inp_files/4985.got.cif
#   From: 2010.03.12/outbox.cif.g09.slc.cpg/sg31_3_cif.got.tgz:4985.got - 2010.04.14 01:42:59.
