data_PCOD8169663
_publ_section_title
;
Structure prediction by ZEFSAII (Michael W. Deem and Ramdas Pophale) SiO2 
 PCOD8169663
Probable space group: P N C 2
;
_chemical_formula_sum "Si O2"
_cell_formula_units_Z 16
_cell_length_a 4.762686
_cell_length_b 13.006034
_cell_length_c 10.796206
_cell_angle_alpha 90.000000
_cell_angle_beta 90.000000
_cell_angle_gamma 90.000000
_cell_volume 668.756471
_symmetry_space_group_name_H-M "P N C 2"
_symmetry_group_IT_number 30
_symmetry_cell_setting 'orthorhombic'
loop_
_space_group_symop_operation_xyz
x,y,z
-x,-y,z
-x,1/2+y,1/2+z
x,1/2-y,1/2+z
loop_
_atom_site_type_symbol
_atom_site_label
_atom_site_fract_x
_atom_site_fract_y
_atom_site_fract_z
Si Si1 0.500000 0.500000 0.069790
Si Si2 0.063501 0.174988 0.945537
Si Si3 0.000000 0.000000 0.749117
Si Si4 0.759568 0.432366 0.672973
Si Si5 0.574788 0.188360 0.402566
O O1 0.749824 0.475552 0.159353
O O2 0.552120 0.597017 0.982656
O O3 0.889840 0.280305 0.936607
O O4 0.026783 0.101535 0.829507
O O5 0.387821 0.210710 0.934232
O O6 0.960168 0.117399 0.068548
O O7 0.500000 0.500000 0.615903
O O8 0.601849 0.348974 0.759585
O O9 0.000000 0.500000 0.746412
#
# Coordination Sequence:
#
# PCOD8169663 Si02
#       5
#     2   4   2   4   4
#     4  12  28  50  72 108 158 196 248 316 384 454
#     4  12  28  48  77 111 149 201 257 311 384 453
#     4  12  28  50  72 108 158 196 248 316 384 454
#     4  12  26  50  80 108 156 204 260 322 374 452
#     4  12  28  48  77 111 149 201 257 311 384 453
#
# _framework density 23.924999
#
# number of rings (size 3 to 8) (size 9 to 14) (size 15 to 20)
#    0.000    0.000    2.500    6.000   14.000    0.000 
#    0.000    0.000    0.000    0.000    0.000    0.000 
#    0.000    0.000    0.000    0.000    0.000    0.000 
#
# Total GULP energy -198274.275557 kJ/mol
# GULP energy per Si atom -12392.142222 kJ/mol
# Density = 2.387054 g / cm^3
# Si number density = 23.924999 Si / 1000 Ang^3
#
#
#
# Elastic Constant Matrix: (Units=GPa)
#
#
# Indices 1 2 3 4 5 6 
#
# 1 120.0259 29.9634 39.0299 0.0000 0.0000 0.0000
# 2 29.9634 96.2842 32.2599 0.0000 0.0000 0.0000
# 3 39.0299 32.2599 120.5118 0.0000 0.0000 0.0000
# 4 0.0000 0.0000 0.0000 10.5648 0.0000 0.0000
# 5 0.0000 0.0000 0.0000 0.0000 43.3988 0.0000
# 6 0.0000 0.0000 0.0000 0.0000 0.0000 56.6291
#
#
#
# Elastic Compliance Matrix: (Units=1/GPa)
#
#
# Indices 1 2 3 4 5 6 
#
# 1 0.009705 -0.002161 -0.002565 0.000000 0.000000 0.000000
# 2 -0.002161 0.011890 -0.002483 0.000000 0.000000 0.000000
# 3 -0.002565 -0.002483 0.009793 0.000000 0.000000 0.000000
# 4 0.000000 0.000000 0.000000 0.094654 0.000000 0.000000
# 5 0.000000 0.000000 0.000000 0.000000 0.023042 0.000000
# 6 0.000000 0.000000 0.000000 0.000000 0.000000 0.017659
#
#
# Mechanical properties :
#
#
# Convention : Reuss Voigt Hill
#
# Bulk Modulus (GPa) = 58.92312 59.92537 59.42424
# Shear Modulus (GPa) = 26.76406 37.82313 32.29360
#
# Velocity S-wave (km/s) = 3.34827 3.98037 3.67793
# Velocity P-wave (km/s) = 6.29521 6.79897 6.55193
#
# Compressibility (1/GPa) = 0.01697127
#
# Stress axis : x y z
#
# Youngs Moduli (GPa) = 103.04020 84.10194 102.11096
#
# Poissons Ratio (x) = 0.18173 0.26188
# Poissons Ratio (y) = 0.22266 0.25355
# Poissons Ratio (z) = 0.26427 0.20883
#
# Static dielectric constant tensor:
#      x y z
#    x 4.522890 0.000000 0.000000 
#    y 0.000000 4.608950 0.000000 
#    z 0.000000 0.000000 4.268190 
# 
# 
# High freq. dielectric constant tensor:
#      x y z
#    x 1.972810 0.000000 0.000000 
#    y 0.000000 1.962520 0.000000 
#    z 0.000000 0.000000 1.944230 
# 
# From -- ./inp_files/2970.got.cif
#   From: 2010.03.12/outbox.cif.g09.slc.cpg/sg30_2_cif.got.tgz:2970.got - 2010.04.14 01:38:02.
