data_PCOD8169283
_publ_section_title
;
Structure prediction by ZEFSAII (Michael W. Deem and Ramdas Pophale) SiO2 
 PCOD8169283
Probable space group: P C A 21
;
_chemical_formula_sum "Si O2"
_cell_formula_units_Z 20
_cell_length_a 16.868562
_cell_length_b 5.125379
_cell_length_c 9.422975
_cell_angle_alpha 90.000000
_cell_angle_beta 90.000000
_cell_angle_gamma 90.000000
_cell_volume 814.689438
_symmetry_space_group_name_H-M "P C A 21"
_symmetry_group_IT_number 29
_symmetry_cell_setting 'orthorhombic'
loop_
_space_group_symop_operation_xyz
x,y,z
-x,-y,1/2+z
1/2-x,y,1/2+z
1/2+x,-y,z
loop_
_atom_site_type_symbol
_atom_site_label
_atom_site_fract_x
_atom_site_fract_y
_atom_site_fract_z
Si Si1 0.324398 0.746071 0.885910
Si Si2 0.581739 0.473398 0.910849
Si Si3 0.723803 0.764667 0.842972
Si Si4 0.881517 0.093268 0.175391
Si Si5 0.470483 0.761540 0.700563
O O1 0.285404 0.477153 0.829580
O O2 0.387482 0.848671 0.769608
O O3 0.264146 0.982340 0.907949
O O4 0.362983 0.717086 0.042524
O O5 0.649798 0.687188 0.945183
O O6 0.627606 0.250194 0.822545
O O7 0.510450 0.573083 0.814175
O O8 0.543567 0.386793 0.055573
O O9 0.681218 0.849497 0.691896
O O10 0.972869 0.003072 0.161861
#
# Coordination Sequence:
#
# PCOD8169283 Si02
#       5
#     4   4   4   4   4
#     4  12  28  48  80 112 154 207 260 318 393 458
#     4  11  25  51  74 116 155 203 258 321 385 463
#     4  11  28  47  75 114 156 200 254 325 384 464
#     4  11  26  50  76 113 157 203 262 325 380 474
#     4  11  27  46  81 111 158 207 264 315 394 457
#
# _framework density 24.549232
#
# number of rings (size 3 to 8) (size 9 to 14) (size 15 to 20)
#    0.000    0.800    2.000    2.400   16.800    1.600 
#    0.000    0.000    0.000    0.000    0.000    0.000 
#    0.000    0.000    0.000    0.000    0.000    0.000 
#
# Total GULP energy -247907.870664 kJ/mol
# GULP energy per Si atom -12395.393533 kJ/mol
# Density = 2.449336 g / cm^3
# Si number density = 24.549232 Si / 1000 Ang^3
#
#
#
# Elastic Constant Matrix: (Units=GPa)
#
#
# Indices 1 2 3 4 5 6 
#
# 1 75.8206 13.4063 34.2837 0.0000 0.0000 0.0000
# 2 13.4063 90.8067 13.7541 0.0000 0.0000 0.0000
# 3 34.2837 13.7541 115.0782 0.0000 0.0000 0.0000
# 4 0.0000 0.0000 0.0000 32.8064 0.0000 0.0000
# 5 0.0000 0.0000 0.0000 0.0000 25.1007 0.0000
# 6 0.0000 0.0000 0.0000 0.0000 0.0000 20.8861
#
#
#
# Elastic Compliance Matrix: (Units=1/GPa)
#
#
# Indices 1 2 3 4 5 6 
#
# 1 0.015471 -0.001615 -0.004416 0.000000 0.000000 0.000000
# 2 -0.001615 0.011384 -0.000879 0.000000 0.000000 0.000000
# 3 -0.004416 -0.000879 0.010110 0.000000 0.000000 0.000000
# 4 0.000000 0.000000 0.000000 0.030482 0.000000 0.000000
# 5 0.000000 0.000000 0.000000 0.000000 0.039840 0.000000
# 6 0.000000 0.000000 0.000000 0.000000 0.000000 0.047879
#
#
# Mechanical properties :
#
#
# Convention : Reuss Voigt Hill
#
# Bulk Modulus (GPa) = 43.20696 44.95486 44.08091
# Shear Modulus (GPa) = 28.29613 30.44273 29.36943
#
# Velocity S-wave (km/s) = 3.39872 3.52528 3.46258
# Velocity P-wave (km/s) = 5.74805 5.90949 5.82933
#
# Compressibility (1/GPa) = 0.02314442
#
# Stress axis : x y z
#
# Youngs Moduli (GPa) = 64.63507 87.84204 98.90711
#
# Poissons Ratio (x) = 0.14189 0.43679
# Poissons Ratio (y) = 0.10440 0.08698
# Poissons Ratio (z) = 0.28544 0.07725
#
# Static dielectric constant tensor:
#      x y z
#    x 4.799980 0.000000 0.000000 
#    y 0.000000 4.522060 0.000000 
#    z 0.000000 0.000000 4.128300 
# 
# 
# High freq. dielectric constant tensor:
#      x y z
#    x 2.002220 0.000000 0.000000 
#    y 0.000000 1.975390 0.000000 
#    z 0.000000 0.000000 1.961300 
# 
# From -- ./inp_files/1944.got.cif
#   From: 2010.03.12/outbox.cif.g09.slc.cpg/sg29_1_cif.got.tgz:1944.got - 2010.04.14 03:43:10.
