data_PCOD8169088
_publ_section_title
;
Structure prediction by ZEFSAII (Michael W. Deem and Ramdas Pophale) SiO2 
 PCOD8169088
Probable space group: P C A 21
;
_chemical_formula_sum "Si O2"
_cell_formula_units_Z 32
_cell_length_a 8.849255
_cell_length_b 8.636109
_cell_length_c 18.008337
_cell_angle_alpha 90.000000
_cell_angle_beta 90.000000
_cell_angle_gamma 90.000000
_cell_volume 1376.253493
_symmetry_space_group_name_H-M "P C A 21"
_symmetry_group_IT_number 29
_symmetry_cell_setting 'orthorhombic'
loop_
_space_group_symop_operation_xyz
x,y,z
-x,-y,1/2+z
1/2-x,y,1/2+z
1/2+x,-y,z
loop_
_atom_site_type_symbol
_atom_site_label
_atom_site_fract_x
_atom_site_fract_y
_atom_site_fract_z
Si Si1 0.031148 0.291357 0.622760
Si Si2 0.157874 0.055833 0.741027
Si Si3 0.559767 0.360608 0.468917
Si Si4 0.570609 0.659928 0.378429
Si Si5 0.352835 0.808231 0.487515
Si Si6 0.147027 0.429408 0.101666
Si Si7 0.652303 0.880949 0.907235
Si Si8 0.460757 0.209742 0.722302
O O1 0.074973 0.190453 0.693781
O O2 0.173858 0.397450 0.594903
O O3 0.973772 0.183838 0.554942
O O4 0.894638 0.409702 0.643566
O O5 0.106568 0.058859 0.826242
O O6 0.336875 0.074935 0.735337
O O7 0.117693 0.883097 0.713170
O O8 0.596469 0.483262 0.403624
O O9 0.712728 0.304131 0.510830
O O10 0.433607 0.438170 0.521640
O O11 0.497970 0.203012 0.434347
O O12 0.422468 0.732949 0.414059
O O13 0.712575 0.759599 0.404715
O O14 0.547408 0.665996 0.289297
O O15 0.304298 0.982399 0.465039
O O16 0.069207 0.289535 0.144788
#
# Coordination Sequence:
#
# PCOD8169088 Si02
#       8
#     4   4   4   4   4   4   4   4
#     4  11  25  45  69 101 140 180 232 283 344 413
#     4  10  24  45  68  98 137 181 227 288 339 411
#     4  12  26  42  71 104 138 188 227 288 352 410
#     4  11  23  45  69 100 141 177 231 288 341 416
#     4  12  24  43  71 102 138 185 228 286 346 414
#     4  11  25  46  67 102 139 180 233 282 344 415
#     4  11  25  45  69 101 141 182 233 288 347 415
#     4  10  24  45  70  98 138 181 229 287 343 410
#
# _framework density 23.251531
#
# number of rings (size 3 to 8) (size 9 to 14) (size 15 to 20)
#    0.000    1.000    2.500    3.000    5.250    2.000 
#    2.250    0.000    0.000    0.000    0.000    0.000 
#    0.000    0.000    0.000    0.000    0.000    0.000 
#
# Total GULP energy -396844.784463 kJ/mol
# GULP energy per Si atom -12401.399514 kJ/mol
# Density = 2.319861 g / cm^3
# Si number density = 23.251531 Si / 1000 Ang^3
#
#
#
# Elastic Constant Matrix: (Units=GPa)
#
#
# Indices 1 2 3 4 5 6 
#
# 1 67.3367 23.3867 18.3437 0.0000 0.0000 0.0000
# 2 23.3867 104.1845 18.8538 0.0000 0.0000 0.0000
# 3 18.3437 18.8538 61.7868 0.0000 0.0000 0.0000
# 4 0.0000 0.0000 0.0000 28.0102 0.0000 0.0000
# 5 0.0000 0.0000 0.0000 0.0000 29.0456 0.0000
# 6 0.0000 0.0000 0.0000 0.0000 0.0000 42.2717
#
#
#
# Elastic Compliance Matrix: (Units=1/GPa)
#
#
# Indices 1 2 3 4 5 6 
#
# 1 0.017043 -0.003080 -0.004120 0.000000 0.000000 0.000000
# 2 -0.003080 0.010716 -0.002355 0.000000 0.000000 0.000000
# 3 -0.004120 -0.002355 0.018127 0.000000 0.000000 0.000000
# 4 0.000000 0.000000 0.000000 0.035701 0.000000 0.000000
# 5 0.000000 0.000000 0.000000 0.000000 0.034429 0.000000
# 6 0.000000 0.000000 0.000000 0.000000 0.000000 0.023657
#
#
# Mechanical properties :
#
#
# Convention : Reuss Voigt Hill
#
# Bulk Modulus (GPa) = 37.34904 39.38626 38.36765
# Shear Modulus (GPa) = 29.81379 31.38042 30.59710
#
# Velocity S-wave (km/s) = 3.58471 3.67768 3.63149
# Velocity P-wave (km/s) = 5.76467 5.91691 5.84129
#
# Compressibility (1/GPa) = 0.02677445
#
# Stress axis : x y z
#
# Youngs Moduli (GPa) = 58.67576 93.31824 55.16756
#
# Poissons Ratio (x) = 0.28743 0.22729
# Poissons Ratio (y) = 0.18073 0.12995
# Poissons Ratio (z) = 0.24174 0.21981
#
# Static dielectric constant tensor:
#      x y z
#    x 4.289060 0.000000 0.000000 
#    y 0.000000 4.171350 0.000000 
#    z 0.000000 0.000000 4.092880 
# 
# 
# High freq. dielectric constant tensor:
#      x y z
#    x 1.926080 0.000000 0.000000 
#    y 0.000000 1.925540 0.000000 
#    z 0.000000 0.000000 1.913520 
# 
# From -- ./inp_files/5419.got.cif
#   From: 2010.03.12/outbox.cif.g09.slc.cpg/sg29_3_cif.got.tgz:5419.got - 2010.04.14 03:43:10.
