data_PCOD8169708
_publ_section_title
;
Structure prediction by ZEFSAII (Michael W. Deem and Ramdas Pophale) SiO2 
 PCOD8169708
Probable space group: P M N 21
;
_chemical_formula_sum "Si O2"
_cell_formula_units_Z 32
_cell_length_a 8.923541
_cell_length_b 12.698088
_cell_length_c 14.459720
_cell_angle_alpha 90.000000
_cell_angle_beta 90.000000
_cell_angle_gamma 90.000000
_cell_volume 1638.458475
_symmetry_space_group_name_H-M "P M N 21"
_symmetry_group_IT_number 31
_symmetry_cell_setting 'orthorhombic'
loop_
_space_group_symop_operation_xyz
x,y,z
1/2-x,-y,1/2+z
-x,y,z
1/2+x,-y,1/2+z
loop_
_atom_site_type_symbol
_atom_site_label
_atom_site_fract_x
_atom_site_fract_y
_atom_site_fract_z
Si Si1 0.321999 0.977659 0.778010
Si Si2 0.829262 0.482746 0.093703
Si Si3 0.825422 0.197116 0.786222
Si Si4 0.322226 0.702060 0.097034
Si Si5 0.326811 0.722346 0.482092
Si Si6 0.672232 0.795461 0.912163
Si Si7 0.830684 0.325360 0.241433
Si Si8 0.825244 0.847396 0.629880
O O1 0.500000 0.974496 0.771631
O O2 0.260342 0.895188 0.856113
O O3 0.254693 0.948059 0.677226
O O4 0.266417 0.092017 0.806563
O O5 0.725840 0.582681 0.080685
O O6 0.812508 0.442938 0.200880
O O7 0.000000 0.514852 0.072472
O O8 0.775300 0.390368 0.023575
O O9 0.761485 0.253105 0.694072
O O10 0.798312 0.276102 0.872071
O O11 0.000000 0.168737 0.775124
O O12 0.500000 0.703169 0.095490
O O13 0.255066 0.773775 0.012940
O O14 0.500000 0.739548 0.506400
O O15 0.238014 0.820615 0.527907
O O16 0.500000 0.821096 0.929240
O O17 0.693013 0.687264 0.851634
O O18 0.707085 0.253823 0.192576
O O19 0.000000 0.284241 0.216767
O O20 0.000000 0.871918 0.622464
#
# Coordination Sequence:
#
# PCOD8169708 Si02
#       8
#     4   4   4   4   4   4   4   4
#     4  10  20  36  57  79 107 144 181 220 272 327
#     4   9  18  33  53  76 104 141 182 222 268 322
#     4  10  22  38  54  77 111 146 179 221 274 325
#     4  10  21  36  53  77 110 141 172 218 270 318
#     4   9  19  37  56  75 107 148 184 221 271 326
#     4   8  16  33  55  76 100 136 178 215 258 314
#     4   8  15  31  53  75 103 138 174 216 266 314
#     4  10  18  30  53  83 108 132 174 227 269 314
#
# _framework density 19.530553999999999
#
# number of rings (size 3 to 8) (size 9 to 14) (size 15 to 20)
#    0.000    2.750    0.000    3.000    0.000    5.000 
#    0.000    4.375    0.000    0.000    0.000    0.000 
#    0.000    0.000    0.000    0.000    0.000    0.000 
#
# Total GULP energy -396535.138415 kJ/mol
# GULP energy per Si atom -12391.723075 kJ/mol
# Density = 1.948610 g / cm^3
# Si number density = 19.530554 Si / 1000 Ang^3
#
#
#
# Elastic Constant Matrix: (Units=GPa)
#
#
# Indices 1 2 3 4 5 6 
#
# 1 53.8742 26.6676 29.7946 0.0000 0.0000 0.0000
# 2 26.6676 103.8380 58.4583 0.0000 0.0000 0.0000
# 3 29.7946 58.4583 155.4056 0.0000 0.0000 0.0000
# 4 0.0000 0.0000 0.0000 26.1588 0.0000 0.0000
# 5 0.0000 0.0000 0.0000 0.0000 15.7651 0.0000
# 6 0.0000 0.0000 0.0000 0.0000 0.0000 31.2118
#
#
#
# Elastic Compliance Matrix: (Units=1/GPa)
#
#
# Indices 1 2 3 4 5 6 
#
# 1 0.022103 -0.004175 -0.002667 0.000000 0.000000 0.000000
# 2 -0.004175 0.013006 -0.004092 0.000000 0.000000 0.000000
# 3 -0.002667 -0.004092 0.008485 0.000000 0.000000 0.000000
# 4 0.000000 0.000000 0.000000 0.038228 0.000000 0.000000
# 5 0.000000 0.000000 0.000000 0.000000 0.063431 0.000000
# 6 0.000000 0.000000 0.000000 0.000000 0.000000 0.032039
#
#
# Mechanical properties :
#
#
# Convention : Reuss Voigt Hill
#
# Bulk Modulus (GPa) = 46.02653 60.32874 53.17764
# Shear Modulus (GPa) = 24.22426 27.84030 26.03228
#
# Velocity S-wave (km/s) = 3.52565 3.77964 3.65485
# Velocity P-wave (km/s) = 6.33965 7.07135 6.71548
#
# Compressibility (1/GPa) = 0.02172660
#
# Stress axis : x y z
#
# Youngs Moduli (GPa) = 45.24181 76.88549 117.84881
#
# Poissons Ratio (x) = 0.32100 0.31433
# Poissons Ratio (y) = 0.18888 0.48225
# Poissons Ratio (z) = 0.12067 0.31462
#
# Static dielectric constant tensor:
#      x y z
#    x 3.272960 0.000000 0.000000 
#    y 0.000000 3.369350 0.000000 
#    z 0.000000 0.000000 3.967450 
# 
# 
# High freq. dielectric constant tensor:
#      x y z
#    x 1.736060 0.000000 0.000000 
#    y 0.000000 1.740750 0.000000 
#    z 0.000000 0.000000 1.766930 
# 
# From -- ./inp_files/5015.got.cif
#   From: 2010.03.12/outbox.cif.g09.slc.cpg/sg31_3_cif.got.tgz:5015.got - 2010.04.14 01:42:59.
