data_PCOD8169414
_publ_section_title
;
Structure prediction by ZEFSAII (Michael W. Deem and Ramdas Pophale) SiO2 
 PCOD8169414
Probable space group: P N C 2
;
_chemical_formula_sum "Si O2"
_cell_formula_units_Z 32
_cell_length_a 10.625703
_cell_length_b 9.542668
_cell_length_c 14.405045
_cell_angle_alpha 90.000000
_cell_angle_beta 90.000000
_cell_angle_gamma 90.000000
_cell_volume 1460.636357
_symmetry_space_group_name_H-M "P N C 2"
_symmetry_group_IT_number 30
_symmetry_cell_setting 'orthorhombic'
loop_
_space_group_symop_operation_xyz
x,y,z
-x,-y,z
-x,1/2+y,1/2+z
x,1/2-y,1/2+z
loop_
_atom_site_type_symbol
_atom_site_label
_atom_site_fract_x
_atom_site_fract_y
_atom_site_fract_z
Si Si1 0.499156 0.153585 0.647730
Si Si2 0.288153 0.652491 0.617135
Si Si3 0.869558 0.581450 0.809033
Si Si4 0.757343 0.199763 0.326229
Si Si5 0.244397 0.310829 0.423747
Si Si6 0.128280 0.586221 0.442883
Si Si7 0.486949 0.844967 0.861508
Si Si8 0.731495 0.656727 0.631736
O O1 0.591497 0.253346 0.587031
O O2 0.542040 0.138865 0.753061
O O3 0.361704 0.219017 0.657357
O O4 0.500000 0.000000 0.600255
O O5 0.239328 0.718249 0.714333
O O6 0.176299 0.649721 0.541388
O O7 0.339308 0.493657 0.629281
O O8 0.767529 0.466735 0.843829
O O9 0.861160 0.711503 0.878903
O O10 0.843095 0.643815 0.706622
O O11 0.000000 0.500000 0.808113
O O12 0.877219 0.286282 0.368380
O O13 0.636990 0.254552 0.387727
O O14 0.225837 0.474199 0.396754
O O15 0.385265 0.263265 0.391955
O O16 0.212982 0.301297 0.532514
O O17 0.000000 0.500000 0.458077
O O18 0.500000 0.000000 0.907611
#
# Coordination Sequence:
#
# PCOD8169414 Si02
#       8
#     4   4   4   4   4   4   4   4
#     4  10  20  36  61  95 133 168 211 277 336 392
#     4   9  22  38  62  92 132 173 217 271 328 397
#     4  11  24  45  65  94 138 174 217 278 329 393
#     4  10  22  39  64  96 129 178 216 272 343 384
#     4  11  23  39  67  95 128 178 222 276 331 394
#     4  11  23  42  67  96 128 177 232 268 320 404
#     4  10  19  37  63  94 134 166 221 276 328 398
#     4  10  22  39  63  94 126 176 223 261 337 394
#
# _framework density 21.908261
#
# number of rings (size 3 to 8) (size 9 to 14) (size 15 to 20)
#    0.000    1.750    2.500    1.125    1.750    6.000 
#    0.000    0.000    0.000    1.500    0.000    0.000 
#    0.000    0.000    0.000    0.000    0.000    0.000 
#
# Total GULP energy -396453.324009 kJ/mol
# GULP energy per Si atom -12389.166375 kJ/mol
# Density = 2.185840 g / cm^3
# Si number density = 21.908261 Si / 1000 Ang^3
#
#
#
# Elastic Constant Matrix: (Units=GPa)
#
#
# Indices 1 2 3 4 5 6 
#
# 1 104.2417 31.0582 43.1839 0.0000 0.0000 0.0000
# 2 31.0582 102.6887 58.3586 0.0000 0.0000 0.0000
# 3 43.1839 58.3586 107.6059 0.0000 0.0000 0.0000
# 4 0.0000 0.0000 0.0000 27.3741 0.0000 0.0000
# 5 0.0000 0.0000 0.0000 0.0000 25.1641 0.0000
# 6 0.0000 0.0000 0.0000 0.0000 0.0000 34.9313
#
#
#
# Elastic Compliance Matrix: (Units=1/GPa)
#
#
# Indices 1 2 3 4 5 6 
#
# 1 0.011616 -0.001249 -0.003984 0.000000 0.000000 0.000000
# 2 -0.001249 0.014211 -0.007206 0.000000 0.000000 0.000000
# 3 -0.003984 -0.007206 0.014800 0.000000 0.000000 0.000000
# 4 0.000000 0.000000 0.000000 0.036531 0.000000 0.000000
# 5 0.000000 0.000000 0.000000 0.000000 0.039739 0.000000
# 6 0.000000 0.000000 0.000000 0.000000 0.000000 0.028628
#
#
# Mechanical properties :
#
#
# Convention : Reuss Voigt Hill
#
# Bulk Modulus (GPa) = 63.49718 64.41530 63.95624
# Shear Modulus (GPa) = 28.46526 29.62292 29.04409
#
# Velocity S-wave (km/s) = 3.60848 3.68113 3.64499
# Velocity P-wave (km/s) = 6.81232 6.89447 6.85352
#
# Compressibility (1/GPa) = 0.01574873
#
# Stress axis : x y z
#
# Youngs Moduli (GPa) = 86.09010 70.36740 67.56667
#
# Poissons Ratio (x) = 0.08788 0.26920
# Poissons Ratio (y) = 0.10752 0.48689
# Poissons Ratio (z) = 0.34300 0.50707
#
# Static dielectric constant tensor:
#      x y z
#    x 3.865450 0.000000 0.000000 
#    y 0.000000 4.391820 0.000000 
#    z 0.000000 0.000000 3.833540 
# 
# 
# High freq. dielectric constant tensor:
#      x y z
#    x 1.847700 0.000000 0.000000 
#    y 0.000000 1.863670 0.000000 
#    z 0.000000 0.000000 1.853540 
# 
# From -- ./inp_files/5531.got.cif
#   From: 2010.03.12/outbox.cif.g09.slc.cpg/sg30_3_cif.got.tgz:5531.got - 2010.04.14 01:38:02.
