data_PCOD8169857
_publ_section_title
;
Structure prediction by ZEFSAII (Michael W. Deem and Ramdas Pophale) SiO2 
 PCOD8169857
Probable space group: P M N 21
;
_chemical_formula_sum "Si O2"
_cell_formula_units_Z 32
_cell_length_a 9.531197
_cell_length_b 13.533135
_cell_length_c 12.997626
_cell_angle_alpha 90.000000
_cell_angle_beta 90.000000
_cell_angle_gamma 90.000000
_cell_volume 1676.524469
_symmetry_space_group_name_H-M "P M N 21"
_symmetry_group_IT_number 31
_symmetry_cell_setting 'orthorhombic'
loop_
_space_group_symop_operation_xyz
x,y,z
1/2-x,-y,1/2+z
-x,y,z
1/2+x,-y,1/2+z
loop_
_atom_site_type_symbol
_atom_site_label
_atom_site_fract_x
_atom_site_fract_y
_atom_site_fract_z
Si Si1 0.835355 0.256479 0.176300
Si Si2 0.844773 0.550484 0.909773
Si Si3 0.832133 0.101080 0.007679
Si Si4 0.834481 0.180337 0.787694
Si Si5 0.155958 0.469872 0.122022
Si Si6 0.334804 0.908912 0.070506
Si Si7 0.334560 0.602447 0.240895
Si Si8 0.663039 0.740436 0.907417
O O1 0.772906 0.366604 0.158775
O O2 0.798108 0.220553 0.292185
O O3 0.000000 0.264051 0.157550
O O4 0.776251 0.180290 0.091638
O O5 0.788486 0.485293 0.816490
O O6 0.743348 0.640691 0.933361
O O7 0.000000 0.593570 0.886793
O O8 0.854245 0.469173 0.999434
O O9 0.779084 0.132015 0.893549
O O10 0.000000 0.087829 0.012032
O O11 0.758126 0.999595 0.035044
O O12 0.788414 0.118877 0.686794
O O13 0.776580 0.291985 0.778609
O O14 0.000000 0.185461 0.793005
O O15 0.250953 0.567347 0.140720
O O16 0.000000 0.481972 0.171025
O O17 0.500000 0.934263 0.064892
O O18 0.296447 0.820650 0.992734
O O19 0.500000 0.607725 0.218962
O O20 0.500000 0.714636 0.913241
#
# Coordination Sequence:
#
# PCOD8169857 Si02
#       8
#     4   4   4   4   4   4   4   4
#     4   9  18  34  56  81 107 142 185 222 265 326
#     4  10  20  32  52  83 114 142 179 227 266 305
#     4  10  21  38  61  82 103 143 190 228 272 328
#     4   9  19  37  57  79 110 145 181 221 272 332
#     4  10  19  33  53  79 113 147 180 220 264 315
#     4  10  22  38  57  82 110 142 180 229 282 327
#     4  10  19  34  55  80 108 143 182 218 260 319
#     4  10  20  36  57  80 111 148 183 221 273 336
#
# _framework density 19.087105999999999
#
# number of rings (size 3 to 8) (size 9 to 14) (size 15 to 20)
#    0.000    2.250    1.250    1.500    1.750    5.000 
#    0.000    2.500    0.000    1.500    0.000    0.000 
#    0.000    0.000    0.000    0.000    0.000    0.000 
#
# Total GULP energy -396637.341152 kJ/mol
# GULP energy per Si atom -12394.916911 kJ/mol
# Density = 1.904366 g / cm^3
# Si number density = 19.087106 Si / 1000 Ang^3
#
#
#
# Elastic Constant Matrix: (Units=GPa)
#
#
# Indices 1 2 3 4 5 6 
#
# 1 38.9206 43.3384 24.5350 0.0000 0.0000 0.0000
# 2 43.3384 125.7099 55.9385 0.0000 0.0000 0.0000
# 3 24.5350 55.9385 129.3730 0.0000 0.0000 0.0000
# 4 0.0000 0.0000 0.0000 34.6207 0.0000 0.0000
# 5 0.0000 0.0000 0.0000 0.0000 18.6423 0.0000
# 6 0.0000 0.0000 0.0000 0.0000 0.0000 31.6632
#
#
#
# Elastic Compliance Matrix: (Units=1/GPa)
#
#
# Indices 1 2 3 4 5 6 
#
# 1 0.042166 -0.013594 -0.002119 0.000000 0.000000 0.000000
# 2 -0.013594 0.014232 -0.003576 0.000000 0.000000 0.000000
# 3 -0.002119 -0.003576 0.009678 0.000000 0.000000 0.000000
# 4 0.000000 0.000000 0.000000 0.028884 0.000000 0.000000
# 5 0.000000 0.000000 0.000000 0.000000 0.053642 0.000000
# 6 0.000000 0.000000 0.000000 0.000000 0.000000 0.031582
#
#
# Mechanical properties :
#
#
# Convention : Reuss Voigt Hill
#
# Bulk Modulus (GPa) = 36.36516 60.18079 48.27298
# Shear Modulus (GPa) = 21.93680 28.33133 25.13407
#
# Velocity S-wave (km/s) = 3.39381 3.85686 3.63272
# Velocity P-wave (km/s) = 5.86948 7.17160 6.55297
#
# Compressibility (1/GPa) = 0.02749885
#
# Stress axis : x y z
#
# Youngs Moduli (GPa) = 23.71591 70.26199 103.33198
#
# Poissons Ratio (x) = 0.95513 0.21894
# Poissons Ratio (y) = 0.32239 0.36950
# Poissons Ratio (z) = 0.05025 0.25125
#
# Static dielectric constant tensor:
#      x y z
#    x 3.185100 0.000000 0.000000 
#    y 0.000000 3.453880 0.000000 
#    z 0.000000 0.000000 3.828720 
# 
# 
# High freq. dielectric constant tensor:
#      x y z
#    x 1.707160 0.000000 0.000000 
#    y 0.000000 1.742020 0.000000 
#    z 0.000000 0.000000 1.761810 
# 
# From -- ./inp_files/3698.got.cif
#   From: 2010.03.12/outbox.cif.g09.slc.cpg/sg31_2_cif.got.tgz:3698.got - 2010.04.14 01:42:59.
