data_PCOD8169843
_publ_section_title
;
Structure prediction by ZEFSAII (Michael W. Deem and Ramdas Pophale) SiO2 
 PCOD8169843
Probable space group: P M N 21
;
_chemical_formula_sum "Si O2"
_cell_formula_units_Z 32
_cell_length_a 8.894971
_cell_length_b 12.156945
_cell_length_c 14.555890
_cell_angle_alpha 90.000000
_cell_angle_beta 90.000000
_cell_angle_gamma 90.000000
_cell_volume 1574.010965
_symmetry_space_group_name_H-M "P M N 21"
_symmetry_group_IT_number 31
_symmetry_cell_setting 'orthorhombic'
loop_
_space_group_symop_operation_xyz
x,y,z
1/2-x,-y,1/2+z
-x,y,z
1/2+x,-y,1/2+z
loop_
_atom_site_type_symbol
_atom_site_label
_atom_site_fract_x
_atom_site_fract_y
_atom_site_fract_z
Si Si1 0.821875 0.384622 0.456440
Si Si2 0.831204 0.033132 0.491189
Si Si3 0.671278 0.844030 0.257062
Si Si4 0.824256 0.668995 0.766142
Si Si5 0.171523 0.915891 0.808086
Si Si6 0.171291 0.792648 0.442655
Si Si7 0.321571 0.403670 0.068196
Si Si8 0.826623 0.789310 0.083570
O O1 0.757461 0.386578 0.353191
O O2 0.762096 0.485827 0.519010
O O3 0.766863 0.276334 0.507811
O O4 0.000000 0.386749 0.449126
O O5 0.790797 0.071736 0.388912
O O6 0.711430 0.083577 0.562166
O O7 0.000000 0.074928 0.513341
O O8 0.823188 0.902644 0.503132
O O9 0.500000 0.809836 0.240674
O O10 0.718966 0.805220 0.357183
O O11 0.771498 0.771530 0.187367
O O12 0.691499 0.976471 0.243151
O O13 0.794140 0.800657 0.756857
O O14 0.761916 0.610536 0.673025
O O15 0.000000 0.646155 0.778909
O O16 0.000000 0.914392 0.846920
O O17 0.236551 0.696604 0.506137
O O18 0.000000 0.769577 0.409461
O O19 0.500000 0.401121 0.071916
O O20 0.000000 0.759805 0.074048
#
# Coordination Sequence:
#
# PCOD8169843 Si02
#       8
#     4   4   4   4   4   4   4   4
#     4  11  23  41  62  88 121 157 203 257 300 349
#     4  10  19  32  57  87 119 154 193 240 296 355
#     4  10  21  36  57  89 125 161 199 245 297 356
#     4  10  20  38  63  88 116 157 199 244 300 362
#     4   9  18  33  57  85 119 156 195 239 295 356
#     4   9  19  38  61  87 121 159 194 238 299 361
#     4   9  21  40  64  90 118 156 203 248 299 358
#     4  12  24  38  57  84 119 162 206 247 298 357
#
# _framework density 20.330226
#
# number of rings (size 3 to 8) (size 9 to 14) (size 15 to 20)
#    0.000    2.000    1.250    2.250    1.750    2.000 
#    0.000    5.625    0.000    0.000    0.000    0.000 
#    0.000    0.000    0.000    0.000    0.000    0.000 
#
# Total GULP energy -396706.655250 kJ/mol
# GULP energy per Si atom -12397.082977 kJ/mol
# Density = 2.028395 g / cm^3
# Si number density = 20.330226 Si / 1000 Ang^3
#
#
#
# Elastic Constant Matrix: (Units=GPa)
#
#
# Indices 1 2 3 4 5 6 
#
# 1 66.0587 36.2240 35.9185 0.0000 0.0000 0.0000
# 2 36.2240 78.6700 54.4851 0.0000 0.0000 0.0000
# 3 35.9185 54.4851 125.0259 0.0000 0.0000 0.0000
# 4 0.0000 0.0000 0.0000 29.6055 0.0000 0.0000
# 5 0.0000 0.0000 0.0000 0.0000 33.1856 0.0000
# 6 0.0000 0.0000 0.0000 0.0000 0.0000 17.6964
#
#
#
# Elastic Compliance Matrix: (Units=1/GPa)
#
#
# Indices 1 2 3 4 5 6 
#
# 1 0.020818 -0.007797 -0.002583 0.000000 0.000000 0.000000
# 2 -0.007797 0.021126 -0.006967 0.000000 0.000000 0.000000
# 3 -0.002583 -0.006967 0.011776 0.000000 0.000000 0.000000
# 4 0.000000 0.000000 0.000000 0.033777 0.000000 0.000000
# 5 0.000000 0.000000 0.000000 0.000000 0.030134 0.000000
# 6 0.000000 0.000000 0.000000 0.000000 0.000000 0.056509
#
#
# Mechanical properties :
#
#
# Convention : Reuss Voigt Hill
#
# Bulk Modulus (GPa) = 52.55486 58.11219 55.33353
# Shear Modulus (GPa) = 23.23675 25.63930 24.43802
#
# Velocity S-wave (km/s) = 3.38444 3.55511 3.47083
# Velocity P-wave (km/s) = 6.41711 6.74521 6.58321
#
# Compressibility (1/GPa) = 0.01902773
#
# Stress axis : x y z
#
# Youngs Moduli (GPa) = 48.03537 47.33404 84.91521
#
# Poissons Ratio (x) = 0.36906 0.21933
# Poissons Ratio (y) = 0.37452 0.59158
# Poissons Ratio (z) = 0.12407 0.32977
#
# Static dielectric constant tensor:
#      x y z
#    x 3.499090 0.000000 0.000000 
#    y 0.000000 3.821700 0.000000 
#    z 0.000000 0.000000 3.691060 
# 
# 
# High freq. dielectric constant tensor:
#      x y z
#    x 1.778420 0.000000 0.000000 
#    y 0.000000 1.789540 0.000000 
#    z 0.000000 0.000000 1.795380 
# 
# From -- ./inp_files/4984.got.cif
#   From: 2010.03.12/outbox.cif.g09.slc.cpg/sg31_3_cif.got.tgz:4984.got - 2010.04.14 01:42:59.
