data_PCOD8169532
_publ_section_title
;
Structure prediction by ZEFSAII (Michael W. Deem and Ramdas Pophale) SiO2 
 PCOD8169532
Probable space group: P N C 2
;
_chemical_formula_sum "Si O2"
_cell_formula_units_Z 22
_cell_length_a 6.109989
_cell_length_b 13.483766
_cell_length_c 13.971260
_cell_angle_alpha 90.000000
_cell_angle_beta 90.000000
_cell_angle_gamma 90.000000
_cell_volume 1151.031503
_symmetry_space_group_name_H-M "P N C 2"
_symmetry_group_IT_number 30
_symmetry_cell_setting 'orthorhombic'
loop_
_space_group_symop_operation_xyz
x,y,z
-x,-y,z
-x,1/2+y,1/2+z
x,1/2-y,1/2+z
loop_
_atom_site_type_symbol
_atom_site_label
_atom_site_fract_x
_atom_site_fract_y
_atom_site_fract_z
Si Si1 0.204106 0.185758 0.039560
Si Si2 0.479721 0.616135 0.700052
Si Si3 0.298965 0.252135 0.842839
Si Si4 0.089895 0.745730 0.201367
Si Si5 0.640299 0.088570 0.788316
Si Si6 0.000000 0.000000 0.930985
O O1 0.415348 0.163950 0.104882
O O2 0.032087 0.247789 0.101500
O O3 0.261049 0.263630 0.955861
O O4 0.103054 0.084028 0.998837
O O5 0.500000 0.500000 0.690882
O O6 0.608538 0.647882 0.795913
O O7 0.230744 0.653009 0.711347
O O8 0.469286 0.162098 0.837678
O O9 0.069462 0.228987 0.791479
O O10 0.242419 0.647879 0.202134
O O11 0.500000 0.000000 0.741403
O O12 0.808304 0.046647 0.866848
#
# Coordination Sequence:
#
# PCOD8169532 Si02
#       6
#     4   4   4   4   4   2
#     4  11  22  35  61  96 120 159 211 256 310 374
#     4  10  23  39  62  91 125 159 212 260 313 371
#     4  10  22  38  59  89 126 165 203 256 319 372
#     4  10  22  39  58  88 129 166 198 267 313 368
#     4  11  20  36  60  91 126 163 206 255 320 370
#     4  12  22  34  68  96 120 154 208 274 316 368
#
# _framework density 19.113292000000001
#
# number of rings (size 3 to 8) (size 9 to 14) (size 15 to 20)
#    0.000    1.455    3.636    1.091    5.091    2.182 
#    0.000    0.000    0.000   34.909    0.000    0.000 
#    0.000    0.000    0.000    0.000    0.000    0.000 
#
# Total GULP energy -272712.033520 kJ/mol
# GULP energy per Si atom -12396.001524 kJ/mol
# Density = 1.906979 g / cm^3
# Si number density = 19.113292 Si / 1000 Ang^3
#
#
#
# Elastic Constant Matrix: (Units=GPa)
#
#
# Indices 1 2 3 4 5 6 
#
# 1 123.8887 47.5413 58.2361 0.0000 0.0000 0.0000
# 2 47.5413 69.4327 60.0275 0.0000 0.0000 0.0000
# 3 58.2361 60.0275 145.7162 0.0000 0.0000 0.0000
# 4 0.0000 0.0000 0.0000 26.8549 0.0000 0.0000
# 5 0.0000 0.0000 0.0000 0.0000 15.3761 0.0000
# 6 0.0000 0.0000 0.0000 0.0000 0.0000 34.9519
#
#
#
# Elastic Compliance Matrix: (Units=1/GPa)
#
#
# Indices 1 2 3 4 5 6 
#
# 1 0.011337 -0.005972 -0.002071 0.000000 0.000000 0.000000
# 2 -0.005972 0.025516 -0.008124 0.000000 0.000000 0.000000
# 3 -0.002071 -0.008124 0.011037 0.000000 0.000000 0.000000
# 4 0.000000 0.000000 0.000000 0.037237 0.000000 0.000000
# 5 0.000000 0.000000 0.000000 0.000000 0.065036 0.000000
# 6 0.000000 0.000000 0.000000 0.000000 0.000000 0.028611
#
#
# Mechanical properties :
#
#
# Convention : Reuss Voigt Hill
#
# Bulk Modulus (GPa) = 64.28770 74.51637 69.40204
# Shear Modulus (GPa) = 23.11684 26.98543 25.05114
#
# Velocity S-wave (km/s) = 3.48151 3.76156 3.62424
# Velocity P-wave (km/s) = 7.06182 7.61164 7.34188
#
# Compressibility (1/GPa) = 0.01555507
#
# Stress axis : x y z
#
# Youngs Moduli (GPa) = 88.20725 39.19181 90.60547
#
# Poissons Ratio (x) = 0.23407 0.18760
# Poissons Ratio (y) = 0.52682 0.73609
# Poissons Ratio (z) = 0.18263 0.31840
#
# Static dielectric constant tensor:
#      x y z
#    x 3.986670 0.000000 0.000000 
#    y 0.000000 3.496740 0.000000 
#    z 0.000000 0.000000 3.492970 
# 
# 
# High freq. dielectric constant tensor:
#      x y z
#    x 1.768480 0.000000 0.000000 
#    y 0.000000 1.733090 0.000000 
#    z 0.000000 0.000000 1.731010 
# 
# From -- ./inp_files/3093.got.cif
#   From: 2010.03.12/outbox.cif.g09.slc.cpg/sg30_2_cif.got.tgz:3093.got - 2010.04.14 01:38:02.
