data_PCOD8169973
_publ_section_title
;
Structure prediction by ZEFSAII (Michael W. Deem and Ramdas Pophale) SiO2 
 PCOD8169973
Probable space group: P M N 21
;
_chemical_formula_sum "Si O2"
_cell_formula_units_Z 32
_cell_length_a 8.646771
_cell_length_b 14.458042
_cell_length_c 12.506334
_cell_angle_alpha 90.000000
_cell_angle_beta 90.000000
_cell_angle_gamma 90.000000
_cell_volume 1563.484076
_symmetry_space_group_name_H-M "P M N 21"
_symmetry_group_IT_number 31
_symmetry_cell_setting 'orthorhombic'
loop_
_space_group_symop_operation_xyz
x,y,z
1/2-x,-y,1/2+z
-x,y,z
1/2+x,-y,1/2+z
loop_
_atom_site_type_symbol
_atom_site_label
_atom_site_fract_x
_atom_site_fract_y
_atom_site_fract_z
Si Si1 0.318292 0.351016 0.181020
Si Si2 0.818940 0.872689 0.991211
Si Si3 0.316152 0.773887 0.506606
Si Si4 0.817492 0.669546 0.923909
Si Si5 0.817158 0.446188 0.615385
Si Si6 0.320964 0.048778 0.912155
Si Si7 0.671675 0.877157 0.211211
Si Si8 0.328668 0.680024 0.296360
O O1 0.500000 0.330441 0.175512
O O2 0.229865 0.268645 0.120307
O O3 0.261916 0.354677 0.303868
O O4 0.274306 0.446103 0.121587
O O5 0.760344 0.773298 0.949630
O O6 0.000000 0.869049 0.014580
O O7 0.775300 0.953265 0.909028
O O8 0.726126 0.905358 0.094830
O O9 0.500000 0.783612 0.494171
O O10 0.244870 0.876502 0.497260
O O11 0.248934 0.708433 0.409590
O O12 0.000000 0.662032 0.932772
O O13 0.748758 0.595256 0.006034
O O14 0.745048 0.398391 0.723495
O O15 0.000000 0.429633 0.615729
O O16 0.500000 0.030728 0.936307
O O17 0.298626 0.086724 0.793450
O O18 0.500000 0.918081 0.234167
O O19 0.665685 0.766884 0.217293
O O20 0.500000 0.644181 0.325361
#
# Coordination Sequence:
#
# PCOD8169973 Si02
#       8
#     4   4   4   4   4   4   4   4
#     4  10  23  40  59  87 126 168 204 250 310 368
#     4  11  22  38  60  88 120 159 207 259 313 373
#     4  10  21  39  62  88 121 160 206 255 306 367
#     4  10  23  41  61  88 124 160 202 255 308 365
#     4  10  20  37  61  87 117 157 204 250 302 366
#     4  11  23  39  61  89 122 162 207 257 313 374
#     4  10  19  36  59  85 118 156 201 252 308 367
#     4   8  16  32  57  84 110 148 193 246 300 350
#
# _framework density 20.467109000000001
#
# number of rings (size 3 to 8) (size 9 to 14) (size 15 to 20)
#    0.000    2.000    1.250    3.000    1.750    2.500 
#    0.000    4.375    0.000    0.000    0.000    0.000 
#    0.000    0.000    0.000    0.000    0.000    0.000 
#
# Total GULP energy -396694.671689 kJ/mol
# GULP energy per Si atom -12396.708490 kJ/mol
# Density = 2.042053 g / cm^3
# Si number density = 20.467109 Si / 1000 Ang^3
#
#
#
# Elastic Constant Matrix: (Units=GPa)
#
#
# Indices 1 2 3 4 5 6 
#
# 1 56.5757 28.5269 26.6260 0.0000 0.0000 0.0000
# 2 28.5269 108.9481 48.1726 0.0000 0.0000 0.0000
# 3 26.6260 48.1726 107.7704 0.0000 0.0000 0.0000
# 4 0.0000 0.0000 0.0000 26.9849 0.0000 0.0000
# 5 0.0000 0.0000 0.0000 0.0000 30.6680 0.0000
# 6 0.0000 0.0000 0.0000 0.0000 0.0000 26.6230
#
#
#
# Elastic Compliance Matrix: (Units=1/GPa)
#
#
# Indices 1 2 3 4 5 6 
#
# 1 0.021351 -0.004061 -0.003460 0.000000 0.000000 0.000000
# 2 -0.004061 0.012212 -0.004455 0.000000 0.000000 0.000000
# 3 -0.003460 -0.004455 0.012125 0.000000 0.000000 0.000000
# 4 0.000000 0.000000 0.000000 0.037058 0.000000 0.000000
# 5 0.000000 0.000000 0.000000 0.000000 0.032607 0.000000
# 6 0.000000 0.000000 0.000000 0.000000 0.000000 0.037561
#
#
# Mechanical properties :
#
#
# Convention : Reuss Voigt Hill
#
# Bulk Modulus (GPa) = 46.00584 53.32722 49.66653
# Shear Modulus (GPa) = 27.15726 28.18643 27.67184
#
# Velocity S-wave (km/s) = 3.64658 3.71503 3.68096
# Velocity P-wave (km/s) = 6.34482 6.67185 6.51039
#
# Compressibility (1/GPa) = 0.02173637
#
# Stress axis : x y z
#
# Youngs Moduli (GPa) = 46.83556 81.88702 82.47185
#
# Poissons Ratio (x) = 0.33252 0.28535
# Poissons Ratio (y) = 0.19019 0.36744
# Poissons Ratio (z) = 0.16205 0.36484
#
# Static dielectric constant tensor:
#      x y z
#    x 3.452900 0.000000 0.000000 
#    y 0.000000 3.745520 0.000000 
#    z 0.000000 0.000000 3.704400 
# 
# 
# High freq. dielectric constant tensor:
#      x y z
#    x 1.779890 0.000000 0.000000 
#    y 0.000000 1.801120 0.000000 
#    z 0.000000 0.000000 1.802350 
# 
# From -- ./inp_files/3687.got.cif
#   From: 2010.03.12/outbox.cif.g09.slc.cpg/sg31_2_cif.got.tgz:3687.got - 2010.04.14 01:42:59.
