data_PCOD8169070
_publ_section_title
;
Structure prediction by ZEFSAII (Michael W. Deem and Ramdas Pophale) SiO2 
 PCOD8169070
Probable space group: P C A 21
;
_chemical_formula_sum "Si O2"
_cell_formula_units_Z 28
_cell_length_a 15.463854
_cell_length_b 6.791330
_cell_length_c 12.536285
_cell_angle_alpha 90.000000
_cell_angle_beta 90.000000
_cell_angle_gamma 90.000000
_cell_volume 1316.562350
_symmetry_space_group_name_H-M "P C A 21"
_symmetry_group_IT_number 29
_symmetry_cell_setting 'orthorhombic'
loop_
_space_group_symop_operation_xyz
x,y,z
-x,-y,1/2+z
1/2-x,y,1/2+z
1/2+x,-y,z
loop_
_atom_site_type_symbol
_atom_site_label
_atom_site_fract_x
_atom_site_fract_y
_atom_site_fract_z
Si Si1 0.031942 0.870282 0.806280
Si Si2 0.142860 0.030231 0.201974
Si Si3 0.606525 0.484615 0.908579
Si Si4 0.121289 0.966983 0.599254
Si Si5 0.951013 0.870072 0.491075
Si Si6 0.796129 0.682150 0.211072
Si Si7 0.276574 0.692470 0.591584
O O1 0.033509 0.655244 0.858323
O O2 0.087374 0.844026 0.700034
O O3 0.935495 0.947749 0.784035
O O4 0.080769 0.025848 0.882492
O O5 0.219484 0.168816 0.244999
O O6 0.170077 0.800540 0.187693
O O7 0.117407 0.094899 0.083391
O O8 0.548057 0.636388 0.974886
O O9 0.662177 0.596482 0.818534
O O10 0.667156 0.358856 0.987674
O O11 0.204337 0.851542 0.553737
O O12 0.045472 0.963578 0.512056
O O13 0.138280 0.192198 0.636222
O O14 0.762484 0.506156 0.137985
#
# Coordination Sequence:
#
# PCOD8169070 Si02
#       7
#     4   4   4   4   4   4   4
#     4  11  23  44  64  97 131 177 214 278 331 403
#     4  10  24  43  67  94 135 169 220 272 341 385
#     4  12  24  40  70  98 136 172 230 270 338 396
#     4  10  24  43  67  94 135 169 220 272 341 385
#     4  11  23  44  64  97 131 177 214 278 331 403
#     4  11  23  43  68  98 128 175 220 281 326 403
#     4  11  23  43  68  98 128 175 220 281 326 403
#
# _framework density 21.267506999999998
#
# number of rings (size 3 to 8) (size 9 to 14) (size 15 to 20)
#    0.000    1.143    5.714    0.000    0.000    5.714 
#    0.000    0.000    0.000    0.000    0.000    0.000 
#    0.000    0.000    0.000    0.000    0.000    0.000 
#
# Total GULP energy -347139.960726 kJ/mol
# GULP energy per Si atom -12397.855740 kJ/mol
# Density = 2.121910 g / cm^3
# Si number density = 21.267507 Si / 1000 Ang^3
#
#
#
# Elastic Constant Matrix: (Units=GPa)
#
#
# Indices 1 2 3 4 5 6 
#
# 1 97.7917 36.4613 21.2404 0.0000 0.0000 0.0000
# 2 36.4613 115.4429 16.5688 0.0000 0.0000 0.0000
# 3 21.2404 16.5688 59.5451 0.0000 0.0000 0.0000
# 4 0.0000 0.0000 0.0000 38.9261 0.0000 0.0000
# 5 0.0000 0.0000 0.0000 0.0000 14.2688 0.0000
# 6 0.0000 0.0000 0.0000 0.0000 0.0000 38.2850
#
#
#
# Elastic Compliance Matrix: (Units=1/GPa)
#
#
# Indices 1 2 3 4 5 6 
#
# 1 0.012226 -0.003370 -0.003423 0.000000 0.000000 0.000000
# 2 -0.003370 0.009952 -0.001567 0.000000 0.000000 0.000000
# 3 -0.003423 -0.001567 0.018451 0.000000 0.000000 0.000000
# 4 0.000000 0.000000 0.000000 0.025690 0.000000 0.000000
# 5 0.000000 0.000000 0.000000 0.000000 0.070083 0.000000
# 6 0.000000 0.000000 0.000000 0.000000 0.000000 0.026120
#
#
# Mechanical properties :
#
#
# Convention : Reuss Voigt Hill
#
# Bulk Modulus (GPa) = 41.82725 46.81339 44.32032
# Shear Modulus (GPa) = 26.70780 31.52994 29.11887
#
# Velocity S-wave (km/s) = 3.54758 3.85455 3.70425
# Velocity P-wave (km/s) = 6.04072 6.47067 6.25939
#
# Compressibility (1/GPa) = 0.02390786
#
# Stress axis : x y z
#
# Youngs Moduli (GPa) = 81.79360 100.48656 54.19718
#
# Poissons Ratio (x) = 0.33865 0.18554
# Poissons Ratio (y) = 0.27565 0.08492
# Poissons Ratio (z) = 0.28001 0.15746
#
# Static dielectric constant tensor:
#      x y z
#    x 3.816270 0.000000 0.000000 
#    y 0.000000 4.002900 0.000000 
#    z 0.000000 0.000000 3.823610 
# 
# 
# High freq. dielectric constant tensor:
#      x y z
#    x 1.829240 0.000000 0.000000 
#    y 0.000000 1.848830 0.000000 
#    z 0.000000 0.000000 1.833050 
# 
# From -- ./inp_files/3604.got.cif
#   From: 2010.03.12/outbox.cif.g09.slc.cpg/sg29_2_cif.got.tgz:3604.got - 2010.04.14 03:43:10.
