data_PCOD8169812
_publ_section_title
;
Structure prediction by ZEFSAII (Michael W. Deem and Ramdas Pophale) SiO2 
 PCOD8169812
Probable space group: P M N 21
;
_chemical_formula_sum "Si O2"
_cell_formula_units_Z 32
_cell_length_a 8.957710
_cell_length_b 11.458249
_cell_length_c 17.777068
_cell_angle_alpha 90.000000
_cell_angle_beta 90.000000
_cell_angle_gamma 90.000000
_cell_volume 1824.632422
_symmetry_space_group_name_H-M "P M N 21"
_symmetry_group_IT_number 31
_symmetry_cell_setting 'orthorhombic'
loop_
_space_group_symop_operation_xyz
x,y,z
1/2-x,-y,1/2+z
-x,y,z
1/2+x,-y,1/2+z
loop_
_atom_site_type_symbol
_atom_site_label
_atom_site_fract_x
_atom_site_fract_y
_atom_site_fract_z
Si Si1 0.166819 0.550839 0.898360
Si Si2 0.320833 0.229431 0.182150
Si Si3 0.324671 0.115979 0.475789
Si Si4 0.663066 0.467347 0.119148
Si Si5 0.337310 0.334639 0.559827
Si Si6 0.174902 0.140960 0.034930
Si Si7 0.167025 0.653252 0.458998
Si Si8 0.177810 0.227467 0.336379
O O1 0.249004 0.425163 0.896267
O O2 0.262812 0.642041 0.850391
O O3 0.000000 0.539801 0.863606
O O4 0.154005 0.592064 0.983649
O O5 0.500000 0.220347 0.184375
O O6 0.267037 0.364292 0.170262
O O7 0.246023 0.181744 0.257918
O O8 0.260959 0.151487 0.113622
O O9 0.500000 0.140119 0.459759
O O10 0.267229 0.207790 0.539805
O O11 0.233448 0.137345 0.399544
O O12 0.293407 0.987346 0.504168
O O13 0.500000 0.496806 0.150122
O O14 0.749323 0.590533 0.122289
O O15 0.654827 0.420180 0.034859
O O16 0.500000 0.315968 0.595073
O O17 0.238681 0.229527 0.972690
O O18 0.000000 0.165377 0.046978
O O19 0.000000 0.684978 0.430764
O O20 0.000000 0.227947 0.333545
#
# Coordination Sequence:
#
# PCOD8169812 Si02
#       8
#     4   4   4   4   4   4   4   4
#     4   9  16  28  46  68  95 125 155 191 241 294
#     4  10  20  34  50  70 100 132 163 207 261 311
#     4   9  19  34  50  71 101 136 172 209 252 302
#     4   8  15  26  42  65  91 119 148 184 233 286
#     4   8  14  25  43  66  91 119 150 188 232 279
#     4  10  19  32  51  74 100 133 175 216 253 299
#     4   9  16  27  44  69  98 124 155 196 241 287
#     4  11  21  32  50  75 100 128 166 211 259 310
#
# _framework density 17.537777999999999
#
# number of rings (size 3 to 8) (size 9 to 14) (size 15 to 20)
#    0.000    2.750    0.000    4.125    0.000    7.500 
#    0.000    0.000    0.000    1.500    0.000    3.500 
#    0.000    0.000    0.000    0.000    0.000    0.000 
#
# Total GULP energy -396607.665603 kJ/mol
# GULP energy per Si atom -12393.989550 kJ/mol
# Density = 1.749786 g / cm^3
# Si number density = 17.537778 Si / 1000 Ang^3
#
#
#
# Elastic Constant Matrix: (Units=GPa)
#
#
# Indices 1 2 3 4 5 6 
#
# 1 123.3398 58.3429 44.0321 0.0000 0.0000 0.0000
# 2 58.3429 116.8072 39.8397 0.0000 0.0000 0.0000
# 3 44.0321 39.8397 61.0150 0.0000 0.0000 0.0000
# 4 0.0000 0.0000 0.0000 13.3514 0.0000 0.0000
# 5 0.0000 0.0000 0.0000 0.0000 18.0131 0.0000
# 6 0.0000 0.0000 0.0000 0.0000 0.0000 26.8321
#
#
#
# Elastic Compliance Matrix: (Units=1/GPa)
#
#
# Indices 1 2 3 4 5 6 
#
# 1 0.012207 -0.003979 -0.006212 0.000000 0.000000 0.000000
# 2 -0.003979 0.012311 -0.005167 0.000000 0.000000 0.000000
# 3 -0.006212 -0.005167 0.024246 0.000000 0.000000 0.000000
# 4 0.000000 0.000000 0.000000 0.074899 0.000000 0.000000
# 5 0.000000 0.000000 0.000000 0.000000 0.055515 0.000000
# 6 0.000000 0.000000 0.000000 0.000000 0.000000 0.037269
#
#
# Mechanical properties :
#
#
# Convention : Reuss Voigt Hill
#
# Bulk Modulus (GPa) = 55.40399 65.06570 60.23485
# Shear Modulus (GPa) = 19.74899 22.23580 20.99240
#
# Velocity S-wave (km/s) = 3.35936 3.56459 3.46350
# Velocity P-wave (km/s) = 6.83424 7.35681 7.10033
#
# Compressibility (1/GPa) = 0.01804924
#
# Stress axis : x y z
#
# Youngs Moduli (GPa) = 81.91863 81.23015 41.24404
#
# Poissons Ratio (x) = 0.32319 0.25619
# Poissons Ratio (y) = 0.32593 0.21311
# Poissons Ratio (z) = 0.50885 0.41972
#
# Static dielectric constant tensor:
#      x y z
#    x 3.502880 0.000000 0.000000 
#    y 0.000000 3.256320 0.000000 
#    z 0.000000 0.000000 2.955730 
# 
# 
# High freq. dielectric constant tensor:
#      x y z
#    x 1.688140 0.000000 0.000000 
#    y 0.000000 1.666340 0.000000 
#    z 0.000000 0.000000 1.636320 
# 
# From -- ./inp_files/5019.got.cif
#   From: 2010.03.12/outbox.cif.g09.slc.cpg/sg31_3_cif.got.tgz:5019.got - 2010.04.14 01:42:59.
