data_PCOD8169035
_publ_section_title
;
Structure prediction by ZEFSAII (Michael W. Deem and Ramdas Pophale) SiO2 
 PCOD8169035
Probable space group: P C A 21
;
_chemical_formula_sum "Si O2"
_cell_formula_units_Z 28
_cell_length_a 16.853815
_cell_length_b 13.657784
_cell_length_c 5.299269
_cell_angle_alpha 90.000000
_cell_angle_beta 90.000000
_cell_angle_gamma 90.000000
_cell_volume 1219.816288
_symmetry_space_group_name_H-M "P C A 21"
_symmetry_group_IT_number 29
_symmetry_cell_setting 'orthorhombic'
loop_
_space_group_symop_operation_xyz
x,y,z
-x,-y,1/2+z
1/2-x,y,1/2+z
1/2+x,-y,z
loop_
_atom_site_type_symbol
_atom_site_label
_atom_site_fract_x
_atom_site_fract_y
_atom_site_fract_z
Si Si1 0.201302 0.925791 0.756160
Si Si2 0.965781 0.383442 0.593833
Si Si3 0.299499 0.602566 0.041217
Si Si4 0.924212 0.713972 0.472299
Si Si5 0.798229 0.848875 0.244590
Si Si6 0.111530 0.446465 0.311697
Si Si7 0.419957 0.758606 0.209297
O O1 0.259672 0.900481 0.524960
O O2 0.122927 0.862250 0.719677
O O3 0.174824 0.038603 0.753708
O O4 0.890921 0.454787 0.640538
O O5 0.927430 0.282683 0.493465
O O6 0.027918 0.367574 0.818679
O O7 0.019214 0.431740 0.375793
O O8 0.242526 0.624929 0.805721
O O9 0.327917 0.486035 0.029376
O O10 0.374907 0.677921 0.030893
O O11 0.874811 0.781413 0.282579
O O12 0.864249 0.653153 0.661946
O O13 0.990277 0.779665 0.612836
O O14 0.736495 0.825416 0.469098
#
# Coordination Sequence:
#
# PCOD8169035 Si02
#       7
#     4   4   4   4   4   4   4
#     4  10  23  46  74  98 138 184 216 277 356 416
#     4  11  21  40  65  92 134 178 225 283 337 400
#     4  12  26  40  62  96 140 180 229 284 331 409
#     4  11  25  41  72  97 135 187 228 298 335 409
#     4  10  25  50  71 100 137 178 230 282 346 422
#     4  11  22  40  62  91 135 186 227 274 345 400
#     4  11  24  41  66 106 133 179 231 286 350 412
#
# _framework density 22.954276
#
# number of rings (size 3 to 8) (size 9 to 14) (size 15 to 20)
#    0.000    1.143    2.857    2.571    8.000    1.143 
#    2.571    0.000    0.000    0.000    0.000    0.000 
#    0.000    0.000    0.000    0.000    0.000    0.000 
#
# Total GULP energy -347015.351499 kJ/mol
# GULP energy per Si atom -12393.405411 kJ/mol
# Density = 2.290203 g / cm^3
# Si number density = 22.954276 Si / 1000 Ang^3
#
#
#
# Elastic Constant Matrix: (Units=GPa)
#
#
# Indices 1 2 3 4 5 6 
#
# 1 59.7653 31.6331 13.0292 0.0000 0.0000 0.0000
# 2 31.6331 80.4678 19.8730 0.0000 0.0000 0.0000
# 3 13.0292 19.8730 89.9869 0.0000 0.0000 0.0000
# 4 0.0000 0.0000 0.0000 31.1718 0.0000 0.0000
# 5 0.0000 0.0000 0.0000 0.0000 24.7694 0.0000
# 6 0.0000 0.0000 0.0000 0.0000 0.0000 41.4032
#
#
#
# Elastic Compliance Matrix: (Units=1/GPa)
#
#
# Indices 1 2 3 4 5 6 
#
# 1 0.021272 -0.008040 -0.001304 0.000000 0.000000 0.000000
# 2 -0.008040 0.016183 -0.002410 0.000000 0.000000 0.000000
# 3 -0.001304 -0.002410 0.011834 0.000000 0.000000 0.000000
# 4 0.000000 0.000000 0.000000 0.032080 0.000000 0.000000
# 5 0.000000 0.000000 0.000000 0.000000 0.040372 0.000000
# 6 0.000000 0.000000 0.000000 0.000000 0.000000 0.024153
#
#
# Mechanical properties :
#
#
# Convention : Reuss Voigt Hill
#
# Bulk Modulus (GPa) = 38.78937 39.92120 39.35528
# Shear Modulus (GPa) = 28.09044 30.51456 29.30250
#
# Velocity S-wave (km/s) = 3.50202 3.65000 3.57677
# Velocity P-wave (km/s) = 5.76952 5.93234 5.85150
#
# Compressibility (1/GPa) = 0.02578026
#
# Stress axis : x y z
#
# Youngs Moduli (GPa) = 47.01003 61.79247 84.50390
#
# Poissons Ratio (x) = 0.49683 0.11022
# Poissons Ratio (y) = 0.37797 0.20364
# Poissons Ratio (z) = 0.06132 0.14891
#
# Static dielectric constant tensor:
#      x y z
#    x 4.087080 0.000000 0.000000 
#    y 0.000000 4.021140 0.000000 
#    z 0.000000 0.000000 4.351480 
# 
# 
# High freq. dielectric constant tensor:
#      x y z
#    x 1.898670 0.000000 0.000000 
#    y 0.000000 1.891520 0.000000 
#    z 0.000000 0.000000 1.921030 
# 
# From -- ./inp_files/401.got.cif
#   From: 2010.03.12/outbox.cif.g09.slc.cpg/sg29_1_cif.got.tgz:401.got - 2010.04.14 03:43:10.
