data_PCOD8169952
_publ_section_title
;
Structure prediction by ZEFSAII (Michael W. Deem and Ramdas Pophale) SiO2 
 PCOD8169952
Probable space group: P M N 21
;
_chemical_formula_sum "Si O2"
_cell_formula_units_Z 32
_cell_length_a 8.586411
_cell_length_b 12.148271
_cell_length_c 14.554729
_cell_angle_alpha 90.000000
_cell_angle_beta 90.000000
_cell_angle_gamma 90.000000
_cell_volume 1518.204477
_symmetry_space_group_name_H-M "P M N 21"
_symmetry_group_IT_number 31
_symmetry_cell_setting 'orthorhombic'
loop_
_space_group_symop_operation_xyz
x,y,z
1/2-x,-y,1/2+z
-x,y,z
1/2+x,-y,1/2+z
loop_
_atom_site_type_symbol
_atom_site_label
_atom_site_fract_x
_atom_site_fract_y
_atom_site_fract_z
Si Si1 0.682881 0.677628 0.034300
Si Si2 0.681766 0.272937 0.980647
Si Si3 0.184241 0.501678 0.397498
Si Si4 0.181206 0.606678 0.214287
Si Si5 0.178218 0.121746 0.114384
Si Si6 0.178569 0.034674 0.307229
Si Si7 0.317076 0.091301 0.499750
Si Si8 0.321113 0.810514 0.306822
O O1 0.500000 0.701009 0.030765
O O2 0.721109 0.597217 0.120436
O O3 0.741101 0.613127 0.942222
O O4 0.772645 0.792367 0.046402
O O5 0.500000 0.261300 0.959425
O O6 0.739894 0.397731 0.963207
O O7 0.781019 0.192411 0.914803
O O8 0.721525 0.227588 0.081864
O O9 0.242965 0.519536 0.292108
O O10 0.000000 0.503516 0.395615
O O11 0.206099 0.728292 0.254690
O O12 0.000000 0.588543 0.192681
O O13 0.197990 0.121130 0.224344
O O14 0.000000 0.141234 0.086995
O O15 0.236769 0.007581 0.066826
O O16 0.230278 0.088715 0.402331
O O17 0.000000 0.995505 0.315724
O O18 0.286657 0.933886 0.275694
O O19 0.500000 0.086909 0.482296
O O20 0.500000 0.779769 0.286455
#
# Coordination Sequence:
#
# PCOD8169952 Si02
#       8
#     4   4   4   4   4   4   4   4
#     4  11  22  40  63  88 121 159 201 248 304 363
#     4  10  19  35  60  84 112 149 193 242 297 350
#     4   8  19  39  61  85 117 153 193 247 302 355
#     4  10  20  38  62  89 117 155 205 252 301 354
#     4  10  22  38  57  84 120 155 193 243 297 357
#     4  11  22  37  57  85 121 161 198 240 300 358
#     4  11  23  40  60  87 124 161 200 248 298 356
#     4  11  20  33  56  86 118 151 195 246 295 351
#
# _framework density 21.077528000000001
#
# number of rings (size 3 to 8) (size 9 to 14) (size 15 to 20)
#    0.000    1.750    1.250    4.500    0.000    2.500 
#    2.250    7.500    0.000    0.000    0.000    0.000 
#    0.000    0.000    0.000    0.000    0.000    0.000 
#
# Total GULP energy -396721.420911 kJ/mol
# GULP energy per Si atom -12397.544403 kJ/mol
# Density = 2.102955 g / cm^3
# Si number density = 21.077528 Si / 1000 Ang^3
#
#
#
# Elastic Constant Matrix: (Units=GPa)
#
#
# Indices 1 2 3 4 5 6 
#
# 1 62.1274 4.8576 12.5097 0.0000 0.0000 0.0000
# 2 4.8576 42.9661 6.8464 0.0000 0.0000 0.0000
# 3 12.5097 6.8464 95.9459 0.0000 0.0000 0.0000
# 4 0.0000 0.0000 0.0000 27.0054 0.0000 0.0000
# 5 0.0000 0.0000 0.0000 0.0000 33.5546 0.0000
# 6 0.0000 0.0000 0.0000 0.0000 0.0000 21.3096
#
#
#
# Elastic Compliance Matrix: (Units=1/GPa)
#
#
# Indices 1 2 3 4 5 6 
#
# 1 0.016632 -0.001552 -0.002058 0.000000 0.000000 0.000000
# 2 -0.001552 0.023687 -0.001488 0.000000 0.000000 0.000000
# 3 -0.002058 -0.001488 0.010797 0.000000 0.000000 0.000000
# 4 0.000000 0.000000 0.000000 0.037030 0.000000 0.000000
# 5 0.000000 0.000000 0.000000 0.000000 0.029802 0.000000
# 6 0.000000 0.000000 0.000000 0.000000 0.000000 0.046927
#
#
# Mechanical properties :
#
#
# Convention : Reuss Voigt Hill
#
# Bulk Modulus (GPa) = 24.43825 27.71856 26.07840
# Shear Modulus (GPa) = 26.49566 28.16230 27.32898
#
# Velocity S-wave (km/s) = 3.54935 3.65928 3.60473
# Velocity P-wave (km/s) = 5.33074 5.57073 5.45206
#
# Compressibility (1/GPa) = 0.04091947
#
# Stress axis : x y z
#
# Youngs Moduli (GPa) = 60.12627 42.21771 92.61834
#
# Poissons Ratio (x) = 0.06554 0.19058
# Poissons Ratio (y) = 0.09334 0.13780
# Poissons Ratio (z) = 0.12372 0.06281
#
# Static dielectric constant tensor:
#      x y z
#    x 3.606910 0.000000 0.000000 
#    y 0.000000 3.697210 0.000000 
#    z 0.000000 0.000000 4.042900 
# 
# 
# High freq. dielectric constant tensor:
#      x y z
#    x 1.814230 0.000000 0.000000 
#    y 0.000000 1.806850 0.000000 
#    z 0.000000 0.000000 1.831190 
# 
# From -- ./inp_files/4972.got.cif
#   From: 2010.03.12/outbox.cif.g09.slc.cpg/sg31_3_cif.got.tgz:4972.got - 2010.04.14 01:42:59.
