data_PCOD8169681
_publ_section_title
;
Structure prediction by ZEFSAII (Michael W. Deem and Ramdas Pophale) SiO2 
 PCOD8169681
Probable space group: P M N 21
;
_chemical_formula_sum "Si O2"
_cell_formula_units_Z 28
_cell_length_a 22.822085
_cell_length_b 15.174095
_cell_length_c 5.029254
_cell_angle_alpha 90.000000
_cell_angle_beta 90.000000
_cell_angle_gamma 90.000000
_cell_volume 1741.653221
_symmetry_space_group_name_H-M "P M N 21"
_symmetry_group_IT_number 31
_symmetry_cell_setting 'orthorhombic'
loop_
_space_group_symop_operation_xyz
x,y,z
1/2-x,-y,1/2+z
-x,y,z
1/2+x,-y,1/2+z
loop_
_atom_site_type_symbol
_atom_site_label
_atom_site_fract_x
_atom_site_fract_y
_atom_site_fract_z
Si Si1 0.328886 0.841545 0.346490
Si Si2 0.566839 0.599549 0.838922
Si Si3 0.280947 0.392998 0.437551
Si Si4 0.433210 0.715534 0.341792
Si Si5 0.173413 0.515596 0.437756
Si Si6 0.284968 0.018421 0.449203
Si Si7 0.746908 0.801608 0.845818
O O1 0.392553 0.799941 0.388027
O O2 0.336550 0.948057 0.383245
O O3 0.281962 0.802814 0.555223
O O4 0.305115 0.817309 0.055957
O O5 0.500000 0.566213 0.855243
O O6 0.582076 0.639166 0.551728
O O7 0.607111 0.514841 0.889830
O O8 0.578654 0.676018 0.052270
O O9 0.214976 0.429954 0.412836
O O10 0.307495 0.410664 0.726833
O O11 0.280441 0.289276 0.389025
O O12 0.322802 0.441029 0.226693
O O13 0.500000 0.747595 0.377522
O O14 0.269676 0.011395 0.761059
O O15 0.296564 0.121046 0.376334
#
# Coordination Sequence:
#
# PCOD8169681 Si02
#       7
#     4   4   4   4   4   4   4
#     4  10  17  28  45  63  89 117 139 174 214 254
#     4  10  20  33  47  63  87 117 148 181 212 254
#     4  10  19  28  43  63  89 114 138 177 216 259
#     4  10  19  29  44  66  87 112 145 174 210 257
#     4  10  19  30  42  63  86 112 145 174 216 257
#     4   8  16  27  41  62  85 110 140 166 198 250
#     4  10  18  29  44  64  88 116 145 172 214 259
#
# _framework density 16.076681000000001
#
# number of rings (size 3 to 8) (size 9 to 14) (size 15 to 20)
#    0.000    2.286    0.000    4.286    0.000    2.286 
#    0.000    0.000    0.000    0.000    0.000    2.000 
#    0.000    0.000    0.000    0.000    0.000    0.000 
#
# Total GULP energy -347139.540766 kJ/mol
# GULP energy per Si atom -12397.840742 kJ/mol
# Density = 1.604009 g / cm^3
# Si number density = 16.076681 Si / 1000 Ang^3
#
#
#
# Elastic Constant Matrix: (Units=GPa)
#
#
# Indices 1 2 3 4 5 6 
#
# 1 65.2937 36.0497 3.4040 0.0000 0.0000 0.0000
# 2 36.0497 104.6797 -2.8295 0.0000 0.0000 0.0000
# 3 3.4040 -2.8295 56.8574 0.0000 0.0000 0.0000
# 4 0.0000 0.0000 0.0000 15.1527 0.0000 0.0000
# 5 0.0000 0.0000 0.0000 0.0000 14.8339 0.0000
# 6 0.0000 0.0000 0.0000 0.0000 0.0000 26.1376
#
#
#
# Elastic Compliance Matrix: (Units=1/GPa)
#
#
# Indices 1 2 3 4 5 6 
#
# 1 0.019033 -0.006594 -0.001468 0.000000 0.000000 0.000000
# 2 -0.006594 0.011850 0.000985 0.000000 0.000000 0.000000
# 3 -0.001468 0.000985 0.017725 0.000000 0.000000 0.000000
# 4 0.000000 0.000000 0.000000 0.065995 0.000000 0.000000
# 5 0.000000 0.000000 0.000000 0.000000 0.067413 0.000000
# 6 0.000000 0.000000 0.000000 0.000000 0.000000 0.038259
#
#
# Mechanical properties :
#
#
# Convention : Reuss Voigt Hill
#
# Bulk Modulus (GPa) = 29.02476 33.34212 31.18344
# Shear Modulus (GPa) = 20.33235 23.90529 22.11882
#
# Velocity S-wave (km/s) = 3.56013 3.86029 3.71325
# Velocity P-wave (km/s) = 5.91545 6.37601 6.15005
#
# Compressibility (1/GPa) = 0.03445334
#
# Stress axis : x y z
#
# Youngs Moduli (GPa) = 52.54123 84.38495 56.41841
#
# Poissons Ratio (x) = 0.55645 0.08280
# Poissons Ratio (y) = 0.34646 -0.05554
# Poissons Ratio (z) = 0.07711 -0.08308
#
# Static dielectric constant tensor:
#      x y z
#    x 2.770460 0.000000 0.000000 
#    y 0.000000 3.079460 0.000000 
#    z 0.000000 0.000000 3.288070 
# 
# 
# High freq. dielectric constant tensor:
#      x y z
#    x 1.571330 0.000000 0.000000 
#    y 0.000000 1.610730 0.000000 
#    z 0.000000 0.000000 1.646400 
# 
# From -- ./inp_files/1129.got.cif
#   From: 2010.03.12/outbox.cif.g09.slc.cpg/sg31_1_cif.got.tgz:1129.got - 2010.04.14 01:42:59.
