data_PCOD8169806
_publ_section_title
;
Structure prediction by ZEFSAII (Michael W. Deem and Ramdas Pophale) SiO2 
 PCOD8169806
Probable space group: P M N 21
;
_chemical_formula_sum "Si O2"
_cell_formula_units_Z 32
_cell_length_a 9.904553
_cell_length_b 11.043271
_cell_length_c 16.649936
_cell_angle_alpha 90.000000
_cell_angle_beta 90.000000
_cell_angle_gamma 90.000000
_cell_volume 1821.147737
_symmetry_space_group_name_H-M "P M N 21"
_symmetry_group_IT_number 31
_symmetry_cell_setting 'orthorhombic'
loop_
_space_group_symop_operation_xyz
x,y,z
1/2-x,-y,1/2+z
-x,y,z
1/2+x,-y,1/2+z
loop_
_atom_site_type_symbol
_atom_site_label
_atom_site_fract_x
_atom_site_fract_y
_atom_site_fract_z
Si Si1 0.343844 0.429004 0.121140
Si Si2 0.144823 0.408245 0.856654
Si Si3 0.342647 0.800701 0.903828
Si Si4 0.343738 0.802234 0.238517
Si Si5 0.844799 0.926737 0.361692
Si Si6 0.349035 0.334802 0.286760
Si Si7 0.652232 0.297976 0.965045
Si Si8 0.340027 0.692373 0.073358
O O1 0.500000 0.455939 0.139808
O O2 0.280192 0.376585 0.202823
O O3 0.280045 0.556659 0.089740
O O4 0.324602 0.317604 0.059347
O O5 0.179208 0.329879 0.777633
O O6 0.134723 0.548041 0.840158
O O7 0.258833 0.398633 0.922628
O O8 0.000000 0.362472 0.890628
O O9 0.500000 0.766978 0.890733
O O10 0.254346 0.754764 0.829516
O O11 0.320514 0.944365 0.902284
O O12 0.287652 0.746870 0.988543
O O13 0.500000 0.844542 0.244385
O O14 0.250370 0.901095 0.284251
O O15 0.298808 0.784669 0.145512
O O16 0.807465 0.835294 0.434553
O O17 0.000000 0.911113 0.333500
O O18 0.500000 0.275960 0.275904
O O19 0.500000 0.329020 0.941089
O O20 0.500000 0.683472 0.069287
#
# Coordination Sequence:
#
# PCOD8169806 Si02
#       8
#     4   4   4   4   4   4   4   4
#     4   9  16  29  50  77 104 126 158 207 255 299
#     4   9  16  28  48  73 103 129 153 197 256 300
#     4  10  21  36  52  72 103 139 172 209 251 297
#     4   9  16  30  54  78  97 127 169 206 242 295
#     4   9  19  35  50  70 103 135 167 207 250 291
#     4  10  19  32  50  74 105 133 160 204 256 303
#     4   9  17  30  51  74  96 128 167 203 242 292
#     4   9  16  30  53  78 101 129 168 209 252 301
#
# _framework density 17.571337
#
# number of rings (size 3 to 8) (size 9 to 14) (size 15 to 20)
#    0.000    2.750    1.250    0.750    0.000    2.000 
#    2.250    1.250    0.000    1.500    0.000    0.000 
#    0.000    0.000    0.000    0.000    0.000    0.000 
#
# Total GULP energy -396524.837483 kJ/mol
# GULP energy per Si atom -12391.401171 kJ/mol
# Density = 1.753134 g / cm^3
# Si number density = 17.571337 Si / 1000 Ang^3
#
#
#
# Elastic Constant Matrix: (Units=GPa)
#
#
# Indices 1 2 3 4 5 6 
#
# 1 55.2812 34.3479 44.6847 0.0000 0.0000 0.0000
# 2 34.3479 75.7169 56.4430 0.0000 0.0000 0.0000
# 3 44.6847 56.4430 118.3356 0.0000 0.0000 0.0000
# 4 0.0000 0.0000 0.0000 25.7150 0.0000 0.0000
# 5 0.0000 0.0000 0.0000 0.0000 24.1587 0.0000
# 6 0.0000 0.0000 0.0000 0.0000 0.0000 28.0212
#
#
#
# Elastic Compliance Matrix: (Units=1/GPa)
#
#
# Indices 1 2 3 4 5 6 
#
# 1 0.028632 -0.007648 -0.007164 0.000000 0.000000 0.000000
# 2 -0.007648 0.022537 -0.007861 0.000000 0.000000 0.000000
# 3 -0.007164 -0.007861 0.014905 0.000000 0.000000 0.000000
# 4 0.000000 0.000000 0.000000 0.038888 0.000000 0.000000
# 5 0.000000 0.000000 0.000000 0.000000 0.041393 0.000000
# 6 0.000000 0.000000 0.000000 0.000000 0.000000 0.035687
#
#
# Mechanical properties :
#
#
# Convention : Reuss Voigt Hill
#
# Bulk Modulus (GPa) = 48.24545 57.80943 53.02744
# Shear Modulus (GPa) = 21.34033 23.16954 22.25493
#
# Velocity S-wave (km/s) = 3.48874 3.63519 3.56272
# Velocity P-wave (km/s) = 6.61400 7.11272 6.86789
#
# Compressibility (1/GPa) = 0.02072735
#
# Stress axis : x y z
#
# Youngs Moduli (GPa) = 34.92599 44.37156 67.09018
#
# Poissons Ratio (x) = 0.33937 0.48061
# Poissons Ratio (y) = 0.26713 0.52743
# Poissons Ratio (z) = 0.25020 0.34882
#
# Static dielectric constant tensor:
#      x y z
#    x 3.280050 0.000000 0.000000 
#    y 0.000000 3.166700 0.000000 
#    z 0.000000 0.000000 3.395080 
# 
# 
# High freq. dielectric constant tensor:
#      x y z
#    x 1.651760 0.000000 0.000000 
#    y 0.000000 1.668400 0.000000 
#    z 0.000000 0.000000 1.678960 
# 
# From -- ./inp_files/5051.got.cif
#   From: 2010.03.12/outbox.cif.g09.slc.cpg/sg31_3_cif.got.tgz:5051.got - 2010.04.14 01:42:59.
