data_PCOD8169057
_publ_section_title
;
Structure prediction by ZEFSAII (Michael W. Deem and Ramdas Pophale) SiO2 
 PCOD8169057
Probable space group: P C A 21
;
_chemical_formula_sum "Si O2"
_cell_formula_units_Z 28
_cell_length_a 8.867171
_cell_length_b 5.125059
_cell_length_c 26.568776
_cell_angle_alpha 90.000000
_cell_angle_beta 90.000000
_cell_angle_gamma 90.000000
_cell_volume 1207.412035
_symmetry_space_group_name_H-M "P C A 21"
_symmetry_group_IT_number 29
_symmetry_cell_setting 'orthorhombic'
loop_
_space_group_symop_operation_xyz
x,y,z
-x,-y,1/2+z
1/2-x,y,1/2+z
1/2+x,-y,z
loop_
_atom_site_type_symbol
_atom_site_label
_atom_site_fract_x
_atom_site_fract_y
_atom_site_fract_z
Si Si1 0.985334 0.814251 0.767400
Si Si2 0.014666 0.814251 0.882615
Si Si3 0.682084 0.322614 0.231838
Si Si4 0.417173 0.000000 0.075007
Si Si5 0.320412 0.313329 0.531138
Si Si6 0.320412 0.686671 0.618877
Si Si7 0.682084 0.677386 0.918177
O O1 1.000000 0.902126 0.825007
O O2 0.876742 0.561350 0.765771
O O3 0.146193 0.739654 0.744741
O O4 0.916827 0.060780 0.737724
O O5 0.853807 0.739654 0.905273
O O6 0.123258 0.561350 0.884244
O O7 0.083173 0.060780 0.912291
O O8 0.667091 0.430471 0.174635
O O9 0.308706 0.092188 0.029349
O O10 0.516661 0.219855 0.101050
O O11 0.516661 0.780145 0.048965
O O12 0.308706 0.907812 0.120666
O O13 0.258699 0.500000 0.575007
O O14 0.332909 0.430471 0.475380
#
# Coordination Sequence:
#
# PCOD8169057 Si02
#       7
#     4   4   4   4   4   4   4
#     4  12  26  49  74 107 143 186 243 301 355 423
#     4  12  26  49  74 107 143 186 243 301 355 423
#     4  12  27  44  76 104 143 188 237 291 369 420
#     4  10  24  42  64  92 140 178 226 280 342 404
#     4  11  25  41  67  97 140 178 233 280 347 422
#     4  11  25  41  67  97 140 178 233 280 347 422
#     4  12  27  44  76 104 143 188 237 291 369 420
#
# _framework density 23.190092
#
# number of rings (size 3 to 8) (size 9 to 14) (size 15 to 20)
#    0.000    0.571    0.000    6.857   16.000    0.000 
#    0.000    0.000    0.000    0.000    0.000    0.000 
#    0.000    0.000    0.000    0.000    0.000    0.000 
#
# Total GULP energy -347208.712822 kJ/mol
# GULP energy per Si atom -12400.311172 kJ/mol
# Density = 2.313731 g / cm^3
# Si number density = 23.190092 Si / 1000 Ang^3
#
#
#
# Elastic Constant Matrix: (Units=GPa)
#
#
# Indices 1 2 3 4 5 6 
#
# 1 126.3483 31.0253 25.2679 0.0000 0.0000 0.0000
# 2 31.0253 103.4446 19.8626 0.0000 0.0000 0.0000
# 3 25.2679 19.8626 139.0691 0.0000 0.0000 0.0000
# 4 0.0000 0.0000 0.0000 37.3186 0.0000 0.0000
# 5 0.0000 0.0000 0.0000 0.0000 16.5276 0.0000
# 6 0.0000 0.0000 0.0000 0.0000 0.0000 -57.0077
#
#
#
# Elastic Compliance Matrix: (Units=1/GPa)
#
#
# Indices 1 2 3 4 5 6 
#
# 1 0.008750 -0.002384 -0.001249 0.000000 0.000000 0.000000
# 2 -0.002384 0.010589 -0.001079 0.000000 0.000000 0.000000
# 3 -0.001249 -0.001079 0.007572 0.000000 0.000000 0.000000
# 4 0.000000 0.000000 0.000000 0.026796 0.000000 0.000000
# 5 0.000000 0.000000 0.000000 0.000000 0.060505 0.000000
# 6 0.000000 0.000000 0.000000 0.000000 0.000000 -0.017541
#
#
# Mechanical properties :
#
#
# Convention : Reuss Voigt Hill
#
# Bulk Modulus (GPa) = 57.19069 57.90817 57.54943
# Shear Modulus (GPa) = 44.67278 18.88145 31.77712
#
# Velocity S-wave (km/s) = 4.39381 2.85652 3.70576
# Velocity P-wave (km/s) = 7.10324 5.99207 6.57118
#
# Compressibility (1/GPa) = 0.01748536
#
# Stress axis : x y z
#
# Youngs Moduli (GPa) = 114.28610 94.43433 132.06929
#
# Poissons Ratio (x) = 0.22517 0.16499
# Poissons Ratio (y) = 0.27251 0.14253
# Poissons Ratio (z) = 0.14277 0.10191
#
# Static dielectric constant tensor:
#      x y z
#    x 4.303370 0.000000 0.000000 
#    y 0.000000 4.432180 0.000000 
#    z 0.000000 0.000000 4.239630 
# 
# 
# High freq. dielectric constant tensor:
#      x y z
#    x 1.944610 0.000000 0.000000 
#    y 0.000000 1.917390 0.000000 
#    z 0.000000 0.000000 1.917040 
# 
# From -- ./inp_files/5658.got.cif
#   From: 2010.03.12/outbox.cif.g09.slc.cpg/sg29_3_cif.got.tgz:5658.got - 2010.04.14 03:43:10.
