data_PCOD8169694
_publ_section_title
;
Structure prediction by ZEFSAII (Michael W. Deem and Ramdas Pophale) SiO2 
 PCOD8169694
Probable space group: P M N 21
;
_chemical_formula_sum "Si O2"
_cell_formula_units_Z 24
_cell_length_a 8.885613
_cell_length_b 9.301637
_cell_length_c 16.551041
_cell_angle_alpha 90.000000
_cell_angle_beta 90.000000
_cell_angle_gamma 90.000000
_cell_volume 1367.955896
_symmetry_space_group_name_H-M "P M N 21"
_symmetry_group_IT_number 31
_symmetry_cell_setting 'orthorhombic'
loop_
_space_group_symop_operation_xyz
x,y,z
1/2-x,-y,1/2+z
-x,y,z
1/2+x,-y,1/2+z
loop_
_atom_site_type_symbol
_atom_site_label
_atom_site_fract_x
_atom_site_fract_y
_atom_site_fract_z
Si Si1 0.673849 0.849045 0.941700
Si Si2 0.671755 0.322809 0.129615
Si Si3 0.675758 0.585464 0.381060
Si Si4 0.821581 0.834744 0.465311
Si Si5 0.322564 0.659095 0.792890
Si Si6 0.328466 0.571572 0.021829
O O1 0.500000 0.879693 0.927554
O O2 0.737202 0.771379 0.860906
O O3 0.698762 0.744141 0.020134
O O4 0.747980 0.004137 0.958534
O O5 0.500000 0.288023 0.152599
O O6 0.724140 0.228508 0.052829
O O7 0.775354 0.282308 0.205231
O O8 0.690796 0.494076 0.108421
O O9 0.500000 0.602311 0.365232
O O10 0.748722 0.743140 0.392312
O O11 0.748248 0.497892 0.306386
O O12 0.707829 0.496740 0.462009
O O13 0.000000 0.828779 0.455319
O O14 0.500000 0.641922 0.797955
O O15 0.500000 0.540239 0.989872
#
# Coordination Sequence:
#
# PCOD8169694 Si02
#       6
#     4   4   4   4   4   4
#     4   8  15  30  52  72  91 125 165 194 229 285
#     4   9  17  29  47  71  98 126 158 199 242 284
#     4  10  18  29  47  70  94 120 156 196 232 276
#     4   9  17  32  52  71  95 127 160 193 237 293
#     4  10  19  32  50  70  95 127 163 201 241 285
#     4   8  15  30  50  70  93 123 158 191 229 281
#
# _framework density 17.544425
#
# number of rings (size 3 to 8) (size 9 to 14) (size 15 to 20)
#    0.000    3.000    0.000    4.000    0.000    2.667 
#    0.000    5.833    0.000    2.000    0.000    0.000 
#    0.000    0.000    0.000    0.000    0.000    0.000 
#
# Total GULP energy -297343.251312 kJ/mol
# GULP energy per Si atom -12389.302138 kJ/mol
# Density = 1.750449 g / cm^3
# Si number density = 17.544425 Si / 1000 Ang^3
#
#
#
# Elastic Constant Matrix: (Units=GPa)
#
#
# Indices 1 2 3 4 5 6 
#
# 1 55.5380 27.4462 27.0280 0.0000 0.0000 0.0000
# 2 27.4462 149.6026 45.3536 0.0000 0.0000 0.0000
# 3 27.0280 45.3536 80.5145 0.0000 0.0000 0.0000
# 4 0.0000 0.0000 0.0000 17.7401 0.0000 0.0000
# 5 0.0000 0.0000 0.0000 0.0000 26.6615 0.0000
# 6 0.0000 0.0000 0.0000 0.0000 0.0000 13.3486
#
#
#
# Elastic Compliance Matrix: (Units=1/GPa)
#
#
# Indices 1 2 3 4 5 6 
#
# 1 0.022094 -0.002177 -0.006191 0.000000 0.000000 0.000000
# 2 -0.002177 0.008275 -0.003931 0.000000 0.000000 0.000000
# 3 -0.006191 -0.003931 0.016713 0.000000 0.000000 0.000000
# 4 0.000000 0.000000 0.000000 0.056370 0.000000 0.000000
# 5 0.000000 0.000000 0.000000 0.000000 0.037507 0.000000
# 6 0.000000 0.000000 0.000000 0.000000 0.000000 0.074914
#
#
# Mechanical properties :
#
#
# Convention : Reuss Voigt Hill
#
# Bulk Modulus (GPa) = 44.47273 53.92340 49.19806
# Shear Modulus (GPa) = 20.16416 23.93852 22.05134
#
# Velocity S-wave (km/s) = 3.39384 3.69786 3.54910
# Velocity P-wave (km/s) = 6.38445 7.00245 6.70058
#
# Compressibility (1/GPa) = 0.02248569
#
# Stress axis : x y z
#
# Youngs Moduli (GPa) = 45.26097 120.84053 59.83538
#
# Poissons Ratio (x) = 0.26302 0.37042
# Poissons Ratio (y) = 0.09852 0.23520
# Poissons Ratio (z) = 0.28020 0.47500
#
# Static dielectric constant tensor:
#      x y z
#    x 2.987310 0.000000 0.000000 
#    y 0.000000 3.627400 0.000000 
#    z 0.000000 0.000000 3.095970 
# 
# 
# High freq. dielectric constant tensor:
#      x y z
#    x 1.658120 0.000000 0.000000 
#    y 0.000000 1.676170 0.000000 
#    z 0.000000 0.000000 1.650710 
# 
# From -- ./inp_files/4745.got.cif
#   From: 2010.03.12/outbox.cif.g09.slc.cpg/sg31_3_cif.got.tgz:4745.got - 2010.04.14 01:42:59.
