data_PCOD8169480
_publ_section_title
;
Structure prediction by ZEFSAII (Michael W. Deem and Ramdas Pophale) SiO2 
 PCOD8169480
Probable space group: P N C 2
;
_chemical_formula_sum "Si O2"
_cell_formula_units_Z 30
_cell_length_a 22.646013
_cell_length_b 5.161871
_cell_length_c 12.689945
_cell_angle_alpha 90.000000
_cell_angle_beta 90.000000
_cell_angle_gamma 90.000000
_cell_volume 1483.401244
_symmetry_space_group_name_H-M "P N C 2"
_symmetry_group_IT_number 30
_symmetry_cell_setting 'orthorhombic'
loop_
_space_group_symop_operation_xyz
x,y,z
-x,-y,z
-x,1/2+y,1/2+z
x,1/2-y,1/2+z
loop_
_atom_site_type_symbol
_atom_site_label
_atom_site_fract_x
_atom_site_fract_y
_atom_site_fract_z
Si Si1 0.216853 0.989166 0.396160
Si Si2 0.160933 0.479536 0.482495
Si Si3 0.068863 0.511116 0.304660
Si Si4 0.500000 0.500000 0.371600
Si Si5 0.124870 0.020463 0.217966
Si Si6 0.350306 0.001833 0.331632
Si Si7 0.435775 0.402119 0.005725
Si Si8 0.395205 0.524697 0.233388
O O1 0.196298 0.209024 0.478568
O O2 0.184724 0.040348 0.285279
O O3 0.202719 0.706457 0.440337
O O4 0.286154 0.008406 0.381477
O O5 0.101145 0.460569 0.415193
O O6 0.143033 0.543468 0.600295
O O7 0.088793 0.289467 0.222397
O O8 0.000000 0.500000 0.327442
O O9 0.083373 0.792185 0.259386
O O10 0.548184 0.635162 0.447069
O O11 0.455962 0.635067 0.286681
O O12 0.353565 0.780859 0.240066
O O13 0.396801 0.927715 0.424990
O O14 0.364267 0.288537 0.292521
O O15 0.500000 0.500000 0.029888
O O16 0.402156 0.405686 0.116566
#
# Coordination Sequence:
#
# PCOD8169480 Si02
#       8
#     4   4   4   2   4   4   4   4
#     4  10  22  40  61  85 121 154 205 252 296 349
#     4  10  21  39  63  85 117 165 201 241 298 351
#     4  10  21  36  56  89 124 155 199 248 292 351
#     4  10  22  40  58  82 116 148 188 234 288 370
#     4  10  21  38  60  86 119 164 201 246 300 349
#     4  11  25  41  59  93 119 151 199 255 294 359
#     4  11  23  39  63  84 119 155 193 240 306 368
#     4  11  24  38  62  85 115 152 192 235 306 358
#
# _framework density 20.223793000000001
#
# number of rings (size 3 to 8) (size 9 to 14) (size 15 to 20)
#    0.000    1.600    2.000    2.000    1.867    3.200 
#    0.000    0.000    0.000    0.000    0.000    0.000 
#    0.000    0.000    0.000    0.000    0.000    0.000 
#
# Total GULP energy -371692.659416 kJ/mol
# GULP energy per Si atom -12389.755314 kJ/mol
# Density = 2.017776 g / cm^3
# Si number density = 20.223793 Si / 1000 Ang^3
#
#
#
# Elastic Constant Matrix: (Units=GPa)
#
#
# Indices 1 2 3 4 5 6 
#
# 1 242.1018 43.0800 60.1989 0.0000 0.0000 0.0000
# 2 43.0800 92.0225 14.4734 0.0000 0.0000 0.0000
# 3 60.1989 14.4734 99.4258 0.0000 0.0000 0.0000
# 4 0.0000 0.0000 0.0000 21.5937 0.0000 0.0000
# 5 0.0000 0.0000 0.0000 0.0000 11.5277 0.0000
# 6 0.0000 0.0000 0.0000 0.0000 0.0000 24.3009
#
#
#
# Elastic Compliance Matrix: (Units=1/GPa)
#
#
# Indices 1 2 3 4 5 6 
#
# 1 0.005193 -0.001982 -0.002856 0.000000 0.000000 0.000000
# 2 -0.001982 0.011878 -0.000529 0.000000 0.000000 0.000000
# 3 -0.002856 -0.000529 0.011864 0.000000 0.000000 0.000000
# 4 0.000000 0.000000 0.000000 0.046310 0.000000 0.000000
# 5 0.000000 0.000000 0.000000 0.000000 0.086748 0.000000
# 6 0.000000 0.000000 0.000000 0.000000 0.000000 0.041151
#
#
# Mechanical properties :
#
#
# Convention : Reuss Voigt Hill
#
# Bulk Modulus (GPa) = 54.94096 74.33942 64.64019
# Shear Modulus (GPa) = 22.73300 32.53763 27.63532
#
# Velocity S-wave (km/s) = 3.35636 4.01543 3.70060
# Velocity P-wave (km/s) = 6.49966 7.63783 7.09162
#
# Compressibility (1/GPa) = 0.01820136
#
# Stress axis : x y z
#
# Youngs Moduli (GPa) = 192.55615 84.18926 84.28953
#
# Poissons Ratio (x) = 0.16687 0.24072
# Poissons Ratio (y) = 0.38166 0.04459
# Poissons Ratio (z) = 0.54991 0.04454
#
# Static dielectric constant tensor:
#      x y z
#    x 3.661900 0.000000 0.000000 
#    y 0.000000 3.656520 0.000000 
#    z 0.000000 0.000000 3.506550 
# 
# 
# High freq. dielectric constant tensor:
#      x y z
#    x 1.790610 0.000000 0.000000 
#    y 0.000000 1.796680 0.000000 
#    z 0.000000 0.000000 1.786950 
# 
# From -- ./inp_files/4487.got.cif
#   From: 2010.03.12/outbox.cif.g09.slc.cpg/sg30_3_cif.got.tgz:4487.got - 2010.04.14 01:38:02.
