data_PCOD8169338
_publ_section_title
;
Structure prediction by ZEFSAII (Michael W. Deem and Ramdas Pophale) SiO2 
 PCOD8169338
Probable space group: P C A 21
;
_chemical_formula_sum "Si O2"
_cell_formula_units_Z 24
_cell_length_a 17.598849
_cell_length_b 6.503846
_cell_length_c 9.025794
_cell_angle_alpha 90.000000
_cell_angle_beta 90.000000
_cell_angle_gamma 90.000000
_cell_volume 1033.094220
_symmetry_space_group_name_H-M "P C A 21"
_symmetry_group_IT_number 29
_symmetry_cell_setting 'orthorhombic'
loop_
_space_group_symop_operation_xyz
x,y,z
-x,-y,1/2+z
1/2-x,y,1/2+z
1/2+x,-y,z
loop_
_atom_site_type_symbol
_atom_site_label
_atom_site_fract_x
_atom_site_fract_y
_atom_site_fract_z
Si Si1 0.979457 0.177080 0.832160
Si Si2 0.419420 0.882124 0.511734
Si Si3 0.344245 0.694055 0.026172
Si Si4 0.739893 0.679634 0.398854
Si Si5 0.895716 0.499211 0.319712
Si Si6 0.731394 0.959992 0.137179
O O1 0.967899 0.148072 0.658746
O O2 0.024638 0.389229 0.851089
O O3 0.900556 0.176419 0.922408
O O4 0.029345 0.987339 0.887329
O O5 0.388849 0.671649 0.445315
O O6 0.346320 0.015965 0.548495
O O7 0.394134 0.582961 0.151403
O O8 0.283773 0.836452 0.117424
O O9 0.306055 0.536022 0.905915
O O10 0.825489 0.649728 0.345112
O O11 0.711066 0.878623 0.302255
O O12 0.729715 0.759337 0.565776
#
# Coordination Sequence:
#
# PCOD8169338 Si02
#       6
#     4   4   4   4   4   4
#     4  12  29  46  75 108 150 199 246 310 382 449
#     4  12  27  48  73 108 151 195 250 313 380 449
#     4  12  28  48  76 113 147 197 257 311 373 458
#     4  12  26  44  75 109 145 194 249 305 378 447
#     4  12  26  48  73 104 152 194 245 309 375 450
#     4  12  26  46  76 106 147 193 249 308 374 451
#
# _framework density 23.231179999999998
#
# number of rings (size 3 to 8) (size 9 to 14) (size 15 to 20)
#    0.000    0.000    5.000    4.000    7.000    5.333 
#    0.000    0.000    0.000    0.000    0.000    0.000 
#    0.000    0.000    0.000    0.000    0.000    0.000 
#
# Total GULP energy -297539.500838 kJ/mol
# GULP energy per Si atom -12397.479202 kJ/mol
# Density = 2.317830 g / cm^3
# Si number density = 23.231180 Si / 1000 Ang^3
#
#
#
# Elastic Constant Matrix: (Units=GPa)
#
#
# Indices 1 2 3 4 5 6 
#
# 1 86.2984 29.9316 25.9434 0.0000 0.0000 0.0000
# 2 29.9316 95.1867 29.7709 0.0000 0.0000 0.0000
# 3 25.9434 29.7709 119.3875 0.0000 0.0000 0.0000
# 4 0.0000 0.0000 0.0000 56.2460 0.0000 0.0000
# 5 0.0000 0.0000 0.0000 0.0000 40.3397 0.0000
# 6 0.0000 0.0000 0.0000 0.0000 0.0000 36.0198
#
#
#
# Elastic Compliance Matrix: (Units=1/GPa)
#
#
# Indices 1 2 3 4 5 6 
#
# 1 0.013443 -0.003594 -0.002025 0.000000 0.000000 0.000000
# 2 -0.003594 0.012355 -0.002300 0.000000 0.000000 0.000000
# 3 -0.002025 -0.002300 0.009390 0.000000 0.000000 0.000000
# 4 0.000000 0.000000 0.000000 0.017779 0.000000 0.000000
# 5 0.000000 0.000000 0.000000 0.000000 0.024790 0.000000
# 6 0.000000 0.000000 0.000000 0.000000 0.000000 0.027762
#
#
# Mechanical properties :
#
#
# Convention : Reuss Voigt Hill
#
# Bulk Modulus (GPa) = 51.67934 52.46271 52.07103
# Shear Modulus (GPa) = 39.12168 40.86954 39.99561
#
# Velocity S-wave (km/s) = 4.10813 4.19890 4.15376
# Velocity P-wave (km/s) = 6.69300 6.79261 6.74299
#
# Compressibility (1/GPa) = 0.01935009
#
# Stress axis : x y z
#
# Youngs Moduli (GPa) = 74.38842 80.93833 106.50011
#
# Poissons Ratio (x) = 0.29088 0.21567
# Poissons Ratio (y) = 0.26734 0.24495
# Poissons Ratio (z) = 0.15064 0.18615
#
# Static dielectric constant tensor:
#      x y z
#    x 4.101500 0.000000 0.000000 
#    y 0.000000 4.140760 0.000000 
#    z 0.000000 0.000000 4.205490 
# 
# 
# High freq. dielectric constant tensor:
#      x y z
#    x 1.918990 0.000000 0.000000 
#    y 0.000000 1.927880 0.000000 
#    z 0.000000 0.000000 1.934870 
# 
# From -- ./inp_files/2002.got.cif
#   From: 2010.03.12/outbox.cif.g09.slc.cpg/sg29_2_cif.got.tgz:2002.got - 2010.04.14 03:43:10.
