data_PCOD8169415
_publ_section_title
;
Structure prediction by ZEFSAII (Michael W. Deem and Ramdas Pophale) SiO2 
 PCOD8169415
Probable space group: P N C 2
;
_chemical_formula_sum "Si O2"
_cell_formula_units_Z 24
_cell_length_a 5.314612
_cell_length_b 8.509734
_cell_length_c 25.494650
_cell_angle_alpha 90.000000
_cell_angle_beta 90.000000
_cell_angle_gamma 90.000000
_cell_volume 1153.019369
_symmetry_space_group_name_H-M "P N C 2"
_symmetry_group_IT_number 30
_symmetry_cell_setting 'orthorhombic'
loop_
_space_group_symop_operation_xyz
x,y,z
-x,-y,z
-x,1/2+y,1/2+z
x,1/2-y,1/2+z
loop_
_atom_site_type_symbol
_atom_site_label
_atom_site_fract_x
_atom_site_fract_y
_atom_site_fract_z
Si Si1 0.000000 0.500000 0.201200
Si Si2 0.958041 0.315562 0.486772
Si Si3 0.500000 0.500000 0.133456
Si Si4 0.176334 0.750147 0.872795
Si Si5 0.532378 0.825838 0.533138
Si Si6 0.500000 0.500000 0.330897
Si Si7 0.500000 0.000000 0.312656
Si Si8 0.185537 0.242329 0.779762
O O1 0.249946 0.519102 0.167506
O O2 0.011240 0.336494 0.235139
O O3 0.918263 0.224799 0.431784
O O4 0.703582 0.285914 0.519765
O O5 0.000000 0.500000 0.478885
O O6 0.202826 0.245537 0.515024
O O7 0.464757 0.345818 0.096577
O O8 0.374061 0.620984 0.853078
O O9 0.938811 0.742394 0.836070
O O10 0.292796 0.925406 0.869205
O O11 0.500000 0.000000 0.507265
O O12 0.585012 0.625964 0.288261
O O13 0.303765 0.083301 0.271516
#
# Coordination Sequence:
#
# PCOD8169415 Si02
#       8
#     2   4   2   4   4   2   2   4
#     4  12  22  42  82 100 128 186 240 292 366 404
#     4  12  25  41  74 105 140 189 235 279 360 416
#     4  10  25  47  76 104 124 178 249 307 350 422
#     4  11  24  39  61  97 144 191 225 276 335 435
#     4  10  25  47  70  99 139 174 236 306 346 420
#     4  10  19  38  58  92 144 180 222 273 314 406
#     4  10  26  39  60  88 162 180 227 278 352 384
#     4  11  22  39  64 101 136 181 226 284 333 429
#
# _framework density 20.814916
#
# number of rings (size 3 to 8) (size 9 to 14) (size 15 to 20)
#    0.500    0.667    1.667    4.000   10.500    1.333 
#    0.000    0.000    7.333    0.000    0.000    0.000 
#    0.000    0.000    0.000    0.000    0.000    0.000 
#
# Total GULP energy -297339.893814 kJ/mol
# GULP energy per Si atom -12389.162242 kJ/mol
# Density = 2.076754 g / cm^3
# Si number density = 20.814916 Si / 1000 Ang^3
#
#
#
# Elastic Constant Matrix: (Units=GPa)
#
#
# Indices 1 2 3 4 5 6 
#
# 1 148.2775 42.9484 61.8906 0.0000 0.0000 0.0000
# 2 42.9484 103.8934 35.1517 0.0000 0.0000 0.0000
# 3 61.8906 35.1517 127.7199 0.0000 0.0000 0.0000
# 4 0.0000 0.0000 0.0000 16.8178 0.0000 0.0000
# 5 0.0000 0.0000 0.0000 0.0000 43.0715 0.0000
# 6 0.0000 0.0000 0.0000 0.0000 0.0000 45.7851
#
#
#
# Elastic Compliance Matrix: (Units=1/GPa)
#
#
# Indices 1 2 3 4 5 6 
#
# 1 0.008996 -0.002474 -0.003678 0.000000 0.000000 0.000000
# 2 -0.002474 0.011294 -0.001909 0.000000 0.000000 0.000000
# 3 -0.003678 -0.001909 0.010138 0.000000 0.000000 0.000000
# 4 0.000000 0.000000 0.000000 0.059461 0.000000 0.000000
# 5 0.000000 0.000000 0.000000 0.000000 0.023217 0.000000
# 6 0.000000 0.000000 0.000000 0.000000 0.000000 0.021841
#
#
# Mechanical properties :
#
#
# Convention : Reuss Voigt Hill
#
# Bulk Modulus (GPa) = 69.91209 73.31912 71.61561
# Shear Modulus (GPa) = 32.08433 37.12820 34.60626
#
# Velocity S-wave (km/s) = 3.93034 4.22801 4.08189
# Velocity P-wave (km/s) = 7.36595 7.68996 7.52970
#
# Compressibility (1/GPa) = 0.01430368
#
# Stress axis : x y z
#
# Youngs Moduli (GPa) = 111.15883 88.54130 98.64263
#
# Poissons Ratio (x) = 0.21908 0.36284
# Poissons Ratio (y) = 0.27505 0.18835
# Poissons Ratio (z) = 0.40888 0.16906
#
# Static dielectric constant tensor:
#      x y z
#    x 3.941880 0.000000 0.000000 
#    y 0.000000 -19.846240 0.000000 
#    z 0.000000 0.000000 3.678690 
# 
# 
# High freq. dielectric constant tensor:
#      x y z
#    x 1.839830 0.000000 0.000000 
#    y 0.000000 1.816740 0.000000 
#    z 0.000000 0.000000 1.790200 
# 
# From -- ./inp_files/7222.got.cif
#   From: 2010.03.12/outbox.cif.g09.slc.cpg/sg30_4_cif.got.tgz:7222.got - 2010.04.14 01:38:02.
