data_PCOD8169118
_publ_section_title
;
Structure prediction by ZEFSAII (Michael W. Deem and Ramdas Pophale) SiO2 
 PCOD8169118
Probable space group: P C A 21
;
_chemical_formula_sum "Si O2"
_cell_formula_units_Z 24
_cell_length_a 18.201055
_cell_length_b 4.891371
_cell_length_c 11.112785
_cell_angle_alpha 90.000000
_cell_angle_beta 90.000000
_cell_angle_gamma 90.000000
_cell_volume 989.350274
_symmetry_space_group_name_H-M "P C A 21"
_symmetry_group_IT_number 29
_symmetry_cell_setting 'orthorhombic'
loop_
_space_group_symop_operation_xyz
x,y,z
-x,-y,1/2+z
1/2-x,y,1/2+z
1/2+x,-y,z
loop_
_atom_site_type_symbol
_atom_site_label
_atom_site_fract_x
_atom_site_fract_y
_atom_site_fract_z
Si Si1 0.362294 0.156590 0.851680
Si Si2 0.040397 0.459107 0.534583
Si Si3 0.880902 0.263295 0.254292
Si Si4 0.907334 0.091532 0.622896
Si Si5 0.073383 0.238576 0.897205
Si Si6 0.286936 0.674455 0.768442
O O1 0.297777 0.367510 0.813738
O O2 0.420165 0.105466 0.740556
O O3 0.318074 0.874367 0.874934
O O4 0.404975 0.249016 0.969943
O O5 0.081482 0.631908 0.634274
O O6 0.976643 0.284613 0.597582
O O7 0.010289 0.679804 0.435908
O O8 0.889078 0.474709 0.364523
O O9 0.794620 0.237572 0.232274
O O10 0.920076 0.974246 0.286430
O O11 0.836137 0.279485 0.648252
O O12 0.887109 0.897451 0.511200
#
# Coordination Sequence:
#
# PCOD8169118 Si02
#       6
#     4   4   4   4   4   4
#     4  10  26  48  79 110 154 201 257 318 395 454
#     4  12  29  49  82 115 161 210 265 335 386 480
#     4  12  30  50  79 117 157 208 268 315 412 457
#     4  10  26  48  79 114 153 206 256 332 387 462
#     4  12  28  46  77 116 158 199 262 334 379 484
#     4  10  25  53  74 112 157 200 262 322 383 487
#
# _framework density 24.258344999999998
#
# number of rings (size 3 to 8) (size 9 to 14) (size 15 to 20)
#    1.000    0.000    1.667    2.000   11.667    1.333 
#    6.000    0.000    0.000    0.000    0.000    0.000 
#    0.000    0.000    0.000    0.000    0.000    0.000 
#
# Total GULP energy -297481.974921 kJ/mol
# GULP energy per Si atom -12395.082288 kJ/mol
# Density = 2.420313 g / cm^3
# Si number density = 24.258345 Si / 1000 Ang^3
#
#
#
# Elastic Constant Matrix: (Units=GPa)
#
#
# Indices 1 2 3 4 5 6 
#
# 1 120.8809 33.1782 14.1501 0.0000 0.0000 0.0000
# 2 33.1782 109.6788 3.3025 0.0000 0.0000 0.0000
# 3 14.1501 3.3025 40.3576 0.0000 0.0000 0.0000
# 4 0.0000 0.0000 0.0000 51.9424 0.0000 0.0000
# 5 0.0000 0.0000 0.0000 0.0000 31.2172 0.0000
# 6 0.0000 0.0000 0.0000 0.0000 0.0000 17.5489
#
#
#
# Elastic Compliance Matrix: (Units=1/GPa)
#
#
# Indices 1 2 3 4 5 6 
#
# 1 0.009385 -0.002747 -0.003066 0.000000 0.000000 0.000000
# 2 -0.002747 0.009944 0.000149 0.000000 0.000000 0.000000
# 3 -0.003066 0.000149 0.025841 0.000000 0.000000 0.000000
# 4 0.000000 0.000000 0.000000 0.019252 0.000000 0.000000
# 5 0.000000 0.000000 0.000000 0.000000 0.032034 0.000000
# 6 0.000000 0.000000 0.000000 0.000000 0.000000 0.056984
#
#
# Mechanical properties :
#
#
# Convention : Reuss Voigt Hill
#
# Bulk Modulus (GPa) = 29.54744 41.35320 35.45032
# Shear Modulus (GPa) = 28.40134 34.82746 31.61440
#
# Velocity S-wave (km/s) = 3.42539 3.79316 3.61396
# Velocity P-wave (km/s) = 5.27742 6.02230 5.66212
#
# Compressibility (1/GPa) = 0.03384388
#
# Stress axis : x y z
#
# Youngs Moduli (GPa) = 106.54839 100.56370 38.69783
#
# Poissons Ratio (x) = 0.27623 0.11864
# Poissons Ratio (y) = 0.29267 -0.00578
# Poissons Ratio (z) = 0.32667 -0.01502
#
# Static dielectric constant tensor:
#      x y z
#    x 4.101270 0.000000 0.000000 
#    y 0.000000 4.702710 0.000000 
#    z 0.000000 0.000000 4.236830 
# 
# 
# High freq. dielectric constant tensor:
#      x y z
#    x 1.947240 0.000000 0.000000 
#    y 0.000000 1.986580 0.000000 
#    z 0.000000 0.000000 1.955590 
# 
# From -- ./inp_files/3728.got.cif
#   From: 2010.03.12/outbox.cif.g09.slc.cpg/sg29_2_cif.got.tgz:3728.got - 2010.04.14 03:43:10.
