data_PCOD8169144
_publ_section_title
;
Structure prediction by ZEFSAII (Michael W. Deem and Ramdas Pophale) SiO2 
 PCOD8169144
Probable space group: P C A 21
;
_chemical_formula_sum "Si O2"
_cell_formula_units_Z 28
_cell_length_a 11.806204
_cell_length_b 7.730959
_cell_length_c 14.292539
_cell_angle_alpha 90.000000
_cell_angle_beta 90.000000
_cell_angle_gamma 90.000000
_cell_volume 1304.526901
_symmetry_space_group_name_H-M "P C A 21"
_symmetry_group_IT_number 29
_symmetry_cell_setting 'orthorhombic'
loop_
_space_group_symop_operation_xyz
x,y,z
-x,-y,1/2+z
1/2-x,y,1/2+z
1/2+x,-y,z
loop_
_atom_site_type_symbol
_atom_site_label
_atom_site_fract_x
_atom_site_fract_y
_atom_site_fract_z
Si Si1 0.382379 0.312589 0.987570
Si Si2 0.280622 0.350687 0.332944
Si Si3 0.882378 0.312589 0.391710
Si Si4 0.064603 0.193066 0.685734
Si Si5 0.610846 0.500003 0.189640
Si Si6 0.780625 0.350686 0.046337
Si Si7 0.564601 0.193060 0.693546
O O1 0.281411 0.250820 0.918173
O O2 0.499999 0.266059 0.939639
O O3 0.373941 0.215919 0.086249
O O4 0.374636 0.519051 0.005059
O O5 0.374634 0.480951 0.374221
O O6 0.338374 0.212920 0.264480
O O7 0.187900 0.470532 0.280365
O O8 0.781413 0.250821 0.461109
O O9 0.873939 0.215919 0.293030
O O10 0.966064 0.330794 0.704114
O O11 0.013487 0.000005 0.689644
O O12 0.687907 0.470533 0.098917
O O13 0.533940 0.669217 0.175165
O O14 0.838379 0.212911 0.114797
#
# Coordination Sequence:
#
# PCOD8169144 Si02
#       7
#     4   4   4   4   4   4   4
#     4  11  21  41  68  98 130 172 227 274 324 401
#     4  11  22  41  72  93 128 183 220 268 338 393
#     4  11  21  41  68  98 130 172 227 274 324 401
#     4  12  25  42  67 100 135 173 218 275 335 394
#     4  12  20  46  66  94 138 174 216 272 334 394
#     4  11  22  41  72  93 128 183 220 268 338 393
#     4  12  25  42  67 100 135 173 218 275 335 394
#
# _framework density 21.463719000000001
#
# number of rings (size 3 to 8) (size 9 to 14) (size 15 to 20)
#    0.000    0.571    8.571    0.000    0.000    2.286 
#    0.000    7.143    0.000    0.000    0.000    0.000 
#    0.000    0.000    0.000    0.000    0.000    0.000 
#
# Total GULP energy -347213.162263 kJ/mol
# GULP energy per Si atom -12400.470081 kJ/mol
# Density = 2.141487 g / cm^3
# Si number density = 21.463719 Si / 1000 Ang^3
#
#
#
# Elastic Constant Matrix: (Units=GPa)
#
#
# Indices 1 2 3 4 5 6 
#
# 1 60.0466 30.8186 7.8512 0.0000 0.0000 0.0000
# 2 30.8186 104.4382 -5.4246 0.0000 0.0000 0.0000
# 3 7.8512 -5.4246 71.9854 0.0000 0.0000 0.0000
# 4 0.0000 0.0000 0.0000 9.9248 0.0000 0.0000
# 5 0.0000 0.0000 0.0000 0.0000 36.8365 0.0000
# 6 0.0000 0.0000 0.0000 0.0000 0.0000 5.0813
#
#
#
# Elastic Compliance Matrix: (Units=1/GPa)
#
#
# Indices 1 2 3 4 5 6 
#
# 1 0.020118 -0.006074 -0.002652 0.000000 0.000000 0.000000
# 2 -0.006074 0.011447 0.001525 0.000000 0.000000 0.000000
# 3 -0.002652 0.001525 0.014296 0.000000 0.000000 0.000000
# 4 0.000000 0.000000 0.000000 0.100757 0.000000 0.000000
# 5 0.000000 0.000000 0.000000 0.000000 0.027147 0.000000
# 6 0.000000 0.000000 0.000000 0.000000 0.000000 0.196799
#
#
# Mechanical properties :
#
#
# Convention : Reuss Voigt Hill
#
# Bulk Modulus (GPa) = 31.78818 33.66230 32.72524
# Shear Modulus (GPa) = 12.64373 23.91685 18.28029
#
# Velocity S-wave (km/s) = 2.42972 3.34172 2.92153
# Velocity P-wave (km/s) = 4.76589 5.53235 5.16336
#
# Compressibility (1/GPa) = 0.03145823
#
# Stress axis : x y z
#
# Youngs Moduli (GPa) = 49.70639 87.36114 69.95028
#
# Poissons Ratio (x) = 0.53067 0.18551
# Poissons Ratio (y) = 0.30194 -0.10668
# Poissons Ratio (z) = 0.13182 -0.13323
#
# Static dielectric constant tensor:
#      x y z
#    x 3.909650 0.000000 0.000000 
#    y 0.000000 3.459540 0.000000 
#    z 0.000000 0.000000 4.303280 
# 
# 
# High freq. dielectric constant tensor:
#      x y z
#    x 1.843160 0.000000 0.000000 
#    y 0.000000 1.801000 0.000000 
#    z 0.000000 0.000000 1.868320 
# 
# From -- ./inp_files/4498.got.cif
#   From: 2010.03.12/outbox.cif.g09.slc.cpg/sg29_3_cif.got.tgz:4498.got - 2010.04.14 03:43:10.
