data_PCOD8169432
_publ_section_title
;
Structure prediction by ZEFSAII (Michael W. Deem and Ramdas Pophale) SiO2 
 PCOD8169432
Probable space group: P N C 2
;
_chemical_formula_sum "Si O2"
_cell_formula_units_Z 32
_cell_length_a 20.299774
_cell_length_b 9.286372
_cell_length_c 8.642614
_cell_angle_alpha 90.000000
_cell_angle_beta 90.000000
_cell_angle_gamma 90.000000
_cell_volume 1629.229993
_symmetry_space_group_name_H-M "P N C 2"
_symmetry_group_IT_number 30
_symmetry_cell_setting 'orthorhombic'
loop_
_space_group_symop_operation_xyz
x,y,z
-x,-y,z
-x,1/2+y,1/2+z
x,1/2-y,1/2+z
loop_
_atom_site_type_symbol
_atom_site_label
_atom_site_fract_x
_atom_site_fract_y
_atom_site_fract_z
Si Si1 0.823753 0.404360 0.343670
Si Si2 0.176247 0.595639 0.709310
Si Si3 0.439058 0.092526 0.709006
Si Si4 0.063892 0.094687 0.706912
Si Si5 0.316641 0.903090 0.343290
Si Si6 0.316641 0.596911 0.209690
Si Si7 0.063892 0.405313 0.846068
Si Si8 0.560942 0.592526 0.843975
O O1 0.821274 0.391079 0.526490
O O2 0.845562 0.249999 0.276491
O O3 0.874498 0.526160 0.294151
O O4 0.752624 0.451953 0.281174
O O5 0.247376 0.548047 0.771805
O O6 0.125502 0.473839 0.758829
O O7 0.442578 0.250000 0.776491
O O8 0.444135 0.102956 0.526491
O O9 0.500000 0.000000 0.775315
O O10 0.370783 0.019280 0.760387
O O11 0.049334 0.250000 0.776490
O O12 0.080392 0.106136 0.526490
O O13 0.000000 0.000000 0.739142
O O14 0.339220 0.750000 0.276490
O O15 0.309365 0.890111 0.526490
O O16 0.370783 0.019281 0.292593
O O17 0.000000 0.500000 0.813838
O O18 0.500000 0.500000 0.777667
#
# Coordination Sequence:
#
# PCOD8169432 Si02
#       8
#     4   4   4   4   4   4   4   4
#     4  11  22  38  61  87 118 154 193 236 285 340
#     4  11  22  38  61  87 118 154 193 236 285 340
#     4  10  22  38  57  83 113 147 188 234 283 338
#     4  11  24  41  62  88 118 152 192 237 286 341
#     4  10  20  36  58  84 115 149 190 235 282 339
#     4  10  20  36  58  84 115 149 190 235 282 339
#     4  11  24  41  62  88 118 152 192 237 286 341
#     4  10  22  38  57  83 113 147 188 234 283 338
#
# _framework density 19.641181
#
# number of rings (size 3 to 8) (size 9 to 14) (size 15 to 20)
#    0.000    1.500    0.000    6.750    0.000    7.500 
#    0.000    2.500    0.000    0.000    0.000    0.000 
#    0.000    0.000    0.000    0.000    0.000    0.000 
#
# Total GULP energy -396967.302321 kJ/mol
# GULP energy per Si atom -12405.228198 kJ/mol
# Density = 1.959648 g / cm^3
# Si number density = 19.641181 Si / 1000 Ang^3
#
#
#
# Elastic Constant Matrix: (Units=GPa)
#
#
# Indices 1 2 3 4 5 6 
#
# 1 127.6267 85.6004 62.9426 0.0000 0.0000 0.0000
# 2 85.6004 143.8674 51.8133 0.0000 0.0000 0.0000
# 3 62.9426 51.8133 110.0888 0.0000 0.0000 0.0000
# 4 0.0000 0.0000 0.0000 37.0959 0.0000 0.0000
# 5 0.0000 0.0000 0.0000 0.0000 6.8196 0.0000
# 6 0.0000 0.0000 0.0000 0.0000 0.0000 73.6212
#
#
#
# Elastic Compliance Matrix: (Units=1/GPa)
#
#
# Indices 1 2 3 4 5 6 
#
# 1 0.015287 -0.007162 -0.005370 0.000000 0.000000 0.000000
# 2 -0.007162 0.011725 -0.001424 0.000000 0.000000 0.000000
# 3 -0.005370 -0.001424 0.012824 0.000000 0.000000 0.000000
# 4 0.000000 0.000000 0.000000 0.026957 0.000000 0.000000
# 5 0.000000 0.000000 0.000000 0.000000 0.146636 0.000000
# 6 0.000000 0.000000 0.000000 0.000000 0.000000 0.013583
#
#
# Mechanical properties :
#
#
# Convention : Reuss Voigt Hill
#
# Bulk Modulus (GPa) = 83.85373 86.92172 85.38772
# Shear Modulus (GPa) = 19.31276 35.58911 27.45093
#
# Velocity S-wave (km/s) = 3.13913 4.26133 3.74253
# Velocity P-wave (km/s) = 7.47826 8.28027 7.88946
#
# Compressibility (1/GPa) = 0.01192553
#
# Stress axis : x y z
#
# Youngs Moduli (GPa) = 65.41498 85.28915 77.98159
#
# Poissons Ratio (x) = 0.61083 0.41872
# Poissons Ratio (y) = 0.46850 0.11101
# Poissons Ratio (z) = 0.35125 0.12141
#
# Static dielectric constant tensor:
#      x y z
#    x 3.800050 0.000000 0.000000 
#    y 0.000000 3.640330 0.000000 
#    z 0.000000 0.000000 3.663300 
# 
# 
# High freq. dielectric constant tensor:
#      x y z
#    x 1.781170 0.000000 0.000000 
#    y 0.000000 1.769190 0.000000 
#    z 0.000000 0.000000 1.776300 
# 
# From -- ./inp_files/2805.got.cif
#   From: 2010.03.12/outbox.cif.g09.slc.cpg/sg30_2_cif.got.tgz:2805.got - 2010.04.14 01:38:02.
