data_PCOD8169047
_publ_section_title
;
Structure prediction by ZEFSAII (Michael W. Deem and Ramdas Pophale) SiO2 
 PCOD8169047
Probable space group: P C A 21
;
_chemical_formula_sum "Si O2"
_cell_formula_units_Z 24
_cell_length_a 5.147323
_cell_length_b 19.928958
_cell_length_c 8.840791
_cell_angle_alpha 90.000000
_cell_angle_beta 90.000000
_cell_angle_gamma 90.000000
_cell_volume 906.895271
_symmetry_space_group_name_H-M "P C A 21"
_symmetry_group_IT_number 29
_symmetry_cell_setting 'orthorhombic'
loop_
_space_group_symop_operation_xyz
x,y,z
-x,-y,1/2+z
1/2-x,y,1/2+z
1/2+x,-y,z
loop_
_atom_site_type_symbol
_atom_site_label
_atom_site_fract_x
_atom_site_fract_y
_atom_site_fract_z
Si Si1 0.025699 0.955748 0.769250
Si Si2 0.269314 0.866521 0.530236
Si Si3 0.206416 0.521005 0.188047
Si Si4 0.939821 0.689888 0.743944
Si Si5 0.053401 0.775804 0.282624
Si Si6 0.138392 0.395987 0.524112
O O1 0.062251 0.914310 0.614352
O O2 0.054151 0.908378 0.914955
O O3 0.235679 0.015579 0.772791
O O4 0.114210 0.807644 0.445313
O O5 0.458376 0.833535 0.655078
O O6 0.969816 0.486500 0.284575
O O7 0.370250 0.595971 0.629066
O O8 0.233918 0.470185 0.039536
O O9 0.732305 0.745077 0.798906
O O10 0.944830 0.626311 0.857754
O O11 0.837133 0.660642 0.585024
O O12 0.225226 0.722031 0.734849
#
# Coordination Sequence:
#
# PCOD8169047 Si02
#       6
#     4   4   4   4   4   4
#     4  11  24  41  68 104 125 166 203 252 300 360
#     4  10  24  44  67  89 138 162 206 250 304 354
#     4   8  20  38  58  88 116 154 196 242 338 368
#     4  12  26  39  67  85 127 152 226 244 308 352
#     4  11  26  42  61  93 118 176 203 252 300 360
#     4  10  24  40  61  91 116 162 192 274 298 390
#
# _framework density 26.463918
#
# number of rings (size 3 to 8) (size 9 to 14) (size 15 to 20)
#    1.000    0.667    0.000    3.000    4.667    9.333 
#    0.000    0.000    0.000    0.000    0.000    0.000 
#    0.000    0.000    0.000    0.000    0.000    0.000 
#
# Total GULP energy -297319.553594 kJ/mol
# GULP energy per Si atom -12388.314733 kJ/mol
# Density = 2.640368 g / cm^3
# Si number density = 26.463918 Si / 1000 Ang^3
#
#
#
# Elastic Constant Matrix: (Units=GPa)
#
#
# Indices 1 2 3 4 5 6 
#
# 1 83.7297 -7.1174 -32.6744 0.0000 0.0000 0.0000
# 2 -7.1174 92.0585 0.5857 0.0000 0.0000 0.0000
# 3 -32.6744 0.5857 72.9647 0.0000 0.0000 0.0000
# 4 0.0000 0.0000 0.0000 40.9792 0.0000 0.0000
# 5 0.0000 0.0000 0.0000 0.0000 10.6474 0.0000
# 6 0.0000 0.0000 0.0000 0.0000 0.0000 30.0599
#
#
#
# Elastic Compliance Matrix: (Units=1/GPa)
#
#
# Indices 1 2 3 4 5 6 
#
# 1 0.014580 0.001086 0.006520 0.000000 0.000000 0.000000
# 2 0.001086 0.010944 0.000398 0.000000 0.000000 0.000000
# 3 0.006520 0.000398 0.016622 0.000000 0.000000 0.000000
# 4 0.000000 0.000000 0.000000 0.024403 0.000000 0.000000
# 5 0.000000 0.000000 0.000000 0.000000 0.093919 0.000000
# 6 0.000000 0.000000 0.000000 0.000000 0.000000 0.033267
#
#
# Mechanical properties :
#
#
# Convention : Reuss Voigt Hill
#
# Bulk Modulus (GPa) = 17.19542 18.92671 18.06107
# Shear Modulus (GPa) = 25.36643 35.53458 30.45050
#
# Velocity S-wave (km/s) = 3.09937 3.66834 3.39579
# Velocity P-wave (km/s) = 4.39544 5.01096 4.71326
#
# Compressibility (1/GPa) = 0.05815503
#
# Stress axis : x y z
#
# Youngs Moduli (GPa) = 68.58720 91.37365 60.16134
#
# Poissons Ratio (x) = -0.09921 -0.39227
# Poissons Ratio (y) = -0.07447 -0.02397
# Poissons Ratio (z) = -0.44721 -0.03640
#
# Static dielectric constant tensor:
#      x y z
#    x 4.896300 0.000000 0.000000 
#    y 0.000000 4.921290 0.000000 
#    z 0.000000 0.000000 4.495120 
# 
# 
# High freq. dielectric constant tensor:
#      x y z
#    x 2.059320 0.000000 0.000000 
#    y 0.000000 2.075250 0.000000 
#    z 0.000000 0.000000 2.052290 
# 
# From -- ./inp_files/997.got.cif
#   From: 2010.03.12/outbox.cif.g09.slc.cpg/sg29_1_cif.got.tgz:997.got - 2010.04.14 03:43:10.
