data_PCOD8169824
_publ_section_title
;
Structure prediction by ZEFSAII (Michael W. Deem and Ramdas Pophale) SiO2 
 PCOD8169824
Probable space group: P M N 21
;
_chemical_formula_sum "Si O2"
_cell_formula_units_Z 32
_cell_length_a 8.879431
_cell_length_b 10.308090
_cell_length_c 19.309896
_cell_angle_alpha 90.000000
_cell_angle_beta 90.000000
_cell_angle_gamma 90.000000
_cell_volume 1767.434277
_symmetry_space_group_name_H-M "P M N 21"
_symmetry_group_IT_number 31
_symmetry_cell_setting 'orthorhombic'
loop_
_space_group_symop_operation_xyz
x,y,z
1/2-x,-y,1/2+z
-x,y,z
1/2+x,-y,1/2+z
loop_
_atom_site_type_symbol
_atom_site_label
_atom_site_fract_x
_atom_site_fract_y
_atom_site_fract_z
Si Si1 0.323666 0.217370 0.990310
Si Si2 0.675825 0.220296 0.148613
Si Si3 0.821252 0.484291 0.644724
Si Si4 0.824302 0.492901 0.495543
Si Si5 0.178134 0.369314 0.782438
Si Si6 0.822688 0.123810 0.281106
Si Si7 0.325274 0.609922 0.852917
Si Si8 0.178776 0.115207 0.859021
O O1 0.500000 0.205981 0.973993
O O2 0.261074 0.363710 0.977220
O O3 0.236214 0.121800 0.938217
O O4 0.290061 0.176050 0.069753
O O5 0.500000 0.205362 0.165230
O O6 0.730484 0.368244 0.160085
O O7 0.767759 0.129423 0.201549
O O8 0.757544 0.441742 0.569047
O O9 0.758810 0.386911 0.703718
O O10 0.000000 0.479859 0.645969
O O11 0.792904 0.387952 0.435772
O O12 0.000000 0.516402 0.507973
O O13 0.225212 0.495240 0.824236
O O14 0.243816 0.239184 0.816624
O O15 0.000000 0.361462 0.782872
O O16 0.774433 0.254957 0.320558
O O17 0.000000 0.100955 0.283158
O O18 0.741134 0.010387 0.321594
O O19 0.500000 0.580352 0.837813
O O20 0.000000 0.110255 0.858888
#
# Coordination Sequence:
#
# PCOD8169824 Si02
#       8
#     4   4   4   4   4   4   4   4
#     4   9  17  32  56  81 104 136 177 219 269 328
#     4   9  17  32  56  81 104 136 177 219 269 328
#     4   8  14  27  50  78 104 130 165 214 267 317
#     4   8  14  27  50  78 104 130 165 214 267 317
#     4  10  19  32  53  79 104 133 174 220 269 319
#     4  11  23  36  52  78 111 148 185 223 269 320
#     4  10  19  32  53  79 104 133 174 220 269 319
#     4  11  23  36  52  78 111 148 185 223 269 320
#
# _framework density 18.105340999999999
#
# number of rings (size 3 to 8) (size 9 to 14) (size 15 to 20)
#    0.000    2.500    2.500    2.250    0.000    1.500 
#    0.000    1.250    0.000    5.250    0.000    0.000 
#    0.000    0.000    0.000    0.000    0.000    0.000 
#
# Total GULP energy -396622.210216 kJ/mol
# GULP energy per Si atom -12394.444069 kJ/mol
# Density = 1.806413 g / cm^3
# Si number density = 18.105341 Si / 1000 Ang^3
#
#
#
# Elastic Constant Matrix: (Units=GPa)
#
#
# Indices 1 2 3 4 5 6 
#
# 1 38.1295 25.8025 34.8636 0.0000 0.0000 0.0000
# 2 25.8025 83.4817 57.5685 0.0000 0.0000 0.0000
# 3 34.8636 57.5685 144.6772 0.0000 0.0000 0.0000
# 4 0.0000 0.0000 0.0000 30.1429 0.0000 0.0000
# 5 0.0000 0.0000 0.0000 0.0000 26.2894 0.0000
# 6 0.0000 0.0000 0.0000 0.0000 0.0000 19.4346
#
#
#
# Elastic Compliance Matrix: (Units=1/GPa)
#
#
# Indices 1 2 3 4 5 6 
#
# 1 0.036525 -0.007193 -0.005939 0.000000 0.000000 0.000000
# 2 -0.007193 0.017925 -0.005399 0.000000 0.000000 0.000000
# 3 -0.005939 -0.005399 0.010492 0.000000 0.000000 0.000000
# 4 0.000000 0.000000 0.000000 0.033175 0.000000 0.000000
# 5 0.000000 0.000000 0.000000 0.000000 0.038038 0.000000
# 6 0.000000 0.000000 0.000000 0.000000 0.000000 0.051455
#
#
# Mechanical properties :
#
#
# Convention : Reuss Voigt Hill
#
# Bulk Modulus (GPa) = 35.87074 55.86195 45.86634
# Shear Modulus (GPa) = 21.37065 25.04364 23.20714
#
# Velocity S-wave (km/s) = 3.43935 3.72320 3.58409
# Velocity P-wave (km/s) = 5.96887 7.02878 6.52040
#
# Compressibility (1/GPa) = 0.02787787
#
# Stress axis : x y z
#
# Youngs Moduli (GPa) = 27.37875 55.78716 95.31482
#
# Poissons Ratio (x) = 0.40130 0.56609
# Poissons Ratio (y) = 0.19695 0.51463
# Poissons Ratio (z) = 0.16261 0.30121
#
# Static dielectric constant tensor:
#      x y z
#    x 3.038940 0.000000 0.000000 
#    y 0.000000 3.189250 0.000000 
#    z 0.000000 0.000000 3.913120 
# 
# 
# High freq. dielectric constant tensor:
#      x y z
#    x 1.673600 0.000000 0.000000 
#    y 0.000000 1.670900 0.000000 
#    z 0.000000 0.000000 1.723330 
# 
# From -- ./inp_files/5911.got.cif
#   From: 2010.03.12/outbox.cif.g09.slc.cpg/sg31_3_cif.got.tgz:5911.got - 2010.04.14 01:42:59.
