data_PCOD8169834
_publ_section_title
;
Structure prediction by ZEFSAII (Michael W. Deem and Ramdas Pophale) SiO2 
 PCOD8169834
Probable space group: P M N 21
;
_chemical_formula_sum "Si O2"
_cell_formula_units_Z 32
_cell_length_a 9.093512
_cell_length_b 11.080152
_cell_length_c 16.560987
_cell_angle_alpha 90.000000
_cell_angle_beta 90.000000
_cell_angle_gamma 90.000000
_cell_volume 1668.643568
_symmetry_space_group_name_H-M "P M N 21"
_symmetry_group_IT_number 31
_symmetry_cell_setting 'orthorhombic'
loop_
_space_group_symop_operation_xyz
x,y,z
1/2-x,-y,1/2+z
-x,y,z
1/2+x,-y,1/2+z
loop_
_atom_site_type_symbol
_atom_site_label
_atom_site_fract_x
_atom_site_fract_y
_atom_site_fract_z
Si Si1 0.336263 0.090910 0.776580
Si Si2 0.335708 0.081043 0.514760
Si Si3 0.675397 0.804271 0.540275
Si Si4 0.325873 0.562775 0.251006
Si Si5 0.329011 0.787028 0.146000
Si Si6 0.331975 0.301746 0.194123
Si Si7 0.830533 0.687766 0.392757
Si Si8 0.161133 0.880621 0.831933
O O1 0.500000 0.092632 0.740173
O O2 0.217969 0.106806 0.706188
O O3 0.317503 0.186716 0.846836
O O4 0.300673 0.962108 0.812750
O O5 0.500000 0.077489 0.550138
O O6 0.243463 0.181996 0.561340
O O7 0.332614 0.139923 0.426889
O O8 0.274187 0.942710 0.520792
O O9 0.500000 0.792144 0.534705
O O10 0.730128 0.766637 0.629365
O O11 0.746589 0.708990 0.477238
O O12 0.500000 0.569728 0.267306
O O13 0.273864 0.661711 0.185129
O O14 0.277529 0.437714 0.210165
O O15 0.245280 0.584698 0.337129
O O16 0.500000 0.785811 0.132123
O O17 0.500000 0.299631 0.162174
O O18 0.319601 0.241904 0.282257
O O19 0.000000 0.651241 0.409273
O O20 0.000000 0.938733 0.811118
#
# Coordination Sequence:
#
# PCOD8169834 Si02
#       8
#     4   4   4   4   4   4   4   4
#     4  10  19  32  54  83 113 143 180 228 281 335
#     4  10  21  36  55  84 119 147 184 235 287 344
#     4  11  22  37  59  86 118 150 187 237 291 346
#     4   9  20  40  60  80 113 152 194 237 282 337
#     4  10  20  34  56  81 108 147 187 228 281 335
#     4  10  22  40  60  82 115 155 197 239 285 341
#     4  10  20  35  59  87 113 146 189 235 281 337
#     4  10  20  36  57  81 113 152 186 229 286 341
#
# _framework density 19.177254000000001
#
# number of rings (size 3 to 8) (size 9 to 14) (size 15 to 20)
#    0.000    2.000    1.250    2.250    0.000    6.000 
#    2.250    0.000    0.000    0.000    0.000    0.000 
#    0.000    0.000    0.000    0.000    0.000    0.000 
#
# Total GULP energy -396659.322296 kJ/mol
# GULP energy per Si atom -12395.603822 kJ/mol
# Density = 1.913361 g / cm^3
# Si number density = 19.177254 Si / 1000 Ang^3
#
#
#
# Elastic Constant Matrix: (Units=GPa)
#
#
# Indices 1 2 3 4 5 6 
#
# 1 64.0783 42.1329 47.9318 0.0000 0.0000 0.0000
# 2 42.1329 62.2152 46.4245 0.0000 0.0000 0.0000
# 3 47.9318 46.4245 119.9209 0.0000 0.0000 0.0000
# 4 0.0000 0.0000 0.0000 27.2715 0.0000 0.0000
# 5 0.0000 0.0000 0.0000 0.0000 36.4528 0.0000
# 6 0.0000 0.0000 0.0000 0.0000 0.0000 23.6134
#
#
#
# Elastic Compliance Matrix: (Units=1/GPa)
#
#
# Indices 1 2 3 4 5 6 
#
# 1 0.030906 -0.016470 -0.005977 0.000000 0.000000 0.000000
# 2 -0.016470 0.031379 -0.005565 0.000000 0.000000 0.000000
# 3 -0.005977 -0.005565 0.012882 0.000000 0.000000 0.000000
# 4 0.000000 0.000000 0.000000 0.036668 0.000000 0.000000
# 5 0.000000 0.000000 0.000000 0.000000 0.027433 0.000000
# 6 0.000000 0.000000 0.000000 0.000000 0.000000 0.042349
#
#
# Mechanical properties :
#
#
# Convention : Reuss Voigt Hill
#
# Bulk Modulus (GPa) = 52.23592 57.68809 54.96201
# Shear Modulus (GPa) = 20.48989 24.78255 22.63622
#
# Velocity S-wave (km/s) = 3.27226 3.59874 3.43938
# Velocity P-wave (km/s) = 6.44783 6.88584 6.67043
#
# Compressibility (1/GPa) = 0.01914391
#
# Stress axis : x y z
#
# Youngs Moduli (GPa) = 32.35586 31.86815 77.62693
#
# Poissons Ratio (x) = 0.52487 0.46399
# Poissons Ratio (y) = 0.53290 0.43197
# Poissons Ratio (z) = 0.19340 0.17734
#
# Static dielectric constant tensor:
#      x y z
#    x 3.561240 0.000000 0.000000 
#    y 0.000000 3.370280 0.000000 
#    z 0.000000 0.000000 3.527760 
# 
# 
# High freq. dielectric constant tensor:
#      x y z
#    x 1.747670 0.000000 0.000000 
#    y 0.000000 1.727100 0.000000 
#    z 0.000000 0.000000 1.749880 
# 
# From -- ./inp_files/4936.got.cif
#   From: 2010.03.12/outbox.cif.g09.slc.cpg/sg31_3_cif.got.tgz:4936.got - 2010.04.14 01:42:59.
