data_PCOD8169996
_publ_section_title
;
Structure prediction by ZEFSAII (Michael W. Deem and Ramdas Pophale) SiO2 
 PCOD8169996
Probable space group: P M N 21
;
_chemical_formula_sum "Si O2"
_cell_formula_units_Z 28
_cell_length_a 12.793837
_cell_length_b 20.300685
_cell_length_c 5.138220
_cell_angle_alpha 90.000000
_cell_angle_beta 90.000000
_cell_angle_gamma 90.000000
_cell_volume 1334.517278
_symmetry_space_group_name_H-M "P M N 21"
_symmetry_group_IT_number 31
_symmetry_cell_setting 'orthorhombic'
loop_
_space_group_symop_operation_xyz
x,y,z
1/2-x,-y,1/2+z
-x,y,z
1/2+x,-y,1/2+z
loop_
_atom_site_type_symbol
_atom_site_label
_atom_site_fract_x
_atom_site_fract_y
_atom_site_fract_z
Si Si1 0.386608 0.983152 0.893800
Si Si2 0.207425 0.791445 0.968671
Si Si3 0.876963 0.723647 0.467591
Si Si4 0.223144 0.905547 0.625794
Si Si5 0.181328 0.576628 0.375619
Si Si6 0.881437 0.145095 0.733230
Si Si7 0.884807 0.500264 0.875724
O O1 0.500000 0.978535 0.756789
O O2 0.296108 0.967977 0.691012
O O3 0.382309 0.928579 0.120792
O O4 0.373358 0.059129 0.983703
O O5 0.183871 0.740448 0.735473
O O6 0.173700 0.864524 0.866464
O O7 0.143417 0.774539 0.231274
O O8 0.332366 0.800061 0.033786
O O9 0.832724 0.654326 0.371589
O O10 0.000000 0.721180 0.528257
O O11 0.297876 0.854632 0.469273
O O12 0.125279 0.544765 0.621262
O O13 0.304667 0.560403 0.379562
O O14 0.129445 0.548377 0.117899
O O15 0.000000 0.166313 0.812533
O O16 0.000000 0.468792 0.883289
#
# Coordination Sequence:
#
# PCOD8169996 Si02
#       7
#     4   4   4   4   4   4   4
#     4  10  21  34  59  90 117 153 194 253 321 378
#     4  11  25  43  61  91 125 166 216 265 302 372
#     4  12  24  43  65  90 128 174 216 258 313 373
#     4  11  20  40  61  90 128 154 205 259 314 390
#     4  10  22  37  63  97 129 168 215 254 305 376
#     4  10  21  42  66  87 118 162 205 255 318 382
#     4  10  19  37  63  97 133 167 205 260 315 359
#
# _framework density 20.981368
#
# number of rings (size 3 to 8) (size 9 to 14) (size 15 to 20)
#    0.000    1.429    2.857    3.000    0.000    1.714 
#    0.000    1.429    0.000    0.000    0.000    0.000 
#    0.000    0.000    0.000    0.000    0.000    0.000 
#
# Total GULP energy -346970.625628 kJ/mol
# GULP energy per Si atom -12391.808058 kJ/mol
# Density = 2.093361 g / cm^3
# Si number density = 20.981368 Si / 1000 Ang^3
#
#
#
# Elastic Constant Matrix: (Units=GPa)
#
#
# Indices 1 2 3 4 5 6 
#
# 1 128.8148 56.3937 37.7524 0.0000 0.0000 0.0000
# 2 56.3937 88.5620 26.2648 0.0000 0.0000 0.0000
# 3 37.7524 26.2648 118.3736 0.0000 0.0000 0.0000
# 4 0.0000 0.0000 0.0000 28.2467 0.0000 0.0000
# 5 0.0000 0.0000 0.0000 0.0000 -0.2236 0.0000
# 6 0.0000 0.0000 0.0000 0.0000 0.0000 19.5478
#
#
#
# Elastic Compliance Matrix: (Units=1/GPa)
#
#
# Indices 1 2 3 4 5 6 
#
# 1 0.011248 -0.006528 -0.002139 0.000000 0.000000 0.000000
# 2 -0.006528 0.015876 -0.001441 0.000000 0.000000 0.000000
# 3 -0.002139 -0.001441 0.009450 0.000000 0.000000 0.000000
# 4 0.000000 0.000000 0.000000 0.035402 0.000000 0.000000
# 5 0.000000 0.000000 0.000000 0.000000 -4.472592 0.000000
# 6 0.000000 0.000000 0.000000 0.000000 0.000000 0.051157
#
#
# Mechanical properties :
#
#
# Convention : Reuss Voigt Hill
#
# Bulk Modulus (GPa) = 61.13088 64.06358 62.59723
# Shear Modulus (GPa) = -1.15639 23.87016 11.35688
#
# Velocity S-wave (km/s) = -0.74320 3.37662 2.32908
# Velocity P-wave (km/s) = 5.33503 6.76771 6.09362
#
# Compressibility (1/GPa) = 0.01635834
#
# Stress axis : x y z
#
# Youngs Moduli (GPa) = 88.90649 62.98993 105.82495
#
# Poissons Ratio (x) = 0.41120 0.22634
# Poissons Ratio (y) = 0.58038 0.15244
# Poissons Ratio (z) = 0.19015 0.09074
#
# Static dielectric constant tensor:
#      x y z
#    x 3.918920 0.000000 0.000000 
#    y 0.000000 3.547670 0.000000 
#    z 0.000000 0.000000 3.941450 
# 
# 
# High freq. dielectric constant tensor:
#      x y z
#    x 1.823190 0.000000 0.000000 
#    y 0.000000 1.796730 0.000000 
#    z 0.000000 0.000000 1.833280 
# 
# From -- ./inp_files/420.got.cif
#   From: 2010.03.12/outbox.cif.g09.slc.cpg/sg31_1_cif.got.tgz:420.got - 2010.04.14 01:42:59.
