data_PCOD8169668
_publ_section_title
;
Structure prediction by ZEFSAII (Michael W. Deem and Ramdas Pophale) SiO2 
 PCOD8169668
Probable space group: P N C 2
;
_chemical_formula_sum "Si O2"
_cell_formula_units_Z 12
_cell_length_a 8.300532
_cell_length_b 8.831218
_cell_length_c 5.409098
_cell_angle_alpha 90.000000
_cell_angle_beta 90.000000
_cell_angle_gamma 90.000000
_cell_volume 396.507479
_symmetry_space_group_name_H-M "P N C 2"
_symmetry_group_IT_number 30
_symmetry_cell_setting 'orthorhombic'
loop_
_space_group_symop_operation_xyz
x,y,z
-x,-y,z
-x,1/2+y,1/2+z
x,1/2-y,1/2+z
loop_
_atom_site_type_symbol
_atom_site_label
_atom_site_fract_x
_atom_site_fract_y
_atom_site_fract_z
Si Si1 0.545044 0.827405 0.227160
Si Si2 0.880742 0.880039 0.369524
Si Si3 0.798900 0.321089 0.042372
O O1 0.480200 0.779104 0.502618
O O2 0.741426 0.800255 0.206369
O O3 0.500000 0.000000 0.172401
O O4 0.004970 0.774966 0.534430
O O5 0.779738 0.996823 0.553784
O O6 0.000000 0.000000 0.220877
O O7 0.721778 0.237411 0.278498
#
# Coordination Sequence:
#
# PCOD8169668 Si02
#       3
#     4   4   4
#     4  12  27  50  73 106 147 198 248 306 364 442
#     4   8  22  37  65  98 129 180 226 292 357 423
#     4   9  18  32  53  86 123 158 208 268 334 402
#
# _framework density 30.264246
#
# number of rings (size 3 to 8) (size 9 to 14) (size 15 to 20)
#    2.000    0.000    0.000    3.000    0.000   10.667 
#    0.000    0.000    0.000    0.000    0.000    0.000 
#    0.000    0.000    0.000    0.000    0.000    0.000 
#
# Total GULP energy -148718.279330 kJ/mol
# GULP energy per Si atom -12393.189944 kJ/mol
# Density = 3.019536 g / cm^3
# Si number density = 30.264246 Si / 1000 Ang^3
#
#
#
# Elastic Constant Matrix: (Units=GPa)
#
#
# Indices 1 2 3 4 5 6 
#
# 1 173.3130 18.3283 90.7959 0.0000 0.0000 0.0000
# 2 18.3283 143.5919 65.2445 0.0000 0.0000 0.0000
# 3 90.7959 65.2445 182.4773 0.0000 0.0000 0.0000
# 4 0.0000 0.0000 0.0000 30.0040 0.0000 0.0000
# 5 0.0000 0.0000 0.0000 0.0000 36.3420 0.0000
# 6 0.0000 0.0000 0.0000 0.0000 0.0000 45.0543
#
#
#
# Elastic Compliance Matrix: (Units=1/GPa)
#
#
# Indices 1 2 3 4 5 6 
#
# 1 0.007907 0.000929 -0.004266 0.000000 0.000000 0.000000
# 2 0.000929 0.008424 -0.003475 0.000000 0.000000 0.000000
# 3 -0.004266 -0.003475 0.008845 0.000000 0.000000 0.000000
# 4 0.000000 0.000000 0.000000 0.033329 0.000000 0.000000
# 5 0.000000 0.000000 0.000000 0.000000 0.027516 0.000000
# 6 0.000000 0.000000 0.000000 0.000000 0.000000 0.022195
#
#
# Mechanical properties :
#
#
# Convention : Reuss Voigt Hill
#
# Bulk Modulus (GPa) = 86.55696 94.23554 90.39625
# Shear Modulus (GPa) = 39.77997 43.94763 41.86380
#
# Velocity S-wave (km/s) = 3.62943 3.81482 3.72328
# Velocity P-wave (km/s) = 6.79898 7.11400 6.95827
#
# Compressibility (1/GPa) = 0.01155309
#
# Stress axis : x y z
#
# Youngs Moduli (GPa) = 126.47381 118.70443 113.05393
#
# Poissons Ratio (x) = -0.11032 0.48234
# Poissons Ratio (y) = -0.11754 0.39281
# Poissons Ratio (z) = 0.53960 0.41244
#
# Static dielectric constant tensor:
#      x y z
#    x 6.884520 0.000000 0.000000 
#    y 0.000000 5.283480 0.000000 
#    z 0.000000 0.000000 4.781140 
# 
# 
# High freq. dielectric constant tensor:
#      x y z
#    x 2.350180 0.000000 0.000000 
#    y 0.000000 2.219720 0.000000 
#    z 0.000000 0.000000 2.214370 
# 
# From -- ./inp_files/600.got.cif
#   From: 2010.03.12/outbox.cif.g09.slc.cpg/sg30_1_cif.got.tgz:600.got - 2010.04.14 01:38:02.
