data_PCOD8169150
_publ_section_title
;
Structure prediction by ZEFSAII (Michael W. Deem and Ramdas Pophale) SiO2 
 PCOD8169150
Probable space group: P C A 21
;
_chemical_formula_sum "Si O2"
_cell_formula_units_Z 32
_cell_length_a 11.572083
_cell_length_b 13.780773
_cell_length_c 9.089802
_cell_angle_alpha 90.000000
_cell_angle_beta 90.000000
_cell_angle_gamma 90.000000
_cell_volume 1449.571168
_symmetry_space_group_name_H-M "P C A 21"
_symmetry_group_IT_number 29
_symmetry_cell_setting 'orthorhombic'
loop_
_space_group_symop_operation_xyz
x,y,z
-x,-y,1/2+z
1/2-x,y,1/2+z
1/2+x,-y,z
loop_
_atom_site_type_symbol
_atom_site_label
_atom_site_fract_x
_atom_site_fract_y
_atom_site_fract_z
Si Si1 0.344577 0.345358 0.022970
Si Si2 0.110128 0.321873 0.861580
Si Si3 0.813804 0.160132 0.652597
Si Si4 0.611313 0.444414 0.453787
Si Si5 0.032156 0.784336 0.895976
Si Si6 0.991613 0.890070 0.358116
Si Si7 0.796868 0.354181 0.245090
Si Si8 0.425655 0.937895 0.164114
O O1 0.348125 0.346357 0.198561
O O2 0.211316 0.342350 0.977001
O O3 0.407269 0.440015 0.955409
O O4 0.410647 0.250689 0.961655
O O5 0.076245 0.209820 0.875449
O O6 0.004237 0.391204 0.902944
O O7 0.898985 0.151304 0.514757
O O8 0.776588 0.271337 0.664977
O O9 0.706206 0.089425 0.630377
O O10 0.878818 0.130775 0.801864
O O11 0.714538 0.421965 0.341359
O O12 0.642224 0.416459 0.619917
O O13 0.106597 0.691299 0.850199
O O14 0.009933 0.854839 0.758619
O O15 0.002487 0.944838 0.513510
O O16 0.924615 0.958715 0.244083
#
# Coordination Sequence:
#
# PCOD8169150 Si02
#       8
#     4   4   4   4   4   4   4   4
#     4  12  30  46  74 106 157 205 249 311 381 446
#     4  12  29  52  72 112 157 203 250 318 382 450
#     4  11  21  46  73 104 139 190 248 303 366 437
#     4  12  26  46  75 110 151 198 262 304 371 452
#     4  11  23  45  70 104 140 192 252 304 366 437
#     4  12  25  49  72 109 149 185 242 311 376 451
#     4  11  22  42  74 106 141 192 248 314 361 431
#     4  11  26  42  78 109 140 193 245 305 377 454
#
# _framework density 22.075495
#
# number of rings (size 3 to 8) (size 9 to 14) (size 15 to 20)
#    0.000    0.500    3.750    4.500    7.000    1.000 
#    2.250    0.000    0.000    0.000    0.000    0.000 
#    0.000    0.000    0.000    0.000    0.000    0.000 
#
# Total GULP energy -397004.478753 kJ/mol
# GULP energy per Si atom -12406.389961 kJ/mol
# Density = 2.202525 g / cm^3
# Si number density = 22.075495 Si / 1000 Ang^3
#
#
#
# Elastic Constant Matrix: (Units=GPa)
#
#
# Indices 1 2 3 4 5 6 
#
# 1 88.2376 40.1071 62.9137 0.0000 0.0000 0.0000
# 2 40.1071 116.6172 36.9899 0.0000 0.0000 0.0000
# 3 62.9137 36.9899 136.9760 0.0000 0.0000 0.0000
# 4 0.0000 0.0000 0.0000 35.4472 0.0000 0.0000
# 5 0.0000 0.0000 0.0000 0.0000 29.3636 0.0000
# 6 0.0000 0.0000 0.0000 0.0000 0.0000 -228.4303
#
#
#
# Elastic Compliance Matrix: (Units=1/GPa)
#
#
# Indices 1 2 3 4 5 6 
#
# 1 0.018406 -0.003991 -0.007376 0.000000 0.000000 0.000000
# 2 -0.003991 0.010244 -0.000933 0.000000 0.000000 0.000000
# 3 -0.007376 -0.000933 0.010941 0.000000 0.000000 0.000000
# 4 0.000000 0.000000 0.000000 0.028211 0.000000 0.000000
# 5 0.000000 0.000000 0.000000 0.000000 0.034056 0.000000
# 6 0.000000 0.000000 0.000000 0.000000 0.000000 -0.004378
#
#
# Mechanical properties :
#
#
# Convention : Reuss Voigt Hill
#
# Bulk Modulus (GPa) = 66.71228 69.09469 67.90349
# Shear Modulus (GPa) = 39.34622 -19.26922 10.03850
#
# Velocity S-wave (km/s) = 4.22637 -2.95766 2.13477
# Velocity P-wave (km/s) = 7.35540 4.43887 6.07476
#
# Compressibility (1/GPa) = 0.01498974
#
# Stress axis : x y z
#
# Youngs Moduli (GPa) = 54.32903 97.62239 91.40225
#
# Poissons Ratio (x) = 0.38957 0.67423
# Poissons Ratio (y) = 0.21680 0.08531
# Poissons Ratio (z) = 0.40076 0.09111
#
# Static dielectric constant tensor:
#      x y z
#    x 3.903690 0.000000 0.000000 
#    y 0.000000 3.988090 0.000000 
#    z 0.000000 0.000000 4.159400 
# 
# 
# High freq. dielectric constant tensor:
#      x y z
#    x 1.862900 0.000000 0.000000 
#    y 0.000000 1.873970 0.000000 
#    z 0.000000 0.000000 1.888460 
# 
# From -- ./inp_files/1557.got.cif
#   From: 2010.03.12/outbox.cif.g09.slc.cpg/sg29_1_cif.got.tgz:1557.got - 2010.04.14 03:43:10.
