data_PCOD8169972
_publ_section_title
;
Structure prediction by ZEFSAII (Michael W. Deem and Ramdas Pophale) SiO2 
 PCOD8169972
Probable space group: P M N 21
;
_chemical_formula_sum "Si O2"
_cell_formula_units_Z 32
_cell_length_a 8.684790
_cell_length_b 14.449337
_cell_length_c 12.508408
_cell_angle_alpha 90.000000
_cell_angle_beta 90.000000
_cell_angle_gamma 90.000000
_cell_volume 1569.673334
_symmetry_space_group_name_H-M "P M N 21"
_symmetry_group_IT_number 31
_symmetry_cell_setting 'orthorhombic'
loop_
_space_group_symop_operation_xyz
x,y,z
1/2-x,-y,1/2+z
-x,y,z
1/2+x,-y,1/2+z
loop_
_atom_site_type_symbol
_atom_site_label
_atom_site_fract_x
_atom_site_fract_y
_atom_site_fract_z
Si Si1 0.319463 0.357794 0.181020
Si Si2 0.820738 0.867509 0.976152
Si Si3 0.180696 0.766373 0.490783
Si Si4 0.682051 0.676551 0.906756
Si Si5 0.819112 0.443771 0.605929
Si Si6 0.321423 0.044104 0.893542
Si Si7 0.671223 0.875753 0.198679
Si Si8 0.328440 0.677760 0.292533
O O1 0.500000 0.354345 0.209420
O O2 0.223573 0.361916 0.289879
O O3 0.279802 0.447680 0.108749
O O4 0.269859 0.269294 0.108536
O O5 0.766269 0.774210 0.919464
O O6 0.000000 0.859124 0.003324
O O7 0.787507 0.955131 0.901303
O O8 0.720277 0.891883 0.078438
O O9 0.239405 0.871626 0.470599
O O10 0.237180 0.694011 0.401587
O O11 0.000000 0.766297 0.479252
O O12 0.500000 0.691079 0.915280
O O13 0.743911 0.604245 0.997060
O O14 0.749303 0.398966 0.715244
O O15 0.000000 0.425012 0.609198
O O16 0.500000 0.020365 0.914587
O O17 0.299039 0.076645 0.772277
O O18 0.500000 0.917982 0.216890
O O19 0.667765 0.767289 0.218288
O O20 0.500000 0.647742 0.326783
#
# Coordination Sequence:
#
# PCOD8169972 Si02
#       8
#     4   4   4   4   4   4   4   4
#     4  10  22  40  60  87 126 166 202 249 307 368
#     4  12  24  39  61  89 120 161 207 257 314 371
#     4   9  20  37  58  85 120 157 197 248 303 357
#     4  11  23  42  63  89 123 161 206 255 310 369
#     4   9  19  37  60  85 118 158 197 246 305 360
#     4  10  21  38  59  87 120 160 209 258 311 375
#     4  10  19  36  59  85 118 155 199 253 308 364
#     4   9  17  33  58  83 111 150 195 246 298 352
#
# _framework density 20.386407999999999
#
# number of rings (size 3 to 8) (size 9 to 14) (size 15 to 20)
#    0.000    2.000    1.250    2.250    1.750    2.500 
#    0.000    5.000    0.000    0.000    0.000    0.000 
#    0.000    0.000    0.000    0.000    0.000    0.000 
#
# Total GULP energy -396708.633906 kJ/mol
# GULP energy per Si atom -12397.144810 kJ/mol
# Density = 2.034001 g / cm^3
# Si number density = 20.386408 Si / 1000 Ang^3
#
#
#
# Elastic Constant Matrix: (Units=GPa)
#
#
# Indices 1 2 3 4 5 6 
#
# 1 54.8144 27.1316 17.1667 0.0000 0.0000 0.0000
# 2 27.1316 101.9654 41.6365 0.0000 0.0000 0.0000
# 3 17.1667 41.6365 94.5181 0.0000 0.0000 0.0000
# 4 0.0000 0.0000 0.0000 23.8163 0.0000 0.0000
# 5 0.0000 0.0000 0.0000 0.0000 33.6357 0.0000
# 6 0.0000 0.0000 0.0000 0.0000 0.0000 21.4173
#
#
#
# Elastic Compliance Matrix: (Units=1/GPa)
#
#
# Indices 1 2 3 4 5 6 
#
# 1 0.021224 -0.004967 -0.001667 0.000000 0.000000 0.000000
# 2 -0.004967 0.013121 -0.004878 0.000000 0.000000 0.000000
# 3 -0.001667 -0.004878 0.013031 0.000000 0.000000 0.000000
# 4 0.000000 0.000000 0.000000 0.041988 0.000000 0.000000
# 5 0.000000 0.000000 0.000000 0.000000 0.029730 0.000000
# 6 0.000000 0.000000 0.000000 0.000000 0.000000 0.046691
#
#
# Mechanical properties :
#
#
# Convention : Reuss Voigt Hill
#
# Bulk Modulus (GPa) = 41.06228 47.01860 44.04044
# Shear Modulus (GPa) = 25.39029 26.79807 26.09418
#
# Velocity S-wave (km/s) = 3.53292 3.62955 3.58156
# Velocity P-wave (km/s) = 6.06859 6.37798 6.22521
#
# Compressibility (1/GPa) = 0.02435325
#
# Stress axis : x y z
#
# Youngs Moduli (GPa) = 47.11692 76.21613 76.73761
#
# Poissons Ratio (x) = 0.37854 0.12791
# Poissons Ratio (y) = 0.23402 0.37430
# Poissons Ratio (z) = 0.07854 0.37176
#
# Static dielectric constant tensor:
#      x y z
#    x 3.484460 0.000000 0.000000 
#    y 0.000000 3.815380 0.000000 
#    z 0.000000 0.000000 3.652380 
# 
# 
# High freq. dielectric constant tensor:
#      x y z
#    x 1.778620 0.000000 0.000000 
#    y 0.000000 1.797480 0.000000 
#    z 0.000000 0.000000 1.798420 
# 
# From -- ./inp_files/3681.got.cif
#   From: 2010.03.12/outbox.cif.g09.slc.cpg/sg31_2_cif.got.tgz:3681.got - 2010.04.14 01:42:59.
