data_PCOD8169167
_publ_section_title
;
Structure prediction by ZEFSAII (Michael W. Deem and Ramdas Pophale) SiO2 
 PCOD8169167
Probable space group: P C A 21
;
_chemical_formula_sum "Si O2"
_cell_formula_units_Z 24
_cell_length_a 12.672338
_cell_length_b 9.300881
_cell_length_c 9.710738
_cell_angle_alpha 90.000000
_cell_angle_beta 90.000000
_cell_angle_gamma 90.000000
_cell_volume 1144.545528
_symmetry_space_group_name_H-M "P C A 21"
_symmetry_group_IT_number 29
_symmetry_cell_setting 'orthorhombic'
loop_
_space_group_symop_operation_xyz
x,y,z
-x,-y,1/2+z
1/2-x,y,1/2+z
1/2+x,-y,z
loop_
_atom_site_type_symbol
_atom_site_label
_atom_site_fract_x
_atom_site_fract_y
_atom_site_fract_z
Si Si1 0.272004 0.106683 0.918800
Si Si2 0.692937 0.626913 0.768630
Si Si3 0.954042 0.440954 0.416062
Si Si4 0.586905 0.632867 0.162708
Si Si5 0.622909 0.959020 0.153054
Si Si6 0.033468 0.197274 0.588399
O O1 0.232173 0.268793 0.890951
O O2 0.290205 0.024221 0.774582
O O3 0.184384 0.024256 0.008387
O O4 0.383284 0.111807 0.996215
O O5 0.655436 0.475874 0.835886
O O6 0.786842 0.601004 0.659372
O O7 0.592460 0.698971 0.694750
O O8 0.971515 0.566752 0.529786
O O9 0.047478 0.439886 0.304342
O O10 0.952162 0.288832 0.494314
O O11 0.566309 0.803730 0.164844
O O12 0.535201 0.080847 0.170602
#
# Coordination Sequence:
#
# PCOD8169167 Si02
#       6
#     4   4   4   4   4   4
#     4  11  22  44  70  93 134 184 217 267 348 403
#     4  11  22  43  70  92 135 184 221 267 344 409
#     4  12  23  42  70 102 129 174 234 276 331 403
#     4  11  24  43  70  99 133 184 217 276 344 405
#     4  11  25  42  71  98 133 182 225 270 339 405
#     4  12  24  42  69 102 134 168 232 278 328 399
#
# _framework density 20.969021999999999
#
# number of rings (size 3 to 8) (size 9 to 14) (size 15 to 20)
#    0.000    0.667   10.000    0.000    2.333    0.000 
#    3.000    0.000    0.000    0.000    0.000    0.000 
#    0.000    0.000    0.000    0.000    0.000    0.000 
#
# Total GULP energy -297541.064568 kJ/mol
# GULP energy per Si atom -12397.544357 kJ/mol
# Density = 2.092130 g / cm^3
# Si number density = 20.969022 Si / 1000 Ang^3
#
#
#
# Elastic Constant Matrix: (Units=GPa)
#
#
# Indices 1 2 3 4 5 6 
#
# 1 96.8667 61.0926 42.3715 0.0000 0.0000 0.0000
# 2 61.0926 83.5577 39.9316 0.0000 0.0000 0.0000
# 3 42.3715 39.9316 121.7692 0.0000 0.0000 0.0000
# 4 0.0000 0.0000 0.0000 34.3608 0.0000 0.0000
# 5 0.0000 0.0000 0.0000 0.0000 37.8835 0.0000
# 6 0.0000 0.0000 0.0000 0.0000 0.0000 39.2059
#
#
#
# Elastic Compliance Matrix: (Units=1/GPa)
#
#
# Indices 1 2 3 4 5 6 
#
# 1 0.019799 -0.013262 -0.002540 0.000000 0.000000 0.000000
# 2 -0.013262 0.023075 -0.002952 0.000000 0.000000 0.000000
# 3 -0.002540 -0.002952 0.010064 0.000000 0.000000 0.000000
# 4 0.000000 0.000000 0.000000 0.029103 0.000000 0.000000
# 5 0.000000 0.000000 0.000000 0.000000 0.026397 0.000000
# 6 0.000000 0.000000 0.000000 0.000000 0.000000 0.025506
#
#
# Mechanical properties :
#
#
# Convention : Reuss Voigt Hill
#
# Bulk Modulus (GPa) = 64.81212 65.44277 65.12745
# Shear Modulus (GPa) = 28.31336 32.87658 30.59497
#
# Velocity S-wave (km/s) = 3.67856 3.96392 3.82390
# Velocity P-wave (km/s) = 7.00128 7.22684 7.11496
#
# Compressibility (1/GPa) = 0.01542921
#
# Stress axis : x y z
#
# Youngs Moduli (GPa) = 50.50878 43.33747 99.36045
#
# Poissons Ratio (x) = 0.57472 0.25241
# Poissons Ratio (y) = 0.66982 0.29334
# Poissons Ratio (z) = 0.12831 0.12795
#
# Static dielectric constant tensor:
#      x y z
#    x 3.774410 0.000000 0.000000 
#    y 0.000000 3.548500 0.000000 
#    z 0.000000 0.000000 4.087620 
# 
# 
# High freq. dielectric constant tensor:
#      x y z
#    x 1.808040 0.000000 0.000000 
#    y 0.000000 1.790050 0.000000 
#    z 0.000000 0.000000 1.845020 
# 
# From -- ./inp_files/3089.got.cif
#   From: 2010.03.12/outbox.cif.g09.slc.cpg/sg29_2_cif.got.tgz:3089.got - 2010.04.14 03:43:10.
