data_PCOD8169261
_publ_section_title
;
Structure prediction by ZEFSAII (Michael W. Deem and Ramdas Pophale) SiO2 
 PCOD8169261
Probable space group: P C A 21
;
_chemical_formula_sum "Si O2"
_cell_formula_units_Z 32
_cell_length_a 8.901074
_cell_length_b 18.082494
_cell_length_c 8.970372
_cell_angle_alpha 90.000000
_cell_angle_beta 90.000000
_cell_angle_gamma 90.000000
_cell_volume 1443.813821
_symmetry_space_group_name_H-M "P C A 21"
_symmetry_group_IT_number 29
_symmetry_cell_setting 'orthorhombic'
loop_
_space_group_symop_operation_xyz
x,y,z
-x,-y,1/2+z
1/2-x,y,1/2+z
1/2+x,-y,z
loop_
_atom_site_type_symbol
_atom_site_label
_atom_site_fract_x
_atom_site_fract_y
_atom_site_fract_z
Si Si1 0.423468 0.789459 0.608120
Si Si2 0.407039 0.464632 0.864808
Si Si3 0.553243 0.945656 0.591277
Si Si4 0.397398 0.294835 0.880761
Si Si5 0.638267 0.933410 0.938983
Si Si6 0.623312 0.292326 0.625735
Si Si7 0.320119 0.542097 0.168064
Si Si8 0.416176 0.228837 0.401030
O O1 0.452053 0.873330 0.555327
O O2 0.545458 0.732673 0.540217
O O3 0.249273 0.767912 0.582758
O O4 0.454698 0.783322 0.781480
O O5 0.352486 0.380646 0.880287
O O6 0.580459 0.465737 0.817732
O O7 0.332604 0.504328 0.721323
O O8 0.387870 0.504262 0.021900
O O9 0.607452 0.948555 0.763491
O O10 0.688241 0.947463 0.473746
O O11 0.456324 0.017074 0.552609
O O12 0.541383 0.274287 0.780346
O O13 0.244468 0.253237 0.833540
O O14 0.603425 0.849083 0.985187
O O15 0.703673 0.372011 0.627969
O O16 0.484783 0.291155 0.509494
#
# Coordination Sequence:
#
# PCOD8169261 Si02
#       8
#     4   4   4   4   4   4   4   4
#     4  11  25  45  71 105 142 183 235 293 359 424
#     4  11  27  43  69 101 137 188 236 299 362 428
#     4  11  25  47  73 107 146 191 235 300 351 429
#     4  11  25  44  72 100 137 190 235 293 357 429
#     4  11  25  46  72 106 143 190 237 292 357 426
#     4  11  27  43  71 102 140 189 234 301 359 429
#     4  11  27  45  68 101 140 186 242 297 362 430
#     4  11  25  45  72 102 141 185 238 295 351 431
#
# _framework density 22.163522
#
# number of rings (size 3 to 8) (size 9 to 14) (size 15 to 20)
#    0.000    1.000    1.250    3.000   17.500    1.000 
#    0.000    0.000    0.000    0.000    0.000    0.000 
#    0.000    0.000    0.000    0.000    0.000    0.000 
#
# Total GULP energy -396779.322008 kJ/mol
# GULP energy per Si atom -12399.353813 kJ/mol
# Density = 2.211308 g / cm^3
# Si number density = 22.163522 Si / 1000 Ang^3
#
#
#
# Elastic Constant Matrix: (Units=GPa)
#
#
# Indices 1 2 3 4 5 6 
#
# 1 104.4408 50.1950 21.9590 0.0000 0.0000 0.0000
# 2 50.1950 134.8374 35.2869 0.0000 0.0000 0.0000
# 3 21.9590 35.2869 69.0292 0.0000 0.0000 0.0000
# 4 0.0000 0.0000 0.0000 32.0601 0.0000 0.0000
# 5 0.0000 0.0000 0.0000 0.0000 32.2557 0.0000
# 6 0.0000 0.0000 0.0000 0.0000 0.0000 40.6091
#
#
#
# Elastic Compliance Matrix: (Units=1/GPa)
#
#
# Indices 1 2 3 4 5 6 
#
# 1 0.011841 -0.003951 -0.001747 0.000000 0.000000 0.000000
# 2 -0.003951 0.009880 -0.003794 0.000000 0.000000 0.000000
# 3 -0.001747 -0.003794 0.016982 0.000000 0.000000 0.000000
# 4 0.000000 0.000000 0.000000 0.031191 0.000000 0.000000
# 5 0.000000 0.000000 0.000000 0.000000 0.031002 0.000000
# 6 0.000000 0.000000 0.000000 0.000000 0.000000 0.024625
#
#
# Mechanical properties :
#
#
# Convention : Reuss Voigt Hill
#
# Bulk Modulus (GPa) = 50.71170 58.13213 54.42192
# Shear Modulus (GPa) = 33.09562 34.37609 33.73585
#
# Velocity S-wave (km/s) = 3.86845 3.94257 3.90569
# Velocity P-wave (km/s) = 6.54855 6.85645 6.70427
#
# Compressibility (1/GPa) = 0.01971931
#
# Stress axis : x y z
#
# Youngs Moduli (GPa) = 84.45326 101.21619 58.88686
#
# Poissons Ratio (x) = 0.39987 0.10289
# Poissons Ratio (y) = 0.33365 0.22340
# Poissons Ratio (z) = 0.14755 0.38398
#
# Static dielectric constant tensor:
#      x y z
#    x 3.998050 0.000000 0.000000 
#    y 0.000000 4.138040 0.000000 
#    z 0.000000 0.000000 3.894360 
# 
# 
# High freq. dielectric constant tensor:
#      x y z
#    x 1.881010 0.000000 0.000000 
#    y 0.000000 1.877450 0.000000 
#    z 0.000000 0.000000 1.877820 
# 
# From -- ./inp_files/1279.got.cif
#   From: 2010.03.12/outbox.cif.g09.slc.cpg/sg29_1_cif.got.tgz:1279.got - 2010.04.14 03:43:10.
