data_PCOD8169560
_publ_section_title
;
Structure prediction by ZEFSAII (Michael W. Deem and Ramdas Pophale) SiO2 
 PCOD8169560
Probable space group: P N C 2
;
_chemical_formula_sum "Si O2"
_cell_formula_units_Z 24
_cell_length_a 8.909667
_cell_length_b 8.578836
_cell_length_c 14.560778
_cell_angle_alpha 90.000000
_cell_angle_beta 90.000000
_cell_angle_gamma 90.000000
_cell_volume 1112.946835
_symmetry_space_group_name_H-M "P N C 2"
_symmetry_group_IT_number 30
_symmetry_cell_setting 'orthorhombic'
loop_
_space_group_symop_operation_xyz
x,y,z
-x,-y,z
-x,1/2+y,1/2+z
x,1/2-y,1/2+z
loop_
_atom_site_type_symbol
_atom_site_label
_atom_site_fract_x
_atom_site_fract_y
_atom_site_fract_z
Si Si1 0.772012 0.846745 0.785890
Si Si2 0.435552 0.332889 0.658454
Si Si3 0.265187 0.837476 0.674584
Si Si4 0.776557 0.605299 0.494162
Si Si5 0.067745 0.666802 0.805428
Si Si6 0.898808 0.263803 0.504414
O O1 0.678171 0.707945 0.740504
O O2 0.719045 0.868266 0.890649
O O3 0.947800 0.804322 0.787365
O O4 0.745278 0.002070 0.728576
O O5 0.500000 0.500000 0.684144
O O6 0.563278 0.200884 0.650043
O O7 0.353542 0.335634 0.560508
O O8 0.205508 0.695283 0.737190
O O9 0.163204 0.849887 0.583309
O O10 0.804448 0.422601 0.508322
O O11 0.925202 0.703502 0.518080
O O12 0.127763 0.673832 0.909178
O O13 0.000000 0.500000 0.781852
#
# Coordination Sequence:
#
# PCOD8169560 Si02
#       6
#     4   4   4   4   4   4
#     4  11  25  46  70  99 137 181 231 286 343 415
#     4  12  25  42  66 100 135 184 226 279 340 416
#     4  12  24  41  69 101 136 179 229 278 347 409
#     4  10  22  45  69  98 139 182 226 280 355 407
#     4  11  24  42  68 104 132 174 231 290 341 402
#     4  10  22  42  72  99 132 177 229 285 341 402
#
# _framework density 21.564371000000001
#
# number of rings (size 3 to 8) (size 9 to 14) (size 15 to 20)
#    0.000    1.000    3.333    3.000    2.333    6.667 
#    0.000    1.667    0.000    0.000    0.000    0.000 
#    0.000    0.000    0.000    0.000    0.000    0.000 
#
# Total GULP energy -297771.489328 kJ/mol
# GULP energy per Si atom -12407.145389 kJ/mol
# Density = 2.151529 g / cm^3
# Si number density = 21.564371 Si / 1000 Ang^3
#
#
#
# Elastic Constant Matrix: (Units=GPa)
#
#
# Indices 1 2 3 4 5 6 
#
# 1 93.7699 32.6544 72.7810 0.0000 0.0000 0.0000
# 2 32.6544 79.9745 52.6844 0.0000 0.0000 0.0000
# 3 72.7810 52.6844 168.7028 0.0000 0.0000 0.0000
# 4 0.0000 0.0000 0.0000 35.5775 0.0000 0.0000
# 5 0.0000 0.0000 0.0000 0.0000 14.1441 0.0000
# 6 0.0000 0.0000 0.0000 0.0000 0.0000 35.1323
#
#
#
# Elastic Compliance Matrix: (Units=1/GPa)
#
#
# Indices 1 2 3 4 5 6 
#
# 1 0.016442 -0.002569 -0.006291 0.000000 0.000000 0.000000
# 2 -0.002569 0.016144 -0.003933 0.000000 0.000000 0.000000
# 3 -0.006291 -0.003933 0.009870 0.000000 0.000000 0.000000
# 4 0.000000 0.000000 0.000000 0.028108 0.000000 0.000000
# 5 0.000000 0.000000 0.000000 0.000000 0.070701 0.000000
# 6 0.000000 0.000000 0.000000 0.000000 0.000000 0.028464
#
#
# Mechanical properties :
#
#
# Convention : Reuss Voigt Hill
#
# Bulk Modulus (GPa) = 59.27981 73.18744 66.23362
# Shear Modulus (GPa) = 24.88330 29.25929 27.07130
#
# Velocity S-wave (km/s) = 3.40061 3.68752 3.54697
# Velocity P-wave (km/s) = 6.55501 7.22102 6.89606
#
# Compressibility (1/GPa) = 0.01686915
#
# Stress axis : x y z
#
# Youngs Moduli (GPa) = 60.82011 61.94209 101.31769
#
# Poissons Ratio (x) = 0.15914 0.63739
# Poissons Ratio (y) = 0.15626 0.39851
# Poissons Ratio (z) = 0.38262 0.24364
#
# Static dielectric constant tensor:
#      x y z
#    x 3.994060 0.000000 0.000000 
#    y 0.000000 3.772240 0.000000 
#    z 0.000000 0.000000 4.040400 
# 
# 
# High freq. dielectric constant tensor:
#      x y z
#    x 1.845450 0.000000 0.000000 
#    y 0.000000 1.846100 0.000000 
#    z 0.000000 0.000000 1.860420 
# 
# From -- ./inp_files/5022.got.cif
#   From: 2010.03.12/outbox.cif.g09.slc.cpg/sg30_3_cif.got.tgz:5022.got - 2010.04.14 01:38:02.
