data_PCOD8169370
_publ_section_title
;
Structure prediction by ZEFSAII (Michael W. Deem and Ramdas Pophale) SiO2 
 PCOD8169370
Probable space group: P N C 2
;
_chemical_formula_sum "Si O2"
_cell_formula_units_Z 26
_cell_length_a 5.201807
_cell_length_b 14.322434
_cell_length_c 16.137843
_cell_angle_alpha 90.000000
_cell_angle_beta 90.000000
_cell_angle_gamma 90.000000
_cell_volume 1202.310252
_symmetry_space_group_name_H-M "P N C 2"
_symmetry_group_IT_number 30
_symmetry_cell_setting 'orthorhombic'
loop_
_space_group_symop_operation_xyz
x,y,z
-x,-y,z
-x,1/2+y,1/2+z
x,1/2-y,1/2+z
loop_
_atom_site_type_symbol
_atom_site_label
_atom_site_fract_x
_atom_site_fract_y
_atom_site_fract_z
Si Si1 0.500000 0.000000 0.239170
Si Si2 0.923777 0.289349 0.409282
Si Si3 0.818627 0.410705 0.873104
Si Si4 0.367669 0.144860 0.119041
Si Si5 0.125229 0.746626 0.601670
Si Si6 0.259056 0.942085 0.554852
Si Si7 0.579785 0.604825 0.425751
O O1 0.372826 0.921165 0.296602
O O2 0.692207 0.943848 0.178040
O O3 0.963842 0.189014 0.363747
O O4 0.926949 0.273871 0.506492
O O5 0.645540 0.331315 0.387633
O O6 0.154006 0.360112 0.383086
O O7 0.000000 0.500000 0.870417
O O8 0.667373 0.409186 0.961321
O O9 0.648319 0.185157 0.141006
O O10 0.148401 0.220676 0.142449
O O11 0.374939 0.112405 0.023965
O O12 0.206051 0.854182 0.614440
O O13 0.500000 0.000000 0.591103
O O14 0.000000 0.000000 0.552431
O O15 0.500000 0.500000 0.401986
#
# Coordination Sequence:
#
# PCOD8169370 Si02
#       7
#     2   4   4   4   4   4   4
#     4  12  24  36  56  80 122 164 190 228 292 372
#     4   9  20  33  56  78 114 150 190 237 292 340
#     4  10  23  36  53  82 121 159 193 230 289 360
#     4  10  21  34  51  78 115 153 187 225 287 352
#     4   9  19  34  51  77 112 147 187 236 284 338
#     4  10  18  33  57  83 111 146 190 243 294 337
#     4  10  18  35  56  84 111 147 190 247 293 337
#
# _framework density 21.625032999999998
#
# number of rings (size 3 to 8) (size 9 to 14) (size 15 to 20)
#    0.000    2.154    1.538    1.385    4.308    3.692 
#    0.000    0.000    0.000    0.000    0.000    5.385 
#    0.000    0.000    0.000    0.000    0.000    0.000 
#
# Total GULP energy -322203.710238 kJ/mol
# GULP energy per Si atom -12392.450394 kJ/mol
# Density = 2.157581 g / cm^3
# Si number density = 21.625033 Si / 1000 Ang^3
#
#
#
# Elastic Constant Matrix: (Units=GPa)
#
#
# Indices 1 2 3 4 5 6 
#
# 1 151.1817 66.4114 22.9225 0.0000 0.0000 0.0000
# 2 66.4114 163.6381 28.7758 0.0000 0.0000 0.0000
# 3 22.9225 28.7758 35.4762 0.0000 0.0000 0.0000
# 4 0.0000 0.0000 0.0000 12.8015 0.0000 0.0000
# 5 0.0000 0.0000 0.0000 0.0000 7.2985 0.0000
# 6 0.0000 0.0000 0.0000 0.0000 0.0000 48.7622
#
#
#
# Elastic Compliance Matrix: (Units=1/GPa)
#
#
# Indices 1 2 3 4 5 6 
#
# 1 0.008328 -0.002839 -0.003079 0.000000 0.000000 0.000000
# 2 -0.002839 0.008095 -0.004732 0.000000 0.000000 0.000000
# 3 -0.003079 -0.004732 0.034016 0.000000 0.000000 0.000000
# 4 0.000000 0.000000 0.000000 0.078116 0.000000 0.000000
# 5 0.000000 0.000000 0.000000 0.000000 0.137014 0.000000
# 6 0.000000 0.000000 0.000000 0.000000 0.000000 0.020508
#
#
# Mechanical properties :
#
#
# Convention : Reuss Voigt Hill
#
# Bulk Modulus (GPa) = 34.31694 65.16838 49.74266
# Shear Modulus (GPa) = 15.76843 29.25153 22.50998
#
# Velocity S-wave (km/s) = 2.70325 3.68186 3.22983
# Velocity P-wave (km/s) = 5.06428 6.94808 6.07959
#
# Compressibility (1/GPa) = 0.02914013
#
# Stress axis : x y z
#
# Youngs Moduli (GPa) = 120.07241 123.52977 29.39823
#
# Poissons Ratio (x) = 0.35065 0.09051
# Poissons Ratio (y) = 0.34084 0.13912
# Poissons Ratio (z) = 0.36968 0.58456
#
# Static dielectric constant tensor:
#      x y z
#    x 4.140700 0.000000 0.000000 
#    y 0.000000 4.210890 0.000000 
#    z 0.000000 0.000000 3.559350 
# 
# 
# High freq. dielectric constant tensor:
#      x y z
#    x 1.850870 0.000000 0.000000 
#    y 0.000000 1.858730 0.000000 
#    z 0.000000 0.000000 1.794890 
# 
# From -- ./inp_files/5990.got.cif
#   From: 2010.03.12/outbox.cif.g09.slc.cpg/sg30_3_cif.got.tgz:5990.got - 2010.04.14 01:38:02.
