data_PCOD8169010
_publ_section_title
;
Structure prediction by ZEFSAII (Michael W. Deem and Ramdas Pophale) SiO2 
 PCOD8169010
Probable space group: P C A 21
;
_chemical_formula_sum "Si O2"
_cell_formula_units_Z 32
_cell_length_a 10.843185
_cell_length_b 14.250785
_cell_length_c 8.884312
_cell_angle_alpha 90.000000
_cell_angle_beta 90.000000
_cell_angle_gamma 90.000000
_cell_volume 1372.838523
_symmetry_space_group_name_H-M "P C A 21"
_symmetry_group_IT_number 29
_symmetry_cell_setting 'orthorhombic'
loop_
_space_group_symop_operation_xyz
x,y,z
-x,-y,1/2+z
1/2-x,y,1/2+z
1/2+x,-y,z
loop_
_atom_site_type_symbol
_atom_site_label
_atom_site_fract_x
_atom_site_fract_y
_atom_site_fract_z
Si Si1 0.857890 0.362785 0.700850
Si Si2 0.880155 0.576465 0.761062
Si Si3 0.239697 0.913159 0.531480
Si Si4 0.424461 0.968142 0.774367
Si Si5 0.577350 0.774438 0.760748
Si Si6 0.890039 0.342539 0.350819
Si Si7 0.585116 0.151596 0.782795
Si Si8 0.251812 0.303669 0.510602
O O1 0.845389 0.468163 0.760810
O O2 0.861938 0.363914 0.522228
O O3 0.733481 0.315739 0.761260
O O4 0.974158 0.306745 0.767311
O O5 0.836933 0.630475 0.613130
O O6 0.029883 0.574895 0.775825
O O7 0.825349 0.624130 0.910169
O O8 0.324581 0.976262 0.640766
O O9 0.145182 0.975131 0.433878
O O10 0.323786 0.852996 0.423801
O O11 0.162261 0.839708 0.629372
O O12 0.512599 0.876933 0.758544
O O13 0.499587 0.062799 0.767626
O O14 0.661195 0.761236 0.611605
O O15 0.661996 0.764658 0.909725
O O16 0.980409 0.250533 0.320529
#
# Coordination Sequence:
#
# PCOD8169010 Si02
#       8
#     4   4   4   4   4   4   4   4
#     4  12  27  44  76 104 144 191 243 306 371 435
#     4  11  26  46  72  99 144 185 242 301 374 434
#     4  10  23  43  67 100 140 185 242 297 356 429
#     4  11  24  45  70 104 143 194 239 300 365 432
#     4  11  25  45  70 102 144 188 245 300 369 435
#     4  12  27  45  72 110 140 189 247 302 364 444
#     4  11  23  44  69  99 142 182 238 296 359 434
#     4  10  25  48  66 102 145 184 242 306 364 445
#
# _framework density 23.309367999999999
#
# number of rings (size 3 to 8) (size 9 to 14) (size 15 to 20)
#    0.000    1.000    1.250    4.500    8.750    1.000 
#    9.000    0.000    0.000    0.000    0.000    0.000 
#    0.000    0.000    0.000    0.000    0.000    0.000 
#
# Total GULP energy -396684.152857 kJ/mol
# GULP energy per Si atom -12396.379777 kJ/mol
# Density = 2.325631 g / cm^3
# Si number density = 23.309368 Si / 1000 Ang^3
#
#
#
# Elastic Constant Matrix: (Units=GPa)
#
#
# Indices 1 2 3 4 5 6 
#
# 1 126.7289 44.0428 60.8908 0.0000 0.0000 0.0000
# 2 44.0428 121.4415 45.1034 0.0000 0.0000 0.0000
# 3 60.8908 45.1034 146.0878 0.0000 0.0000 0.0000
# 4 0.0000 0.0000 0.0000 17.1880 0.0000 0.0000
# 5 0.0000 0.0000 0.0000 0.0000 147.1291 0.0000
# 6 0.0000 0.0000 0.0000 0.0000 0.0000 -9.2189
#
#
#
# Elastic Compliance Matrix: (Units=1/GPa)
#
#
# Indices 1 2 3 4 5 6 
#
# 1 0.010480 -0.002460 -0.003608 0.000000 0.000000 0.000000
# 2 -0.002460 0.009879 -0.002024 0.000000 0.000000 0.000000
# 3 -0.003608 -0.002024 0.008974 0.000000 0.000000 0.000000
# 4 0.000000 0.000000 0.000000 0.058180 0.000000 0.000000
# 5 0.000000 0.000000 0.000000 0.000000 0.006797 0.000000
# 6 0.000000 0.000000 0.000000 0.000000 0.000000 -0.108473
#
#
# Mechanical properties :
#
#
# Convention : Reuss Voigt Hill
#
# Bulk Modulus (GPa) = 76.06859 77.14800 76.60830
# Shear Modulus (GPa) = 780.61785 47.30106 413.95945
#
# Velocity S-wave (km/s) = 18.31998 4.50963 13.34088
# Velocity P-wave (km/s) = 21.91348 7.76434 16.43906
#
# Compressibility (1/GPa) = 0.01314603
#
# Stress axis : x y z
#
# Youngs Moduli (GPa) = 95.42226 101.22878 111.43026
#
# Poissons Ratio (x) = 0.24907 0.40208
# Poissons Ratio (y) = 0.23479 0.22558
# Poissons Ratio (z) = 0.34432 0.20493
#
# Static dielectric constant tensor:
#      x y z
#    x 4.508010 0.000000 0.000000 
#    y 0.000000 4.015350 0.000000 
#    z 0.000000 0.000000 4.585400 
# 
# 
# High freq. dielectric constant tensor:
#      x y z
#    x 1.934520 0.000000 0.000000 
#    y 0.000000 1.918800 0.000000 
#    z 0.000000 0.000000 1.942790 
# 
# From -- ./inp_files/1576.got.cif
#   From: 2010.03.12/outbox.cif.g09.slc.cpg/sg29_1_cif.got.tgz:1576.got - 2010.04.14 03:43:10.
