data_PCOD8169818
_publ_section_title
;
Structure prediction by ZEFSAII (Michael W. Deem and Ramdas Pophale) SiO2 
 PCOD8169818
Probable space group: P M N 21
;
_chemical_formula_sum "Si O2"
_cell_formula_units_Z 32
_cell_length_a 9.547451
_cell_length_b 12.105902
_cell_length_c 14.381586
_cell_angle_alpha 90.000000
_cell_angle_beta 90.000000
_cell_angle_gamma 90.000000
_cell_volume 1662.230989
_symmetry_space_group_name_H-M "P M N 21"
_symmetry_group_IT_number 31
_symmetry_cell_setting 'orthorhombic'
loop_
_space_group_symop_operation_xyz
x,y,z
1/2-x,-y,1/2+z
-x,y,z
1/2+x,-y,1/2+z
loop_
_atom_site_type_symbol
_atom_site_label
_atom_site_fract_x
_atom_site_fract_y
_atom_site_fract_z
Si Si1 0.664937 0.941614 0.531630
Si Si2 0.664602 0.513671 0.442322
Si Si3 0.844511 0.819409 0.036866
Si Si4 0.837326 0.124163 0.236370
Si Si5 0.845045 0.711926 0.843463
Si Si6 0.665748 0.396192 0.620645
Si Si7 0.161901 0.908266 0.351656
Si Si8 0.160363 0.661093 0.319815
O O1 0.500000 0.945421 0.506187
O O2 0.691749 0.875159 0.626207
O O3 0.748600 0.891868 0.445205
O O4 0.729990 0.063375 0.550639
O O5 0.500000 0.537710 0.437321
O O6 0.705932 0.407752 0.379630
O O7 0.713978 0.493368 0.550132
O O8 0.744788 0.621062 0.405299
O O9 0.763707 0.719807 0.088437
O O10 0.000000 0.831193 0.080039
O O11 0.851710 0.796966 0.927779
O O12 0.760616 0.235154 0.269784
O O13 0.000000 0.139047 0.258102
O O14 0.785610 0.010082 0.286634
O O15 0.000000 0.700985 0.798722
O O16 0.500000 0.382929 0.604965
O O17 0.703577 0.412281 0.728719
O O18 0.181568 0.791302 0.297866
O O19 0.000000 0.926076 0.378723
O O20 0.000000 0.637087 0.346124
#
# Coordination Sequence:
#
# PCOD8169818 Si02
#       8
#     4   4   4   4   4   4   4   4
#     4  10  19  32  52  78 106 142 180 213 256 319
#     4   9  19  36  57  80 104 134 177 226 266 310
#     4   8  13  26  51  76  97 127 173 217 248 297
#     4  10  20  33  52  80 110 139 176 219 262 313
#     4   9  17  32  54  76  99 133 174 217 265 311
#     4   8  15  31  56  80  99 132 181 221 258 308
#     4  10  21  36  53  79 113 143 172 218 271 316
#     4  10  20  36  57  79 106 142 179 217 266 318
#
# _framework density 19.251237
#
# number of rings (size 3 to 8) (size 9 to 14) (size 15 to 20)
#    0.000    2.750    1.250    2.250    0.000    4.500 
#    2.250    0.625    0.000    3.000    0.000    0.000 
#    0.000    0.000    0.000    0.000    0.000    0.000 
#
# Total GULP energy -396486.238360 kJ/mol
# GULP energy per Si atom -12390.194949 kJ/mol
# Density = 1.920742 g / cm^3
# Si number density = 19.251237 Si / 1000 Ang^3
#
#
#
# Elastic Constant Matrix: (Units=GPa)
#
#
# Indices 1 2 3 4 5 6 
#
# 1 42.3165 13.3741 31.4677 0.0000 0.0000 0.0000
# 2 13.3741 36.4056 7.0324 0.0000 0.0000 0.0000
# 3 31.4677 7.0324 86.0994 0.0000 0.0000 0.0000
# 4 0.0000 0.0000 0.0000 26.3369 0.0000 0.0000
# 5 0.0000 0.0000 0.0000 0.0000 25.5978 0.0000
# 6 0.0000 0.0000 0.0000 0.0000 0.0000 23.1276
#
#
#
# Elastic Compliance Matrix: (Units=1/GPa)
#
#
# Indices 1 2 3 4 5 6 
#
# 1 0.036287 -0.010941 -0.012369 0.000000 0.000000 0.000000
# 2 -0.010941 0.031208 0.001450 0.000000 0.000000 0.000000
# 3 -0.012369 0.001450 0.016017 0.000000 0.000000 0.000000
# 4 0.000000 0.000000 0.000000 0.037970 0.000000 0.000000
# 5 0.000000 0.000000 0.000000 0.000000 0.039066 0.000000
# 6 0.000000 0.000000 0.000000 0.000000 0.000000 0.043238
#
#
# Mechanical properties :
#
#
# Convention : Reuss Voigt Hill
#
# Bulk Modulus (GPa) = 25.13116 29.84110 27.48613
# Shear Modulus (GPa) = 19.17407 22.54229 20.85818
#
# Velocity S-wave (km/s) = 3.15936 3.42563 3.29518
# Velocity P-wave (km/s) = 5.13725 5.58401 5.36528
#
# Compressibility (1/GPa) = 0.03979123
#
# Stress axis : x y z
#
# Youngs Moduli (GPa) = 27.55802 32.04335 62.43548
#
# Poissons Ratio (x) = 0.35060 0.77224
# Poissons Ratio (y) = 0.30152 -0.09052
# Poissons Ratio (z) = 0.34085 -0.04646
#
# Static dielectric constant tensor:
#      x y z
#    x 3.155430 0.000000 0.000000 
#    y 0.000000 3.435300 0.000000 
#    z 0.000000 0.000000 3.482800 
# 
# 
# High freq. dielectric constant tensor:
#      x y z
#    x 1.706640 0.000000 0.000000 
#    y 0.000000 1.745490 0.000000 
#    z 0.000000 0.000000 1.746470 
# 
# From -- ./inp_files/5048.got.cif
#   From: 2010.03.12/outbox.cif.g09.slc.cpg/sg31_3_cif.got.tgz:5048.got - 2010.04.14 01:42:59.
