data_PCOD8169971
_publ_section_title
;
Structure prediction by ZEFSAII (Michael W. Deem and Ramdas Pophale) SiO2 
 PCOD8169971
Probable space group: P M N 21
;
_chemical_formula_sum "Si O2"
_cell_formula_units_Z 32
_cell_length_a 9.001636
_cell_length_b 7.615222
_cell_length_c 23.911426
_cell_angle_alpha 90.000000
_cell_angle_beta 90.000000
_cell_angle_gamma 90.000000
_cell_volume 1639.115257
_symmetry_space_group_name_H-M "P M N 21"
_symmetry_group_IT_number 31
_symmetry_cell_setting 'orthorhombic'
loop_
_space_group_symop_operation_xyz
x,y,z
1/2-x,-y,1/2+z
-x,y,z
1/2+x,-y,1/2+z
loop_
_atom_site_type_symbol
_atom_site_label
_atom_site_fract_x
_atom_site_fract_y
_atom_site_fract_z
Si Si1 0.175136 0.520087 0.198930
Si Si2 0.826919 0.611713 0.467531
Si Si3 0.325009 0.773979 0.781643
Si Si4 0.825758 0.918584 0.201518
Si Si5 0.671619 0.944299 0.088255
Si Si6 0.325338 0.744886 0.907116
Si Si7 0.670096 0.534607 0.086078
Si Si8 0.675870 0.956689 0.478627
O O1 0.241660 0.386995 0.245153
O O2 0.223058 0.718665 0.215012
O O3 0.235569 0.465276 0.138253
O O4 0.000000 0.501506 0.195808
O O5 0.792296 0.454093 0.425112
O O6 0.776155 0.560205 0.530006
O O7 0.731799 0.779699 0.447765
O O8 0.000000 0.660535 0.465761
O O9 0.500000 0.748793 0.784742
O O10 0.262223 0.768423 0.844396
O O11 0.282846 0.961112 0.754371
O O12 0.737782 0.993857 0.148461
O O13 0.000000 0.928877 0.187829
O O14 0.500000 0.000838 0.086305
O O15 0.694188 0.739983 0.076036
O O16 0.759913 0.051228 0.041374
O O17 0.500000 0.788398 0.912556
O O18 0.236599 0.874588 0.946798
O O19 0.500000 0.492351 0.099452
O O20 0.500000 0.964283 0.480007
#
# Coordination Sequence:
#
# PCOD8169971 Si02
#       8
#     4   4   4   4   4   4   4   4
#     4   9  18  32  51  80 115 148 181 225 281 341
#     4  10  21  38  60  86 115 151 198 242 290 350
#     4   9  19  35  59  85 110 145 194 238 281 341
#     4   9  18  33  53  84 119 149 183 232 290 344
#     4  10  19  36  59  84 117 155 195 238 288 348
#     4  10  21  42  65  85 114 156 201 247 289 342
#     4   9  18  34  56  83 114 147 186 235 285 340
#     4  12  25  38  57  87 120 155 194 243 302 354
#
# _framework density 19.522728000000001
#
# number of rings (size 3 to 8) (size 9 to 14) (size 15 to 20)
#    0.000    2.250    1.250    1.500    1.750    2.500 
#    0.000    5.000    0.000    3.000    0.000    0.000 
#    0.000    0.000    0.000    0.000    0.000    0.000 
#
# Total GULP energy -396850.237643 kJ/mol
# GULP energy per Si atom -12401.569926 kJ/mol
# Density = 1.947829 g / cm^3
# Si number density = 19.522728 Si / 1000 Ang^3
#
#
#
# Elastic Constant Matrix: (Units=GPa)
#
#
# Indices 1 2 3 4 5 6 
#
# 1 64.4480 23.8330 26.6608 0.0000 0.0000 0.0000
# 2 23.8330 55.8903 15.8465 0.0000 0.0000 0.0000
# 3 26.6608 15.8465 91.4705 0.0000 0.0000 0.0000
# 4 0.0000 0.0000 0.0000 25.1020 0.0000 0.0000
# 5 0.0000 0.0000 0.0000 0.0000 21.7675 0.0000
# 6 0.0000 0.0000 0.0000 0.0000 0.0000 19.2109
#
#
#
# Elastic Compliance Matrix: (Units=1/GPa)
#
#
# Indices 1 2 3 4 5 6 
#
# 1 0.020108 -0.007270 -0.004601 0.000000 0.000000 0.000000
# 2 -0.007270 0.021445 -0.001596 0.000000 0.000000 0.000000
# 3 -0.004601 -0.001596 0.012550 0.000000 0.000000 0.000000
# 4 0.000000 0.000000 0.000000 0.039837 0.000000 0.000000
# 5 0.000000 0.000000 0.000000 0.000000 0.045940 0.000000
# 6 0.000000 0.000000 0.000000 0.000000 0.000000 0.052054
#
#
# Mechanical properties :
#
#
# Convention : Reuss Voigt Hill
#
# Bulk Modulus (GPa) = 36.80793 38.27661 37.54227
# Shear Modulus (GPa) = 21.93691 22.91397 22.42544
#
# Velocity S-wave (km/s) = 3.35574 3.42966 3.39290
# Velocity P-wave (km/s) = 5.82318 5.94409 5.88395
#
# Compressibility (1/GPa) = 0.02716806
#
# Stress axis : x y z
#
# Youngs Moduli (GPa) = 49.73040 46.63117 79.68004
#
# Poissons Ratio (x) = 0.33901 0.36665
# Poissons Ratio (y) = 0.36154 0.12718
# Poissons Ratio (z) = 0.22883 0.07443
#
# Static dielectric constant tensor:
#      x y z
#    x 3.335860 0.000000 0.000000 
#    y 0.000000 3.696710 0.000000 
#    z 0.000000 0.000000 3.714960 
# 
# 
# High freq. dielectric constant tensor:
#      x y z
#    x 1.734090 0.000000 0.000000 
#    y 0.000000 1.771520 0.000000 
#    z 0.000000 0.000000 1.756350 
# 
# From -- ./inp_files/6471.got.cif
#   From: 2010.03.12/outbox.cif.g09.slc.cpg/sg31_4_cif.got.tgz:6471.got - 2010.04.14 01:42:59.
