data_PCOD8169146
_publ_section_title
;
Structure prediction by ZEFSAII (Michael W. Deem and Ramdas Pophale) SiO2 
 PCOD8169146
Probable space group: P C A 21
;
_chemical_formula_sum "Si O2"
_cell_formula_units_Z 32
_cell_length_a 14.609326
_cell_length_b 8.263529
_cell_length_c 11.850225
_cell_angle_alpha 90.000000
_cell_angle_beta 90.000000
_cell_angle_gamma 90.000000
_cell_volume 1430.613544
_symmetry_space_group_name_H-M "P C A 21"
_symmetry_group_IT_number 29
_symmetry_cell_setting 'orthorhombic'
loop_
_space_group_symop_operation_xyz
x,y,z
-x,-y,1/2+z
1/2-x,y,1/2+z
1/2+x,-y,z
loop_
_atom_site_type_symbol
_atom_site_label
_atom_site_fract_x
_atom_site_fract_y
_atom_site_fract_z
Si Si1 0.085534 0.146600 0.557520
Si Si2 0.689334 0.749163 0.763509
Si Si3 0.847222 0.548289 0.694938
Si Si4 0.822218 0.006765 0.850610
Si Si5 0.890854 0.530426 0.936415
Si Si6 0.776161 0.287645 0.449953
Si Si7 0.615473 0.182104 0.144084
Si Si8 0.589770 0.570514 0.953727
O O1 0.139931 0.128903 0.675936
O O2 0.116121 0.012844 0.464297
O O3 0.115047 0.324919 0.522788
O O4 0.976843 0.143603 0.574894
O O5 0.738676 0.590810 0.707557
O O6 0.767804 0.843528 0.830389
O O7 0.616664 0.695587 0.856969
O O8 0.894566 0.608959 0.810436
O O9 0.876753 0.360879 0.696458
O O10 0.879776 0.631739 0.578653
O O11 0.752305 0.159395 0.855494
O O12 0.883350 0.045678 0.740974
O O13 0.804137 0.418140 0.964279
O O14 0.981195 0.427051 0.956702
O O15 0.797247 0.175366 0.559564
O O16 0.868497 0.391784 0.426179
#
# Coordination Sequence:
#
# PCOD8169146 Si02
#       8
#     4   4   4   4   4   4   4   4
#     4  12  25  45  69 105 140 185 243 297 353 431
#     4  12  24  42  72 100 139 187 238 293 360 426
#     4  11  21  43  67 102 135 177 239 294 351 416
#     4  12  25  46  67 100 150 191 233 286 367 443
#     4  12  22  45  72 104 139 177 245 300 350 422
#     4  11  23  44  69 101 139 186 230 294 356 420
#     4  11  24  46  68  98 145 183 236 298 354 428
#     4  11  24  43  74 102 137 184 236 306 353 412
#
# _framework density 22.368027000000001
#
# number of rings (size 3 to 8) (size 9 to 14) (size 15 to 20)
#    0.000    0.500    6.250    3.750    0.000    1.000 
#    2.250    0.000    0.000    0.000    0.000    0.000 
#    0.000    0.000    0.000    0.000    0.000    0.000 
#
# Total GULP energy -396534.854907 kJ/mol
# GULP energy per Si atom -12391.714216 kJ/mol
# Density = 2.231712 g / cm^3
# Si number density = 22.368027 Si / 1000 Ang^3
#
#
#
# Elastic Constant Matrix: (Units=GPa)
#
#
# Indices 1 2 3 4 5 6 
#
# 1 93.6197 10.4849 30.5976 0.0000 0.0000 0.0000
# 2 10.4849 50.6940 12.5572 0.0000 0.0000 0.0000
# 3 30.5976 12.5572 129.1005 0.0000 0.0000 0.0000
# 4 0.0000 0.0000 0.0000 42.6100 0.0000 0.0000
# 5 0.0000 0.0000 0.0000 0.0000 37.6387 0.0000
# 6 0.0000 0.0000 0.0000 0.0000 0.0000 18.3847
#
#
#
# Elastic Compliance Matrix: (Units=1/GPa)
#
#
# Indices 1 2 3 4 5 6 
#
# 1 0.011733 -0.001781 -0.002608 0.000000 0.000000 0.000000
# 2 -0.001781 0.020484 -0.001570 0.000000 0.000000 0.000000
# 3 -0.002608 -0.001570 0.008517 0.000000 0.000000 0.000000
# 4 0.000000 0.000000 0.000000 0.023469 0.000000 0.000000
# 5 0.000000 0.000000 0.000000 0.000000 0.026568 0.000000
# 6 0.000000 0.000000 0.000000 0.000000 0.000000 0.054393
#
#
# Mechanical properties :
#
#
# Convention : Reuss Voigt Hill
#
# Bulk Modulus (GPa) = 34.70310 42.29929 38.50120
# Shear Modulus (GPa) = 29.99647 34.37832 32.18740
#
# Velocity S-wave (km/s) = 3.66600 3.92464 3.79752
# Velocity P-wave (km/s) = 5.78512 6.28400 6.03972
#
# Compressibility (1/GPa) = 0.02881587
#
# Stress axis : x y z
#
# Youngs Moduli (GPa) = 85.22823 48.81975 117.41684
#
# Poissons Ratio (x) = 0.08694 0.30618
# Poissons Ratio (y) = 0.15178 0.18438
# Poissons Ratio (z) = 0.22224 0.07666
#
# Static dielectric constant tensor:
#      x y z
#    x 4.066680 0.000000 0.000000 
#    y 0.000000 3.820910 0.000000 
#    z 0.000000 0.000000 4.405830 
# 
# 
# High freq. dielectric constant tensor:
#      x y z
#    x 1.877920 0.000000 0.000000 
#    y 0.000000 1.861550 0.000000 
#    z 0.000000 0.000000 1.898410 
# 
# From -- ./inp_files/3497.got.cif
#   From: 2010.03.12/outbox.cif.g09.slc.cpg/sg29_2_cif.got.tgz:3497.got - 2010.04.14 03:43:10.
