data_PCOD8169542
_publ_section_title
;
Structure prediction by ZEFSAII (Michael W. Deem and Ramdas Pophale) SiO2 
 PCOD8169542
Probable space group: P N C 2
;
_chemical_formula_sum "Si O2"
_cell_formula_units_Z 30
_cell_length_a 8.129161
_cell_length_b 10.792776
_cell_length_c 15.008107
_cell_angle_alpha 90.000000
_cell_angle_beta 90.000000
_cell_angle_gamma 90.000000
_cell_volume 1316.754484
_symmetry_space_group_name_H-M "P N C 2"
_symmetry_group_IT_number 30
_symmetry_cell_setting 'orthorhombic'
loop_
_space_group_symop_operation_xyz
x,y,z
-x,-y,z
-x,1/2+y,1/2+z
x,1/2-y,1/2+z
loop_
_atom_site_type_symbol
_atom_site_label
_atom_site_fract_x
_atom_site_fract_y
_atom_site_fract_z
Si Si1 0.000000 0.000000 0.380491
Si Si2 0.037613 0.307147 0.152869
Si Si3 0.412771 0.865806 0.809600
Si Si4 0.749079 0.547798 0.030055
Si Si5 0.560364 0.706509 0.484016
Si Si6 0.890217 0.880579 0.011949
Si Si7 0.048931 0.728621 0.339464
Si Si8 0.656473 0.192959 0.616735
O O1 0.161552 0.023060 0.437954
O O2 0.944743 0.121842 0.324019
O O3 0.116022 0.428989 0.108478
O O4 0.116313 0.185909 0.107449
O O5 0.069418 0.317869 0.258955
O O6 0.845818 0.286294 0.135688
O O7 0.217628 0.851755 0.832062
O O8 0.445209 0.816758 0.709531
O O9 0.500000 0.000000 0.819593
O O10 0.498696 0.779143 0.883068
O O11 0.638775 0.666747 0.017278
O O12 0.636969 0.432936 0.059553
O O13 0.696692 0.595399 0.488581
O O14 0.411262 0.692041 0.556060
O O15 0.000000 0.000000 0.016754
O O16 0.965890 0.791885 0.935360
#
# Coordination Sequence:
#
# PCOD8169542 Si02
#       8
#     2   4   4   4   4   4   4   4
#     4  12  20  42  66  94 128 170 216 276 336 392
#     4  10  22  40  63  93 127 168 220 271 335 403
#     4  11  24  42  64  95 134 178 220 279 338 415
#     4  11  20  40  67  92 126 171 220 279 324 403
#     4  11  23  37  61  95 127 166 212 277 333 394
#     4  11  23  42  62  93 127 173 221 275 328 400
#     4  11  24  40  65  95 129 174 222 278 340 405
#     4  11  22  41  66  96 132 170 222 274 342 404
#
# _framework density 22.783291999999999
#
# number of rings (size 3 to 8) (size 9 to 14) (size 15 to 20)
#    0.000    1.067    4.000    3.600    0.933    5.333 
#    0.000    0.000    0.000    4.800    0.000    0.000 
#    0.000    0.000    0.000    0.000    0.000    0.000 
#
# Total GULP energy -371663.335941 kJ/mol
# GULP energy per Si atom -12388.777865 kJ/mol
# Density = 2.273144 g / cm^3
# Si number density = 22.783292 Si / 1000 Ang^3
#
#
#
# Elastic Constant Matrix: (Units=GPa)
#
#
# Indices 1 2 3 4 5 6 
#
# 1 83.8977 20.4172 37.4081 0.0000 0.0000 0.0000
# 2 20.4172 67.3307 26.1795 0.0000 0.0000 0.0000
# 3 37.4081 26.1795 120.0212 0.0000 0.0000 0.0000
# 4 0.0000 0.0000 0.0000 25.3460 0.0000 0.0000
# 5 0.0000 0.0000 0.0000 0.0000 27.9010 0.0000
# 6 0.0000 0.0000 0.0000 0.0000 0.0000 36.2989
#
#
#
# Elastic Compliance Matrix: (Units=1/GPa)
#
#
# Indices 1 2 3 4 5 6 
#
# 1 0.014327 -0.002850 -0.003844 0.000000 0.000000 0.000000
# 2 -0.002850 0.016795 -0.002775 0.000000 0.000000 0.000000
# 3 -0.003844 -0.002775 0.010135 0.000000 0.000000 0.000000
# 4 0.000000 0.000000 0.000000 0.039454 0.000000 0.000000
# 5 0.000000 0.000000 0.000000 0.000000 0.035841 0.000000
# 6 0.000000 0.000000 0.000000 0.000000 0.000000 0.027549
#
#
# Mechanical properties :
#
#
# Convention : Reuss Voigt Hill
#
# Bulk Modulus (GPa) = 44.80365 48.80655 46.80510
# Shear Modulus (GPa) = 29.32921 30.39218 29.86069
#
# Velocity S-wave (km/s) = 3.59181 3.65631 3.62420
# Velocity P-wave (km/s) = 6.07530 6.26845 6.17263
#
# Compressibility (1/GPa) = 0.02231961
#
# Stress axis : x y z
#
# Youngs Moduli (GPa) = 69.80010 59.54042 98.66614
#
# Poissons Ratio (x) = 0.16968 0.37924
# Poissons Ratio (y) = 0.19892 0.27382
# Poissons Ratio (z) = 0.26829 0.16524
#
# Static dielectric constant tensor:
#      x y z
#    x 4.795690 0.000000 0.000000 
#    y 0.000000 4.002780 0.000000 
#    z 0.000000 0.000000 4.449060 
# 
# 
# High freq. dielectric constant tensor:
#      x y z
#    x 1.912440 0.000000 0.000000 
#    y 0.000000 1.878690 0.000000 
#    z 0.000000 0.000000 1.903980 
# 
# From -- ./inp_files/5194.got.cif
#   From: 2010.03.12/outbox.cif.g09.slc.cpg/sg30_3_cif.got.tgz:5194.got - 2010.04.14 01:38:02.
