data_PCOD8169115
_publ_section_title
;
Structure prediction by ZEFSAII (Michael W. Deem and Ramdas Pophale) SiO2 
 PCOD8169115
Probable space group: P C A 21
;
_chemical_formula_sum "Si O2"
_cell_formula_units_Z 32
_cell_length_a 10.343333
_cell_length_b 11.034977
_cell_length_c 11.902040
_cell_angle_alpha 90.000000
_cell_angle_beta 90.000000
_cell_angle_gamma 90.000000
_cell_volume 1358.480299
_symmetry_space_group_name_H-M "P C A 21"
_symmetry_group_IT_number 29
_symmetry_cell_setting 'orthorhombic'
loop_
_space_group_symop_operation_xyz
x,y,z
-x,-y,1/2+z
1/2-x,y,1/2+z
1/2+x,-y,z
loop_
_atom_site_type_symbol
_atom_site_label
_atom_site_fract_x
_atom_site_fract_y
_atom_site_fract_z
Si Si1 0.186617 0.908617 0.625000
Si Si2 0.207952 0.151060 0.182460
Si Si3 0.599222 0.245596 0.026339
Si Si4 0.013912 0.458750 0.632565
Si Si5 0.643701 0.649864 0.823329
Si Si6 0.976398 0.088341 0.330706
Si Si7 0.035423 0.149682 0.965854
Si Si8 0.734064 0.482185 0.010977
O O1 0.329013 0.853964 0.604668
O O2 0.122912 0.856890 0.738366
O O3 0.106816 0.876749 0.512905
O O4 0.184763 0.053803 0.643531
O O5 0.267811 0.272723 0.236561
O O6 0.117604 0.081763 0.273986
O O7 0.130944 0.179100 0.068595
O O8 0.516971 0.185868 0.928693
O O9 0.493099 0.315253 0.101187
O O10 0.699882 0.344542 0.974401
O O11 0.057969 0.454673 0.762084
O O12 0.123449 0.525805 0.561203
O O13 0.875058 0.521891 0.605942
O O14 0.540249 0.732797 0.887633
O O15 0.735514 0.576677 0.908652
O O16 0.925345 0.962654 0.384999
#
# Coordination Sequence:
#
# PCOD8169115 Si02
#       8
#     4   4   4   4   4   4   4   4
#     4  11  25  41  66 108 146 189 248 298 372 444
#     4  11  25  43  67 107 149 190 250 303 370 463
#     4  10  25  46  73 101 150 183 250 309 367 452
#     4  10  26  48  74 106 146 188 255 312 372 448
#     4  12  25  46  75 102 145 199 242 315 384 441
#     4  11  24  42  68 106 145 196 235 304 378 438
#     4  11  26  41  70 105 149 189 251 304 369 459
#     4  10  26  49  73 107 142 194 249 311 376 443
#
# _framework density 23.555733
#
# number of rings (size 3 to 8) (size 9 to 14) (size 15 to 20)
#    0.750    0.500    2.500    1.500    8.750    2.000 
#    2.250    0.000    0.000    0.000    0.000    0.000 
#    0.000    0.000    0.000    0.000    0.000    0.000 
#
# Total GULP energy -396598.178677 kJ/mol
# GULP energy per Si atom -12393.693084 kJ/mol
# Density = 2.350212 g / cm^3
# Si number density = 23.555733 Si / 1000 Ang^3
#
#
#
# Elastic Constant Matrix: (Units=GPa)
#
#
# Indices 1 2 3 4 5 6 
#
# 1 62.7644 -11.4020 12.3956 0.0000 0.0000 0.0000
# 2 -11.4020 68.1119 14.4836 0.0000 0.0000 0.0000
# 3 12.3956 14.4836 93.5013 0.0000 0.0000 0.0000
# 4 0.0000 0.0000 0.0000 46.1128 0.0000 0.0000
# 5 0.0000 0.0000 0.0000 0.0000 28.0414 0.0000
# 6 0.0000 0.0000 0.0000 0.0000 0.0000 37.4345
#
#
#
# Elastic Compliance Matrix: (Units=1/GPa)
#
#
# Indices 1 2 3 4 5 6 
#
# 1 0.017115 0.003462 -0.002805 0.000000 0.000000 0.000000
# 2 0.003462 0.015882 -0.002919 0.000000 0.000000 0.000000
# 3 -0.002805 -0.002919 0.011519 0.000000 0.000000 0.000000
# 4 0.000000 0.000000 0.000000 0.021686 0.000000 0.000000
# 5 0.000000 0.000000 0.000000 0.000000 0.035662 0.000000
# 6 0.000000 0.000000 0.000000 0.000000 0.000000 0.026713
#
#
# Mechanical properties :
#
#
# Convention : Reuss Voigt Hill
#
# Bulk Modulus (GPa) = 25.00547 28.37020 26.68784
# Shear Modulus (GPa) = 34.14530 36.24444 35.19487
#
# Velocity S-wave (km/s) = 3.81143 3.92684 3.86957
# Velocity P-wave (km/s) = 5.47794 5.71228 5.59634
#
# Compressibility (1/GPa) = 0.03999124
#
# Stress axis : x y z
#
# Youngs Moduli (GPa) = 58.42667 62.96464 86.81230
#
# Poissons Ratio (x) = -0.21796 0.24353
# Poissons Ratio (y) = -0.20225 0.25341
# Poissons Ratio (z) = 0.16390 0.18380
#
# Static dielectric constant tensor:
#      x y z
#    x 3.968560 0.000000 0.000000 
#    y 0.000000 4.059280 0.000000 
#    z 0.000000 0.000000 4.355790 
# 
# 
# High freq. dielectric constant tensor:
#      x y z
#    x 1.923460 0.000000 0.000000 
#    y 0.000000 1.926630 0.000000 
#    z 0.000000 0.000000 1.937940 
# 
# From -- ./inp_files/3269.got.cif
#   From: 2010.03.12/outbox.cif.g09.slc.cpg/sg29_2_cif.got.tgz:3269.got - 2010.04.14 03:43:10.
