data_PCOD8169634
_publ_section_title
;
Structure prediction by ZEFSAII (Michael W. Deem and Ramdas Pophale) SiO2 
 PCOD8169634
Probable space group: P N C 2
;
_chemical_formula_sum "Si O2"
_cell_formula_units_Z 24
_cell_length_a 9.337161
_cell_length_b 8.305684
_cell_length_c 14.250161
_cell_angle_alpha 90.000000
_cell_angle_beta 90.000000
_cell_angle_gamma 90.000000
_cell_volume 1105.121485
_symmetry_space_group_name_H-M "P N C 2"
_symmetry_group_IT_number 30
_symmetry_cell_setting 'orthorhombic'
loop_
_space_group_symop_operation_xyz
x,y,z
-x,-y,z
-x,1/2+y,1/2+z
x,1/2-y,1/2+z
loop_
_atom_site_type_symbol
_atom_site_label
_atom_site_fract_x
_atom_site_fract_y
_atom_site_fract_z
Si Si1 0.863681 0.411281 0.210660
Si Si2 0.958592 0.316608 0.400805
Si Si3 0.383313 0.130020 0.784808
Si Si4 0.547720 0.820172 0.099734
Si Si5 0.742814 0.805951 0.455937
Si Si6 0.721327 0.332894 0.023601
O O1 0.920685 0.288412 0.290844
O O2 0.765309 0.543756 0.261194
O O3 0.781167 0.318847 0.129513
O O4 0.000000 0.500000 0.163952
O O5 0.816428 0.278660 0.458142
O O6 0.000000 0.500000 0.419212
O O7 0.088576 0.204225 0.433967
O O8 0.447560 0.222360 0.695986
O O9 0.351910 0.258345 0.866071
O O10 0.500000 0.000000 0.819611
O O11 0.437437 0.737980 0.027271
O O12 0.500000 0.000000 0.123256
O O13 0.699626 0.808777 0.044452
O O14 0.711102 0.988093 0.484462
#
# Coordination Sequence:
#
# PCOD8169634 Si02
#       6
#     4   4   4   4   4   4
#     4  11  22  46  71  99 145 185 229 291 364 423
#     4  11  24  43  70 106 135 188 236 291 361 430
#     4  12  24  46  73 103 145 190 238 296 370 427
#     4  12  27  45  68 104 140 191 243 300 362 431
#     4  12  24  44  72 102 142 187 241 298 355 435
#     4  12  26  46  73 105 142 189 245 297 366 430
#
# _framework density 21.71707
#
# number of rings (size 3 to 8) (size 9 to 14) (size 15 to 20)
#    0.000    0.333    6.667    3.500    2.333    2.667 
#    0.000    1.667    0.000    0.000    0.000    0.000 
#    0.000    0.000    0.000    0.000    0.000    0.000 
#
# Total GULP energy -297701.188045 kJ/mol
# GULP energy per Si atom -12404.216169 kJ/mol
# Density = 2.166764 g / cm^3
# Si number density = 21.717070 Si / 1000 Ang^3
#
#
#
# Elastic Constant Matrix: (Units=GPa)
#
#
# Indices 1 2 3 4 5 6 
#
# 1 92.7244 22.5469 23.7289 0.0000 0.0000 0.0000
# 2 22.5469 70.3024 21.1493 0.0000 0.0000 0.0000
# 3 23.7289 21.1493 107.9996 0.0000 0.0000 0.0000
# 4 0.0000 0.0000 0.0000 34.2506 0.0000 0.0000
# 5 0.0000 0.0000 0.0000 0.0000 39.4777 0.0000
# 6 0.0000 0.0000 0.0000 0.0000 0.0000 38.2760
#
#
#
# Elastic Compliance Matrix: (Units=1/GPa)
#
#
# Indices 1 2 3 4 5 6 
#
# 1 0.012097 -0.003273 -0.002017 0.000000 0.000000 0.000000
# 2 -0.003273 0.016000 -0.002414 0.000000 0.000000 0.000000
# 3 -0.002017 -0.002414 0.010175 0.000000 0.000000 0.000000
# 4 0.000000 0.000000 0.000000 0.029197 0.000000 0.000000
# 5 0.000000 0.000000 0.000000 0.000000 0.025331 0.000000
# 6 0.000000 0.000000 0.000000 0.000000 0.000000 0.026126
#
#
# Mechanical properties :
#
#
# Convention : Reuss Voigt Hill
#
# Bulk Modulus (GPa) = 43.73645 45.09740 44.41692
# Shear Modulus (GPa) = 35.22258 35.97429 35.59843
#
# Velocity S-wave (km/s) = 4.03163 4.07443 4.05309
# Velocity P-wave (km/s) = 6.46954 6.55329 6.51155
#
# Compressibility (1/GPa) = 0.02286422
#
# Stress axis : x y z
#
# Youngs Moduli (GPa) = 82.66788 62.49940 98.27830
#
# Poissons Ratio (x) = 0.20455 0.19822
# Poissons Ratio (y) = 0.27055 0.23726
# Poissons Ratio (z) = 0.16673 0.15089
#
# Static dielectric constant tensor:
#      x y z
#    x 4.309720 0.000000 0.000000 
#    y 0.000000 3.730220 0.000000 
#    z 0.000000 0.000000 4.072290 
# 
# 
# High freq. dielectric constant tensor:
#      x y z
#    x 1.876100 0.000000 0.000000 
#    y 0.000000 1.836950 0.000000 
#    z 0.000000 0.000000 1.863720 
# 
# From -- ./inp_files/5027.got.cif
#   From: 2010.03.12/outbox.cif.g09.slc.cpg/sg30_3_cif.got.tgz:5027.got - 2010.04.14 01:38:02.
