data_PCOD8169159
_publ_section_title
;
Structure prediction by ZEFSAII (Michael W. Deem and Ramdas Pophale) SiO2 
 PCOD8169159
Probable space group: P C A 21
;
_chemical_formula_sum "Si O2"
_cell_formula_units_Z 28
_cell_length_a 20.202338
_cell_length_b 6.890834
_cell_length_c 9.483134
_cell_angle_alpha 90.000000
_cell_angle_beta 90.000000
_cell_angle_gamma 90.000000
_cell_volume 1320.156165
_symmetry_space_group_name_H-M "P C A 21"
_symmetry_group_IT_number 29
_symmetry_cell_setting 'orthorhombic'
loop_
_space_group_symop_operation_xyz
x,y,z
-x,-y,1/2+z
1/2-x,y,1/2+z
1/2+x,-y,z
loop_
_atom_site_type_symbol
_atom_site_label
_atom_site_fract_x
_atom_site_fract_y
_atom_site_fract_z
Si Si1 0.665233 0.974688 0.419290
Si Si2 0.057409 0.861646 0.931413
Si Si3 0.720619 0.306191 0.256195
Si Si4 0.113304 0.499999 0.066908
Si Si5 0.334767 0.974685 0.214527
Si Si6 0.942591 0.861647 0.702404
Si Si7 0.720619 0.693813 0.877621
O O1 0.624530 0.914321 0.282676
O O2 0.722341 0.817439 0.455093
O O3 0.695926 0.183960 0.388887
O O4 0.624388 0.000002 0.566909
O O5 0.124530 0.914322 0.851142
O O6 1.000000 0.887029 0.816909
O O7 0.064288 0.636323 0.975871
O O8 0.045576 0.999999 0.066909
O O9 0.659130 0.352955 0.154610
O O10 0.777660 0.182567 0.178726
O O11 0.749999 0.500003 0.316909
O O12 0.064288 0.363676 0.157946
O O13 0.159130 0.352952 0.979204
O O14 0.304073 0.183956 0.244928
#
# Coordination Sequence:
#
# PCOD8169159 Si02
#       7
#     4   4   4   4   4   4   4
#     4  11  24  41  69 106 140 181 225 277 354 413
#     4  12  27  50  72  97 139 189 238 285 338 410
#     4  11  22  40  70 105 144 177 219 284 353 418
#     4  12  24  46  70 106 140 182 230 292 346 412
#     4  11  24  41  69 106 140 181 225 277 354 413
#     4  12  27  50  72  97 139 189 238 285 338 410
#     4  11  22  40  70 105 144 177 219 284 353 418
#
# _framework density 21.209612
#
# number of rings (size 3 to 8) (size 9 to 14) (size 15 to 20)
#    0.000    0.571    5.714    2.571    4.000    1.143 
#    5.143    0.000    0.000    0.000    0.000    0.000 
#    0.000    0.000    0.000    0.000    0.000    0.000 
#
# Total GULP energy -347086.522376 kJ/mol
# GULP energy per Si atom -12395.947228 kJ/mol
# Density = 2.116134 g / cm^3
# Si number density = 21.209612 Si / 1000 Ang^3
#
#
#
# Elastic Constant Matrix: (Units=GPa)
#
#
# Indices 1 2 3 4 5 6 
#
# 1 78.2745 41.7732 49.5653 0.0000 0.0000 0.0000
# 2 41.7732 157.1598 63.9688 0.0000 0.0000 0.0000
# 3 49.5653 63.9688 156.0995 0.0000 0.0000 0.0000
# 4 0.0000 0.0000 0.0000 24.9232 0.0000 0.0000
# 5 0.0000 0.0000 0.0000 0.0000 38.0237 0.0000
# 6 0.0000 0.0000 0.0000 0.0000 0.0000 19.3097
#
#
#
# Elastic Compliance Matrix: (Units=1/GPa)
#
#
# Indices 1 2 3 4 5 6 
#
# 1 0.016944 -0.002777 -0.004242 0.000000 0.000000 0.000000
# 2 -0.002777 0.008092 -0.002434 0.000000 0.000000 0.000000
# 3 -0.004242 -0.002434 0.008751 0.000000 0.000000 0.000000
# 4 0.000000 0.000000 0.000000 0.040123 0.000000 0.000000
# 5 0.000000 0.000000 0.000000 0.000000 0.026299 0.000000
# 6 0.000000 0.000000 0.000000 0.000000 0.000000 0.051788
#
#
# Mechanical properties :
#
#
# Convention : Reuss Voigt Hill
#
# Bulk Modulus (GPa) = 67.20569 78.01648 72.61108
# Shear Modulus (GPa) = 28.43122 32.19974 30.31548
#
# Velocity S-wave (km/s) = 3.66524 3.90059 3.78475
# Velocity P-wave (km/s) = 7.04750 7.55973 7.30810
#
# Compressibility (1/GPa) = 0.01487969
#
# Stress axis : x y z
#
# Youngs Moduli (GPa) = 59.01887 123.58038 114.27712
#
# Poissons Ratio (x) = 0.34319 0.48477
# Poissons Ratio (y) = 0.16390 0.27818
# Poissons Ratio (z) = 0.25036 0.30083
#
# Static dielectric constant tensor:
#      x y z
#    x 3.841120 0.000000 0.000000 
#    y 0.000000 4.012570 0.000000 
#    z 0.000000 0.000000 4.327500 
# 
# 
# High freq. dielectric constant tensor:
#      x y z
#    x 1.814800 0.000000 0.000000 
#    y 0.000000 1.847980 0.000000 
#    z 0.000000 0.000000 1.848340 
# 
# From -- ./inp_files/2416.got.cif
#   From: 2010.03.12/outbox.cif.g09.slc.cpg/sg29_2_cif.got.tgz:2416.got - 2010.04.14 03:43:10.
