data_PCOD8169303
_publ_section_title
;
Structure prediction by ZEFSAII (Michael W. Deem and Ramdas Pophale) SiO2 
 PCOD8169303
Probable space group: P C A 21
;
_chemical_formula_sum "Si O2"
_cell_formula_units_Z 32
_cell_length_a 9.699616
_cell_length_b 11.245212
_cell_length_c 13.912949
_cell_angle_alpha 90.000000
_cell_angle_beta 90.000000
_cell_angle_gamma 90.000000
_cell_volume 1517.544314
_symmetry_space_group_name_H-M "P C A 21"
_symmetry_group_IT_number 29
_symmetry_cell_setting 'orthorhombic'
loop_
_space_group_symop_operation_xyz
x,y,z
-x,-y,1/2+z
1/2-x,y,1/2+z
1/2+x,-y,z
loop_
_atom_site_type_symbol
_atom_site_label
_atom_site_fract_x
_atom_site_fract_y
_atom_site_fract_z
Si Si1 0.400644 0.504257 0.000000
Si Si2 0.100078 0.241366 0.210402
Si Si3 0.852786 0.136662 0.102409
Si Si4 0.651307 0.512631 0.131457
Si Si5 0.637780 0.861801 0.616751
Si Si6 0.387008 0.749751 0.706976
Si Si7 0.287268 0.742842 0.917267
Si Si8 0.041618 0.254752 0.423368
O O1 0.553011 0.531850 0.039390
O O2 0.307151 0.482047 0.093708
O O3 0.340113 0.610218 0.936736
O O4 0.406501 0.389565 0.932356
O O5 0.132905 0.381375 0.207114
O O6 0.206133 0.163377 0.148419
O O7 0.095856 0.202675 0.322072
O O8 0.951339 0.222155 0.163244
O O9 0.698114 0.171455 0.131711
O O10 0.890166 0.001446 0.123713
O O11 0.862617 0.165325 0.989164
O O12 0.623271 0.389569 0.185291
O O13 0.544080 0.791006 0.693098
O O14 0.610060 0.822007 0.507767
O O15 0.334295 0.781496 0.812269
O O16 0.123293 0.749913 0.928706
#
# Coordination Sequence:
#
# PCOD8169303 Si02
#       8
#     4   4   4   4   4   4   4   4
#     4  12  21  42  72  98 142 178 222 287 356 414
#     4  12  26  44  72 107 136 177 234 292 346 416
#     4  12  25  46  72  98 139 189 233 278 349 411
#     4  12  21  42  73 100 138 181 220 287 360 410
#     4  12  27  46  71 101 143 183 232 296 336 408
#     4  12  24  48  71 102 142 184 230 284 358 417
#     4  12  25  45  74 103 138 190 231 283 355 418
#     4  12  25  47  69 105 142 180 236 293 348 412
#
# _framework density 21.0867
#
# number of rings (size 3 to 8) (size 9 to 14) (size 15 to 20)
#    0.000    0.000    8.750    1.500    0.000    4.000 
#    4.500    0.000    0.000    0.000    0.000    0.000 
#    0.000    0.000    0.000    0.000    0.000    0.000 
#
# Total GULP energy -396998.903889 kJ/mol
# GULP energy per Si atom -12406.215747 kJ/mol
# Density = 2.103871 g / cm^3
# Si number density = 21.086700 Si / 1000 Ang^3
#
#
#
# Elastic Constant Matrix: (Units=GPa)
#
#
# Indices 1 2 3 4 5 6 
#
# 1 66.1677 22.0090 20.4012 0.0000 0.0000 0.0000
# 2 22.0090 110.8924 42.9977 0.0000 0.0000 0.0000
# 3 20.4012 42.9977 117.3583 0.0000 0.0000 0.0000
# 4 0.0000 0.0000 0.0000 13.4589 0.0000 0.0000
# 5 0.0000 0.0000 0.0000 0.0000 33.6442 0.0000
# 6 0.0000 0.0000 0.0000 0.0000 0.0000 13.2989
#
#
#
# Elastic Compliance Matrix: (Units=1/GPa)
#
#
# Indices 1 2 3 4 5 6 
#
# 1 0.016556 -0.002529 -0.001951 0.000000 0.000000 0.000000
# 2 -0.002529 0.010897 -0.003553 0.000000 0.000000 0.000000
# 3 -0.001951 -0.003553 0.010162 0.000000 0.000000 0.000000
# 4 0.000000 0.000000 0.000000 0.074300 0.000000 0.000000
# 5 0.000000 0.000000 0.000000 0.000000 0.029723 0.000000
# 6 0.000000 0.000000 0.000000 0.000000 0.000000 0.075194
#
#
# Mechanical properties :
#
#
# Convention : Reuss Voigt Hill
#
# Bulk Modulus (GPa) = 46.40764 51.69269 49.05017
# Shear Modulus (GPa) = 20.82619 26.01444 23.42032
#
# Velocity S-wave (km/s) = 3.14609 3.51620 3.33628
# Velocity P-wave (km/s) = 5.93742 6.40722 6.17679
#
# Compressibility (1/GPa) = 0.02154817
#
# Stress axis : x y z
#
# Youngs Moduli (GPa) = 60.40076 91.76552 98.40734
#
# Poissons Ratio (x) = 0.23210 0.19203
# Poissons Ratio (y) = 0.15277 0.34963
# Poissons Ratio (z) = 0.11787 0.32603
#
# Static dielectric constant tensor:
#      x y z
#    x 3.900490 0.000000 0.000000 
#    y 0.000000 3.735710 0.000000 
#    z 0.000000 0.000000 3.768910 
# 
# 
# High freq. dielectric constant tensor:
#      x y z
#    x 1.837800 0.000000 0.000000 
#    y 0.000000 1.825980 0.000000 
#    z 0.000000 0.000000 1.827250 
# 
# From -- ./inp_files/4319.got.cif
#   From: 2010.03.12/outbox.cif.g09.slc.cpg/sg29_3_cif.got.tgz:4319.got - 2010.04.14 03:43:10.
