data_PCOD8169944
_publ_section_title
;
Structure prediction by ZEFSAII (Michael W. Deem and Ramdas Pophale) SiO2 
 PCOD8169944
Probable space group: P M N 21
;
_chemical_formula_sum "Si O2"
_cell_formula_units_Z 32
_cell_length_a 8.446406
_cell_length_b 9.161055
_cell_length_c 20.969883
_cell_angle_alpha 90.000000
_cell_angle_beta 90.000000
_cell_angle_gamma 90.000000
_cell_volume 1622.607395
_symmetry_space_group_name_H-M "P M N 21"
_symmetry_group_IT_number 31
_symmetry_cell_setting 'orthorhombic'
loop_
_space_group_symop_operation_xyz
x,y,z
1/2-x,-y,1/2+z
-x,y,z
1/2+x,-y,1/2+z
loop_
_atom_site_type_symbol
_atom_site_label
_atom_site_fract_x
_atom_site_fract_y
_atom_site_fract_z
Si Si1 0.687363 0.664471 0.732180
Si Si2 0.187460 0.670349 0.228507
Si Si3 0.181739 0.644636 0.998569
Si Si4 0.683809 0.326629 0.004169
Si Si5 0.184252 0.145121 0.115614
Si Si6 0.814601 0.656963 0.366385
Si Si7 0.186770 0.330876 0.371128
Si Si8 0.818205 0.170792 0.609335
O O1 0.500000 0.659440 0.728373
O O2 0.745164 0.497799 0.722325
O O3 0.754406 0.767466 0.676534
O O4 0.736968 0.732722 0.801507
O O5 0.237101 0.731722 0.299506
O O6 0.281924 0.768636 0.179303
O O7 0.000000 0.685881 0.216341
O O8 0.288472 0.500324 0.006697
O O9 0.208394 0.750225 0.058054
O O10 0.000000 0.597182 0.997210
O O11 0.227928 0.735790 0.933879
O O12 0.500000 0.296601 0.019875
O O13 0.795861 0.245401 0.053610
O O14 0.728525 0.262556 0.933033
O O15 0.000000 0.106895 0.124710
O O16 0.285179 0.000415 0.107789
O O17 0.745096 0.494942 0.369620
O O18 0.000000 0.633397 0.361990
O O19 0.000000 0.315451 0.381310
O O20 0.000000 0.198738 0.591918
#
# Coordination Sequence:
#
# PCOD8169944 Si02
#       8
#     4   4   4   4   4   4   4   4
#     4   8  16  32  58  84 107 136 173 213 264 325
#     4   9  16  33  59  84 106 135 174 217 261 318
#     4  11  21  35  56  83 109 139 178 224 270 317
#     4  10  19  35  58  85 112 142 177 217 263 319
#     4  11  22  37  55  79 109 145 184 224 266 317
#     4   7  13  27  52  81 109 137 169 208 258 316
#     4   8  14  30  54  81 108 136 170 214 263 319
#     4  12  25  39  52  73 106 146 185 227 273 319
#
# _framework density 19.721346
#
# number of rings (size 3 to 8) (size 9 to 14) (size 15 to 20)
#    0.000    2.500    0.000    6.000    0.000    1.000 
#    0.000    9.375    0.000    3.000    0.000    0.000 
#    0.000    0.000    0.000    0.000    0.000    0.000 
#
# Total GULP energy -396491.859424 kJ/mol
# GULP energy per Si atom -12390.370607 kJ/mol
# Density = 1.967646 g / cm^3
# Si number density = 19.721346 Si / 1000 Ang^3
#
#
#
# Elastic Constant Matrix: (Units=GPa)
#
#
# Indices 1 2 3 4 5 6 
#
# 1 53.7762 5.4658 21.4471 0.0000 0.0000 0.0000
# 2 5.4658 59.4082 40.9721 0.0000 0.0000 0.0000
# 3 21.4471 40.9721 164.0068 0.0000 0.0000 0.0000
# 4 0.0000 0.0000 0.0000 1.1652 0.0000 0.0000
# 5 0.0000 0.0000 0.0000 0.0000 28.5866 0.0000
# 6 0.0000 0.0000 0.0000 0.0000 0.0000 21.6850
#
#
#
# Elastic Compliance Matrix: (Units=1/GPa)
#
#
# Indices 1 2 3 4 5 6 
#
# 1 0.019619 -0.000043 -0.002555 0.000000 0.000000 0.000000
# 2 -0.000043 0.020337 -0.005075 0.000000 0.000000 0.000000
# 3 -0.002555 -0.005075 0.007699 0.000000 0.000000 0.000000
# 4 0.000000 0.000000 0.000000 0.858251 0.000000 0.000000
# 5 0.000000 0.000000 0.000000 0.000000 0.034981 0.000000
# 6 0.000000 0.000000 0.000000 0.000000 0.000000 0.046115
#
#
# Mechanical properties :
#
#
# Convention : Reuss Voigt Hill
#
# Bulk Modulus (GPa) = 30.95087 45.88458 38.41772
# Shear Modulus (GPa) = 4.93526 24.24112 14.58819
#
# Velocity S-wave (km/s) = 1.58365 3.50977 2.72272
# Velocity P-wave (km/s) = 4.36716 6.30410 5.42281
#
# Compressibility (1/GPa) = 0.03230927
#
# Stress axis : x y z
#
# Youngs Moduli (GPa) = 50.97138 49.17236 129.88376
#
# Poissons Ratio (x) = 0.00212 0.33183
# Poissons Ratio (y) = 0.00219 0.65914
# Poissons Ratio (z) = 0.13022 0.24954
#
# Static dielectric constant tensor:
#      x y z
#    x 3.234760 0.000000 0.000000 
#    y 0.000000 3.201320 0.000000 
#    z 0.000000 0.000000 4.288440 
# 
# 
# High freq. dielectric constant tensor:
#      x y z
#    x 1.743500 0.000000 0.000000 
#    y 0.000000 1.720180 0.000000 
#    z 0.000000 0.000000 1.799990 
# 
# From -- ./inp_files/6236.got.cif
#   From: 2010.03.12/outbox.cif.g09.slc.cpg/sg31_4_cif.got.tgz:6236.got - 2010.04.14 01:42:59.
