data_PCOD8169757
_publ_section_title
;
Structure prediction by ZEFSAII (Michael W. Deem and Ramdas Pophale) SiO2 
 PCOD8169757
Probable space group: P M N 21
;
_chemical_formula_sum "Si O2"
_cell_formula_units_Z 24
_cell_length_a 8.580690
_cell_length_b 7.570202
_cell_length_c 19.065069
_cell_angle_alpha 90.000000
_cell_angle_beta 90.000000
_cell_angle_gamma 90.000000
_cell_volume 1238.420299
_symmetry_space_group_name_H-M "P M N 21"
_symmetry_group_IT_number 31
_symmetry_cell_setting 'orthorhombic'
loop_
_space_group_symop_operation_xyz
x,y,z
1/2-x,-y,1/2+z
-x,y,z
1/2+x,-y,1/2+z
loop_
_atom_site_type_symbol
_atom_site_label
_atom_site_fract_x
_atom_site_fract_y
_atom_site_fract_z
Si Si1 0.316215 0.781123 0.810910
Si Si2 0.685453 0.737087 0.969043
Si Si3 0.318164 0.460400 0.711070
Si Si4 0.815964 0.570964 0.565369
Si Si5 0.183333 0.092400 0.723943
Si Si6 0.685569 0.036737 0.072401
O O1 0.500000 0.818253 0.808752
O O2 0.255162 0.748513 0.889685
O O3 0.269754 0.610199 0.766229
O O4 0.225639 0.950189 0.782553
O O5 0.500000 0.737653 0.971961
O O6 0.749594 0.556004 0.003956
O O7 0.750121 0.904146 0.013159
O O8 0.500000 0.466857 0.694680
O O9 0.224738 0.487336 0.639802
O O10 0.270615 0.272992 0.744054
O O11 0.745315 0.767828 0.557062
O O12 0.000000 0.581322 0.560219
O O13 0.000000 0.126285 0.722876
O O14 0.245093 0.025254 0.648525
O O15 0.500000 0.041305 0.072197
#
# Coordination Sequence:
#
# PCOD8169757 Si02
#       6
#     4   4   4   4   4   4
#     4  10  22  38  57  85 119 150 183 232 292 343
#     4   9  18  34  56  83 112 143 186 235 281 332
#     4  11  22  35  55  86 118 150 185 231 287 341
#     4  10  18  33  58  84 107 142 191 237 276 330
#     4  11  21  36  60  86 111 148 195 236 276 332
#     4   9  17  30  56  86 105 135 188 239 274 316
#
# _framework density 19.379528000000001
#
# number of rings (size 3 to 8) (size 9 to 14) (size 15 to 20)
#    0.000    2.000    3.333    1.000    0.000    2.000 
#    0.000    5.833    0.000    2.000    0.000    0.000 
#    0.000    0.000    0.000    0.000    0.000    0.000 
#
# Total GULP energy -297636.318035 kJ/mol
# GULP energy per Si atom -12401.513251 kJ/mol
# Density = 1.933542 g / cm^3
# Si number density = 19.379528 Si / 1000 Ang^3
#
#
#
# Elastic Constant Matrix: (Units=GPa)
#
#
# Indices 1 2 3 4 5 6 
#
# 1 6.7719 12.5518 5.6976 0.0000 0.0000 0.0000
# 2 12.5518 139.0771 30.9959 0.0000 0.0000 0.0000
# 3 5.6976 30.9959 109.5559 0.0000 0.0000 0.0000
# 4 0.0000 0.0000 0.0000 36.5078 0.0000 0.0000
# 5 0.0000 0.0000 0.0000 0.0000 22.1126 0.0000
# 6 0.0000 0.0000 0.0000 0.0000 0.0000 14.4728
#
#
#
# Elastic Compliance Matrix: (Units=1/GPa)
#
#
# Indices 1 2 3 4 5 6 
#
# 1 0.179948 -0.015107 -0.005084 0.000000 0.000000 0.000000
# 2 -0.015107 0.008942 -0.001744 0.000000 0.000000 0.000000
# 3 -0.005084 -0.001744 0.009886 0.000000 0.000000 0.000000
# 4 0.000000 0.000000 0.000000 0.027391 0.000000 0.000000
# 5 0.000000 0.000000 0.000000 0.000000 0.045223 0.000000
# 6 0.000000 0.000000 0.000000 0.000000 0.000000 0.069095
#
#
# Mechanical properties :
#
#
# Convention : Reuss Voigt Hill
#
# Bulk Modulus (GPa) = 6.45558 39.32171 22.88865
# Shear Modulus (GPa) = 11.46808 28.36262 19.91535
#
# Velocity S-wave (km/s) = 2.43526 3.82977 3.20917
# Velocity P-wave (km/s) = 3.35345 6.31590 5.05649
#
# Compressibility (1/GPa) = 0.15490473
#
# Stress axis : x y z
#
# Youngs Moduli (GPa) = 5.55715 111.82608 101.15626
#
# Poissons Ratio (x) = 1.68939 0.51431
# Poissons Ratio (y) = 0.08395 0.17645
# Poissons Ratio (z) = 0.02825 0.19506
#
# Static dielectric constant tensor:
#      x y z
#    x 3.119410 0.000000 0.000000 
#    y 0.000000 3.925960 0.000000 
#    z 0.000000 0.000000 3.610300 
# 
# 
# High freq. dielectric constant tensor:
#      x y z
#    x 1.716090 0.000000 0.000000 
#    y 0.000000 1.775370 0.000000 
#    z 0.000000 0.000000 1.750560 
# 
# From -- ./inp_files/5706.got.cif
#   From: 2010.03.12/outbox.cif.g09.slc.cpg/sg31_3_cif.got.tgz:5706.got - 2010.04.14 01:42:59.
