data_PCOD8169276
_publ_section_title
;
Structure prediction by ZEFSAII (Michael W. Deem and Ramdas Pophale) SiO2 
 PCOD8169276
Probable space group: P C A 21
;
_chemical_formula_sum "Si O2"
_cell_formula_units_Z 24
_cell_length_a 13.579623
_cell_length_b 8.070251
_cell_length_c 8.831605
_cell_angle_alpha 90.000000
_cell_angle_beta 90.000000
_cell_angle_gamma 90.000000
_cell_volume 967.864124
_symmetry_space_group_name_H-M "P C A 21"
_symmetry_group_IT_number 29
_symmetry_cell_setting 'orthorhombic'
loop_
_space_group_symop_operation_xyz
x,y,z
-x,-y,1/2+z
1/2-x,y,1/2+z
1/2+x,-y,z
loop_
_atom_site_type_symbol
_atom_site_label
_atom_site_fract_x
_atom_site_fract_y
_atom_site_fract_z
Si Si1 0.987224 0.762010 0.501950
Si Si2 0.827453 0.891443 0.329526
Si Si3 0.331837 0.811096 0.558547
Si Si4 0.953270 0.882240 0.048824
Si Si5 0.360313 0.293391 0.783323
Si Si6 0.816443 0.346971 0.858242
O O1 0.887655 0.733894 0.402313
O O2 0.955934 0.732493 0.676617
O O3 0.080789 0.655456 0.452321
O O4 0.015438 0.952149 0.461029
O O5 0.897012 0.956906 0.194585
O O6 0.728752 0.831567 0.244840
O O7 0.806635 0.020276 0.467937
O O8 0.447794 0.776274 0.578814
O O9 0.275432 0.662245 0.472571
O O10 0.297526 0.802298 0.735313
O O11 0.887245 0.755598 0.954508
O O12 0.318841 0.478801 0.771705
#
# Coordination Sequence:
#
# PCOD8169276 Si02
#       6
#     4   4   4   4   4   4
#     4  11  25  50  74 109 150 198 257 322 385 462
#     4  11  25  47  80 108 150 195 264 319 376 474
#     4  11  28  49  76 109 156 205 262 320 393 465
#     4  11  25  49  77 113 143 202 261 317 380 462
#     4  12  29  45  80 112 156 204 256 324 397 465
#     4  12  30  48  75 113 161 206 256 326 407 470
#
# _framework density 24.796869000000001
#
# number of rings (size 3 to 8) (size 9 to 14) (size 15 to 20)
#    0.000    0.667    1.667    4.000   21.000    0.000 
#    0.000    0.000    0.000    0.000    0.000    0.000 
#    0.000    0.000    0.000    0.000    0.000    0.000 
#
# Total GULP energy -297388.117425 kJ/mol
# GULP energy per Si atom -12391.171559 kJ/mol
# Density = 2.474043 g / cm^3
# Si number density = 24.796869 Si / 1000 Ang^3
#
#
#
# Elastic Constant Matrix: (Units=GPa)
#
#
# Indices 1 2 3 4 5 6 
#
# 1 114.2615 37.4038 49.0507 0.0000 0.0000 0.0000
# 2 37.4038 74.6761 28.6042 0.0000 0.0000 0.0000
# 3 49.0507 28.6042 130.3406 0.0000 0.0000 0.0000
# 4 0.0000 0.0000 0.0000 29.4756 0.0000 0.0000
# 5 0.0000 0.0000 0.0000 0.0000 54.4389 0.0000
# 6 0.0000 0.0000 0.0000 0.0000 0.0000 31.7079
#
#
#
# Elastic Compliance Matrix: (Units=1/GPa)
#
#
# Indices 1 2 3 4 5 6 
#
# 1 0.011706 -0.004559 -0.003405 0.000000 0.000000 0.000000
# 2 -0.004559 0.016396 -0.001882 0.000000 0.000000 0.000000
# 3 -0.003405 -0.001882 0.009367 0.000000 0.000000 0.000000
# 4 0.000000 0.000000 0.000000 0.033926 0.000000 0.000000
# 5 0.000000 0.000000 0.000000 0.000000 0.018369 0.000000
# 6 0.000000 0.000000 0.000000 0.000000 0.000000 0.031538
#
#
# Mechanical properties :
#
#
# Convention : Reuss Voigt Hill
#
# Bulk Modulus (GPa) = 56.25646 61.04397 58.65021
# Shear Modulus (GPa) = 34.03225 36.73912 35.38569
#
# Velocity S-wave (km/s) = 3.70867 3.85334 3.78169
# Velocity P-wave (km/s) = 6.40899 6.66848 6.54002
#
# Compressibility (1/GPa) = 0.01777574
#
# Stress axis : x y z
#
# Youngs Moduli (GPa) = 85.42723 60.99130 106.76211
#
# Poissons Ratio (x) = 0.27806 0.36349
# Poissons Ratio (y) = 0.38947 0.20098
# Poissons Ratio (z) = 0.29086 0.11481
#
# Static dielectric constant tensor:
#      x y z
#    x 4.874430 0.000000 0.000000 
#    y 0.000000 3.951590 0.000000 
#    z 0.000000 0.000000 4.394210 
# 
# 
# High freq. dielectric constant tensor:
#      x y z
#    x 2.006070 0.000000 0.000000 
#    y 0.000000 1.949750 0.000000 
#    z 0.000000 0.000000 1.997950 
# 
# From -- ./inp_files/1744.got.cif
#   From: 2010.03.12/outbox.cif.g09.slc.cpg/sg29_1_cif.got.tgz:1744.got - 2010.04.14 03:43:10.
