data_PCOD8169865
_publ_section_title
;
Structure prediction by ZEFSAII (Michael W. Deem and Ramdas Pophale) SiO2 
 PCOD8169865
Probable space group: P M N 21
;
_chemical_formula_sum "Si O2"
_cell_formula_units_Z 32
_cell_length_a 9.128562
_cell_length_b 11.300502
_cell_length_c 16.097542
_cell_angle_alpha 90.000000
_cell_angle_beta 90.000000
_cell_angle_gamma 90.000000
_cell_volume 1660.579503
_symmetry_space_group_name_H-M "P M N 21"
_symmetry_group_IT_number 31
_symmetry_cell_setting 'orthorhombic'
loop_
_space_group_symop_operation_xyz
x,y,z
1/2-x,-y,1/2+z
-x,y,z
1/2+x,-y,1/2+z
loop_
_atom_site_type_symbol
_atom_site_label
_atom_site_fract_x
_atom_site_fract_y
_atom_site_fract_z
Si Si1 0.662454 0.692065 0.274110
Si Si2 0.173877 0.930607 0.285765
Si Si3 0.174476 0.551195 0.825057
Si Si4 0.671237 0.334145 0.157127
Si Si5 0.326925 0.910191 0.628179
Si Si6 0.327630 0.286944 0.468795
Si Si7 0.826064 0.977830 0.951695
Si Si8 0.658871 0.580353 0.096235
O O1 0.500000 0.740381 0.300118
O O2 0.778025 0.796929 0.265992
O O3 0.721067 0.587520 0.335510
O O4 0.646187 0.617287 0.190929
O O5 0.000000 0.935774 0.295524
O O6 0.226617 0.012627 0.208213
O O7 0.247766 0.962757 0.373232
O O8 0.235267 0.620447 0.744807
O O9 0.240435 0.622564 0.902460
O O10 0.000000 0.556857 0.823152
O O11 0.500000 0.301813 0.163071
O O12 0.758150 0.218996 0.129445
O O13 0.698820 0.440531 0.091177
O O14 0.500000 0.898815 0.631810
O O15 0.278117 0.967227 0.540339
O O16 0.500000 0.282406 0.465620
O O17 0.267508 0.156131 0.452909
O O18 0.280782 0.335416 0.557750
O O19 0.000000 0.987891 0.939115
O O20 0.500000 0.600632 0.053364
#
# Coordination Sequence:
#
# PCOD8169865 Si02
#       8
#     4   4   4   4   4   4   4   4
#     4   9  18  35  56  76 103 140 177 213 263 326
#     4  11  23  38  57  83 113 143 181 231 276 314
#     4   8  16  32  54  78 101 131 175 221 263 317
#     4   9  18  35  57  78 103 138 180 220 263 320
#     4  10  22  38  55  79 113 147 180 225 274 318
#     4  10  19  33  55  78 102 137 179 220 265 319
#     4  10  22  39  57  79 109 148 189 222 264 331
#     4   9  19  34  53  79 108 136 171 220 270 317
#
# _framework density 19.270382000000001
#
# number of rings (size 3 to 8) (size 9 to 14) (size 15 to 20)
#    0.000    2.500    0.000    3.375    0.000    6.000 
#    0.000    6.875    0.000    0.000    0.000    0.000 
#    0.000    0.000    0.000    0.000    0.000    0.000 
#
# Total GULP energy -396567.864157 kJ/mol
# GULP energy per Si atom -12392.745755 kJ/mol
# Density = 1.922652 g / cm^3
# Si number density = 19.270382 Si / 1000 Ang^3
#
#
#
# Elastic Constant Matrix: (Units=GPa)
#
#
# Indices 1 2 3 4 5 6 
#
# 1 26.3185 36.8877 30.9546 0.0000 0.0000 0.0000
# 2 36.8877 147.3017 44.7679 0.0000 0.0000 0.0000
# 3 30.9546 44.7679 89.6202 0.0000 0.0000 0.0000
# 4 0.0000 0.0000 0.0000 31.2044 0.0000 0.0000
# 5 0.0000 0.0000 0.0000 0.0000 27.3935 0.0000
# 6 0.0000 0.0000 0.0000 0.0000 0.0000 32.9201
#
#
#
# Elastic Compliance Matrix: (Units=1/GPa)
#
#
# Indices 1 2 3 4 5 6 
#
# 1 0.083662 -0.014347 -0.021730 0.000000 0.000000 0.000000
# 2 -0.014347 0.010464 -0.000272 0.000000 0.000000 0.000000
# 3 -0.021730 -0.000272 0.018799 0.000000 0.000000 0.000000
# 4 0.000000 0.000000 0.000000 0.032047 0.000000 0.000000
# 5 0.000000 0.000000 0.000000 0.000000 0.036505 0.000000
# 6 0.000000 0.000000 0.000000 0.000000 0.000000 0.030377
#
#
# Mechanical properties :
#
#
# Convention : Reuss Voigt Hill
#
# Bulk Modulus (GPa) = 24.85799 54.27341 39.56570
# Shear Modulus (GPa) = 16.78075 28.34562 22.56318
#
# Velocity S-wave (km/s) = 2.95414 3.83945 3.42552
# Velocity P-wave (km/s) = 4.95616 6.91957 6.01847
#
# Compressibility (1/GPa) = 0.04022852
#
# Stress axis : x y z
#
# Youngs Moduli (GPa) = 11.95286 95.56456 53.19292
#
# Poissons Ratio (x) = 1.37103 1.15588
# Poissons Ratio (y) = 0.17148 0.01446
# Poissons Ratio (z) = 0.25974 0.02598
#
# Static dielectric constant tensor:
#      x y z
#    x 3.262470 0.000000 0.000000 
#    y 0.000000 3.760240 0.000000 
#    z 0.000000 0.000000 3.617180 
# 
# 
# High freq. dielectric constant tensor:
#      x y z
#    x 1.724510 0.000000 0.000000 
#    y 0.000000 1.766940 0.000000 
#    z 0.000000 0.000000 1.746590 
# 
# From -- ./inp_files/5829.got.cif
#   From: 2010.03.12/outbox.cif.g09.slc.cpg/sg31_3_cif.got.tgz:5829.got - 2010.04.14 01:42:59.
