data_PCOD8169768
_publ_section_title
;
Structure prediction by ZEFSAII (Michael W. Deem and Ramdas Pophale) SiO2 
 PCOD8169768
Probable space group: P M N 21
;
_chemical_formula_sum "Si O2"
_cell_formula_units_Z 32
_cell_length_a 8.684732
_cell_length_b 15.303774
_cell_length_c 12.140899
_cell_angle_alpha 90.000000
_cell_angle_beta 90.000000
_cell_angle_gamma 90.000000
_cell_volume 1613.636879
_symmetry_space_group_name_H-M "P M N 21"
_symmetry_group_IT_number 31
_symmetry_cell_setting 'orthorhombic'
loop_
_space_group_symop_operation_xyz
x,y,z
1/2-x,-y,1/2+z
-x,y,z
1/2+x,-y,1/2+z
loop_
_atom_site_type_symbol
_atom_site_label
_atom_site_fract_x
_atom_site_fract_y
_atom_site_fract_z
Si Si1 0.683650 0.586111 0.143900
Si Si2 0.317689 0.753595 0.287975
Si Si3 0.316577 0.915578 0.143392
Si Si4 0.327443 0.851031 0.912980
Si Si5 0.317290 0.258212 0.030299
Si Si6 0.182345 0.400852 0.183015
Si Si7 0.319958 0.106808 0.189558
Si Si8 0.328022 0.651418 0.916329
O O1 0.500000 0.572987 0.145565
O O2 0.730920 0.667192 0.221056
O O3 0.771848 0.501572 0.185438
O O4 0.747401 0.601251 0.019512
O O5 0.500000 0.758266 0.302797
O O6 0.253824 0.839516 0.224051
O O7 0.240468 0.751164 0.406756
O O8 0.500000 0.911973 0.147594
O O9 0.248155 0.009907 0.176971
O O10 0.262009 0.903264 0.017508
O O11 0.500000 0.881656 0.879503
O O12 0.212958 0.861721 0.812147
O O13 0.330345 0.751565 0.951255
O O14 0.500000 0.259612 0.031736
O O15 0.258249 0.348959 0.082036
O O16 0.251413 0.176292 0.101850
O O17 0.252691 0.363197 0.298121
O O18 0.000000 0.388510 0.173085
O O19 0.500000 0.100698 0.170015
O O20 0.500000 0.614727 0.902082
#
# Coordination Sequence:
#
# PCOD8169768 Si02
#       8
#     4   4   4   4   4   4   4   4
#     4  10  21  39  61  87 116 149 187 237 294 342
#     4  10  21  39  62  85 115 155 196 235 285 350
#     4   9  19  37  61  86 116 153 192 234 287 345
#     4  10  18  36  64  85 107 148 196 239 281 339
#     4  11  24  40  57  82 121 159 192 238 292 338
#     4  11  23  39  60  88 116 150 195 237 282 348
#     4  10  22  38  56  85 120 153 189 237 290 338
#     4   9  18  36  61  84 109 143 189 237 283 336
#
# _framework density 19.830977000000001
#
# number of rings (size 3 to 8) (size 9 to 14) (size 15 to 20)
#    0.000    2.000    2.500    0.750    3.500    1.000 
#    0.000    2.500    0.000    0.000    0.000    0.000 
#    0.000    0.000    0.000    0.000    0.000    0.000 
#
# Total GULP energy -396724.828248 kJ/mol
# GULP energy per Si atom -12397.650883 kJ/mol
# Density = 1.978584 g / cm^3
# Si number density = 19.830977 Si / 1000 Ang^3
#
#
#
# Elastic Constant Matrix: (Units=GPa)
#
#
# Indices 1 2 3 4 5 6 
#
# 1 29.6825 25.6382 24.2414 0.0000 0.0000 0.0000
# 2 25.6382 127.3077 53.3463 0.0000 0.0000 0.0000
# 3 24.2414 53.3463 145.0443 0.0000 0.0000 0.0000
# 4 0.0000 0.0000 0.0000 32.9532 0.0000 0.0000
# 5 0.0000 0.0000 0.0000 0.0000 19.4574 0.0000
# 6 0.0000 0.0000 0.0000 0.0000 0.0000 20.3071
#
#
#
# Elastic Compliance Matrix: (Units=1/GPa)
#
#
# Indices 1 2 3 4 5 6 
#
# 1 0.043414 -0.006742 -0.004776 0.000000 0.000000 0.000000
# 2 -0.006742 0.010333 -0.002674 0.000000 0.000000 0.000000
# 3 -0.004776 -0.002674 0.008676 0.000000 0.000000 0.000000
# 4 0.000000 0.000000 0.000000 0.030346 0.000000 0.000000
# 5 0.000000 0.000000 0.000000 0.000000 0.051394 0.000000
# 6 0.000000 0.000000 0.000000 0.000000 0.000000 0.049244
#
#
# Mechanical properties :
#
#
# Convention : Reuss Voigt Hill
#
# Bulk Modulus (GPa) = 29.37749 56.49846 42.93798
# Shear Modulus (GPa) = 21.44667 27.79744 24.62206
#
# Velocity S-wave (km/s) = 3.29214 3.74801 3.52745
# Velocity P-wave (km/s) = 5.41267 6.87619 6.18785
#
# Compressibility (1/GPa) = 0.03403967
#
# Stress axis : x y z
#
# Youngs Moduli (GPa) = 23.03429 96.77717 115.25948
#
# Poissons Ratio (x) = 0.65243 0.55051
# Poissons Ratio (y) = 0.15529 0.30817
# Poissons Ratio (z) = 0.11002 0.25875
#
# Static dielectric constant tensor:
#      x y z
#    x 3.214600 0.000000 0.000000 
#    y 0.000000 3.809810 0.000000 
#    z 0.000000 0.000000 3.742670 
# 
# 
# High freq. dielectric constant tensor:
#      x y z
#    x 1.735370 0.000000 0.000000 
#    y 0.000000 1.783810 0.000000 
#    z 0.000000 0.000000 1.789540 
# 
# From -- ./inp_files/3607.got.cif
#   From: 2010.03.12/outbox.cif.g09.slc.cpg/sg31_2_cif.got.tgz:3607.got - 2010.04.14 01:42:59.
