data_PCOD8169999
_publ_section_title
;
Structure prediction by ZEFSAII (Michael W. Deem and Ramdas Pophale) SiO2 
 PCOD8169999
Probable space group: P M N 21
;
_chemical_formula_sum "Si O2"
_cell_formula_units_Z 32
_cell_length_a 14.179618
_cell_length_b 9.233938
_cell_length_c 11.898736
_cell_angle_alpha 90.000000
_cell_angle_beta 90.000000
_cell_angle_gamma 90.000000
_cell_volume 1557.945690
_symmetry_space_group_name_H-M "P M N 21"
_symmetry_group_IT_number 31
_symmetry_cell_setting 'orthorhombic'
loop_
_space_group_symop_operation_xyz
x,y,z
1/2-x,-y,1/2+z
-x,y,z
1/2+x,-y,1/2+z
loop_
_atom_site_type_symbol
_atom_site_label
_atom_site_fract_x
_atom_site_fract_y
_atom_site_fract_z
Si Si1 0.132797 0.171553 0.590050
Si Si2 0.240790 0.844309 0.402532
Si Si3 0.605114 0.646620 0.305053
Si Si4 0.825129 0.871236 0.004914
Si Si5 0.892726 0.838932 0.606641
Si Si6 0.190108 0.667555 0.811006
Si Si7 0.602474 0.052592 0.729092
Si Si8 0.602638 0.749054 0.838490
O O1 0.095043 0.282812 0.682165
O O2 0.244497 0.189133 0.586861
O O3 0.090803 0.201684 0.467252
O O4 0.103416 0.010506 0.626931
O O5 0.326719 0.732855 0.389691
O O6 0.167362 0.794523 0.497379
O O7 0.183102 0.850750 0.286344
O O8 0.284073 0.000822 0.428269
O O9 0.500000 0.642079 0.358070
O O10 0.644988 0.486800 0.291440
O O11 0.902920 0.926359 0.093267
O O12 0.856409 0.741765 0.922159
O O13 0.836868 0.768884 0.708449
O O14 0.000000 0.779328 0.596943
O O15 0.304637 0.648739 0.822522
O O16 0.500000 0.098520 0.776827
O O17 0.620778 0.885252 0.757431
O O18 0.500000 0.676384 0.806584
#
# Coordination Sequence:
#
# PCOD8169999 Si02
#       8
#     4   4   4   4   4   4   4   4
#     4  10  19  37  66  95 123 159 210 267 324 381
#     4  11  22  40  65  94 127 161 210 267 325 373
#     4  12  26  42  61  89 131 179 218 258 316 384
#     4  10  21  39  68  91 127 165 206 265 324 371
#     4  11  21  38  67  98 124 159 213 272 320 375
#     4  11  24  41  61  90 131 174 219 261 310 375
#     4  11  20  36  66 102 128 157 202 261 328 386
#     4  10  19  37  66  97 127 162 210 267 329 385
#
# _framework density 20.539868999999999
#
# number of rings (size 3 to 8) (size 9 to 14) (size 15 to 20)
#    0.000    1.250    5.000    4.125    0.000    3.500 
#    0.000    3.125    0.000    0.000    0.000    0.000 
#    0.000    0.000    0.000    0.000    0.000    0.000 
#
# Total GULP energy -396583.602327 kJ/mol
# GULP energy per Si atom -12393.237573 kJ/mol
# Density = 2.049312 g / cm^3
# Si number density = 20.539869 Si / 1000 Ang^3
#
#
#
# Elastic Constant Matrix: (Units=GPa)
#
#
# Indices 1 2 3 4 5 6 
#
# 1 140.9555 52.2745 46.2040 0.0000 0.0000 0.0000
# 2 52.2745 75.1694 43.2974 0.0000 0.0000 0.0000
# 3 46.2040 43.2974 112.6305 0.0000 0.0000 0.0000
# 4 0.0000 0.0000 0.0000 14.0075 0.0000 0.0000
# 5 0.0000 0.0000 0.0000 0.0000 16.4112 0.0000
# 6 0.0000 0.0000 0.0000 0.0000 0.0000 66.4629
#
#
#
# Elastic Compliance Matrix: (Units=1/GPa)
#
#
# Indices 1 2 3 4 5 6 
#
# 1 0.009838 -0.005801 -0.001806 0.000000 0.000000 0.000000
# 2 -0.005801 0.020508 -0.005504 0.000000 0.000000 0.000000
# 3 -0.001806 -0.005504 0.011735 0.000000 0.000000 0.000000
# 4 0.000000 0.000000 0.000000 0.071390 0.000000 0.000000
# 5 0.000000 0.000000 0.000000 0.000000 0.060934 0.000000
# 6 0.000000 0.000000 0.000000 0.000000 0.000000 0.015046
#
#
# Mechanical properties :
#
#
# Convention : Reuss Voigt Hill
#
# Bulk Modulus (GPa) = 63.05461 68.03415 65.54438
# Shear Modulus (GPa) = 22.62861 31.84160 27.23511
#
# Velocity S-wave (km/s) = 3.32278 3.94157 3.64533
# Velocity P-wave (km/s) = 6.74436 7.34231 7.04968
#
# Compressibility (1/GPa) = 0.01585927
#
# Stress axis : x y z
#
# Youngs Moduli (GPa) = 101.64880 48.76168 85.21506
#
# Poissons Ratio (x) = 0.28289 0.15386
# Poissons Ratio (y) = 0.58971 0.46900
# Poissons Ratio (z) = 0.18353 0.26837
#
# Static dielectric constant tensor:
#      x y z
#    x 3.130130 0.000000 0.000000 
#    y 0.000000 3.424190 0.000000 
#    z 0.000000 0.000000 3.787420 
# 
# 
# High freq. dielectric constant tensor:
#      x y z
#    x 1.823570 0.000000 0.000000 
#    y 0.000000 1.762390 0.000000 
#    z 0.000000 0.000000 1.807400 
# 
# From -- ./inp_files/4271.got.cif
#   From: 2010.03.12/outbox.cif.g09.slc.cpg/sg31_3_cif.got.tgz:4271.got - 2010.04.14 01:42:59.
