data_PCOD8169731
_publ_section_title
;
Structure prediction by ZEFSAII (Michael W. Deem and Ramdas Pophale) SiO2 
 PCOD8169731
Probable space group: P M N 21
;
_chemical_formula_sum "Si O2"
_cell_formula_units_Z 24
_cell_length_a 17.728146
_cell_length_b 14.954536
_cell_length_c 5.064979
_cell_angle_alpha 90.000000
_cell_angle_beta 90.000000
_cell_angle_gamma 90.000000
_cell_volume 1342.807973
_symmetry_space_group_name_H-M "P M N 21"
_symmetry_group_IT_number 31
_symmetry_cell_setting 'orthorhombic'
loop_
_space_group_symop_operation_xyz
x,y,z
1/2-x,-y,1/2+z
-x,y,z
1/2+x,-y,1/2+z
loop_
_atom_site_type_symbol
_atom_site_label
_atom_site_fract_x
_atom_site_fract_y
_atom_site_fract_z
Si Si1 0.751952 0.201372 0.706480
Si Si2 0.350676 0.503822 0.735963
Si Si3 0.295014 0.983945 0.305186
Si Si4 0.199099 0.397036 0.736176
Si Si5 0.500000 0.271367 0.279766
Si Si6 0.653018 0.166281 0.206919
Si Si7 0.500000 0.390704 0.779624
O O1 0.812751 0.119566 0.733604
O O2 0.800430 0.290244 0.745635
O O3 0.712703 0.202761 0.420856
O O4 0.685538 0.191179 0.920973
O O5 0.285023 0.430291 0.738221
O O6 0.347170 0.566163 0.481855
O O7 0.428005 0.451526 0.734406
O O8 0.345487 0.569689 0.982055
O O9 0.275926 0.989948 0.615721
O O10 0.358855 0.058211 0.238611
O O11 0.572699 0.210917 0.238517
O O12 0.500000 0.308950 0.575367
O O13 0.500000 0.353333 0.076020
#
# Coordination Sequence:
#
# PCOD8169731 Si02
#       7
#     4   4   4   4   2   4   2
#     4  10  18  32  53  74  99 129 170 210 247 296
#     4  10  21  34  50  71 101 129 164 210 254 291
#     4   8  16  29  47  71  98 125 153 195 240 278
#     4  10  19  33  52  75  96 128 169 212 247 287
#     4  12  22  32  52  74 102 136 162 194 248 312
#     4  10  19  31  48  76 105 130 162 203 250 302
#     4  12  24  38  52  74 104 138 166 202 260 318
#
# _framework density 17.872997000000002
#
# number of rings (size 3 to 8) (size 9 to 14) (size 15 to 20)
#    0.000    2.000    0.000    5.000    0.000    2.667 
#    0.000    0.000    0.000    2.000    0.000    0.000 
#    0.000    0.000    0.000    0.000    0.000    0.000 
#
# Total GULP energy -297531.737926 kJ/mol
# GULP energy per Si atom -12397.155747 kJ/mol
# Density = 1.783232 g / cm^3
# Si number density = 17.872997 Si / 1000 Ang^3
#
#
#
# Elastic Constant Matrix: (Units=GPa)
#
#
# Indices 1 2 3 4 5 6 
#
# 1 75.8169 45.0555 16.3038 0.0000 0.0000 0.0000
# 2 45.0555 153.2956 29.3969 0.0000 0.0000 0.0000
# 3 16.3038 29.3969 101.9815 0.0000 0.0000 0.0000
# 4 0.0000 0.0000 0.0000 10.5174 0.0000 0.0000
# 5 0.0000 0.0000 0.0000 0.0000 14.3566 0.0000
# 6 0.0000 0.0000 0.0000 0.0000 0.0000 -45.6839
#
#
#
# Elastic Compliance Matrix: (Units=1/GPa)
#
#
# Indices 1 2 3 4 5 6 
#
# 1 0.016138 -0.004497 -0.001284 0.000000 0.000000 0.000000
# 2 -0.004497 0.008158 -0.001633 0.000000 0.000000 0.000000
# 3 -0.001284 -0.001633 0.010482 0.000000 0.000000 0.000000
# 4 0.000000 0.000000 0.000000 0.095080 0.000000 0.000000
# 5 0.000000 0.000000 0.000000 0.000000 0.069655 0.000000
# 6 0.000000 0.000000 0.000000 0.000000 0.000000 -0.021890
#
#
# Mechanical properties :
#
#
# Convention : Reuss Voigt Hill
#
# Bulk Modulus (GPa) = 50.12281 56.95628 53.53954
# Shear Modulus (GPa) = 25.11295 11.86054 18.48675
#
# Velocity S-wave (km/s) = 3.75250 2.57884 3.21960
# Velocity P-wave (km/s) = 6.84688 6.38777 6.62131
#
# Compressibility (1/GPa) = 0.01995100
#
# Stress axis : x y z
#
# Youngs Moduli (GPa) = 61.96491 122.57637 95.40558
#
# Poissons Ratio (x) = 0.55123 0.12247
# Poissons Ratio (y) = 0.27866 0.15577
# Poissons Ratio (z) = 0.07954 0.20013
#
# Static dielectric constant tensor:
#      x y z
#    x 2.912510 0.000000 0.000000 
#    y 0.000000 3.582570 0.000000 
#    z 0.000000 0.000000 3.607550 
# 
# 
# High freq. dielectric constant tensor:
#      x y z
#    x 1.639160 0.000000 0.000000 
#    y 0.000000 1.707550 0.000000 
#    z 0.000000 0.000000 1.719560 
# 
# From -- ./inp_files/630.got.cif
#   From: 2010.03.12/outbox.cif.g09.slc.cpg/sg31_1_cif.got.tgz:630.got - 2010.04.14 01:42:59.
