data_PCOD8169875
_publ_section_title
;
Structure prediction by ZEFSAII (Michael W. Deem and Ramdas Pophale) SiO2 
 PCOD8169875
Probable space group: P M N 21
;
_chemical_formula_sum "Si O2"
_cell_formula_units_Z 24
_cell_length_a 8.545908
_cell_length_b 19.044768
_cell_length_c 7.562287
_cell_angle_alpha 90.000000
_cell_angle_beta 90.000000
_cell_angle_gamma 90.000000
_cell_volume 1230.798774
_symmetry_space_group_name_H-M "P M N 21"
_symmetry_group_IT_number 31
_symmetry_cell_setting 'orthorhombic'
loop_
_space_group_symop_operation_xyz
x,y,z
1/2-x,-y,1/2+z
-x,y,z
1/2+x,-y,1/2+z
loop_
_atom_site_type_symbol
_atom_site_label
_atom_site_fract_x
_atom_site_fract_y
_atom_site_fract_z
Si Si1 0.184862 0.926495 0.339250
Si Si2 0.815151 0.923905 0.733661
Si Si3 0.681725 0.571685 0.366881
Si Si4 0.819391 0.425008 0.271230
Si Si5 0.813987 0.824462 0.038634
Si Si6 0.183503 0.666628 0.073772
O O1 0.239646 0.905245 0.535751
O O2 0.252336 0.867896 0.206073
O O3 0.000000 0.929525 0.324069
O O4 0.247259 0.002456 0.292706
O O5 0.000000 0.930165 0.747349
O O6 0.752026 0.862134 0.860685
O O7 0.500000 0.551416 0.347486
O O8 0.785995 0.506420 0.306499
O O9 0.720989 0.592962 0.568153
O O10 0.723546 0.636497 0.241243
O O11 0.712952 0.377221 0.396008
O O12 0.000000 0.410034 0.314632
O O13 0.751167 0.745147 0.044577
O O14 0.000000 0.823635 0.041018
O O15 0.000000 0.665375 0.116694
#
# Coordination Sequence:
#
# PCOD8169875 Si02
#       6
#     4   4   4   4   4   4
#     4  10  19  33  56  83 110 146 191 236 284 338
#     4  10  19  33  56  83 110 146 191 236 284 338
#     4  11  23  39  62  89 118 154 197 243 293 351
#     4  11  23  39  62  89 118 154 197 243 293 351
#     4   9  20  37  55  81 118 151 188 235 287 346
#     4  11  23  39  61  89 120 157 196 243 297 348
#
# _framework density 19.499531000000001
#
# number of rings (size 3 to 8) (size 9 to 14) (size 15 to 20)
#    0.000    1.667    3.333    1.500    0.000    3.333 
#    0.000    6.667    0.000    0.000    0.000    0.000 
#    0.000    0.000    0.000    0.000    0.000    0.000 
#
# Total GULP energy -297657.079961 kJ/mol
# GULP energy per Si atom -12402.378332 kJ/mol
# Density = 1.945515 g / cm^3
# Si number density = 19.499531 Si / 1000 Ang^3
#
#
#
# Elastic Constant Matrix: (Units=GPa)
#
#
# Indices 1 2 3 4 5 6 
#
# 1 25.5443 3.1460 22.6665 0.0000 0.0000 0.0000
# 2 3.1460 96.8026 29.1599 0.0000 0.0000 0.0000
# 3 22.6665 29.1599 140.2218 0.0000 0.0000 0.0000
# 4 0.0000 0.0000 0.0000 35.0692 0.0000 0.0000
# 5 0.0000 0.0000 0.0000 0.0000 33.0335 0.0000
# 6 0.0000 0.0000 0.0000 0.0000 0.0000 27.1586
#
#
#
# Elastic Compliance Matrix: (Units=1/GPa)
#
#
# Indices 1 2 3 4 5 6 
#
# 1 0.045760 0.000791 -0.007561 0.000000 0.000000 0.000000
# 2 0.000791 0.011034 -0.002422 0.000000 0.000000 0.000000
# 3 -0.007561 -0.002422 0.008858 0.000000 0.000000 0.000000
# 4 0.000000 0.000000 0.000000 0.028515 0.000000 0.000000
# 5 0.000000 0.000000 0.000000 0.000000 0.030272 0.000000
# 6 0.000000 0.000000 0.000000 0.000000 0.000000 0.036821
#
#
# Mechanical properties :
#
#
# Convention : Reuss Voigt Hill
#
# Bulk Modulus (GPa) = 21.15720 41.39038 31.27379
# Shear Modulus (GPa) = 25.58837 32.89202 29.24019
#
# Velocity S-wave (km/s) = 3.62644 4.11154 3.87658
# Velocity P-wave (km/s) = 5.32995 6.61907 6.00918
#
# Compressibility (1/GPa) = 0.04726524
#
# Stress axis : x y z
#
# Youngs Moduli (GPa) = 21.85327 90.62632 112.89755
#
# Poissons Ratio (x) = -0.07165 0.85366
# Poissons Ratio (y) = -0.01728 0.27349
# Poissons Ratio (z) = 0.16524 0.21954
#
# Static dielectric constant tensor:
#      x y z
#    x 3.318780 0.000000 0.000000 
#    y 0.000000 3.624150 0.000000 
#    z 0.000000 0.000000 4.053000 
# 
# 
# High freq. dielectric constant tensor:
#      x y z
#    x 1.742780 0.000000 0.000000 
#    y 0.000000 1.755260 0.000000 
#    z 0.000000 0.000000 1.779620 
# 
# From -- ./inp_files/1756.got.cif
#   From: 2010.03.12/outbox.cif.g09.slc.cpg/sg31_1_cif.got.tgz:1756.got - 2010.04.14 01:42:59.
