data_PCOD8169119
_publ_section_title
;
Structure prediction by ZEFSAII (Michael W. Deem and Ramdas Pophale) SiO2 
 PCOD8169119
Probable space group: P C A 21
;
_chemical_formula_sum "Si O2"
_cell_formula_units_Z 12
_cell_length_a 10.340996
_cell_length_b 5.134106
_cell_length_c 10.127372
_cell_angle_alpha 90.000000
_cell_angle_beta 90.000000
_cell_angle_gamma 90.000000
_cell_volume 537.680101
_symmetry_space_group_name_H-M "P C A 21"
_symmetry_group_IT_number 29
_symmetry_cell_setting 'orthorhombic'
loop_
_space_group_symop_operation_xyz
x,y,z
-x,-y,1/2+z
1/2-x,y,1/2+z
1/2+x,-y,z
loop_
_atom_site_type_symbol
_atom_site_label
_atom_site_fract_x
_atom_site_fract_y
_atom_site_fract_z
Si Si1 0.812236 0.771148 0.437070
Si Si2 0.161430 0.449974 0.658521
Si Si3 0.923679 0.035518 0.030755
O O1 0.801386 0.583172 0.310993
O O2 0.789398 0.593782 0.567745
O O3 0.951533 0.907183 0.442567
O O4 0.698964 0.992042 0.431712
O O5 0.103725 0.734505 0.634918
O O6 0.056013 0.228511 0.616337
#
# Coordination Sequence:
#
# PCOD8169119 Si02
#       3
#     4   4   4
#     4  10  26  44  71 101 139 183 229 292 349 413
#     4  10  26  40  73  96 143 173 236 281 351 418
#     4  10  26  42  70 101 136 182 231 281 354 411
#
# _framework density 22.318102
#
# number of rings (size 3 to 8) (size 9 to 14) (size 15 to 20)
#    2.000    0.000    0.000    0.000   14.000    2.667 
#    0.000    0.000    0.000    0.000    0.000    0.000 
#    0.000    0.000    0.000    0.000    0.000    0.000 
#
# Total GULP energy -148689.579761 kJ/mol
# GULP energy per Si atom -12390.798313 kJ/mol
# Density = 2.226730 g / cm^3
# Si number density = 22.318102 Si / 1000 Ang^3
#
#
#
# Elastic Constant Matrix: (Units=GPa)
#
#
# Indices 1 2 3 4 5 6 
#
# 1 132.7527 12.6395 35.9788 0.0000 0.0000 0.0000
# 2 12.6395 95.9921 8.4259 0.0000 0.0000 0.0000
# 3 35.9788 8.4259 125.9467 0.0000 0.0000 0.0000
# 4 0.0000 0.0000 0.0000 32.7370 0.0000 0.0000
# 5 0.0000 0.0000 0.0000 0.0000 23.7020 0.0000
# 6 0.0000 0.0000 0.0000 0.0000 0.0000 17.2721
#
#
#
# Elastic Compliance Matrix: (Units=1/GPa)
#
#
# Indices 1 2 3 4 5 6 
#
# 1 0.008239 -0.000883 -0.002294 0.000000 0.000000 0.000000
# 2 -0.000883 0.010574 -0.000455 0.000000 0.000000 0.000000
# 3 -0.002294 -0.000455 0.008626 0.000000 0.000000 0.000000
# 4 0.000000 0.000000 0.000000 0.030547 0.000000 0.000000
# 5 0.000000 0.000000 0.000000 0.000000 0.042191 0.000000
# 6 0.000000 0.000000 0.000000 0.000000 0.000000 0.057897
#
#
# Mechanical properties :
#
#
# Convention : Reuss Voigt Hill
#
# Bulk Modulus (GPa) = 49.57236 52.08664 50.82950
# Shear Modulus (GPa) = 29.05927 34.58537 31.82232
#
# Velocity S-wave (km/s) = 3.61231 3.94084 3.78014
# Velocity P-wave (km/s) = 6.29748 6.64047 6.47125
#
# Compressibility (1/GPa) = 0.02017253
#
# Stress axis : x y z
#
# Youngs Moduli (GPa) = 121.37756 94.57355 115.93190
#
# Poissons Ratio (x) = 0.08355 0.26600
# Poissons Ratio (y) = 0.10723 0.05275
# Poissons Ratio (z) = 0.27849 0.04303
#
# Static dielectric constant tensor:
#      x y z
#    x 3.795480 0.000000 0.000000 
#    y 0.000000 3.852900 0.000000 
#    z 0.000000 0.000000 3.642500 
# 
# 
# High freq. dielectric constant tensor:
#      x y z
#    x 1.861810 0.000000 0.000000 
#    y 0.000000 1.879420 0.000000 
#    z 0.000000 0.000000 1.865630 
# 
# From -- ./inp_files/1287.got.cif
#   From: 2010.03.12/outbox.cif.g09.slc.cpg/sg29_1_cif.got.tgz:1287.got - 2010.04.14 03:43:10.
