data_PCOD8169735
_publ_section_title
;
Structure prediction by ZEFSAII (Michael W. Deem and Ramdas Pophale) SiO2 
 PCOD8169735
Probable space group: P M N 21
;
_chemical_formula_sum "Si O2"
_cell_formula_units_Z 32
_cell_length_a 8.730464
_cell_length_b 12.147002
_cell_length_c 14.487256
_cell_angle_alpha 90.000000
_cell_angle_beta 90.000000
_cell_angle_gamma 90.000000
_cell_volume 1536.358485
_symmetry_space_group_name_H-M "P M N 21"
_symmetry_group_IT_number 31
_symmetry_cell_setting 'orthorhombic'
loop_
_space_group_symop_operation_xyz
x,y,z
1/2-x,-y,1/2+z
-x,y,z
1/2+x,-y,1/2+z
loop_
_atom_site_type_symbol
_atom_site_label
_atom_site_fract_x
_atom_site_fract_y
_atom_site_fract_z
Si Si1 0.677792 0.389185 0.442770
Si Si2 0.180686 0.841510 0.526387
Si Si3 0.676797 0.468894 0.250416
Si Si4 0.679455 0.902768 0.341462
Si Si5 0.680071 0.408217 0.048218
Si Si6 0.329264 0.306446 0.763605
Si Si7 0.670001 0.207977 0.570139
Si Si8 0.816893 0.005570 0.167579
O O1 0.500000 0.391865 0.470624
O O2 0.699560 0.379813 0.332322
O O3 0.748115 0.501411 0.481800
O O4 0.752436 0.277840 0.487978
O O5 0.246836 0.915380 0.442924
O O6 0.226258 0.713461 0.512818
O O7 0.256745 0.882191 0.622361
O O8 0.000000 0.857110 0.533931
O O9 0.500000 0.504445 0.241415
O O10 0.738504 0.420836 0.153989
O O11 0.774022 0.572021 0.285319
O O12 0.500000 0.924557 0.348445
O O13 0.712677 0.779656 0.307703
O O14 0.752562 0.991911 0.271385
O O15 0.500000 0.423945 0.045190
O O16 0.500000 0.287907 0.806156
O O17 0.334147 0.293683 0.654144
O O18 0.500000 0.174792 0.537584
O O19 0.750342 0.094968 0.603633
O O20 0.000000 0.000776 0.173600
#
# Coordination Sequence:
#
# PCOD8169735 Si02
#       8
#     4   4   4   4   4   4   4   4
#     4  10  19  34  56  82 111 149 192 234 287 358
#     4  11  23  41  61  86 123 162 203 249 302 360
#     4  10  20  33  52  81 115 150 192 237 289 353
#     4  11  22  38  62  91 117 154 204 251 301 355
#     4  10  22  38  55  83 121 157 192 243 297 348
#     4  10  18  32  55  81 113 150 191 240 290 343
#     4   8  16  32  54  79 105 140 184 234 288 342
#     4  10  21  40  63  89 119 152 198 252 306 361
#
# _framework density 20.828471
#
# number of rings (size 3 to 8) (size 9 to 14) (size 15 to 20)
#    0.000    2.000    1.250    3.750    0.000    3.500 
#    2.250    0.625    0.000    0.000    0.000    0.000 
#    0.000    0.000    0.000    0.000    0.000    0.000 
#
# Total GULP energy -396665.294265 kJ/mol
# GULP energy per Si atom -12395.790446 kJ/mol
# Density = 2.078106 g / cm^3
# Si number density = 20.828471 Si / 1000 Ang^3
#
#
#
# Elastic Constant Matrix: (Units=GPa)
#
#
# Indices 1 2 3 4 5 6 
#
# 1 68.6192 15.0420 21.5036 0.0000 0.0000 0.0000
# 2 15.0420 33.9340 4.8798 0.0000 0.0000 0.0000
# 3 21.5036 4.8798 98.7700 0.0000 0.0000 0.0000
# 4 0.0000 0.0000 0.0000 29.3348 0.0000 0.0000
# 5 0.0000 0.0000 0.0000 0.0000 27.5897 0.0000
# 6 0.0000 0.0000 0.0000 0.0000 0.0000 25.0282
#
#
#
# Elastic Compliance Matrix: (Units=1/GPa)
#
#
# Indices 1 2 3 4 5 6 
#
# 1 0.017201 -0.007137 -0.003392 0.000000 0.000000 0.000000
# 2 -0.007137 0.032641 -0.000059 0.000000 0.000000 0.000000
# 3 -0.003392 -0.000059 0.010866 0.000000 0.000000 0.000000
# 4 0.000000 0.000000 0.000000 0.034089 0.000000 0.000000
# 5 0.000000 0.000000 0.000000 0.000000 0.036245 0.000000
# 6 0.000000 0.000000 0.000000 0.000000 0.000000 0.039955
#
#
# Mechanical properties :
#
#
# Convention : Reuss Voigt Hill
#
# Bulk Modulus (GPa) = 25.29606 31.57489 28.43548
# Shear Modulus (GPa) = 24.34866 27.05041 25.69953
#
# Velocity S-wave (km/s) = 3.42279 3.60769 3.51645
# Velocity P-wave (km/s) = 5.27181 5.70494 5.49264
#
# Compressibility (1/GPa) = 0.03953185
#
# Stress axis : x y z
#
# Youngs Moduli (GPa) = 58.13725 30.63638 92.03040
#
# Poissons Ratio (x) = 0.21864 0.31219
# Poissons Ratio (y) = 0.41491 0.00542
# Poissons Ratio (z) = 0.19721 0.00180
#
# Static dielectric constant tensor:
#      x y z
#    x 3.574680 0.000000 0.000000 
#    y 0.000000 3.626640 0.000000 
#    z 0.000000 0.000000 3.951610 
# 
# 
# High freq. dielectric constant tensor:
#      x y z
#    x 1.795390 0.000000 0.000000 
#    y 0.000000 1.798770 0.000000 
#    z 0.000000 0.000000 1.826420 
# 
# From -- ./inp_files/4930.got.cif
#   From: 2010.03.12/outbox.cif.g09.slc.cpg/sg31_3_cif.got.tgz:4930.got - 2010.04.14 01:42:59.
