data_PCOD8169340
_publ_section_title
;
Structure prediction by ZEFSAII (Michael W. Deem and Ramdas Pophale) SiO2 
 PCOD8169340
Probable space group: P C A 21
;
_chemical_formula_sum "Si O2"
_cell_formula_units_Z 24
_cell_length_a 4.785795
_cell_length_b 16.459855
_cell_length_c 13.005619
_cell_angle_alpha 90.000000
_cell_angle_beta 90.000000
_cell_angle_gamma 90.000000
_cell_volume 1024.498021
_symmetry_space_group_name_H-M "P C A 21"
_symmetry_group_IT_number 29
_symmetry_cell_setting 'orthorhombic'
loop_
_space_group_symop_operation_xyz
x,y,z
-x,-y,1/2+z
1/2-x,y,1/2+z
1/2+x,-y,z
loop_
_atom_site_type_symbol
_atom_site_label
_atom_site_fract_x
_atom_site_fract_y
_atom_site_fract_z
Si Si1 0.468372 0.444498 0.485020
Si Si2 0.468371 0.055502 0.229165
Si Si3 0.926007 0.670362 0.300553
Si Si4 0.926005 0.829642 0.413634
Si Si5 0.093328 0.825064 0.053177
Si Si6 0.406675 0.674934 0.161009
O O1 0.787754 0.473614 0.490568
O O2 0.365677 0.399758 0.382344
O O3 0.439162 0.383893 0.580963
O O4 0.365680 0.100236 0.331846
O O5 0.439161 0.116114 0.133229
O O6 0.287751 0.973615 0.223611
O O7 0.050353 0.750003 0.357092
O O8 0.652239 0.700832 0.239180
O O9 0.162695 0.631899 0.226433
O O10 0.652233 0.799171 0.475004
O O11 0.162690 0.868103 0.487758
O O12 0.250003 0.749998 0.107090
#
# Coordination Sequence:
#
# PCOD8169340 Si02
#       6
#     4   4   4   4   4   4
#     4  12  28  47  71 109 150 188 242 314 372 435
#     4  12  28  47  71 109 150 188 242 314 372 435
#     4  12  26  45  77 106 143 194 247 300 367 447
#     4  12  26  45  77 106 143 194 247 300 367 447
#     4  12  26  46  76 107 144 195 251 299 367 447
#     4  12  26  46  76 107 144 195 251 299 367 447
#
# _framework density 23.426110000000001
#
# number of rings (size 3 to 8) (size 9 to 14) (size 15 to 20)
#    0.000    0.000    3.333    6.000    4.667    8.000 
#    0.000    0.000    0.000    0.000    0.000    0.000 
#    0.000    0.000    0.000    0.000    0.000    0.000 
#
# Total GULP energy -297603.881899 kJ/mol
# GULP energy per Si atom -12400.161746 kJ/mol
# Density = 2.337279 g / cm^3
# Si number density = 23.426110 Si / 1000 Ang^3
#
#
#
# Elastic Constant Matrix: (Units=GPa)
#
#
# Indices 1 2 3 4 5 6 
#
# 1 120.5089 14.7907 54.2024 0.0000 0.0000 0.0000
# 2 14.7907 92.9734 49.3229 0.0000 0.0000 0.0000
# 3 54.2024 49.3229 148.7607 0.0000 0.0000 0.0000
# 4 0.0000 0.0000 0.0000 28.3284 0.0000 0.0000
# 5 0.0000 0.0000 0.0000 0.0000 47.3615 0.0000
# 6 0.0000 0.0000 0.0000 0.0000 0.0000 40.3203
#
#
#
# Elastic Compliance Matrix: (Units=1/GPa)
#
#
# Indices 1 2 3 4 5 6 
#
# 1 0.009938 0.000413 -0.003758 0.000000 0.000000 0.000000
# 2 0.000413 0.013069 -0.004483 0.000000 0.000000 0.000000
# 3 -0.003758 -0.004483 0.009578 0.000000 0.000000 0.000000
# 4 0.000000 0.000000 0.000000 0.035300 0.000000 0.000000
# 5 0.000000 0.000000 0.000000 0.000000 0.021114 0.000000
# 6 0.000000 0.000000 0.000000 0.000000 0.000000 0.024801
#
#
# Mechanical properties :
#
#
# Convention : Reuss Voigt Hill
#
# Bulk Modulus (GPa) = 59.07672 66.54168 62.80920
# Shear Modulus (GPa) = 37.00987 39.46384 38.23686
#
# Velocity S-wave (km/s) = 3.97905 4.10885 4.04447
# Velocity P-wave (km/s) = 6.81055 7.13980 6.97712
#
# Compressibility (1/GPa) = 0.01692714
#
# Stress axis : x y z
#
# Youngs Moduli (GPa) = 100.62772 76.51959 104.40800
#
# Poissons Ratio (x) = -0.03157 0.39233
# Poissons Ratio (y) = -0.04151 0.46809
# Poissons Ratio (z) = 0.37812 0.34306
#
# Static dielectric constant tensor:
#      x y z
#    x 4.218930 0.000000 0.000000 
#    y 0.000000 3.905560 0.000000 
#    z 0.000000 0.000000 4.686320 
# 
# 
# High freq. dielectric constant tensor:
#      x y z
#    x 1.939510 0.000000 0.000000 
#    y 0.000000 1.911580 0.000000 
#    z 0.000000 0.000000 1.950910 
# 
# From -- ./inp_files/2681.got.cif
#   From: 2010.03.12/outbox.cif.g09.slc.cpg/sg29_2_cif.got.tgz:2681.got - 2010.04.14 03:43:10.
