data_PCOD8169717
_publ_section_title
;
Structure prediction by ZEFSAII (Michael W. Deem and Ramdas Pophale) SiO2 
 PCOD8169717
Probable space group: P M N 21
;
_chemical_formula_sum "Si O2"
_cell_formula_units_Z 32
_cell_length_a 13.229851
_cell_length_b 10.046116
_cell_length_c 13.797835
_cell_angle_alpha 90.000000
_cell_angle_beta 90.000000
_cell_angle_gamma 90.000000
_cell_volume 1833.851179
_symmetry_space_group_name_H-M "P M N 21"
_symmetry_group_IT_number 31
_symmetry_cell_setting 'orthorhombic'
loop_
_space_group_symop_operation_xyz
x,y,z
1/2-x,-y,1/2+z
-x,y,z
1/2+x,-y,1/2+z
loop_
_atom_site_type_symbol
_atom_site_label
_atom_site_fract_x
_atom_site_fract_y
_atom_site_fract_z
Si Si1 0.114871 0.068608 0.002830
Si Si2 0.617769 0.780159 0.840340
Si Si3 0.381478 0.438021 0.677754
Si Si4 0.117611 0.505287 0.389291
Si Si5 0.805991 0.288865 0.131067
Si Si6 0.118090 0.862303 0.169662
Si Si7 0.115605 0.733560 0.521811
Si Si8 0.696270 0.058169 0.875956
O O1 0.123791 0.211635 0.054328
O O2 0.000000 0.046145 0.967744
O O3 0.148325 0.954617 0.079407
O O4 0.186590 0.066008 0.908377
O O5 0.500000 0.797138 0.818795
O O6 0.639236 0.651011 0.907697
O O7 0.671265 0.760944 0.738020
O O8 0.660503 0.907664 0.894880
O O9 0.500000 0.472014 0.676123
O O10 0.336933 0.447186 0.786711
O O11 0.325749 0.553108 0.616199
O O12 0.359115 0.290118 0.637833
O O13 0.159597 0.596410 0.475314
O O14 0.000000 0.537543 0.384800
O O15 0.688792 0.247315 0.113499
O O16 0.184245 0.902073 0.263407
O O17 0.000000 0.880228 0.197091
O O18 0.125838 0.850050 0.442858
O O19 0.000000 0.725494 0.557783
#
# Coordination Sequence:
#
# PCOD8169717 Si02
#       8
#     4   4   4   4   4   4   4   4
#     4  10  21  35  51  74 105 135 170 210 256 306
#     4  10  18  31  52  76  99 127 168 212 249 293
#     4   9  16  28  49  74  95 118 159 207 248 289
#     4   8  15  27  45  69  96 122 154 204 254 285
#     4  10  19  30  51  76  97 133 166 204 250 298
#     4  10  18  32  55  78 102 132 167 215 254 293
#     4  10  19  32  48  74 103 130 165 207 253 300
#     4  11  20  31  54  77 101 133 172 209 257 298
#
# _framework density 17.449615999999999
#
# number of rings (size 3 to 8) (size 9 to 14) (size 15 to 20)
#    0.000    2.250    2.500    3.000    0.000    1.000 
#    0.000    0.625    0.000    0.750    0.000    0.000 
#    0.000    0.000    0.000    0.000    0.000    0.000 
#
# Total GULP energy -396659.571161 kJ/mol
# GULP energy per Si atom -12395.611599 kJ/mol
# Density = 1.740990 g / cm^3
# Si number density = 17.449616 Si / 1000 Ang^3
#
#
#
# Elastic Constant Matrix: (Units=GPa)
#
#
# Indices 1 2 3 4 5 6 
#
# 1 83.3596 31.6811 36.0515 0.0000 0.0000 0.0000
# 2 31.6811 118.4521 26.4773 0.0000 0.0000 0.0000
# 3 36.0515 26.4773 48.3974 0.0000 0.0000 0.0000
# 4 0.0000 0.0000 0.0000 20.8551 0.0000 0.0000
# 5 0.0000 0.0000 0.0000 0.0000 23.7088 0.0000
# 6 0.0000 0.0000 0.0000 0.0000 0.0000 18.0196
#
#
#
# Elastic Compliance Matrix: (Units=1/GPa)
#
#
# Indices 1 2 3 4 5 6 
#
# 1 0.018139 -0.002086 -0.012371 0.000000 0.000000 0.000000
# 2 -0.002086 0.009858 -0.003839 0.000000 0.000000 0.000000
# 3 -0.012371 -0.003839 0.031978 0.000000 0.000000 0.000000
# 4 0.000000 0.000000 0.000000 0.047950 0.000000 0.000000
# 5 0.000000 0.000000 0.000000 0.000000 0.042178 0.000000
# 6 0.000000 0.000000 0.000000 0.000000 0.000000 0.055495
#
#
# Mechanical properties :
#
#
# Convention : Reuss Voigt Hill
#
# Bulk Modulus (GPa) = 42.76639 48.73654 45.75146
# Shear Modulus (GPa) = 20.00119 22.91666 21.45892
#
# Velocity S-wave (km/s) = 3.38927 3.62789 3.51060
# Velocity P-wave (km/s) = 6.31489 6.74828 6.53518
#
# Compressibility (1/GPa) = 0.02338285
#
# Stress axis : x y z
#
# Youngs Moduli (GPa) = 55.12928 101.43632 31.27194
#
# Poissons Ratio (x) = 0.21163 0.38685
# Poissons Ratio (y) = 0.11502 0.12006
# Poissons Ratio (z) = 0.68198 0.38944
#
# Static dielectric constant tensor:
#      x y z
#    x 3.019430 0.000000 0.000000 
#    y 0.000000 3.662030 0.000000 
#    z 0.000000 0.000000 2.980330 
# 
# 
# High freq. dielectric constant tensor:
#      x y z
#    x 1.650360 0.000000 0.000000 
#    y 0.000000 1.698030 0.000000 
#    z 0.000000 0.000000 1.641220 
# 
# From -- ./inp_files/5465.got.cif
#   From: 2010.03.12/outbox.cif.g09.slc.cpg/sg31_3_cif.got.tgz:5465.got - 2010.04.14 01:42:59.
