data_PCOD8169962
_publ_section_title
;
Structure prediction by ZEFSAII (Michael W. Deem and Ramdas Pophale) SiO2 
 PCOD8169962
Probable space group: P M N 21
;
_chemical_formula_sum "Si O2"
_cell_formula_units_Z 32
_cell_length_a 8.845346
_cell_length_b 11.880719
_cell_length_c 15.005477
_cell_angle_alpha 90.000000
_cell_angle_beta 90.000000
_cell_angle_gamma 90.000000
_cell_volume 1576.911627
_symmetry_space_group_name_H-M "P M N 21"
_symmetry_group_IT_number 31
_symmetry_cell_setting 'orthorhombic'
loop_
_space_group_symop_operation_xyz
x,y,z
1/2-x,-y,1/2+z
-x,y,z
1/2+x,-y,1/2+z
loop_
_atom_site_type_symbol
_atom_site_label
_atom_site_fract_x
_atom_site_fract_y
_atom_site_fract_z
Si Si1 0.673179 0.277977 0.582310
Si Si2 0.173805 0.745404 0.284620
Si Si3 0.827333 0.495896 0.531943
Si Si4 0.827333 0.495896 0.324587
Si Si5 0.822443 0.140415 0.428265
Si Si6 0.173179 0.722023 0.774220
Si Si7 0.322097 0.897436 0.428265
Si Si8 0.326195 0.254596 0.071909
O O1 0.500000 0.271294 0.550095
O O2 0.691431 0.226165 0.680582
O O3 0.724222 0.408160 0.585748
O O4 0.778548 0.208591 0.516335
O O5 0.235484 0.620677 0.306139
O O6 0.269967 0.834966 0.339063
O O7 0.000000 0.753701 0.315780
O O8 0.815375 0.465973 0.428265
O O9 0.764516 0.620677 0.550391
O O10 0.000000 0.486254 0.565607
O O11 0.724222 0.408160 0.270781
O O12 0.000000 0.486254 0.290923
O O13 0.778548 0.208591 0.340195
O O14 0.000000 0.121158 0.428265
O O15 0.741207 0.022010 0.428265
O O16 0.191431 0.773835 0.675947
O O17 0.000000 0.728706 0.806434
O O18 0.500000 0.904851 0.428265
O O19 0.269967 0.834966 0.517466
O O20 0.500000 0.246299 0.040749
#
# Coordination Sequence:
#
# PCOD8169962 Si02
#       8
#     4   4   4   4   4   4   4   4
#     4  11  23  39  64  95 126 160 206 257 302 358
#     4  10  22  42  65  91 127 167 202 247 307 367
#     4  10  19  35  62  92 127 167 203 243 302 369
#     4  10  19  35  62  92 127 167 203 243 302 369
#     4  12  26  45  66  85 120 167 205 253 311 368
#     4  11  23  39  64  95 126 160 206 257 302 358
#     4  12  26  43  66  93 120 155 207 263 303 360
#     4  10  22  42  65  91 127 167 202 247 307 367
#
# _framework density 20.292829999999999
#
# number of rings (size 3 to 8) (size 9 to 14) (size 15 to 20)
#    0.000    1.250    2.500    3.750    0.000    4.000 
#    0.000    0.000    0.000    0.000    0.000    0.000 
#    0.000    0.000    0.000    0.000    0.000    0.000 
#
# Total GULP energy -397012.301005 kJ/mol
# GULP energy per Si atom -12406.634406 kJ/mol
# Density = 2.024664 g / cm^3
# Si number density = 20.292830 Si / 1000 Ang^3
#
#
#
# Elastic Constant Matrix: (Units=GPa)
#
#
# Indices 1 2 3 4 5 6 
#
# 1 97.2488 40.5704 36.8082 0.0000 0.0000 0.0000
# 2 40.5704 124.9823 33.6439 0.0000 0.0000 0.0000
# 3 36.8082 33.6439 88.8290 0.0000 0.0000 0.0000
# 4 0.0000 0.0000 0.0000 8.8535 0.0000 0.0000
# 5 0.0000 0.0000 0.0000 0.0000 25.3353 0.0000
# 6 0.0000 0.0000 0.0000 0.0000 0.0000 33.9071
#
#
#
# Elastic Compliance Matrix: (Units=1/GPa)
#
#
# Indices 1 2 3 4 5 6 
#
# 1 0.013214 -0.003135 -0.004288 0.000000 0.000000 0.000000
# 2 -0.003135 0.009653 -0.002357 0.000000 0.000000 0.000000
# 3 -0.004288 -0.002357 0.013927 0.000000 0.000000 0.000000
# 4 0.000000 0.000000 0.000000 0.112950 0.000000 0.000000
# 5 0.000000 0.000000 0.000000 0.000000 0.039471 0.000000
# 6 0.000000 0.000000 0.000000 0.000000 0.000000 0.029492
#
#
# Mechanical properties :
#
#
# Convention : Reuss Voigt Hill
#
# Bulk Modulus (GPa) = 58.02508 59.23390 58.62949
# Shear Modulus (GPa) = 20.49079 26.95500 23.72290
#
# Velocity S-wave (km/s) = 3.18111 3.64854 3.42282
# Velocity P-wave (km/s) = 6.49219 6.85581 6.67648
#
# Compressibility (1/GPa) = 0.01723393
#
# Stress axis : x y z
#
# Youngs Moduli (GPa) = 75.67861 103.59154 71.80203
#
# Poissons Ratio (x) = 0.32476 0.30789
# Poissons Ratio (y) = 0.23725 0.16925
# Poissons Ratio (z) = 0.32451 0.24418
#
# Static dielectric constant tensor:
#      x y z
#    x 3.641270 0.000000 0.000000 
#    y 0.000000 3.692690 0.000000 
#    z 0.000000 0.000000 3.685410 
# 
# 
# High freq. dielectric constant tensor:
#      x y z
#    x 1.790430 0.000000 0.000000 
#    y 0.000000 1.793200 0.000000 
#    z 0.000000 0.000000 1.803410 
# 
# From -- ./inp_files/5067.got.cif
#   From: 2010.03.12/outbox.cif.g09.slc.cpg/sg31_3_cif.got.tgz:5067.got - 2010.04.14 01:42:59.
