data_PCOD8169814
_publ_section_title
;
Structure prediction by ZEFSAII (Michael W. Deem and Ramdas Pophale) SiO2 
 PCOD8169814
Probable space group: P M N 21
;
_chemical_formula_sum "Si O2"
_cell_formula_units_Z 32
_cell_length_a 9.628419
_cell_length_b 14.503274
_cell_length_c 12.337061
_cell_angle_alpha 90.000000
_cell_angle_beta 90.000000
_cell_angle_gamma 90.000000
_cell_volume 1722.791598
_symmetry_space_group_name_H-M "P M N 21"
_symmetry_group_IT_number 31
_symmetry_cell_setting 'orthorhombic'
loop_
_space_group_symop_operation_xyz
x,y,z
1/2-x,-y,1/2+z
-x,y,z
1/2+x,-y,1/2+z
loop_
_atom_site_type_symbol
_atom_site_label
_atom_site_fract_x
_atom_site_fract_y
_atom_site_fract_z
Si Si1 0.659672 0.844999 0.838150
Si Si2 0.841025 0.539489 0.912538
Si Si3 0.840917 0.774416 0.523904
Si Si4 0.656724 0.307479 0.250488
Si Si5 0.338992 0.127183 0.531690
Si Si6 0.663132 0.370858 0.846446
Si Si7 0.664058 0.326213 0.606634
Si Si8 0.655703 0.930229 0.608668
O O1 0.500000 0.829313 0.870458
O O2 0.732749 0.746939 0.822311
O O3 0.678223 0.905766 0.732515
O O4 0.743062 0.898333 0.930194
O O5 0.830426 0.588343 0.794329
O O6 0.744042 0.450872 0.909164
O O7 0.000000 0.509663 0.935331
O O8 0.787321 0.605990 0.009999
O O9 0.808165 0.703110 0.623059
O O10 0.806365 0.723542 0.411510
O O11 0.753701 0.868469 0.532196
O O12 0.000000 0.805425 0.527553
O O13 0.500000 0.271014 0.274124
O O14 0.500000 0.137676 0.497136
O O15 0.283404 0.221557 0.586509
O O16 0.315243 0.039362 0.608380
O O17 0.500000 0.394733 0.849288
O O18 0.720255 0.359997 0.723705
O O19 0.500000 0.323916 0.612233
O O20 0.500000 0.908054 0.569424
#
# Coordination Sequence:
#
# PCOD8169814 Si02
#       8
#     4   4   4   4   4   4   4   4
#     4  10  19  32  51  81 110 134 177 233 276 310
#     4  10  20  35  56  79 105 142 184 224 270 328
#     4   9  19  35  55  79 110 144 179 225 274 322
#     4   9  17  33  55  75 100 139 181 218 269 328
#     4  10  19  36  58  77 106 149 186 220 268 333
#     4  10  22  37  55  81 111 145 183 225 275 325
#     4   9  19  37  57  78 106 143 185 219 266 333
#     4   9  20  35  55  82 110 144 185 226 272 325
#
# _framework density 18.574503
#
# number of rings (size 3 to 8) (size 9 to 14) (size 15 to 20)
#    0.000    2.500    1.250    0.375    1.750    3.000 
#    0.000    3.125    0.000    0.000    0.000    0.000 
#    0.000    0.000    0.000    0.000    0.000    0.000 
#
# Total GULP energy -396674.302665 kJ/mol
# GULP energy per Si atom -12396.071958 kJ/mol
# Density = 1.853223 g / cm^3
# Si number density = 18.574503 Si / 1000 Ang^3
#
#
#
# Elastic Constant Matrix: (Units=GPa)
#
#
# Indices 1 2 3 4 5 6 
#
# 1 74.6383 49.8964 34.0695 0.0000 0.0000 0.0000
# 2 49.8964 118.8573 46.9654 0.0000 0.0000 0.0000
# 3 34.0695 46.9654 89.4454 0.0000 0.0000 0.0000
# 4 0.0000 0.0000 0.0000 22.8309 0.0000 0.0000
# 5 0.0000 0.0000 0.0000 0.0000 20.1672 0.0000
# 6 0.0000 0.0000 0.0000 0.0000 0.0000 30.0665
#
#
#
# Elastic Compliance Matrix: (Units=1/GPa)
#
#
# Indices 1 2 3 4 5 6 
#
# 1 0.019691 -0.006691 -0.003987 0.000000 0.000000 0.000000
# 2 -0.006691 0.012890 -0.004219 0.000000 0.000000 0.000000
# 3 -0.003987 -0.004219 0.014914 0.000000 0.000000 0.000000
# 4 0.000000 0.000000 0.000000 0.043800 0.000000 0.000000
# 5 0.000000 0.000000 0.000000 0.000000 0.049586 0.000000
# 6 0.000000 0.000000 0.000000 0.000000 0.000000 0.033260
#
#
# Mechanical properties :
#
#
# Convention : Reuss Voigt Hill
#
# Bulk Modulus (GPa) = 56.49727 60.53373 58.51550
# Shear Modulus (GPa) = 23.82835 24.74690 24.28763
#
# Velocity S-wave (km/s) = 3.58558 3.65403 3.61997
# Velocity P-wave (km/s) = 6.90105 7.10374 7.00312
#
# Compressibility (1/GPa) = 0.01769997
#
# Stress axis : x y z
#
# Youngs Moduli (GPa) = 50.78553 77.58251 67.05031
#
# Poissons Ratio (x) = 0.51908 0.26733
# Poissons Ratio (y) = 0.33979 0.28292
# Poissons Ratio (z) = 0.20248 0.32736
#
# Static dielectric constant tensor:
#      x y z
#    x 3.378380 0.000000 0.000000 
#    y 0.000000 3.282110 0.000000 
#    z 0.000000 0.000000 3.597840 
# 
# 
# High freq. dielectric constant tensor:
#      x y z
#    x 1.706690 0.000000 0.000000 
#    y 0.000000 1.712230 0.000000 
#    z 0.000000 0.000000 1.721210 
# 
# From -- ./inp_files/3577.got.cif
#   From: 2010.03.12/outbox.cif.g09.slc.cpg/sg31_2_cif.got.tgz:3577.got - 2010.04.14 01:42:59.
