data_PCOD8169734
_publ_section_title
;
Structure prediction by ZEFSAII (Michael W. Deem and Ramdas Pophale) SiO2 
 PCOD8169734
Probable space group: P M N 21
;
_chemical_formula_sum "Si O2"
_cell_formula_units_Z 32
_cell_length_a 9.123818
_cell_length_b 13.595752
_cell_length_c 13.092673
_cell_angle_alpha 90.000000
_cell_angle_beta 90.000000
_cell_angle_gamma 90.000000
_cell_volume 1624.082806
_symmetry_space_group_name_H-M "P M N 21"
_symmetry_group_IT_number 31
_symmetry_cell_setting 'orthorhombic'
loop_
_space_group_symop_operation_xyz
x,y,z
1/2-x,-y,1/2+z
-x,y,z
1/2+x,-y,1/2+z
loop_
_atom_site_type_symbol
_atom_site_label
_atom_site_fract_x
_atom_site_fract_y
_atom_site_fract_z
Si Si1 0.825353 0.173106 0.839710
Si Si2 0.169075 0.101277 0.618541
Si Si3 0.170129 0.748855 0.728675
Si Si4 0.828259 0.542732 0.978078
Si Si5 0.163764 0.390952 0.824978
Si Si6 0.829747 0.881812 0.546165
Si Si7 0.324934 0.238202 0.455530
Si Si8 0.337666 0.463293 0.154603
O O1 0.776256 0.119433 0.734814
O O2 0.760783 0.284348 0.831616
O O3 0.000000 0.168665 0.850537
O O4 0.755506 0.122686 0.938971
O O5 0.259169 0.163277 0.536349
O O6 0.000000 0.132524 0.608345
O O7 0.194463 0.987859 0.594963
O O8 0.237920 0.804860 0.629804
O O9 0.228684 0.786680 0.839179
O O10 0.199471 0.631624 0.723872
O O11 0.000000 0.773895 0.725843
O O12 0.792567 0.476786 0.075713
O O13 0.000000 0.553205 0.959832
O O14 0.755134 0.476664 0.888872
O O15 0.763610 0.652623 0.981991
O O16 0.159847 0.432109 0.711231
O O17 0.000000 0.376641 0.868680
O O18 0.000000 0.860146 0.523656
O O19 0.500000 0.233268 0.463261
O O20 0.500000 0.447232 0.105276
#
# Coordination Sequence:
#
# PCOD8169734 Si02
#       8
#     4   4   4   4   4   4   4   4
#     4  10  21  38  59  83 113 149 189 226 274 343
#     4  10  23  40  58  84 114 146 186 237 290 334
#     4   9  18  35  59  85 112 148 191 230 276 336
#     4  10  19  32  51  80 114 145 180 224 268 313
#     4   9  17  32  53  77 109 145 176 212 261 319
#     4  10  22  39  59  83 113 145 184 240 288 325
#     4  10  20  36  60  86 113 149 193 233 275 338
#     4  10  18  32  55  80 108 147 187 218 262 326
#
# _framework density 19.703430000000001
#
# number of rings (size 3 to 8) (size 9 to 14) (size 15 to 20)
#    0.000    2.250    1.250    1.500    1.750    2.500 
#    0.000    2.500    0.000    0.000    0.000    0.000 
#    0.000    0.000    0.000    0.000    0.000    0.000 
#
# Total GULP energy -396493.821382 kJ/mol
# GULP energy per Si atom -12390.431918 kJ/mol
# Density = 1.965858 g / cm^3
# Si number density = 19.703430 Si / 1000 Ang^3
#
#
#
# Elastic Constant Matrix: (Units=GPa)
#
#
# Indices 1 2 3 4 5 6 
#
# 1 26.2289 25.7864 33.9569 0.0000 0.0000 0.0000
# 2 25.7864 103.3684 51.3759 0.0000 0.0000 0.0000
# 3 33.9569 51.3759 150.7595 0.0000 0.0000 0.0000
# 4 0.0000 0.0000 0.0000 37.8230 0.0000 0.0000
# 5 0.0000 0.0000 0.0000 0.0000 26.5420 0.0000
# 6 0.0000 0.0000 0.0000 0.0000 0.0000 25.7956
#
#
#
# Elastic Compliance Matrix: (Units=1/GPa)
#
#
# Indices 1 2 3 4 5 6 
#
# 1 0.061625 -0.010202 -0.010404 0.000000 0.000000 0.000000
# 2 -0.010202 0.013336 -0.002247 0.000000 0.000000 0.000000
# 3 -0.010404 -0.002247 0.009742 0.000000 0.000000 0.000000
# 4 0.000000 0.000000 0.000000 0.026439 0.000000 0.000000
# 5 0.000000 0.000000 0.000000 0.000000 0.037676 0.000000
# 6 0.000000 0.000000 0.000000 0.000000 0.000000 0.038766
#
#
# Mechanical properties :
#
#
# Convention : Reuss Voigt Hill
#
# Bulk Modulus (GPa) = 25.64247 55.84389 40.74318
# Shear Modulus (GPa) = 20.30138 29.31461 24.80799
#
# Velocity S-wave (km/s) = 3.21339 3.86138 3.55219
# Velocity P-wave (km/s) = 5.17786 6.94867 6.12757
#
# Compressibility (1/GPa) = 0.03899780
#
# Stress axis : x y z
#
# Youngs Moduli (GPa) = 16.22717 74.98597 102.64848
#
# Poissons Ratio (x) = 0.76503 1.06791
# Poissons Ratio (y) = 0.16555 0.23061
# Poissons Ratio (z) = 0.16882 0.16847
#
# Static dielectric constant tensor:
#      x y z
#    x 3.202900 0.000000 0.000000 
#    y 0.000000 3.768370 0.000000 
#    z 0.000000 0.000000 3.713970 
# 
# 
# High freq. dielectric constant tensor:
#      x y z
#    x 1.719660 0.000000 0.000000 
#    y 0.000000 1.780760 0.000000 
#    z 0.000000 0.000000 1.778740 
# 
# From -- ./inp_files/3743.got.cif
#   From: 2010.03.12/outbox.cif.g09.slc.cpg/sg31_2_cif.got.tgz:3743.got - 2010.04.14 01:42:59.
