data_PCOD8169006
_publ_section_title
;
Structure prediction by ZEFSAII (Michael W. Deem and Ramdas Pophale) SiO2 
 PCOD8169006
Probable space group: P C A 21
;
_chemical_formula_sum "Si O2"
_cell_formula_units_Z 32
_cell_length_a 13.742812
_cell_length_b 12.051560
_cell_length_c 8.709425
_cell_angle_alpha 90.000000
_cell_angle_beta 90.000000
_cell_angle_gamma 90.000000
_cell_volume 1442.475204
_symmetry_space_group_name_H-M "P C A 21"
_symmetry_group_IT_number 29
_symmetry_cell_setting 'orthorhombic'
loop_
_space_group_symop_operation_xyz
x,y,z
-x,-y,1/2+z
1/2-x,y,1/2+z
1/2+x,-y,z
loop_
_atom_site_type_symbol
_atom_site_label
_atom_site_fract_x
_atom_site_fract_y
_atom_site_fract_z
Si Si1 0.883910 0.948654 0.318780
Si Si2 0.795417 0.345389 0.312608
Si Si3 0.460930 0.799568 0.929222
Si Si4 0.806620 0.962541 0.646044
Si Si5 0.485497 0.154785 0.767394
Si Si6 0.767420 0.188289 0.059465
Si Si7 0.915260 0.420453 0.762070
Si Si8 0.511808 0.385514 0.921448
O O1 0.831444 0.918822 0.477717
O O2 0.803692 0.925911 0.187969
O O3 0.976807 0.867612 0.303217
O O4 0.923355 0.074584 0.307834
O O5 0.824327 0.244220 0.201056
O O6 0.790172 0.288656 0.480400
O O7 0.701818 0.410574 0.250324
O O8 0.889927 0.422803 0.329238
O O9 0.454328 0.673982 0.874751
O O10 0.511010 0.799153 0.094897
O O11 0.352249 0.855248 0.942836
O O12 0.884894 0.918367 0.771440
O O13 0.806113 0.096840 0.626592
O O14 0.483401 0.256203 0.889538
O O15 0.972080 0.410127 0.601424
O O16 0.929378 0.537286 0.847977
#
# Coordination Sequence:
#
# PCOD8169006 Si02
#       8
#     4   4   4   4   4   4   4   4
#     4  11  25  40  65 100 138 189 225 286 349 415
#     4  11  23  40  72 101 128 176 232 289 339 408
#     4  10  23  43  65  99 136 175 238 285 343 411
#     4  11  24  39  64  99 138 185 223 277 351 417
#     4  11  24  43  67  98 142 187 228 288 350 417
#     4  11  20  40  68 100 132 172 237 284 330 407
#     4  11  27  42  75 102 130 181 235 294 351 410
#     4  12  24  47  68 101 140 175 232 291 355 411
#
# _framework density 22.184090999999999
#
# number of rings (size 3 to 8) (size 9 to 14) (size 15 to 20)
#    0.000    1.000    3.750    2.250    7.000    2.000 
#    2.250    0.000    0.000    0.000    0.000    0.000 
#    0.000    0.000    0.000    0.000    0.000    0.000 
#
# Total GULP energy -396523.686634 kJ/mol
# GULP energy per Si atom -12391.365207 kJ/mol
# Density = 2.213360 g / cm^3
# Si number density = 22.184091 Si / 1000 Ang^3
#
#
#
# Elastic Constant Matrix: (Units=GPa)
#
#
# Indices 1 2 3 4 5 6 
#
# 1 126.5836 54.6457 29.5960 0.0000 0.0000 0.0000
# 2 54.6457 89.1618 28.7965 0.0000 0.0000 0.0000
# 3 29.5960 28.7965 75.5743 0.0000 0.0000 0.0000
# 4 0.0000 0.0000 0.0000 35.7646 0.0000 0.0000
# 5 0.0000 0.0000 0.0000 0.0000 27.3702 0.0000
# 6 0.0000 0.0000 0.0000 0.0000 0.0000 37.7485
#
#
#
# Elastic Compliance Matrix: (Units=1/GPa)
#
#
# Indices 1 2 3 4 5 6 
#
# 1 0.010996 -0.006099 -0.001982 0.000000 0.000000 0.000000
# 2 -0.006099 0.016173 -0.003774 0.000000 0.000000 0.000000
# 3 -0.001982 -0.003774 0.015446 0.000000 0.000000 0.000000
# 4 0.000000 0.000000 0.000000 0.027961 0.000000 0.000000
# 5 0.000000 0.000000 0.000000 0.000000 0.036536 0.000000
# 6 0.000000 0.000000 0.000000 0.000000 0.000000 0.026491
#
#
# Mechanical properties :
#
#
# Convention : Reuss Voigt Hill
#
# Bulk Modulus (GPa) = 52.89743 57.48845 55.19294
# Shear Modulus (GPa) = 30.55951 32.06209 31.31080
#
# Velocity S-wave (km/s) = 3.71555 3.80580 3.76095
# Velocity P-wave (km/s) = 6.50412 6.72924 6.61764
#
# Compressibility (1/GPa) = 0.01890451
#
# Stress axis : x y z
#
# Youngs Moduli (GPa) = 90.93860 61.83327 64.74061
#
# Poissons Ratio (x) = 0.37714 0.12834
# Poissons Ratio (y) = 0.55466 0.24431
# Poissons Ratio (z) = 0.18027 0.23334
#
# Static dielectric constant tensor:
#      x y z
#    x 4.237700 0.000000 0.000000 
#    y 0.000000 3.725800 0.000000 
#    z 0.000000 0.000000 4.106150 
# 
# 
# High freq. dielectric constant tensor:
#      x y z
#    x 1.880790 0.000000 0.000000 
#    y 0.000000 1.842360 0.000000 
#    z 0.000000 0.000000 1.883230 
# 
# From -- ./inp_files/1839.got.cif
#   From: 2010.03.12/outbox.cif.g09.slc.cpg/sg29_1_cif.got.tgz:1839.got - 2010.04.14 03:43:10.
