data_PCOD8169082
_publ_section_title
;
Structure prediction by ZEFSAII (Michael W. Deem and Ramdas Pophale) SiO2 
 PCOD8169082
Probable space group: P C A 21
;
_chemical_formula_sum "Si O2"
_cell_formula_units_Z 24
_cell_length_a 10.819986
_cell_length_b 10.415492
_cell_length_c 9.816176
_cell_angle_alpha 90.000000
_cell_angle_beta 90.000000
_cell_angle_gamma 90.000000
_cell_volume 1106.238643
_symmetry_space_group_name_H-M "P C A 21"
_symmetry_group_IT_number 29
_symmetry_cell_setting 'orthorhombic'
loop_
_space_group_symop_operation_xyz
x,y,z
-x,-y,1/2+z
1/2-x,y,1/2+z
1/2+x,-y,z
loop_
_atom_site_type_symbol
_atom_site_label
_atom_site_fract_x
_atom_site_fract_y
_atom_site_fract_z
Si Si1 0.756570 0.202860 0.697010
Si Si2 0.012420 0.654644 0.741974
Si Si3 0.137139 0.235347 0.481738
Si Si4 0.921378 0.756333 0.471032
Si Si5 0.870375 0.062057 0.944248
Si Si6 0.497401 0.639498 0.710768
O O1 0.652605 0.296861 0.758951
O O2 0.798068 0.094078 0.804750
O O3 0.706688 0.128976 0.564969
O O4 0.869576 0.297381 0.658649
O O5 0.943862 0.673974 0.884364
O O6 0.941722 0.737587 0.630184
O O7 0.004106 0.511101 0.683488
O O8 0.278192 0.247501 0.439105
O O9 0.109258 0.286520 0.633772
O O10 0.106082 0.086634 0.468171
O O11 0.987944 0.890113 0.433566
O O12 0.987279 0.651842 0.374011
#
# Coordination Sequence:
#
# PCOD8169082 Si02
#       6
#     4   4   4   4   4   4
#     4  10  24  44  70  96 140 174 224 282 328 404
#     4  11  25  45  68 100 133 182 223 274 339 397
#     4  12  26  41  73  98 136 173 221 284 335 402
#     4  10  25  42  65 103 132 174 226 275 330 402
#     4  10  25  43  68 101 136 179 223 273 347 390
#     4  11  25  45  68 100 133 182 223 274 339 397
#
# _framework density 21.695138
#
# number of rings (size 3 to 8) (size 9 to 14) (size 15 to 20)
#    0.000    1.333    0.000    3.000   14.000    2.667 
#    0.000    0.000    0.000    0.000    0.000    0.000 
#    0.000    0.000    0.000    0.000    0.000    0.000 
#
# Total GULP energy -297599.086606 kJ/mol
# GULP energy per Si atom -12399.961942 kJ/mol
# Density = 2.164576 g / cm^3
# Si number density = 21.695138 Si / 1000 Ang^3
#
#
#
# Elastic Constant Matrix: (Units=GPa)
#
#
# Indices 1 2 3 4 5 6 
#
# 1 130.9477 40.2324 21.8403 0.0000 0.0000 0.0000
# 2 40.2324 125.7804 11.3512 0.0000 0.0000 0.0000
# 3 21.8403 11.3512 74.9674 0.0000 0.0000 0.0000
# 4 0.0000 0.0000 0.0000 18.9240 0.0000 0.0000
# 5 0.0000 0.0000 0.0000 0.0000 35.1021 0.0000
# 6 0.0000 0.0000 0.0000 0.0000 0.0000 18.1092
#
#
#
# Elastic Compliance Matrix: (Units=1/GPa)
#
#
# Indices 1 2 3 4 5 6 
#
# 1 0.008803 -0.002620 -0.002168 0.000000 0.000000 0.000000
# 2 -0.002620 0.008840 -0.000575 0.000000 0.000000 0.000000
# 3 -0.002168 -0.000575 0.014058 0.000000 0.000000 0.000000
# 4 0.000000 0.000000 0.000000 0.052843 0.000000 0.000000
# 5 0.000000 0.000000 0.000000 0.000000 0.028488 0.000000
# 6 0.000000 0.000000 0.000000 0.000000 0.000000 0.055221
#
#
# Mechanical properties :
#
#
# Convention : Reuss Voigt Hill
#
# Bulk Modulus (GPa) = 47.67630 53.17146 50.42388
# Shear Modulus (GPa) = 26.88585 31.64518 29.26552
#
# Velocity S-wave (km/s) = 3.52413 3.82334 3.67678
# Velocity P-wave (km/s) = 6.21149 6.63719 6.42786
#
# Compressibility (1/GPa) = 0.02097478
#
# Stress axis : x y z
#
# Youngs Moduli (GPa) = 113.59460 113.11748 71.13480
#
# Poissons Ratio (x) = 0.29639 0.15421
# Poissons Ratio (y) = 0.29764 0.04092
# Poissons Ratio (z) = 0.24626 0.06507
#
# Static dielectric constant tensor:
#      x y z
#    x 4.061910 0.000000 0.000000 
#    y 0.000000 4.983150 0.000000 
#    z 0.000000 0.000000 3.885990 
# 
# 
# High freq. dielectric constant tensor:
#      x y z
#    x 1.862660 0.000000 0.000000 
#    y 0.000000 1.849840 0.000000 
#    z 0.000000 0.000000 1.863810 
# 
# From -- ./inp_files/1438.got.cif
#   From: 2010.03.12/outbox.cif.g09.slc.cpg/sg29_1_cif.got.tgz:1438.got - 2010.04.14 03:43:10.
