data_PCOD8169913
_publ_section_title
;
Structure prediction by ZEFSAII (Michael W. Deem and Ramdas Pophale) SiO2 
 PCOD8169913
Probable space group: P M N 21
;
_chemical_formula_sum "Si O2"
_cell_formula_units_Z 32
_cell_length_a 8.485498
_cell_length_b 11.476780
_cell_length_c 16.245265
_cell_angle_alpha 90.000000
_cell_angle_beta 90.000000
_cell_angle_gamma 90.000000
_cell_volume 1582.064525
_symmetry_space_group_name_H-M "P M N 21"
_symmetry_group_IT_number 31
_symmetry_cell_setting 'orthorhombic'
loop_
_space_group_symop_operation_xyz
x,y,z
1/2-x,-y,1/2+z
-x,y,z
1/2+x,-y,1/2+z
loop_
_atom_site_type_symbol
_atom_site_label
_atom_site_fract_x
_atom_site_fract_y
_atom_site_fract_z
Si Si1 0.674755 0.679598 0.274110
Si Si2 0.313348 0.935911 0.276735
Si Si3 0.188457 0.559019 0.820661
Si Si4 0.686213 0.337743 0.153188
Si Si5 0.188048 0.918605 0.618378
Si Si6 0.319433 0.274879 0.463203
Si Si7 0.682654 0.971465 0.947184
Si Si8 0.674494 0.579266 0.092954
O O1 0.500000 0.704942 0.308415
O O2 0.762549 0.804921 0.275138
O O3 0.755000 0.575006 0.327783
O O4 0.665137 0.623748 0.184954
O O5 0.500000 0.932107 0.266416
O O6 0.246736 0.008268 0.197656
O O7 0.272764 0.991798 0.364523
O O8 0.256999 0.628580 0.742150
O O9 0.244298 0.630910 0.898704
O O10 0.000000 0.550519 0.814003
O O11 0.500000 0.324842 0.161028
O O12 0.755311 0.213386 0.124311
O O13 0.728138 0.443035 0.090245
O O14 0.000000 0.922683 0.618964
O O15 0.249899 0.968045 0.530587
O O16 0.500000 0.237274 0.447603
O O17 0.205863 0.165229 0.459350
O O18 0.303091 0.339528 0.549914
O O19 0.500000 0.001189 0.935595
O O20 0.500000 0.592088 0.052859
#
# Coordination Sequence:
#
# PCOD8169913 Si02
#       8
#     4   4   4   4   4   4   4   4
#     4   8  15  30  52  76 101 133 172 208 252 315
#     4  10  19  34  57  80 104 138 178 217 258 310
#     4   8  15  28  49  75  98 125 166 212 251 298
#     4   8  14  28  51  75  97 126 169 210 244 296
#     4   9  18  33  54  78 106 143 180 212 255 318
#     4  11  21  33  51  74 101 133 171 215 262 310
#     4  11  23  37  53  77 108 140 179 223 264 313
#     4   9  17  31  53  77  99 128 167 211 256 306
#
# _framework density 20.226735000000001
#
# number of rings (size 3 to 8) (size 9 to 14) (size 15 to 20)
#    0.000    2.750    0.000    3.750    0.000    5.000 
#    0.000    3.125    0.000   11.250    0.000    0.000 
#    0.000    0.000    0.000    0.000    0.000    0.000 
#
# Total GULP energy -396459.237929 kJ/mol
# GULP energy per Si atom -12389.351185 kJ/mol
# Density = 2.018070 g / cm^3
# Si number density = 20.226735 Si / 1000 Ang^3
#
#
#
# Elastic Constant Matrix: (Units=GPa)
#
#
# Indices 1 2 3 4 5 6 
#
# 1 14.0965 6.4625 4.7624 0.0000 0.0000 0.0000
# 2 6.4625 175.3274 47.2122 0.0000 0.0000 0.0000
# 3 4.7624 47.2122 85.7090 0.0000 0.0000 0.0000
# 4 0.0000 0.0000 0.0000 32.4887 0.0000 0.0000
# 5 0.0000 0.0000 0.0000 0.0000 20.9074 0.0000
# 6 0.0000 0.0000 0.0000 0.0000 0.0000 16.8930
#
#
#
# Elastic Compliance Matrix: (Units=1/GPa)
#
#
# Indices 1 2 3 4 5 6 
#
# 1 0.072817 -0.001872 -0.003015 0.000000 0.000000 0.000000
# 2 -0.001872 0.006745 -0.003611 0.000000 0.000000 0.000000
# 3 -0.003015 -0.003611 0.013824 0.000000 0.000000 0.000000
# 4 0.000000 0.000000 0.000000 0.030780 0.000000 0.000000
# 5 0.000000 0.000000 0.000000 0.000000 0.047830 0.000000
# 6 0.000000 0.000000 0.000000 0.000000 0.000000 0.059196
#
#
# Mechanical properties :
#
#
# Convention : Reuss Voigt Hill
#
# Bulk Modulus (GPa) = 13.09086 43.55633 28.32359
# Shear Modulus (GPa) = 18.27139 28.50421 23.38780
#
# Velocity S-wave (km/s) = 3.00880 3.75805 3.40410
# Velocity P-wave (km/s) = 4.30774 6.35699 5.42992
#
# Compressibility (1/GPa) = 0.07638919
#
# Stress axis : x y z
#
# Youngs Moduli (GPa) = 13.73312 148.25531 72.33668
#
# Poissons Ratio (x) = 0.27756 0.21808
# Poissons Ratio (y) = 0.02571 0.26124
# Poissons Ratio (z) = 0.04140 0.53542
#
# Static dielectric constant tensor:
#      x y z
#    x 3.075230 0.000000 0.000000 
#    y 0.000000 4.242140 0.000000 
#    z 0.000000 0.000000 3.661410 
# 
# 
# High freq. dielectric constant tensor:
#      x y z
#    x 1.727450 0.000000 0.000000 
#    y 0.000000 1.814100 0.000000 
#    z 0.000000 0.000000 1.784520 
# 
# From -- ./inp_files/5830.got.cif
#   From: 2010.03.12/outbox.cif.g09.slc.cpg/sg31_3_cif.got.tgz:5830.got - 2010.04.14 01:42:59.
