data_PCOD8169123
_publ_section_title
;
Structure prediction by ZEFSAII (Michael W. Deem and Ramdas Pophale) SiO2 
 PCOD8169123
Probable space group: P C A 21
;
_chemical_formula_sum "Si O2"
_cell_formula_units_Z 28
_cell_length_a 9.202103
_cell_length_b 5.825909
_cell_length_c 21.276126
_cell_angle_alpha 90.000000
_cell_angle_beta 90.000000
_cell_angle_gamma 90.000000
_cell_volume 1140.626193
_symmetry_space_group_name_H-M "P C A 21"
_symmetry_group_IT_number 29
_symmetry_cell_setting 'orthorhombic'
loop_
_space_group_symop_operation_xyz
x,y,z
-x,-y,1/2+z
1/2-x,y,1/2+z
1/2+x,-y,z
loop_
_atom_site_type_symbol
_atom_site_label
_atom_site_fract_x
_atom_site_fract_y
_atom_site_fract_z
Si Si1 0.636870 0.514941 0.522930
Si Si2 0.877713 0.219958 0.284888
Si Si3 0.627496 0.505235 0.348473
Si Si4 0.211306 0.103330 0.088599
Si Si5 0.567252 0.220646 0.641852
Si Si6 0.126208 0.794378 0.984121
Si Si7 0.878029 0.827571 0.377682
O O1 0.755624 0.710973 0.534975
O O2 0.597595 0.425760 0.592890
O O3 0.500806 0.604252 0.482417
O O4 0.714759 0.324263 0.479119
O O5 0.735734 0.350678 0.308242
O O6 0.868405 0.255324 0.210325
O O7 0.028150 0.335081 0.305265
O O8 0.874230 0.953614 0.308810
O O9 0.731306 0.676065 0.390056
O O10 0.518824 0.334912 0.386002
O O11 0.107209 0.191068 0.144564
O O12 0.360070 0.011703 0.116451
O O13 0.114870 0.915394 0.051566
O O14 0.109022 0.962934 0.926022
#
# Coordination Sequence:
#
# PCOD8169123 Si02
#       7
#     4   4   4   4   4   4   4
#     4  11  24  48  72 110 149 200 245 303 378 435
#     4  11  26  45  75 111 151 197 247 303 373 443
#     4  10  26  50  70 111 145 194 249 301 386 432
#     4  11  24  45  69 109 149 199 245 301 366 429
#     4  11  26  43  75 108 154 193 253 304 363 446
#     4  11  26  48  75 107 152 195 252 305 373 450
#     4  11  26  51  76 108 146 198 249 311 375 449
#
# _framework density 24.547920000000001
#
# number of rings (size 3 to 8) (size 9 to 14) (size 15 to 20)
#    0.000    1.143    2.857    0.857    6.000    6.857 
#    2.571    2.857    0.000    0.000    0.000    0.000 
#    0.000    0.000    0.000    0.000    0.000    0.000 
#
# Total GULP energy -347119.988443 kJ/mol
# GULP energy per Si atom -12397.142444 kJ/mol
# Density = 2.449205 g / cm^3
# Si number density = 24.547920 Si / 1000 Ang^3
#
#
#
# Elastic Constant Matrix: (Units=GPa)
#
#
# Indices 1 2 3 4 5 6 
#
# 1 162.5934 62.9784 50.6218 0.0000 0.0000 0.0000
# 2 62.9784 130.7660 56.3087 0.0000 0.0000 0.0000
# 3 50.6218 56.3087 113.5633 0.0000 0.0000 0.0000
# 4 0.0000 0.0000 0.0000 22.8416 0.0000 0.0000
# 5 0.0000 0.0000 0.0000 0.0000 24.1095 0.0000
# 6 0.0000 0.0000 0.0000 0.0000 0.0000 46.4826
#
#
#
# Elastic Compliance Matrix: (Units=1/GPa)
#
#
# Indices 1 2 3 4 5 6 
#
# 1 0.007932 -0.002921 -0.002087 0.000000 0.000000 0.000000
# 2 -0.002921 0.010799 -0.004052 0.000000 0.000000 0.000000
# 3 -0.002087 -0.004052 0.011745 0.000000 0.000000 0.000000
# 4 0.000000 0.000000 0.000000 0.043780 0.000000 0.000000
# 5 0.000000 0.000000 0.000000 0.000000 0.041477 0.000000
# 6 0.000000 0.000000 0.000000 0.000000 0.000000 0.021513
#
#
# Mechanical properties :
#
#
# Convention : Reuss Voigt Hill
#
# Bulk Modulus (GPa) = 80.94198 82.97116 81.95657
# Shear Modulus (GPa) = 31.35061 34.48766 32.91913
#
# Velocity S-wave (km/s) = 3.57756 3.75228 3.66596
# Velocity P-wave (km/s) = 7.07883 7.25575 7.16784
#
# Compressibility (1/GPa) = 0.01235453
#
# Stress axis : x y z
#
# Youngs Moduli (GPa) = 126.07771 92.59996 85.13995
#
# Poissons Ratio (x) = 0.27050 0.17770
# Poissons Ratio (y) = 0.36830 0.34502
# Poissons Ratio (z) = 0.26314 0.37526
#
# Static dielectric constant tensor:
#      x y z
#    x 4.559730 0.000000 0.000000 
#    y 0.000000 4.765390 0.000000 
#    z 0.000000 0.000000 4.165050 
# 
# 
# High freq. dielectric constant tensor:
#      x y z
#    x 1.997000 0.000000 0.000000 
#    y 0.000000 1.989000 0.000000 
#    z 0.000000 0.000000 1.963200 
# 
# From -- ./inp_files/5671.got.cif
#   From: 2010.03.12/outbox.cif.g09.slc.cpg/sg29_3_cif.got.tgz:5671.got - 2010.04.14 03:43:10.
