data_PCOD8169083
_publ_section_title
;
Structure prediction by ZEFSAII (Michael W. Deem and Ramdas Pophale) SiO2 
 PCOD8169083
Probable space group: P C A 21
;
_chemical_formula_sum "Si O2"
_cell_formula_units_Z 28
_cell_length_a 8.632358
_cell_length_b 11.680954
_cell_length_c 11.974073
_cell_angle_alpha 90.000000
_cell_angle_beta 90.000000
_cell_angle_gamma 90.000000
_cell_volume 1207.395793
_symmetry_space_group_name_H-M "P C A 21"
_symmetry_group_IT_number 29
_symmetry_cell_setting 'orthorhombic'
loop_
_space_group_symop_operation_xyz
x,y,z
-x,-y,1/2+z
1/2-x,y,1/2+z
1/2+x,-y,z
loop_
_atom_site_type_symbol
_atom_site_label
_atom_site_fract_x
_atom_site_fract_y
_atom_site_fract_z
Si Si1 0.921383 0.828343 0.255890
Si Si2 0.576162 0.026384 0.919184
Si Si3 0.270214 0.404624 0.336406
Si Si4 0.178277 0.012214 0.576737
Si Si5 0.495704 0.458309 0.989125
Si Si6 0.790211 0.179901 0.245313
Si Si7 0.238110 0.582453 0.645504
O O1 0.843173 0.709802 0.287564
O O2 0.852316 0.866375 0.136253
O O3 0.105947 0.826496 0.255388
O O4 0.865787 0.923287 0.342752
O O5 0.627161 0.147540 0.863263
O O6 0.395748 0.016539 0.951211
O O7 0.643207 0.009538 0.045185
O O8 0.401425 0.466209 0.407398
O O9 0.119781 0.379221 0.414798
O O10 0.217435 0.483365 0.232881
O O11 0.132259 0.904979 0.654717
O O12 0.605745 0.385779 0.073968
O O13 0.394525 0.545860 0.060861
O O14 0.830164 0.309358 0.212240
#
# Coordination Sequence:
#
# PCOD8169083 Si02
#       7
#     4   4   4   4   4   4   4
#     4  11  24  42  71 101 138 181 234 289 344 423
#     4  11  24  45  69  98 137 179 234 286 355 422
#     4  11  24  47  69 108 145 182 242 293 346 427
#     4  11  24  46  67  99 136 182 232 286 355 422
#     4  10  24  44  71 101 143 192 231 285 363 415
#     4  11  24  42  71 101 135 184 230 288 353 416
#     4  11  24  46  70 102 144 182 239 291 346 431
#
# _framework density 23.190405999999999
#
# number of rings (size 3 to 8) (size 9 to 14) (size 15 to 20)
#    0.000    1.143    2.857    2.571    2.000    5.714 
#   10.286    0.000    0.000    0.000    0.000    0.000 
#    0.000    0.000    0.000    0.000    0.000    0.000 
#
# Total GULP energy -347116.247543 kJ/mol
# GULP energy per Si atom -12397.008841 kJ/mol
# Density = 2.313762 g / cm^3
# Si number density = 23.190406 Si / 1000 Ang^3
#
#
#
# Elastic Constant Matrix: (Units=GPa)
#
#
# Indices 1 2 3 4 5 6 
#
# 1 90.2511 31.0346 44.9437 0.0000 0.0000 0.0000
# 2 31.0346 124.9983 50.1794 0.0000 0.0000 0.0000
# 3 44.9437 50.1794 117.1663 0.0000 0.0000 0.0000
# 4 0.0000 0.0000 0.0000 33.7878 0.0000 0.0000
# 5 0.0000 0.0000 0.0000 0.0000 52.0330 0.0000
# 6 0.0000 0.0000 0.0000 0.0000 0.0000 9.5005
#
#
#
# Elastic Compliance Matrix: (Units=1/GPa)
#
#
# Indices 1 2 3 4 5 6 
#
# 1 0.013953 -0.001589 -0.004672 0.000000 0.000000 0.000000
# 2 -0.001589 0.009842 -0.003606 0.000000 0.000000 0.000000
# 3 -0.004672 -0.003606 0.011871 0.000000 0.000000 0.000000
# 4 0.000000 0.000000 0.000000 0.029597 0.000000 0.000000
# 5 0.000000 0.000000 0.000000 0.000000 0.019219 0.000000
# 6 0.000000 0.000000 0.000000 0.000000 0.000000 0.105257
#
#
# Mechanical properties :
#
#
# Convention : Reuss Voigt Hill
#
# Bulk Modulus (GPa) = 62.76002 64.97011 63.86507
# Shear Modulus (GPa) = 23.27941 32.81481 28.04711
#
# Velocity S-wave (km/s) = 3.17178 3.76575 3.48145
# Velocity P-wave (km/s) = 6.36673 6.85453 6.61513
#
# Compressibility (1/GPa) = 0.01593371
#
# Stress axis : x y z
#
# Youngs Moduli (GPa) = 71.66908 101.60506 84.23806
#
# Poissons Ratio (x) = 0.16143 0.39354
# Poissons Ratio (y) = 0.11387 0.30373
# Poissons Ratio (z) = 0.33482 0.36635
#
# Static dielectric constant tensor:
#      x y z
#    x 4.310080 0.000000 0.000000 
#    y 0.000000 3.968610 0.000000 
#    z 0.000000 0.000000 4.481090 
# 
# 
# High freq. dielectric constant tensor:
#      x y z
#    x 1.930670 0.000000 0.000000 
#    y 0.000000 1.895840 0.000000 
#    z 0.000000 0.000000 1.937220 
# 
# From -- ./inp_files/2863.got.cif
#   From: 2010.03.12/outbox.cif.g09.slc.cpg/sg29_2_cif.got.tgz:2863.got - 2010.04.14 03:43:10.
