data_PCOD8169877
_publ_section_title
;
Structure prediction by ZEFSAII (Michael W. Deem and Ramdas Pophale) SiO2 
 PCOD8169877
Probable space group: P M N 21
;
_chemical_formula_sum "Si O2"
_cell_formula_units_Z 32
_cell_length_a 9.400979
_cell_length_b 11.284922
_cell_length_c 16.515145
_cell_angle_alpha 90.000000
_cell_angle_beta 90.000000
_cell_angle_gamma 90.000000
_cell_volume 1752.080416
_symmetry_space_group_name_H-M "P M N 21"
_symmetry_group_IT_number 31
_symmetry_cell_setting 'orthorhombic'
loop_
_space_group_symop_operation_xyz
x,y,z
1/2-x,-y,1/2+z
-x,y,z
1/2+x,-y,1/2+z
loop_
_atom_site_type_symbol
_atom_site_label
_atom_site_fract_x
_atom_site_fract_y
_atom_site_fract_z
Si Si1 0.831377 0.323386 0.737250
Si Si2 0.338406 0.247405 0.310996
Si Si3 0.334176 0.725193 0.567517
Si Si4 0.667772 0.070202 0.447775
Si Si5 0.832464 0.189623 0.897723
Si Si6 0.153375 0.899399 0.657221
Si Si7 0.658068 0.853194 0.100201
Si Si8 0.830254 0.433528 0.215268
O O1 0.774532 0.247319 0.814484
O O2 0.794774 0.259448 0.652662
O O3 0.742470 0.442419 0.731520
O O4 0.000000 0.348947 0.745442
O O5 0.500000 0.298830 0.316047
O O6 0.291374 0.182890 0.392806
O O7 0.326783 0.141775 0.247892
O O8 0.227568 0.349526 0.287018
O O9 0.500000 0.736105 0.578914
O O10 0.293605 0.718632 0.472006
O O11 0.272778 0.849651 0.597910
O O12 0.281724 0.617193 0.625981
O O13 0.500000 0.057535 0.457856
O O14 0.732039 0.109823 0.532366
O O15 0.729717 0.943330 0.415188
O O16 0.000000 0.176750 0.890171
O O17 0.000000 0.855946 0.622904
O O18 0.157013 0.040233 0.664460
O O19 0.500000 0.833628 0.063098
O O20 0.000000 0.444270 0.221727
#
# Coordination Sequence:
#
# PCOD8169877 Si02
#       8
#     4   4   4   4   4   4   4   4
#     4  10  21  38  57  76 106 149 189 222 262 320
#     4   9  18  33  55  80 103 136 178 217 260 318
#     4   9  17  32  55  80 104 134 173 221 269 310
#     4  10  19  33  56  84 110 136 175 221 265 325
#     4   9  17  33  58  83 105 135 181 225 264 316
#     4   9  16  29  51  78 107 135 168 209 260 321
#     4  10  20  33  51  78 113 144 170 214 273 323
#     4  10  21  37  55  77 108 141 180 227 271 315
#
# _framework density 18.264002000000001
#
# number of rings (size 3 to 8) (size 9 to 14) (size 15 to 20)
#    0.000    2.500    1.250    1.125    0.000    4.500 
#    2.250    1.250    0.000    3.000    0.000    0.000 
#    0.000    0.000    0.000    0.000    0.000    0.000 
#
# Total GULP energy -396467.124832 kJ/mol
# GULP energy per Si atom -12389.597651 kJ/mol
# Density = 1.822243 g / cm^3
# Si number density = 18.264002 Si / 1000 Ang^3
#
#
#
# Elastic Constant Matrix: (Units=GPa)
#
#
# Indices 1 2 3 4 5 6 
#
# 1 37.4065 46.9076 37.9483 0.0000 0.0000 0.0000
# 2 46.9076 123.6510 63.4030 0.0000 0.0000 0.0000
# 3 37.9483 63.4030 96.1401 0.0000 0.0000 0.0000
# 4 0.0000 0.0000 0.0000 21.5612 0.0000 0.0000
# 5 0.0000 0.0000 0.0000 0.0000 24.8029 0.0000
# 6 0.0000 0.0000 0.0000 0.0000 0.0000 24.7940
#
#
#
# Elastic Compliance Matrix: (Units=1/GPa)
#
#
# Indices 1 2 3 4 5 6 
#
# 1 0.060324 -0.016129 -0.013174 0.000000 0.000000 0.000000
# 2 -0.016129 0.016532 -0.004536 0.000000 0.000000 0.000000
# 3 -0.013174 -0.004536 0.018593 0.000000 0.000000 0.000000
# 4 0.000000 0.000000 0.000000 0.046380 0.000000 0.000000
# 5 0.000000 0.000000 0.000000 0.000000 0.040318 0.000000
# 6 0.000000 0.000000 0.000000 0.000000 0.000000 0.040332
#
#
# Mechanical properties :
#
#
# Convention : Reuss Voigt Hill
#
# Bulk Modulus (GPa) = 36.00955 61.52392 48.76674
# Shear Modulus (GPa) = 16.69927 21.49421 19.09674
#
# Velocity S-wave (km/s) = 3.02706 3.43426 3.23707
# Velocity P-wave (km/s) = 5.65477 7.03453 6.38205
#
# Compressibility (1/GPa) = 0.02777041
#
# Stress axis : x y z
#
# Youngs Moduli (GPa) = 16.57708 60.48951 53.78359
#
# Poissons Ratio (x) = 0.97564 0.70856
# Poissons Ratio (y) = 0.26737 0.24396
# Poissons Ratio (z) = 0.21839 0.27438
#
# Static dielectric constant tensor:
#      x y z
#    x 3.278400 0.000000 0.000000 
#    y 0.000000 3.352080 0.000000 
#    z 0.000000 0.000000 3.573460 
# 
# 
# High freq. dielectric constant tensor:
#      x y z
#    x 1.689050 0.000000 0.000000 
#    y 0.000000 1.701590 0.000000 
#    z 0.000000 0.000000 1.709360 
# 
# From -- ./inp_files/4982.got.cif
#   From: 2010.03.12/outbox.cif.g09.slc.cpg/sg31_3_cif.got.tgz:4982.got - 2010.04.14 01:42:59.
