data_PCOD8169826
_publ_section_title
;
Structure prediction by ZEFSAII (Michael W. Deem and Ramdas Pophale) SiO2 
 PCOD8169826
Probable space group: P M N 21
;
_chemical_formula_sum "Si O2"
_cell_formula_units_Z 32
_cell_length_a 9.329028
_cell_length_b 11.180744
_cell_length_c 15.678776
_cell_angle_alpha 90.000000
_cell_angle_beta 90.000000
_cell_angle_gamma 90.000000
_cell_volume 1635.382160
_symmetry_space_group_name_H-M "P M N 21"
_symmetry_group_IT_number 31
_symmetry_cell_setting 'orthorhombic'
loop_
_space_group_symop_operation_xyz
x,y,z
1/2-x,-y,1/2+z
-x,y,z
1/2+x,-y,1/2+z
loop_
_atom_site_type_symbol
_atom_site_label
_atom_site_fract_x
_atom_site_fract_y
_atom_site_fract_z
Si Si1 0.332569 0.597154 0.240360
Si Si2 0.166383 0.107572 0.912683
Si Si3 0.343707 0.007699 0.769764
Si Si4 0.840635 0.050920 0.539816
Si Si5 0.335598 0.616678 0.434517
Si Si6 0.657770 0.208053 0.641511
Si Si7 0.166018 0.598838 0.598173
Si Si8 0.658232 0.155146 0.176122
O O1 0.500000 0.636496 0.237299
O O2 0.290268 0.570514 0.339595
O O3 0.232316 0.702205 0.206984
O O4 0.302314 0.483974 0.179944
O O5 0.192165 0.241957 0.943448
O O6 0.000000 0.076147 0.907451
O O7 0.237929 0.093953 0.821116
O O8 0.243578 0.009941 0.969478
O O9 0.500000 0.985465 0.813437
O O10 0.268660 0.878788 0.751881
O O11 0.369745 0.078898 0.682881
O O12 0.856021 0.961251 0.618280
O O13 0.000000 0.080034 0.504692
O O14 0.765216 0.178243 0.563239
O O15 0.500000 0.583900 0.450482
O O16 0.247178 0.555191 0.511939
O O17 0.500000 0.257786 0.612859
O O18 0.218735 0.731543 0.623966
O O19 0.000000 0.598322 0.573850
O O20 0.500000 0.187447 0.213317
#
# Coordination Sequence:
#
# PCOD8169826 Si02
#       8
#     4   4   4   4   4   4   4   4
#     4  10  21  39  60  84 115 156 197 239 292 350
#     4  11  20  32  53  82 113 147 187 234 286 345
#     4  10  20  32  51  79 110 143 180 227 280 338
#     4  10  19  32  53  79 111 144 179 226 283 343
#     4  10  21  36  57  84 114 148 194 243 292 347
#     4  10  20  34  53  80 111 144 185 231 280 337
#     4  10  21  38  61  85 113 152 200 244 290 346
#     4   9  18  33  52  77 107 142 180 226 283 340
#
# _framework density 19.567291000000001
#
# number of rings (size 3 to 8) (size 9 to 14) (size 15 to 20)
#    0.000    2.000    2.500    1.500    0.000    3.500 
#    0.000    1.250    0.000    4.500    0.000    0.000 
#    0.000    0.000    0.000    0.000    0.000    0.000 
#
# Total GULP energy -396537.722946 kJ/mol
# GULP energy per Si atom -12391.803842 kJ/mol
# Density = 1.952275 g / cm^3
# Si number density = 19.567291 Si / 1000 Ang^3
#
#
#
# Elastic Constant Matrix: (Units=GPa)
#
#
# Indices 1 2 3 4 5 6 
#
# 1 127.2294 35.2058 45.8312 0.0000 0.0000 0.0000
# 2 35.2058 49.2956 27.4864 0.0000 0.0000 0.0000
# 3 45.8312 27.4864 54.0984 0.0000 0.0000 0.0000
# 4 0.0000 0.0000 0.0000 30.3974 0.0000 0.0000
# 5 0.0000 0.0000 0.0000 0.0000 34.0903 0.0000
# 6 0.0000 0.0000 0.0000 0.0000 0.0000 18.7001
#
#
#
# Elastic Compliance Matrix: (Units=1/GPa)
#
#
# Indices 1 2 3 4 5 6 
#
# 1 0.011851 -0.003998 -0.008009 0.000000 0.000000 0.000000
# 2 -0.003998 0.029653 -0.011679 0.000000 0.000000 0.000000
# 3 -0.008009 -0.011679 0.031203 0.000000 0.000000 0.000000
# 4 0.000000 0.000000 0.000000 0.032898 0.000000 0.000000
# 5 0.000000 0.000000 0.000000 0.000000 0.029334 0.000000
# 6 0.000000 0.000000 0.000000 0.000000 0.000000 0.053476
#
#
# Mechanical properties :
#
#
# Convention : Reuss Voigt Hill
#
# Bulk Modulus (GPa) = 39.46940 49.74113 44.60526
# Shear Modulus (GPa) = 20.47235 24.77757 22.62496
#
# Velocity S-wave (km/s) = 3.23809 3.56234 3.40408
# Velocity P-wave (km/s) = 5.84767 6.51123 6.18835
#
# Compressibility (1/GPa) = 0.02533608
#
# Stress axis : x y z
#
# Youngs Moduli (GPa) = 84.38045 33.72306 32.04782
#
# Poissons Ratio (x) = 0.13484 0.25666
# Poissons Ratio (y) = 0.33738 0.37428
# Poissons Ratio (z) = 0.67576 0.39385
#
# Static dielectric constant tensor:
#      x y z
#    x 3.990080 0.000000 0.000000 
#    y 0.000000 3.301750 0.000000 
#    z 0.000000 0.000000 3.540050 
# 
# 
# High freq. dielectric constant tensor:
#      x y z
#    x 1.775110 0.000000 0.000000 
#    y 0.000000 1.730660 0.000000 
#    z 0.000000 0.000000 1.748830 
# 
# From -- ./inp_files/5049.got.cif
#   From: 2010.03.12/outbox.cif.g09.slc.cpg/sg31_3_cif.got.tgz:5049.got - 2010.04.14 01:42:59.
