data_PCOD8169614
_publ_section_title
;
Structure prediction by ZEFSAII (Michael W. Deem and Ramdas Pophale) SiO2 
 PCOD8169614
Probable space group: P N C 2
;
_chemical_formula_sum "Si O2"
_cell_formula_units_Z 20
_cell_length_a 5.117235
_cell_length_b 29.845928
_cell_length_c 5.196608
_cell_angle_alpha 90.000000
_cell_angle_beta 90.000000
_cell_angle_gamma 90.000000
_cell_volume 793.670807
_symmetry_space_group_name_H-M "P N C 2"
_symmetry_group_IT_number 30
_symmetry_cell_setting 'orthorhombic'
loop_
_space_group_symop_operation_xyz
x,y,z
-x,-y,z
-x,1/2+y,1/2+z
x,1/2-y,1/2+z
loop_
_atom_site_type_symbol
_atom_site_label
_atom_site_fract_x
_atom_site_fract_y
_atom_site_fract_z
Si Si1 0.769784 0.661821 0.481420
Si Si2 0.587055 0.403315 0.275176
Si Si3 0.500000 0.500000 0.175311
Si Si4 0.736711 0.278691 0.501555
Si Si5 0.086768 0.597574 0.753077
Si Si6 0.000000 0.000000 0.335371
O O1 0.677397 0.626822 0.253943
O O2 0.546382 0.698585 0.511833
O O3 0.035795 0.687456 0.415315
O O4 0.830239 0.629868 0.734400
O O5 0.523193 0.455093 0.343178
O O6 0.728944 0.383376 0.526591
O O7 0.769734 0.398888 0.025761
O O8 0.749346 0.508103 0.004503
O O9 0.762656 0.239523 0.291126
O O10 0.022056 0.545944 0.673484
#
# Coordination Sequence:
#
# PCOD8169614 Si02
#       6
#     4   4   2   4   4   2
#     4  12  28  52  83 114 152 198 257 316 388 458
#     4  11  28  47  77 113 157 205 257 311 370 454
#     4  10  26  46  72 108 158 206 252 304 366 430
#     4  12  30  54  81 112 150 194 247 324 402 470
#     4  11  28  47  77 113 157 205 257 311 370 454
#     4  10  26  46  72 108 158 206 252 304 366 430
#
# _framework density 25.199368
#
# number of rings (size 3 to 8) (size 9 to 14) (size 15 to 20)
#    0.000    0.800    2.000    1.200   16.800    4.800 
#    0.000    0.000    0.000    0.000    0.000    0.000 
#    0.000    0.000    0.000    0.000    0.000    0.000 
#
# Total GULP energy -247761.495483 kJ/mol
# GULP energy per Si atom -12388.074774 kJ/mol
# Density = 2.514201 g / cm^3
# Si number density = 25.199368 Si / 1000 Ang^3
#
#
#
# Elastic Constant Matrix: (Units=GPa)
#
#
# Indices 1 2 3 4 5 6 
#
# 1 143.2663 37.8120 31.9627 0.0000 0.0000 0.0000
# 2 37.8120 125.1287 14.3776 0.0000 0.0000 0.0000
# 3 31.9627 14.3776 100.0632 0.0000 0.0000 0.0000
# 4 0.0000 0.0000 0.0000 -44.2942 0.0000 0.0000
# 5 0.0000 0.0000 0.0000 0.0000 29.6069 0.0000
# 6 0.0000 0.0000 0.0000 0.0000 0.0000 50.3117
#
#
#
# Elastic Compliance Matrix: (Units=1/GPa)
#
#
# Indices 1 2 3 4 5 6 
#
# 1 0.008059 -0.002175 -0.002262 0.000000 0.000000 0.000000
# 2 -0.002175 0.008713 -0.000557 0.000000 0.000000 0.000000
# 3 -0.002262 -0.000557 0.010796 0.000000 0.000000 0.000000
# 4 0.000000 0.000000 0.000000 -0.022576 0.000000 0.000000
# 5 0.000000 0.000000 0.000000 0.000000 0.033776 0.000000
# 6 0.000000 0.000000 0.000000 0.000000 0.000000 0.019876
#
#
# Mechanical properties :
#
#
# Convention : Reuss Voigt Hill
#
# Bulk Modulus (GPa) = 56.88307 59.64031 58.26169
# Shear Modulus (GPa) = 67.12156 26.07861 46.60009
#
# Velocity S-wave (km/s) = 5.16663 3.22046 4.30496
# Velocity P-wave (km/s) = 7.62983 6.12758 6.91959
#
# Compressibility (1/GPa) = 0.01757992
#
# Stress axis : x y z
#
# Youngs Moduli (GPa) = 124.08941 114.76920 92.62576
#
# Poissons Ratio (x) = 0.24966 0.20948
# Poissons Ratio (y) = 0.26994 0.05160
# Poissons Ratio (z) = 0.28064 0.06394
#
# Static dielectric constant tensor:
#      x y z
#    x 4.933310 0.000000 0.000000 
#    y 0.000000 5.140920 0.000000 
#    z 0.000000 0.000000 4.148660 
# 
# 
# High freq. dielectric constant tensor:
#      x y z
#    x 2.029060 0.000000 0.000000 
#    y 0.000000 2.034850 0.000000 
#    z 0.000000 0.000000 1.973330 
# 
# From -- ./inp_files/222.got.cif
#   From: 2010.03.12/outbox.cif.g09.slc.cpg/sg30_1_cif.got.tgz:222.got - 2010.04.14 01:38:02.
