data_PCOD8169788
_publ_section_title
;
Structure prediction by ZEFSAII (Michael W. Deem and Ramdas Pophale) SiO2 
 PCOD8169788
Probable space group: P M N 21
;
_chemical_formula_sum "Si O2"
_cell_formula_units_Z 32
_cell_length_a 9.187789
_cell_length_b 20.339858
_cell_length_c 9.514219
_cell_angle_alpha 90.000000
_cell_angle_beta 90.000000
_cell_angle_gamma 90.000000
_cell_volume 1778.001297
_symmetry_space_group_name_H-M "P M N 21"
_symmetry_group_IT_number 31
_symmetry_cell_setting 'orthorhombic'
loop_
_space_group_symop_operation_xyz
x,y,z
1/2-x,-y,1/2+z
-x,y,z
1/2+x,-y,1/2+z
loop_
_atom_site_type_symbol
_atom_site_label
_atom_site_fract_x
_atom_site_fract_y
_atom_site_fract_z
Si Si1 0.669554 0.563485 0.540380
Si Si2 0.829823 0.071594 0.607791
Si Si3 0.836482 0.797831 0.139667
Si Si4 0.840521 0.293732 0.015292
Si Si5 0.163683 0.324279 0.687973
Si Si6 0.669717 0.450957 0.758106
Si Si7 0.159305 0.824094 0.467989
Si Si8 0.329942 0.038033 0.883021
O O1 0.500000 0.565577 0.493576
O O2 0.721409 0.637894 0.579945
O O3 0.694786 0.518203 0.674297
O O4 0.763467 0.536435 0.411084
O O5 0.750485 0.140286 0.576846
O O6 0.762239 0.033425 0.740610
O O7 0.000000 0.084032 0.636462
O O8 0.803902 0.027556 0.470607
O O9 0.749793 0.731274 0.099117
O O10 0.845360 0.803082 0.306473
O O11 0.000000 0.795577 0.076234
O O12 0.000000 0.280163 0.076141
O O13 0.844061 0.302341 0.848552
O O14 0.749498 0.229172 0.057725
O O15 0.249814 0.392705 0.674508
O O16 0.000000 0.332309 0.627167
O O17 0.500000 0.432851 0.771382
O O18 0.223374 0.898334 0.474181
O O19 0.000000 0.822979 0.535992
O O20 0.500000 0.048422 0.844032
#
# Coordination Sequence:
#
# PCOD8169788 Si02
#       8
#     4   4   4   4   4   4   4   4
#     4   9  19  33  47  68  98 126 156 196 238 285
#     4  10  19  31  49  71  95 126 161 197 239 283
#     4   9  16  27  44  67  94 121 153 195 237 278
#     4   8  14  25  41  62  88 115 145 186 229 268
#     4   9  16  27  44  67  94 121 153 195 237 278
#     4  10  19  31  49  71  95 126 161 197 239 283
#     4   8  14  25  41  62  88 115 145 186 229 268
#     4   9  19  33  47  68  98 126 156 196 238 285
#
# _framework density 17.997737999999998
#
# number of rings (size 3 to 8) (size 9 to 14) (size 15 to 20)
#    0.000    3.000    0.000    3.000    0.000    8.000 
#    0.000    0.000    0.000    1.500    0.000    7.000 
#    0.000    0.000    0.000    0.000    0.000    0.000 
#
# Total GULP energy -396628.777211 kJ/mol
# GULP energy per Si atom -12394.649288 kJ/mol
# Density = 1.795677 g / cm^3
# Si number density = 17.997738 Si / 1000 Ang^3
#
#
#
# Elastic Constant Matrix: (Units=GPa)
#
#
# Indices 1 2 3 4 5 6 
#
# 1 86.0532 9.7117 9.1419 0.0000 0.0000 0.0000
# 2 9.7117 27.5283 -6.6486 0.0000 0.0000 0.0000
# 3 9.1419 -6.6486 14.0638 0.0000 0.0000 0.0000
# 4 0.0000 0.0000 0.0000 20.7407 0.0000 0.0000
# 5 0.0000 0.0000 0.0000 0.0000 10.1402 0.0000
# 6 0.0000 0.0000 0.0000 0.0000 0.0000 33.9618
#
#
#
# Elastic Compliance Matrix: (Units=1/GPa)
#
#
# Indices 1 2 3 4 5 6 
#
# 1 0.013882 -0.007989 -0.012801 0.000000 0.000000 0.000000
# 2 -0.007989 0.045606 0.026753 0.000000 0.000000 0.000000
# 3 -0.012801 0.026753 0.092073 0.000000 0.000000 0.000000
# 4 0.000000 0.000000 0.000000 0.048214 0.000000 0.000000
# 5 0.000000 0.000000 0.000000 0.000000 0.098617 0.000000
# 6 0.000000 0.000000 0.000000 0.000000 0.000000 0.029445
#
#
# Mechanical properties :
#
#
# Convention : Reuss Voigt Hill
#
# Bulk Modulus (GPa) = 6.11664 16.89503 11.50583
# Shear Modulus (GPa) = 13.49866 20.66455 17.08160
#
# Velocity S-wave (km/s) = 2.74162 3.39215 3.08408
# Velocity P-wave (km/s) = 3.66441 4.97493 4.36909
#
# Compressibility (1/GPa) = 0.16348852
#
# Stress axis : x y z
#
# Youngs Moduli (GPa) = 72.03447 21.92686 10.86093
#
# Poissons Ratio (x) = 0.17518 0.13903
# Poissons Ratio (y) = 0.57549 -0.29057
# Poissons Ratio (z) = 0.92210 -0.58662
#
# Static dielectric constant tensor:
#      x y z
#    x 3.583260 0.000000 0.000000 
#    y 0.000000 3.613880 0.000000 
#    z 0.000000 0.000000 2.684110 
# 
# 
# High freq. dielectric constant tensor:
#      x y z
#    x 1.706390 0.000000 0.000000 
#    y 0.000000 1.713020 0.000000 
#    z 0.000000 0.000000 1.627020 
# 
# From -- ./inp_files/3790.got.cif
#   From: 2010.03.12/outbox.cif.g09.slc.cpg/sg31_2_cif.got.tgz:3790.got - 2010.04.14 01:42:59.
