data_PCOD8169034
_publ_section_title
;
Structure prediction by ZEFSAII (Michael W. Deem and Ramdas Pophale) SiO2 
 PCOD8169034
Probable space group: P C A 21
;
_chemical_formula_sum "Si O2"
_cell_formula_units_Z 28
_cell_length_a 11.473755
_cell_length_b 8.238949
_cell_length_c 11.889353
_cell_angle_alpha 90.000000
_cell_angle_beta 90.000000
_cell_angle_gamma 90.000000
_cell_volume 1123.920540
_symmetry_space_group_name_H-M "P C A 21"
_symmetry_group_IT_number 29
_symmetry_cell_setting 'orthorhombic'
loop_
_space_group_symop_operation_xyz
x,y,z
-x,-y,1/2+z
1/2-x,y,1/2+z
1/2+x,-y,z
loop_
_atom_site_type_symbol
_atom_site_label
_atom_site_fract_x
_atom_site_fract_y
_atom_site_fract_z
Si Si1 0.249267 0.148073 0.639190
Si Si2 0.976453 0.604117 0.739586
Si Si3 0.670170 0.204859 0.622651
Si Si4 0.861030 0.454241 0.540330
Si Si5 0.133095 0.338885 0.830080
Si Si6 0.036971 0.094585 0.994177
Si Si7 0.938696 0.755204 0.964421
O O1 0.225664 0.281858 0.735999
O O2 0.385529 0.129222 0.606465
O O3 0.181725 0.208349 0.527164
O O4 0.208370 0.967569 0.675773
O O5 0.097287 0.697205 0.714700
O O6 0.019386 0.425218 0.776294
O O7 0.881811 0.588513 0.638098
O O8 0.908996 0.705046 0.836467
O O9 0.777778 0.311516 0.580346
O O10 0.590042 0.171056 0.514241
O O11 0.811790 0.542655 0.427389
O O12 0.992490 0.393274 0.520482
O O13 0.089123 0.172210 0.883197
O O14 0.027990 0.904802 0.969678
#
# Coordination Sequence:
#
# PCOD8169034 Si02
#       7
#     4   4   4   4   4   4   4
#     4  11  24  46  77 106 146 200 254 310 375 465
#     4  11  24  46  73 108 146 192 247 314 385 453
#     4  11  25  47  73 108 152 195 250 305 381 455
#     4  11  23  48  73 111 149 193 248 319 382 458
#     4  11  25  44  75 107 149 189 257 307 385 444
#     4  11  24  47  71 110 148 198 247 311 375 457
#     4  10  23  46  72 108 146 193 253 310 375 460
#
# _framework density 24.912793000000001
#
# number of rings (size 3 to 8) (size 9 to 14) (size 15 to 20)
#    0.000    1.143    4.286    0.857    2.000    2.286 
#    7.714    2.857    0.000    0.000    0.000    0.000 
#    0.000    0.000    0.000    0.000    0.000    0.000 
#
# Total GULP energy -347172.349645 kJ/mol
# GULP energy per Si atom -12399.012487 kJ/mol
# Density = 2.485609 g / cm^3
# Si number density = 24.912793 Si / 1000 Ang^3
#
#
#
# Elastic Constant Matrix: (Units=GPa)
#
#
# Indices 1 2 3 4 5 6 
#
# 1 98.7542 33.9338 35.8942 0.0000 0.0000 0.0000
# 2 33.9338 122.3267 54.2492 0.0000 0.0000 0.0000
# 3 35.8942 54.2492 135.0405 0.0000 0.0000 0.0000
# 4 0.0000 0.0000 0.0000 46.0463 0.0000 0.0000
# 5 0.0000 0.0000 0.0000 0.0000 27.6373 0.0000
# 6 0.0000 0.0000 0.0000 0.0000 0.0000 41.5044
#
#
#
# Elastic Compliance Matrix: (Units=1/GPa)
#
#
# Indices 1 2 3 4 5 6 
#
# 1 0.011706 -0.002272 -0.002199 0.000000 0.000000 0.000000
# 2 -0.002272 0.010388 -0.003569 0.000000 0.000000 0.000000
# 3 -0.002199 -0.003569 0.009423 0.000000 0.000000 0.000000
# 4 0.000000 0.000000 0.000000 0.021717 0.000000 0.000000
# 5 0.000000 0.000000 0.000000 0.000000 0.036183 0.000000
# 6 0.000000 0.000000 0.000000 0.000000 0.000000 0.024094
#
#
# Mechanical properties :
#
#
# Convention : Reuss Voigt Hill
#
# Bulk Modulus (GPa) = 64.77802 67.14178 65.95990
# Shear Modulus (GPa) = 37.10919 38.50722 37.80821
#
# Velocity S-wave (km/s) = 3.86367 3.93578 3.89989
# Velocity P-wave (km/s) = 6.77955 6.90384 6.84198
#
# Compressibility (1/GPa) = 0.01543734
#
# Stress axis : x y z
#
# Youngs Moduli (GPa) = 85.42555 96.26497 106.11849
#
# Poissons Ratio (x) = 0.21874 0.23332
# Poissons Ratio (y) = 0.19411 0.37875
# Poissons Ratio (z) = 0.18783 0.34358
#
# Static dielectric constant tensor:
#      x y z
#    x 4.254480 0.000000 0.000000 
#    y 0.000000 4.793170 0.000000 
#    z 0.000000 0.000000 4.428040 
# 
# 
# High freq. dielectric constant tensor:
#      x y z
#    x 1.994760 0.000000 0.000000 
#    y 0.000000 2.017770 0.000000 
#    z 0.000000 0.000000 1.986620 
# 
# From -- ./inp_files/3127.got.cif
#   From: 2010.03.12/outbox.cif.g09.slc.cpg/sg29_2_cif.got.tgz:3127.got - 2010.04.14 03:43:10.
