data_PCOD8169267
_publ_section_title
;
Structure prediction by ZEFSAII (Michael W. Deem and Ramdas Pophale) SiO2 
 PCOD8169267
Probable space group: P C A 21
;
_chemical_formula_sum "Si O2"
_cell_formula_units_Z 28
_cell_length_a 17.703476
_cell_length_b 7.774628
_cell_length_c 9.017200
_cell_angle_alpha 90.000000
_cell_angle_beta 90.000000
_cell_angle_gamma 90.000000
_cell_volume 1241.108834
_symmetry_space_group_name_H-M "P C A 21"
_symmetry_group_IT_number 29
_symmetry_cell_setting 'orthorhombic'
loop_
_space_group_symop_operation_xyz
x,y,z
-x,-y,1/2+z
1/2-x,y,1/2+z
1/2+x,-y,z
loop_
_atom_site_type_symbol
_atom_site_label
_atom_site_fract_x
_atom_site_fract_y
_atom_site_fract_z
Si Si1 0.189981 0.841240 0.477240
Si Si2 0.793091 0.619956 0.576067
Si Si3 0.785549 0.349570 0.251472
Si Si4 0.422640 0.484047 0.384772
Si Si5 0.986646 0.813878 0.813959
Si Si6 0.812351 0.795208 0.857626
Si Si7 0.016225 0.827437 0.457929
O O1 0.191546 0.818448 0.655042
O O2 0.251147 0.709547 0.407790
O O3 0.104859 0.807787 0.423380
O O4 0.216456 0.029249 0.429300
O O5 0.778524 0.447661 0.664854
O O6 0.879338 0.584732 0.529788
O O7 0.789569 0.785756 0.684447
O O8 0.732877 0.643710 0.443163
O O9 0.857011 0.480191 0.263852
O O10 0.466128 0.664675 0.396381
O O11 0.479802 0.325735 0.357540
O O12 0.901969 0.773699 0.867329
O O13 0.997973 0.816727 0.634957
O O14 0.013677 0.993766 0.887341
#
# Coordination Sequence:
#
# PCOD8169267 Si02
#       7
#     4   4   4   4   4   4   4
#     4  11  25  46  71 100 140 184 234 292 347 420
#     4  12  24  45  69 104 134 182 237 284 352 412
#     4  12  24  45  69 104 134 182 237 284 352 412
#     4  12  26  42  74 100 146 178 230 296 346 418
#     4  11  27  48  71 106 141 187 236 285 356 424
#     4  11  25  46  71 100 140 184 234 292 347 420
#     4  11  27  48  71 106 141 187 236 285 356 424
#
# _framework density 22.560472000000001
#
# number of rings (size 3 to 8) (size 9 to 14) (size 15 to 20)
#    0.000    0.571    5.714    0.857    4.000    6.857 
#    0.000    0.000    0.000    0.000    0.000    0.000 
#    0.000    0.000    0.000    0.000    0.000    0.000 
#
# Total GULP energy -346929.164640 kJ/mol
# GULP energy per Si atom -12390.327309 kJ/mol
# Density = 2.250912 g / cm^3
# Si number density = 22.560472 Si / 1000 Ang^3
#
#
#
# Elastic Constant Matrix: (Units=GPa)
#
#
# Indices 1 2 3 4 5 6 
#
# 1 93.6465 44.5352 25.6110 0.0000 0.0000 0.0000
# 2 44.5352 135.0999 53.3825 0.0000 0.0000 0.0000
# 3 25.6110 53.3825 119.2258 0.0000 0.0000 0.0000
# 4 0.0000 0.0000 0.0000 46.3657 0.0000 0.0000
# 5 0.0000 0.0000 0.0000 0.0000 20.9348 0.0000
# 6 0.0000 0.0000 0.0000 0.0000 0.0000 34.3636
#
#
#
# Elastic Compliance Matrix: (Units=1/GPa)
#
#
# Indices 1 2 3 4 5 6 
#
# 1 0.012770 -0.003797 -0.001043 0.000000 0.000000 0.000000
# 2 -0.003797 0.010122 -0.003716 0.000000 0.000000 0.000000
# 3 -0.001043 -0.003716 0.010275 0.000000 0.000000 0.000000
# 4 0.000000 0.000000 0.000000 0.021568 0.000000 0.000000
# 5 0.000000 0.000000 0.000000 0.000000 0.047767 0.000000
# 6 0.000000 0.000000 0.000000 0.000000 0.000000 0.029101
#
#
# Mechanical properties :
#
#
# Convention : Reuss Voigt Hill
#
# Bulk Modulus (GPa) = 62.28974 66.11440 64.20207
# Shear Modulus (GPa) = 32.45333 35.29571 33.87452
#
# Velocity S-wave (km/s) = 3.79688 3.95966 3.87912
# Velocity P-wave (km/s) = 6.84776 7.09043 6.97015
#
# Compressibility (1/GPa) = 0.01605401
#
# Stress axis : x y z
#
# Youngs Moduli (GPa) = 78.31122 98.79260 97.31931
#
# Poissons Ratio (x) = 0.37516 0.10148
# Poissons Ratio (y) = 0.29738 0.36168
# Poissons Ratio (z) = 0.08166 0.36716
#
# Static dielectric constant tensor:
#      x y z
#    x 4.105740 0.000000 0.000000 
#    y 0.000000 4.155800 0.000000 
#    z 0.000000 0.000000 4.166210 
# 
# 
# High freq. dielectric constant tensor:
#      x y z
#    x 1.899460 0.000000 0.000000 
#    y 0.000000 1.896710 0.000000 
#    z 0.000000 0.000000 1.885610 
# 
# From -- ./inp_files/2132.got.cif
#   From: 2010.03.12/outbox.cif.g09.slc.cpg/sg29_2_cif.got.tgz:2132.got - 2010.04.14 03:43:10.
