data_PCOD8169140
_publ_section_title
;
Structure prediction by ZEFSAII (Michael W. Deem and Ramdas Pophale) SiO2 
 PCOD8169140
Probable space group: P C A 21
;
_chemical_formula_sum "Si O2"
_cell_formula_units_Z 32
_cell_length_a 13.519514
_cell_length_b 11.485285
_cell_length_c 8.944306
_cell_angle_alpha 90.000000
_cell_angle_beta 90.000000
_cell_angle_gamma 90.000000
_cell_volume 1388.831330
_symmetry_space_group_name_H-M "P C A 21"
_symmetry_group_IT_number 29
_symmetry_cell_setting 'orthorhombic'
loop_
_space_group_symop_operation_xyz
x,y,z
-x,-y,1/2+z
1/2-x,y,1/2+z
1/2+x,-y,z
loop_
_atom_site_type_symbol
_atom_site_label
_atom_site_fract_x
_atom_site_fract_y
_atom_site_fract_z
Si Si1 0.960680 0.364580 0.783280
Si Si2 0.907456 0.729902 0.754601
Si Si3 0.251492 0.545690 0.855848
Si Si4 0.013382 0.099617 0.751909
Si Si5 0.603064 0.937438 0.060056
Si Si6 0.265213 0.388575 0.113327
Si Si7 0.178314 0.148160 0.534678
Si Si8 0.954005 0.422686 0.449068
O O1 0.843165 0.371329 0.819558
O O2 0.991363 0.405645 0.617346
O O3 0.991976 0.231531 0.799301
O O4 0.020545 0.445445 0.899490
O O5 0.943867 0.817507 0.624773
O O6 0.849074 0.624752 0.669633
O O7 0.998264 0.673584 0.841871
O O8 0.842954 0.812279 0.865430
O O9 0.193983 0.497332 0.709050
O O10 0.164143 0.605937 0.950976
O O11 0.284626 0.426625 0.942300
O O12 0.091991 0.078358 0.617322
O O13 0.051733 0.034210 0.900707
O O14 0.915435 0.039795 0.682101
O O15 0.720774 0.925128 0.035289
O O16 0.314651 0.264181 0.138999
#
# Coordination Sequence:
#
# PCOD8169140 Si02
#       8
#     4   4   4   4   4   4   4   4
#     4  12  28  45  69 107 147 192 238 296 370 435
#     4  11  22  43  71 103 138 186 248 299 353 414
#     4  12  24  40  63 102 148 190 230 284 364 439
#     4  12  27  49  73 105 149 185 245 308 369 436
#     4  11  27  46  74 106 135 191 246 305 368 423
#     4  11  21  38  64 103 139 182 238 288 343 427
#     4  11  22  44  77 103 135 186 248 308 350 423
#     4  12  25  43  69 103 147 190 233 300 355 437
#
# _framework density 23.040955
#
# number of rings (size 3 to 8) (size 9 to 14) (size 15 to 20)
#    0.000    0.500    5.000    3.000    8.750    0.000 
#    2.250    1.250    0.000    0.000    0.000    0.000 
#    0.000    0.000    0.000    0.000    0.000    0.000 
#
# Total GULP energy -396687.964157 kJ/mol
# GULP energy per Si atom -12396.498880 kJ/mol
# Density = 2.298851 g / cm^3
# Si number density = 23.040955 Si / 1000 Ang^3
#
#
#
# Elastic Constant Matrix: (Units=GPa)
#
#
# Indices 1 2 3 4 5 6 
#
# 1 76.2971 27.0682 10.6926 0.0000 0.0000 0.0000
# 2 27.0682 70.2545 26.9890 0.0000 0.0000 0.0000
# 3 10.6926 26.9890 86.4284 0.0000 0.0000 0.0000
# 4 0.0000 0.0000 0.0000 40.6807 0.0000 0.0000
# 5 0.0000 0.0000 0.0000 0.0000 35.1365 0.0000
# 6 0.0000 0.0000 0.0000 0.0000 0.0000 25.8118
#
#
#
# Elastic Compliance Matrix: (Units=1/GPa)
#
#
# Indices 1 2 3 4 5 6 
#
# 1 0.015182 -0.005827 -0.000059 0.000000 0.000000 0.000000
# 2 -0.005827 0.018411 -0.005028 0.000000 0.000000 0.000000
# 3 -0.000059 -0.005028 0.013148 0.000000 0.000000 0.000000
# 4 0.000000 0.000000 0.000000 0.024582 0.000000 0.000000
# 5 0.000000 0.000000 0.000000 0.000000 0.028460 0.000000
# 6 0.000000 0.000000 0.000000 0.000000 0.000000 0.038742
#
#
# Mechanical properties :
#
#
# Convention : Reuss Voigt Hill
#
# Bulk Modulus (GPa) = 40.14001 40.27549 40.20775
# Shear Modulus (GPa) = 29.64605 31.54113 30.59359
#
# Velocity S-wave (km/s) = 3.59091 3.70390 3.64784
# Velocity P-wave (km/s) = 5.88658 5.98412 5.93555
#
# Compressibility (1/GPa) = 0.02491280
#
# Stress axis : x y z
#
# Youngs Moduli (GPa) = 65.86692 54.31637 76.05896
#
# Poissons Ratio (x) = 0.31650 0.00446
# Poissons Ratio (y) = 0.38380 0.38244
# Poissons Ratio (z) = 0.00387 0.27311
#
# Static dielectric constant tensor:
#      x y z
#    x 4.086730 0.000000 0.000000 
#    y 0.000000 3.836790 0.000000 
#    z 0.000000 0.000000 4.364830 
# 
# 
# High freq. dielectric constant tensor:
#      x y z
#    x 1.904660 0.000000 0.000000 
#    y 0.000000 1.878100 0.000000 
#    z 0.000000 0.000000 1.935800 
# 
# From -- ./inp_files/1865.got.cif
#   From: 2010.03.12/outbox.cif.g09.slc.cpg/sg29_1_cif.got.tgz:1865.got - 2010.04.14 03:43:10.
