data_PCOD8169509
_publ_section_title
;
Structure prediction by ZEFSAII (Michael W. Deem and Ramdas Pophale) SiO2 
 PCOD8169509
Probable space group: P N C 2
;
_chemical_formula_sum "Si O2"
_cell_formula_units_Z 28
_cell_length_a 9.599619
_cell_length_b 18.253710
_cell_length_c 7.666395
_cell_angle_alpha 90.000000
_cell_angle_beta 90.000000
_cell_angle_gamma 90.000000
_cell_volume 1343.372133
_symmetry_space_group_name_H-M "P N C 2"
_symmetry_group_IT_number 30
_symmetry_cell_setting 'orthorhombic'
loop_
_space_group_symop_operation_xyz
x,y,z
-x,-y,z
-x,1/2+y,1/2+z
x,1/2-y,1/2+z
loop_
_atom_site_type_symbol
_atom_site_label
_atom_site_fract_x
_atom_site_fract_y
_atom_site_fract_z
Si Si1 0.417061 0.668966 0.179170
Si Si2 0.731130 0.837840 0.587272
Si Si3 0.884921 0.731566 0.383868
Si Si4 0.131424 0.033532 0.405556
Si Si5 0.667884 0.331451 0.575559
Si Si6 0.382969 0.562137 0.864868
Si Si7 0.020465 0.848606 0.188619
O O1 0.583583 0.669241 0.178435
O O2 0.367372 0.650426 0.374836
O O3 0.357252 0.746404 0.115532
O O4 0.367345 0.605986 0.046811
O O5 0.746783 0.780692 0.426789
O O6 0.854819 0.818799 0.719066
O O7 0.762800 0.919670 0.523049
O O8 0.013599 0.787371 0.343466
O O9 0.916895 0.677662 0.539280
O O10 0.048882 0.076017 0.252117
O O11 0.230262 0.970844 0.324191
O O12 0.000000 0.000000 0.515985
O O13 0.575999 0.381919 0.707506
O O14 0.825855 0.354565 0.613196
O O15 0.500000 0.500000 0.877355
#
# Coordination Sequence:
#
# PCOD8169509 Si02
#       7
#     4   4   4   4   4   4   4
#     4  12  25  43  73 108 141 186 245 302 368 438
#     4  10  21  40  64  98 133 175 227 282 350 428
#     4   9  20  36  66  95 130 169 223 292 346 406
#     4  11  23  44  68  91 139 191 226 289 362 423
#     4  12  25  43  75 104 142 189 245 300 370 436
#     4  12  27  48  72 102 149 191 239 303 368 444
#     4  10  21  40  64  99 135 177 236 289 349 429
#
# _framework density 20.843070000000001
#
# number of rings (size 3 to 8) (size 9 to 14) (size 15 to 20)
#    0.000    1.143    4.286    1.714    0.000    5.143 
#    2.571    0.714    0.000    0.000    0.000    0.000 
#    0.000    0.000    0.000    0.000    0.000    0.000 
#
# Total GULP energy -347060.315909 kJ/mol
# GULP energy per Si atom -12395.011282 kJ/mol
# Density = 2.079563 g / cm^3
# Si number density = 20.843070 Si / 1000 Ang^3
#
#
#
# Elastic Constant Matrix: (Units=GPa)
#
#
# Indices 1 2 3 4 5 6 
#
# 1 121.3582 46.5507 39.8979 0.0000 0.0000 0.0000
# 2 46.5507 118.3309 58.0308 0.0000 0.0000 0.0000
# 3 39.8979 58.0308 137.9002 0.0000 0.0000 0.0000
# 4 0.0000 0.0000 0.0000 25.5298 0.0000 0.0000
# 5 0.0000 0.0000 0.0000 0.0000 35.4820 0.0000
# 6 0.0000 0.0000 0.0000 0.0000 0.0000 30.9547
#
#
#
# Elastic Compliance Matrix: (Units=1/GPa)
#
#
# Indices 1 2 3 4 5 6 
#
# 1 0.009962 -0.003157 -0.001554 0.000000 0.000000 0.000000
# 2 -0.003157 0.011649 -0.003989 0.000000 0.000000 0.000000
# 3 -0.001554 -0.003989 0.009380 0.000000 0.000000 0.000000
# 4 0.000000 0.000000 0.000000 0.039170 0.000000 0.000000
# 5 0.000000 0.000000 0.000000 0.000000 0.028183 0.000000
# 6 0.000000 0.000000 0.000000 0.000000 0.000000 0.032305
#
#
# Mechanical properties :
#
#
# Convention : Reuss Voigt Hill
#
# Bulk Modulus (GPa) = 73.57434 74.06091 73.81762
# Shear Modulus (GPa) = 32.77008 33.93394 33.35201
#
# Velocity S-wave (km/s) = 3.96944 4.03931 4.00453
# Velocity P-wave (km/s) = 7.50895 7.57393 7.54151
#
# Compressibility (1/GPa) = 0.01359169
#
# Stress axis : x y z
#
# Youngs Moduli (GPa) = 100.38323 85.84496 106.61382
#
# Poissons Ratio (x) = 0.27101 0.16564
# Poissons Ratio (y) = 0.31691 0.42525
# Poissons Ratio (z) = 0.15596 0.34241
#
# Static dielectric constant tensor:
#      x y z
#    x 3.774350 0.000000 0.000000 
#    y 0.000000 4.037280 0.000000 
#    z 0.000000 0.000000 3.852850 
# 
# 
# High freq. dielectric constant tensor:
#      x y z
#    x 1.821160 0.000000 0.000000 
#    y 0.000000 1.828610 0.000000 
#    z 0.000000 0.000000 1.809410 
# 
# From -- ./inp_files/2003.got.cif
#   From: 2010.03.12/outbox.cif.g09.slc.cpg/sg30_2_cif.got.tgz:2003.got - 2010.04.14 01:38:02.
