data_PCOD8169063
_publ_section_title
;
Structure prediction by ZEFSAII (Michael W. Deem and Ramdas Pophale) SiO2 
 PCOD8169063
Probable space group: P C A 21
;
_chemical_formula_sum "Si O2"
_cell_formula_units_Z 20
_cell_length_a 7.999981
_cell_length_b 4.710866
_cell_length_c 16.747701
_cell_angle_alpha 90.000000
_cell_angle_beta 90.000000
_cell_angle_gamma 90.000000
_cell_volume 631.167903
_symmetry_space_group_name_H-M "P C A 21"
_symmetry_group_IT_number 29
_symmetry_cell_setting 'orthorhombic'
loop_
_space_group_symop_operation_xyz
x,y,z
-x,-y,1/2+z
1/2-x,y,1/2+z
1/2+x,-y,z
loop_
_atom_site_type_symbol
_atom_site_label
_atom_site_fract_x
_atom_site_fract_y
_atom_site_fract_z
Si Si1 0.511316 0.312469 0.523440
Si Si2 0.988684 0.187531 0.414309
Si Si3 0.313740 0.630356 0.819119
Si Si4 0.107286 0.250000 0.718874
Si Si5 0.813739 0.130356 0.618630
O O1 0.456455 0.630596 0.497013
O O2 0.684167 0.327678 0.571940
O O3 0.543545 0.130596 0.440735
O O4 0.361227 0.155699 0.569945
O O5 0.815833 0.172322 0.365809
O O6 0.138773 0.344301 0.367803
O O7 0.223459 0.520212 0.736949
O O8 0.482403 0.806790 0.795180
O O9 0.982403 0.306790 0.642568
O O10 0.223460 0.979789 0.700799
#
# Coordination Sequence:
#
# PCOD8169063 Si02
#       5
#     4   4   4   4   4
#     4  11  24  44  72 106 143 190 242 302 366 433
#     4  11  24  44  72 106 143 190 242 302 366 433
#     4  10  24  42  70 104 148 190 242 302 364 438
#     4  10  24  44  64 104 142 192 240 294 364 430
#     4  10  24  42  70 104 148 190 242 302 364 438
#
# _framework density 31.687287000000001
#
# number of rings (size 3 to 8) (size 9 to 14) (size 15 to 20)
#    0.000    1.600    0.000    2.400    0.000   19.200 
#    0.000    0.000    0.000    0.000    0.000    0.000 
#    0.000    0.000    0.000    0.000    0.000    0.000 
#
# Total GULP energy -248151.650529 kJ/mol
# GULP energy per Si atom -12407.582526 kJ/mol
# Density = 3.161517 g / cm^3
# Si number density = 31.687287 Si / 1000 Ang^3
#
#
#
# Elastic Constant Matrix: (Units=GPa)
#
#
# Indices 1 2 3 4 5 6 
#
# 1 170.5279 54.0582 32.7932 0.0000 0.0000 0.0000
# 2 54.0582 114.4564 1.2798 0.0000 0.0000 0.0000
# 3 32.7932 1.2798 107.1970 0.0000 0.0000 0.0000
# 4 0.0000 0.0000 0.0000 28.1058 0.0000 0.0000
# 5 0.0000 0.0000 0.0000 0.0000 57.6239 0.0000
# 6 0.0000 0.0000 0.0000 0.0000 0.0000 11.9435
#
#
#
# Elastic Compliance Matrix: (Units=1/GPa)
#
#
# Indices 1 2 3 4 5 6 
#
# 1 0.007389 -0.003465 -0.002219 0.000000 0.000000 0.000000
# 2 -0.003465 0.010363 0.000936 0.000000 0.000000 0.000000
# 3 -0.002219 0.000936 0.009996 0.000000 0.000000 0.000000
# 4 0.000000 0.000000 0.000000 0.035580 0.000000 0.000000
# 5 0.000000 0.000000 0.000000 0.000000 0.017354 0.000000
# 6 0.000000 0.000000 0.000000 0.000000 0.000000 0.083727
#
#
# Mechanical properties :
#
#
# Convention : Reuss Voigt Hill
#
# Bulk Modulus (GPa) = 54.78629 63.16043 58.97336
# Shear Modulus (GPa) = 27.77928 39.80465 33.79196
#
# Velocity S-wave (km/s) = 2.96407 3.54810 3.26915
# Velocity P-wave (km/s) = 5.38902 6.06308 5.73596
#
# Compressibility (1/GPa) = 0.01825274
#
# Stress axis : x y z
#
# Youngs Moduli (GPa) = 135.32915 96.49601 100.03688
#
# Poissons Ratio (x) = 0.33438 0.22200
# Poissons Ratio (y) = 0.46895 -0.09367
# Poissons Ratio (z) = 0.30032 -0.09035
#
# Static dielectric constant tensor:
#      x y z
#    x 5.897750 0.000000 0.000000 
#    y 0.000000 5.345550 0.000000 
#    z 0.000000 0.000000 6.694670 
# 
# 
# High freq. dielectric constant tensor:
#      x y z
#    x 2.320260 0.000000 0.000000 
#    y 0.000000 2.297610 0.000000 
#    z 0.000000 0.000000 2.352200 
# 
# From -- ./inp_files/346.got.cif
#   From: 2010.03.12/outbox.cif.g09.slc.cpg/sg29_1_cif.got.tgz:346.got - 2010.04.14 03:43:10.
