data_PCOD8169633
_publ_section_title
;
Structure prediction by ZEFSAII (Michael W. Deem and Ramdas Pophale) SiO2 
 PCOD8169633
Probable space group: P N C 2
;
_chemical_formula_sum "Si O2"
_cell_formula_units_Z 24
_cell_length_a 13.178664
_cell_length_b 9.132129
_cell_length_c 8.958037
_cell_angle_alpha 90.000000
_cell_angle_beta 90.000000
_cell_angle_gamma 90.000000
_cell_volume 1078.093121
_symmetry_space_group_name_H-M "P N C 2"
_symmetry_group_IT_number 30
_symmetry_cell_setting 'orthorhombic'
loop_
_space_group_symop_operation_xyz
x,y,z
-x,-y,z
-x,1/2+y,1/2+z
x,1/2-y,1/2+z
loop_
_atom_site_type_symbol
_atom_site_label
_atom_site_fract_x
_atom_site_fract_y
_atom_site_fract_z
Si Si1 0.994580 0.346017 0.326920
Si Si2 0.307715 0.171750 0.681173
Si Si3 0.604418 0.585750 0.871014
Si Si4 0.884747 0.635954 0.627176
Si Si5 0.766384 0.110600 0.842854
Si Si6 0.745161 0.392590 0.672035
O O1 0.070825 0.368878 0.463047
O O2 0.032259 0.206746 0.235059
O O3 0.000000 0.500000 0.232484
O O4 0.879260 0.328242 0.379261
O O5 0.388912 0.255330 0.788626
O O6 0.371000 0.103018 0.545527
O O7 0.221803 0.278942 0.617006
O O8 0.245505 0.048505 0.770839
O O9 0.500000 0.500000 0.851238
O O10 0.685431 0.487058 0.790019
O O11 0.858609 0.467373 0.673694
O O12 0.728082 0.226605 0.722424
O O13 0.705497 0.107192 0.000038
#
# Coordination Sequence:
#
# PCOD8169633 Si02
#       6
#     4   4   4   4   4   4
#     4  12  23  39  63  97 134 179 242 261 321 393
#     4  11  23  46  73  96 139 176 220 279 345 397
#     4  11  26  47  73 103 126 175 221 274 348 413
#     4  11  22  43  63  94 136 185 222 282 323 388
#     4  12  24  42  65 102 138 184 224 279 327 396
#     4  11  24  43  66  96 140 173 228 280 344 394
#
# _framework density 22.261527000000001
#
# number of rings (size 3 to 8) (size 9 to 14) (size 15 to 20)
#    0.000    0.667    3.333    6.000    0.000    2.667 
#    3.000    1.667    0.000    0.000    0.000    0.000 
#    0.000    0.000    0.000    0.000    0.000    0.000 
#
# Total GULP energy -297357.823919 kJ/mol
# GULP energy per Si atom -12389.909330 kJ/mol
# Density = 2.221086 g / cm^3
# Si number density = 22.261527 Si / 1000 Ang^3
#
#
#
# Elastic Constant Matrix: (Units=GPa)
#
#
# Indices 1 2 3 4 5 6 
#
# 1 74.3611 34.8395 41.8550 0.0000 0.0000 0.0000
# 2 34.8395 113.0521 49.4983 0.0000 0.0000 0.0000
# 3 41.8550 49.4983 122.6718 0.0000 0.0000 0.0000
# 4 0.0000 0.0000 0.0000 46.3225 0.0000 0.0000
# 5 0.0000 0.0000 0.0000 0.0000 -0.0806 0.0000
# 6 0.0000 0.0000 0.0000 0.0000 0.0000 34.0676
#
#
#
# Elastic Compliance Matrix: (Units=1/GPa)
#
#
# Indices 1 2 3 4 5 6 
#
# 1 0.017662 -0.003406 -0.004652 0.000000 0.000000 0.000000
# 2 -0.003406 0.011400 -0.003438 0.000000 0.000000 0.000000
# 3 -0.004652 -0.003438 0.011126 0.000000 0.000000 0.000000
# 4 0.000000 0.000000 0.000000 0.021588 0.000000 0.000000
# 5 0.000000 0.000000 0.000000 0.000000-12.413914 0.000000
# 6 0.000000 0.000000 0.000000 0.000000 0.000000 0.029353
#
#
# Mechanical properties :
#
#
# Convention : Reuss Voigt Hill
#
# Bulk Modulus (GPa) = 58.15016 62.49672 60.32344
# Shear Modulus (GPa) = -0.40670 28.32139 13.95734
#
# Velocity S-wave (km/s) = -0.42789 3.57068 2.50666
# Velocity P-wave (km/s) = 5.09254 6.71822 5.96106
#
# Compressibility (1/GPa) = 0.01719686
#
# Stress axis : x y z
#
# Youngs Moduli (GPa) = 56.61844 87.71601 89.87790
#
# Poissons Ratio (x) = 0.29878 0.41809
# Poissons Ratio (y) = 0.19286 0.30899
# Poissons Ratio (z) = 0.26338 0.30156
#
# Static dielectric constant tensor:
#      x y z
#    x 4.123680 0.000000 0.000000 
#    y 0.000000 5.062350 0.000000 
#    z 0.000000 0.000000 4.162070 
# 
# 
# High freq. dielectric constant tensor:
#      x y z
#    x 1.853320 0.000000 0.000000 
#    y 0.000000 1.897320 0.000000 
#    z 0.000000 0.000000 1.881100 
# 
# From -- ./inp_files/2630.got.cif
#   From: 2010.03.12/outbox.cif.g09.slc.cpg/sg30_2_cif.got.tgz:2630.got - 2010.04.14 01:38:02.
