data_PCOD8169051
_publ_section_title
;
Structure prediction by ZEFSAII (Michael W. Deem and Ramdas Pophale) SiO2 
 PCOD8169051
Probable space group: P C A 21
;
_chemical_formula_sum "Si O2"
_cell_formula_units_Z 28
_cell_length_a 8.877421
_cell_length_b 13.823166
_cell_length_c 10.489648
_cell_angle_alpha 90.000000
_cell_angle_beta 90.000000
_cell_angle_gamma 90.000000
_cell_volume 1287.227337
_symmetry_space_group_name_H-M "P C A 21"
_symmetry_group_IT_number 29
_symmetry_cell_setting 'orthorhombic'
loop_
_space_group_symop_operation_xyz
x,y,z
-x,-y,1/2+z
1/2-x,y,1/2+z
1/2+x,-y,z
loop_
_atom_site_type_symbol
_atom_site_label
_atom_site_fract_x
_atom_site_fract_y
_atom_site_fract_z
Si Si1 0.799114 0.915271 0.637730
Si Si2 0.060067 0.000487 0.797045
Si Si3 0.673333 0.703730 0.037714
Si Si4 0.327576 0.702405 0.035992
Si Si5 0.325464 0.604120 0.299281
Si Si6 0.681408 0.604944 0.298331
Si Si7 0.798719 0.084317 0.957415
O O1 0.961941 0.941929 0.694404
O O2 0.807883 0.817670 0.558061
O O3 0.667390 0.913132 0.744105
O O4 0.747894 0.000298 0.549202
O O5 0.166264 0.914429 0.851778
O O6 0.961112 0.058349 0.899447
O O7 0.500851 0.674453 0.012039
O O8 0.734079 0.652166 0.165492
O O9 0.770057 0.671917 0.916402
O O10 0.271618 0.659488 0.171207
O O11 0.227296 0.661447 0.922791
O O12 0.305735 0.817373 0.036754
O O13 0.503448 0.594546 0.303322
O O14 0.255672 0.498803 0.306647
#
# Coordination Sequence:
#
# PCOD8169051 Si02
#       7
#     4   4   4   4   4   4   4
#     4  11  24  43  65 102 141 185 237 282 346 410
#     4  10  24  40  67  92 150 186 233 290 340 406
#     4  11  26  44  73 103 139 183 232 285 351 418
#     4  11  26  44  73 103 139 183 232 286 350 418
#     4  11  26  48  71 103 137 178 231 292 352 421
#     4  11  26  47  72 102 139 177 232 290 353 419
#     4  11  24  42  65 101 141 186 235 283 346 408
#
# _framework density 21.752182000000001
#
# number of rings (size 3 to 8) (size 9 to 14) (size 15 to 20)
#    0.000    1.143    0.000    4.286   14.000    5.714 
#    0.000    0.000    0.000    0.000    0.000    0.000 
#    0.000    0.000    0.000    0.000    0.000    0.000 
#
# Total GULP energy -347255.050872 kJ/mol
# GULP energy per Si atom -12401.966103 kJ/mol
# Density = 2.170267 g / cm^3
# Si number density = 21.752182 Si / 1000 Ang^3
#
#
#
# Elastic Constant Matrix: (Units=GPa)
#
#
# Indices 1 2 3 4 5 6 
#
# 1 97.0244 7.1447 28.3418 0.0000 0.0000 0.0000
# 2 7.1447 103.7570 21.3363 0.0000 0.0000 0.0000
# 3 28.3418 21.3363 111.1340 0.0000 0.0000 0.0000
# 4 0.0000 0.0000 0.0000 34.2141 0.0000 0.0000
# 5 0.0000 0.0000 0.0000 0.0000 22.2570 0.0000
# 6 0.0000 0.0000 0.0000 0.0000 0.0000 30.0831
#
#
#
# Elastic Compliance Matrix: (Units=1/GPa)
#
#
# Indices 1 2 3 4 5 6 
#
# 1 0.011140 -0.000190 -0.002804 0.000000 0.000000 0.000000
# 2 -0.000190 0.010037 -0.001878 0.000000 0.000000 0.000000
# 3 -0.002804 -0.001878 0.010074 0.000000 0.000000 0.000000
# 4 0.000000 0.000000 0.000000 0.029228 0.000000 0.000000
# 5 0.000000 0.000000 0.000000 0.000000 0.044930 0.000000
# 6 0.000000 0.000000 0.000000 0.000000 0.000000 0.033241
#
#
# Mechanical properties :
#
#
# Convention : Reuss Voigt Hill
#
# Bulk Modulus (GPa) = 46.50160 47.28456 46.89308
# Shear Modulus (GPa) = 32.14097 34.31699 33.22898
#
# Velocity S-wave (km/s) = 3.84812 3.97625 3.91271
# Velocity P-wave (km/s) = 6.41626 6.54720 6.48206
#
# Compressibility (1/GPa) = 0.02150464
#
# Stress axis : x y z
#
# Youngs Moduli (GPa) = 89.76741 99.62839 99.26566
#
# Poissons Ratio (x) = 0.01897 0.27838
# Poissons Ratio (y) = 0.01709 0.18647
# Poissons Ratio (z) = 0.25174 0.18715
#
# Static dielectric constant tensor:
#      x y z
#    x 3.596020 0.000000 0.000000 
#    y 0.000000 4.709220 0.000000 
#    z 0.000000 0.000000 3.964960 
# 
# 
# High freq. dielectric constant tensor:
#      x y z
#    x 1.871110 0.000000 0.000000 
#    y 0.000000 1.854150 0.000000 
#    z 0.000000 0.000000 1.876300 
# 
# From -- ./inp_files/2864.got.cif
#   From: 2010.03.12/outbox.cif.g09.slc.cpg/sg29_2_cif.got.tgz:2864.got - 2010.04.14 03:43:10.
