data_PCOD8169351
_publ_section_title
;
Structure prediction by ZEFSAII (Michael W. Deem and Ramdas Pophale) SiO2 
 PCOD8169351
Probable space group: P C A 21
;
_chemical_formula_sum "Si O2"
_cell_formula_units_Z 24
_cell_length_a 9.616153
_cell_length_b 8.331729
_cell_length_c 12.884661
_cell_angle_alpha 90.000000
_cell_angle_beta 90.000000
_cell_angle_gamma 90.000000
_cell_volume 1032.308484
_symmetry_space_group_name_H-M "P C A 21"
_symmetry_group_IT_number 29
_symmetry_cell_setting 'orthorhombic'
loop_
_space_group_symop_operation_xyz
x,y,z
-x,-y,1/2+z
1/2-x,y,1/2+z
1/2+x,-y,z
loop_
_atom_site_type_symbol
_atom_site_label
_atom_site_fract_x
_atom_site_fract_y
_atom_site_fract_z
Si Si1 0.137074 0.369725 0.159570
Si Si2 0.224971 0.568515 0.355410
Si Si3 0.991084 0.418920 0.480255
Si Si4 0.137077 0.130271 0.561013
Si Si5 0.275030 0.931480 0.865175
Si Si6 0.508917 0.081078 0.740332
O O1 0.209259 0.484233 0.244354
O O2 0.249994 0.249999 0.110285
O O3 0.011033 0.266947 0.209096
O O4 0.065922 0.482419 0.076234
O O5 0.387609 0.564706 0.383323
O O6 0.167752 0.749998 0.360286
O O7 0.142559 0.476970 0.445411
O O8 0.011039 0.233048 0.511482
O O9 0.209253 0.015744 0.476237
O O10 0.065923 0.017600 0.644360
O O11 0.112392 0.935292 0.837265
O O12 0.357440 0.023039 0.775178
#
# Coordination Sequence:
#
# PCOD8169351 Si02
#       6
#     4   4   4   4   4   4
#     4  12  28  50  77 115 157 199 261 325 391 457
#     4  12  28  46  77 110 153 203 260 318 387 465
#     4  12  28  48  79 109 154 204 257 322 388 462
#     4  12  28  50  77 115 157 199 261 325 391 457
#     4  12  28  46  77 110 153 203 260 318 387 465
#     4  12  28  48  79 109 154 204 257 322 388 462
#
# _framework density 23.248866
#
# number of rings (size 3 to 8) (size 9 to 14) (size 15 to 20)
#    0.000    0.000    3.333    5.000   14.000    2.667 
#    0.000    0.000    0.000    0.000    0.000    0.000 
#    0.000    0.000    0.000    0.000    0.000    0.000 
#
# Total GULP energy -297722.319352 kJ/mol
# GULP energy per Si atom -12405.096640 kJ/mol
# Density = 2.319595 g / cm^3
# Si number density = 23.248866 Si / 1000 Ang^3
#
#
#
# Elastic Constant Matrix: (Units=GPa)
#
#
# Indices 1 2 3 4 5 6 
#
# 1 90.0530 22.7254 33.6321 0.0000 0.0000 0.0000
# 2 22.7254 146.5933 64.9627 0.0000 0.0000 0.0000
# 3 33.6321 64.9627 123.4728 0.0000 0.0000 0.0000
# 4 0.0000 0.0000 0.0000 54.5780 0.0000 0.0000
# 5 0.0000 0.0000 0.0000 0.0000 41.7283 0.0000
# 6 0.0000 0.0000 0.0000 0.0000 0.0000 52.8193
#
#
#
# Elastic Compliance Matrix: (Units=1/GPa)
#
#
# Indices 1 2 3 4 5 6 
#
# 1 0.012397 -0.000555 -0.003085 0.000000 0.000000 0.000000
# 2 -0.000555 0.008920 -0.004542 0.000000 0.000000 0.000000
# 3 -0.003085 -0.004542 0.011329 0.000000 0.000000 0.000000
# 4 0.000000 0.000000 0.000000 0.018322 0.000000 0.000000
# 5 0.000000 0.000000 0.000000 0.000000 0.023965 0.000000
# 6 0.000000 0.000000 0.000000 0.000000 0.000000 0.018932
#
#
# Mechanical properties :
#
#
# Convention : Reuss Voigt Hill
#
# Bulk Modulus (GPa) = 61.41527 66.97329 64.19428
# Shear Modulus (GPa) = 43.23143 45.74504 44.48824
#
# Velocity S-wave (km/s) = 4.31688 4.44060 4.37918
# Velocity P-wave (km/s) = 7.16387 7.42709 7.29667
#
# Compressibility (1/GPa) = 0.01628260
#
# Stress axis : x y z
#
# Youngs Moduli (GPa) = 80.66700 112.10169 88.26907
#
# Poissons Ratio (x) = 0.06219 0.27229
# Poissons Ratio (y) = 0.04475 0.40094
# Poissons Ratio (z) = 0.24884 0.50919
#
# Static dielectric constant tensor:
#      x y z
#    x 4.270850 0.000000 0.000000 
#    y 0.000000 4.532430 0.000000 
#    z 0.000000 0.000000 4.246150 
# 
# 
# High freq. dielectric constant tensor:
#      x y z
#    x 1.927460 0.000000 0.000000 
#    y 0.000000 1.938640 0.000000 
#    z 0.000000 0.000000 1.935720 
# 
# From -- ./inp_files/2808.got.cif
#   From: 2010.03.12/outbox.cif.g09.slc.cpg/sg29_2_cif.got.tgz:2808.got - 2010.04.14 03:43:10.
