data_PCOD8169347
_publ_section_title
;
Structure prediction by ZEFSAII (Michael W. Deem and Ramdas Pophale) SiO2 
 PCOD8169347
Probable space group: P C A 21
;
_chemical_formula_sum "Si O2"
_cell_formula_units_Z 24
_cell_length_a 8.734245
_cell_length_b 12.640979
_cell_length_c 8.871551
_cell_angle_alpha 90.000000
_cell_angle_beta 90.000000
_cell_angle_gamma 90.000000
_cell_volume 979.502691
_symmetry_space_group_name_H-M "P C A 21"
_symmetry_group_IT_number 29
_symmetry_cell_setting 'orthorhombic'
loop_
_space_group_symop_operation_xyz
x,y,z
-x,-y,1/2+z
1/2-x,y,1/2+z
1/2+x,-y,z
loop_
_atom_site_type_symbol
_atom_site_label
_atom_site_fract_x
_atom_site_fract_y
_atom_site_fract_z
Si Si1 0.930326 0.380337 0.375000
Si Si2 0.594722 0.056645 0.407136
Si Si3 0.419186 0.418444 0.575667
Si Si4 0.868991 0.720342 0.093583
Si Si5 0.191098 0.060780 0.109183
Si Si6 0.392819 0.706844 0.850739
O O1 0.915373 0.466438 0.505278
O O2 0.765223 0.350691 0.307660
O O3 0.035548 0.432803 0.248771
O O4 0.018141 0.277297 0.446923
O O5 0.420780 0.066846 0.464631
O O6 0.651740 0.170316 0.354655
O O7 0.685136 0.024855 0.557844
O O8 0.612215 0.974216 0.267022
O O9 0.249271 0.373154 0.563501
O O10 0.543361 0.336548 0.508461
O O11 0.780762 0.828846 0.128204
O O12 0.972426 0.686594 0.233504
#
# Coordination Sequence:
#
# PCOD8169347 Si02
#       6
#     4   4   4   4   4   4
#     4  12  29  49  81 113 158 203 264 328 398 482
#     4  12  28  49  77 118 160 211 270 324 401 474
#     4  12  27  51  79 113 154 208 261 327 397 476
#     4  12  27  51  78 114 157 209 262 326 404 473
#     4  12  28  50  81 116 162 214 266 333 396 481
#     4  12  27  48  78 116 153 205 263 322 398 474
#
# _framework density 24.502233
#
# number of rings (size 3 to 8) (size 9 to 14) (size 15 to 20)
#    0.000    0.000    1.667    7.000    9.333    4.000 
#    0.000    1.667    0.000    0.000    0.000    0.000 
#    0.000    0.000    0.000    0.000    0.000    0.000 
#
# Total GULP energy -297673.992054 kJ/mol
# GULP energy per Si atom -12403.083002 kJ/mol
# Density = 2.444646 g / cm^3
# Si number density = 24.502233 Si / 1000 Ang^3
#
#
#
# Elastic Constant Matrix: (Units=GPa)
#
#
# Indices 1 2 3 4 5 6 
#
# 1 140.9138 39.0350 44.7395 0.0000 0.0000 0.0000
# 2 39.0350 109.2999 29.8538 0.0000 0.0000 0.0000
# 3 44.7395 29.8538 108.4464 0.0000 0.0000 0.0000
# 4 0.0000 0.0000 0.0000 36.9355 0.0000 0.0000
# 5 0.0000 0.0000 0.0000 0.0000 58.0200 0.0000
# 6 0.0000 0.0000 0.0000 0.0000 0.0000 36.9841
#
#
#
# Elastic Compliance Matrix: (Units=1/GPa)
#
#
# Indices 1 2 3 4 5 6 
#
# 1 0.008666 -0.002291 -0.002945 0.000000 0.000000 0.000000
# 2 -0.002291 0.010498 -0.001945 0.000000 0.000000 0.000000
# 3 -0.002945 -0.001945 0.010971 0.000000 0.000000 0.000000
# 4 0.000000 0.000000 0.000000 0.027074 0.000000 0.000000
# 5 0.000000 0.000000 0.000000 0.000000 0.017235 0.000000
# 6 0.000000 0.000000 0.000000 0.000000 0.000000 0.027039
#
#
# Mechanical properties :
#
#
# Convention : Reuss Voigt Hill
#
# Bulk Modulus (GPa) = 63.39048 65.10185 64.24616
# Shear Modulus (GPa) = 41.28711 42.72337 42.00524
#
# Velocity S-wave (km/s) = 4.10937 4.18024 4.14495
# Velocity P-wave (km/s) = 6.96013 7.06588 7.01320
#
# Compressibility (1/GPa) = 0.01577524
#
# Stress axis : x y z
#
# Youngs Moduli (GPa) = 115.39400 95.25180 91.14630
#
# Poissons Ratio (x) = 0.21819 0.26838
# Poissons Ratio (y) = 0.26433 0.17729
# Poissons Ratio (z) = 0.33978 0.18527
#
# Static dielectric constant tensor:
#      x y z
#    x 4.661820 0.000000 0.000000 
#    y 0.000000 4.319020 0.000000 
#    z 0.000000 0.000000 4.507190 
# 
# 
# High freq. dielectric constant tensor:
#      x y z
#    x 1.994530 0.000000 0.000000 
#    y 0.000000 1.974990 0.000000 
#    z 0.000000 0.000000 1.983220 
# 
# From -- ./inp_files/1142.got.cif
#   From: 2010.03.12/outbox.cif.g09.slc.cpg/sg29_1_cif.got.tgz:1142.got - 2010.04.14 03:43:10.
