data_PCOD8169295
_publ_section_title
;
Structure prediction by ZEFSAII (Michael W. Deem and Ramdas Pophale) SiO2 
 PCOD8169295
Probable space group: P C A 21
;
_chemical_formula_sum "Si O2"
_cell_formula_units_Z 20
_cell_length_a 8.939518
_cell_length_b 7.240816
_cell_length_c 12.704913
_cell_angle_alpha 90.000000
_cell_angle_beta 90.000000
_cell_angle_gamma 90.000000
_cell_volume 822.381459
_symmetry_space_group_name_H-M "P C A 21"
_symmetry_group_IT_number 29
_symmetry_cell_setting 'orthorhombic'
loop_
_space_group_symop_operation_xyz
x,y,z
-x,-y,1/2+z
1/2-x,y,1/2+z
1/2+x,-y,z
loop_
_atom_site_type_symbol
_atom_site_label
_atom_site_fract_x
_atom_site_fract_y
_atom_site_fract_z
Si Si1 0.371813 0.249998 0.496540
Si Si2 0.223012 0.043749 0.308979
Si Si3 0.538633 0.329562 0.308108
Si Si4 0.461367 0.829566 0.184971
Si Si5 0.276987 0.456256 0.184099
O O1 0.273470 0.113732 0.423722
O O2 0.477539 0.382426 0.424503
O O3 0.477537 0.117567 0.568577
O O4 0.273473 0.386269 0.569358
O O5 0.116852 0.197135 0.252627
O O6 0.362840 0.990509 0.234395
O O7 0.123524 0.861871 0.320735
O O8 0.383147 0.302870 0.240452
O O9 0.637161 0.490507 0.258686
O O10 0.376471 0.638136 0.172340
#
# Coordination Sequence:
#
# PCOD8169295 Si02
#       5
#     4   4   4   4   4
#     4  12  26  46  80 110 150 216 242 322 386 460
#     4  11  26  49  76 111 158 197 262 313 383 455
#     4  11  26  48  73 116 152 200 255 325 367 467
#     4  11  26  48  73 116 152 200 255 325 367 467
#     4  11  26  49  76 111 158 197 262 313 383 455
#
# _framework density 24.319614000000001
#
# number of rings (size 3 to 8) (size 9 to 14) (size 15 to 20)
#    0.000    0.800    4.000    1.200    5.600    0.000 
#    0.000    0.000    0.000    0.000    0.000    0.000 
#    0.000    0.000    0.000    0.000    0.000    0.000 
#
# Total GULP energy -247841.279174 kJ/mol
# GULP energy per Si atom -12392.063959 kJ/mol
# Density = 2.426426 g / cm^3
# Si number density = 24.319614 Si / 1000 Ang^3
#
#
#
# Elastic Constant Matrix: (Units=GPa)
#
#
# Indices 1 2 3 4 5 6 
#
# 1 194.7930 80.2847 107.9081 0.0000 0.0000 0.0000
# 2 80.2847 131.6914 91.1171 0.0000 0.0000 0.0000
# 3 107.9081 91.1171 210.5598 0.0000 0.0000 0.0000
# 4 0.0000 0.0000 0.0000 49.0506 0.0000 0.0000
# 5 0.0000 0.0000 0.0000 0.0000 50.8484 0.0000
# 6 0.0000 0.0000 0.0000 0.0000 0.0000 16.9252
#
#
#
# Elastic Compliance Matrix: (Units=1/GPa)
#
#
# Indices 1 2 3 4 5 6 
#
# 1 0.007858 -0.002861 -0.002789 0.000000 0.000000 0.000000
# 2 -0.002861 0.011880 -0.003675 0.000000 0.000000 0.000000
# 3 -0.002789 -0.003675 0.007769 0.000000 0.000000 0.000000
# 4 0.000000 0.000000 0.000000 0.020387 0.000000 0.000000
# 5 0.000000 0.000000 0.000000 0.000000 0.019666 0.000000
# 6 0.000000 0.000000 0.000000 0.000000 0.000000 0.059084
#
#
# Mechanical properties :
#
#
# Convention : Reuss Voigt Hill
#
# Bulk Modulus (GPa) = 112.89916 121.74046 117.31981
# Shear Modulus (GPa) = 33.72783 40.54712 37.13748
#
# Velocity S-wave (km/s) = 3.72809 4.08764 3.91200
# Velocity P-wave (km/s) = 8.06570 8.51150 8.29159
#
# Compressibility (1/GPa) = 0.00885746
#
# Stress axis : x y z
#
# Youngs Moduli (GPa) = 127.26370 84.17360 128.71909
#
# Poissons Ratio (x) = 0.24079 0.35900
# Poissons Ratio (y) = 0.36406 0.47304
# Poissons Ratio (z) = 0.35494 0.30934
#
# Static dielectric constant tensor:
#      x y z
#    x 5.199000 0.000000 0.000000 
#    y 0.000000 4.627820 0.000000 
#    z 0.000000 0.000000 4.404070 
# 
# 
# High freq. dielectric constant tensor:
#      x y z
#    x 2.007160 0.000000 0.000000 
#    y 0.000000 1.981040 0.000000 
#    z 0.000000 0.000000 1.961390 
# 
# From -- ./inp_files/2803.got.cif
#   From: 2010.03.12/outbox.cif.g09.slc.cpg/sg29_2_cif.got.tgz:2803.got - 2010.04.14 03:43:10.
