data_PCOD8169780
_publ_section_title
;
Structure prediction by ZEFSAII (Michael W. Deem and Ramdas Pophale) SiO2 
 PCOD8169780
Probable space group: P M N 21
;
_chemical_formula_sum "Si O2"
_cell_formula_units_Z 32
_cell_length_a 9.070200
_cell_length_b 11.486454
_cell_length_c 16.266579
_cell_angle_alpha 90.000000
_cell_angle_beta 90.000000
_cell_angle_gamma 90.000000
_cell_volume 1694.724344
_symmetry_space_group_name_H-M "P M N 21"
_symmetry_group_IT_number 31
_symmetry_cell_setting 'orthorhombic'
loop_
_space_group_symop_operation_xyz
x,y,z
1/2-x,-y,1/2+z
-x,y,z
1/2+x,-y,1/2+z
loop_
_atom_site_type_symbol
_atom_site_label
_atom_site_fract_x
_atom_site_fract_y
_atom_site_fract_z
Si Si1 0.175787 0.028748 0.361070
Si Si2 0.674801 0.062406 0.039948
Si Si3 0.332339 0.554410 0.007450
Si Si4 0.163369 0.284083 0.375642
Si Si5 0.166859 0.346010 0.688112
Si Si6 0.675648 0.320856 0.073075
Si Si7 0.324692 0.919790 0.201140
Si Si8 0.663000 0.562720 0.717439
O O1 0.238213 0.160788 0.355701
O O2 0.000000 0.016732 0.350089
O O3 0.228806 0.982646 0.450790
O O4 0.251390 0.963920 0.285034
O O5 0.500000 0.060477 0.042124
O O6 0.735820 0.194450 0.047631
O O7 0.732603 0.986970 0.118442
O O8 0.500000 0.545042 0.976466
O O9 0.321160 0.612637 0.095270
O O10 0.269014 0.421874 0.009488
O O11 0.247970 0.641099 0.944743
O O12 0.149873 0.366783 0.299499
O O13 0.000000 0.250548 0.409309
O O14 0.224729 0.214415 0.693801
O O15 0.267806 0.436083 0.738991
O O16 0.000000 0.354166 0.721041
O O17 0.500000 0.321706 0.079342
O O18 0.735759 0.356241 0.161448
O O19 0.500000 0.933293 0.208107
O O20 0.500000 0.544713 0.678595
#
# Coordination Sequence:
#
# PCOD8169780 Si02
#       8
#     4   4   4   4   4   4   4   4
#     4  10  20  34  53  78 104 133 175 219 255 303
#     4   9  18  33  55  79 103 137 178 214 251 308
#     4   8  14  27  48  69  89 120 162 201 234 281
#     4   9  17  29  47  72  99 125 157 201 251 295
#     4   9  18  33  52  71  94 129 169 205 246 298
#     4   9  17  31  51  73  97 128 166 203 243 295
#     4  10  20  35  54  76 105 140 174 212 262 315
#     4  10  19  30  48  74 101 128 159 203 256 303
#
# _framework density 18.882128000000002
#
# number of rings (size 3 to 8) (size 9 to 14) (size 15 to 20)
#    0.000    2.750    0.000    2.625    0.000    4.500 
#    0.000    4.375    0.000   13.500    0.000    0.000 
#    0.000    0.000    0.000    0.000    0.000    0.000 
#
# Total GULP energy -396433.580508 kJ/mol
# GULP energy per Si atom -12388.549391 kJ/mol
# Density = 1.883915 g / cm^3
# Si number density = 18.882128 Si / 1000 Ang^3
#
#
#
# Elastic Constant Matrix: (Units=GPa)
#
#
# Indices 1 2 3 4 5 6 
#
# 1 28.3679 33.5152 19.9409 0.0000 0.0000 0.0000
# 2 33.5152 193.3432 65.3358 0.0000 0.0000 0.0000
# 3 19.9409 65.3358 96.2400 0.0000 0.0000 0.0000
# 4 0.0000 0.0000 0.0000 29.1500 0.0000 0.0000
# 5 0.0000 0.0000 0.0000 0.0000 19.7162 0.0000
# 6 0.0000 0.0000 0.0000 0.0000 0.0000 18.9129
#
#
#
# Elastic Compliance Matrix: (Units=1/GPa)
#
#
# Indices 1 2 3 4 5 6 
#
# 1 0.046388 -0.006220 -0.005389 0.000000 0.000000 0.000000
# 2 -0.006220 0.007546 -0.003834 0.000000 0.000000 0.000000
# 3 -0.005389 -0.003834 0.014110 0.000000 0.000000 0.000000
# 4 0.000000 0.000000 0.000000 0.034305 0.000000 0.000000
# 5 0.000000 0.000000 0.000000 0.000000 0.050720 0.000000
# 6 0.000000 0.000000 0.000000 0.000000 0.000000 0.052874
#
#
# Mechanical properties :
#
#
# Convention : Reuss Voigt Hill
#
# Bulk Modulus (GPa) = 26.91209 61.72611 44.31910
# Shear Modulus (GPa) = 20.06299 26.83309 23.44804
#
# Velocity S-wave (km/s) = 3.26320 3.77382 3.52776
# Velocity P-wave (km/s) = 5.33681 7.19376 6.33371
#
# Compressibility (1/GPa) = 0.03715802
#
# Stress axis : x y z
#
# Youngs Moduli (GPa) = 21.55735 132.52035 70.87105
#
# Poissons Ratio (x) = 0.82429 0.38191
# Poissons Ratio (y) = 0.13409 0.27172
# Poissons Ratio (z) = 0.11617 0.50809
#
# Static dielectric constant tensor:
#      x y z
#    x 3.278620 0.000000 0.000000 
#    y 0.000000 4.090910 0.000000 
#    z 0.000000 0.000000 3.416800 
# 
# 
# High freq. dielectric constant tensor:
#      x y z
#    x 1.684730 0.000000 0.000000 
#    y 0.000000 1.759040 0.000000 
#    z 0.000000 0.000000 1.729510 
# 
# From -- ./inp_files/5905.got.cif
#   From: 2010.03.12/outbox.cif.g09.slc.cpg/sg31_3_cif.got.tgz:5905.got - 2010.04.14 01:42:59.
