data_PCOD8169084
_publ_section_title
;
Structure prediction by ZEFSAII (Michael W. Deem and Ramdas Pophale) SiO2 
 PCOD8169084
Probable space group: P C A 21
;
_chemical_formula_sum "Si O2"
_cell_formula_units_Z 28
_cell_length_a 11.968049
_cell_length_b 11.078140
_cell_length_c 9.332013
_cell_angle_alpha 90.000000
_cell_angle_beta 90.000000
_cell_angle_gamma 90.000000
_cell_volume 1237.273021
_symmetry_space_group_name_H-M "P C A 21"
_symmetry_group_IT_number 29
_symmetry_cell_setting 'orthorhombic'
loop_
_space_group_symop_operation_xyz
x,y,z
-x,-y,1/2+z
1/2-x,y,1/2+z
1/2+x,-y,z
loop_
_atom_site_type_symbol
_atom_site_label
_atom_site_fract_x
_atom_site_fract_y
_atom_site_fract_z
Si Si1 0.086631 0.680104 0.823530
Si Si2 0.200748 0.466114 0.659735
Si Si3 0.053987 0.058658 0.908499
Si Si4 0.348889 0.848031 0.574498
Si Si5 0.601792 0.105211 0.646931
Si Si6 0.888468 0.514771 0.861608
Si Si7 0.476535 0.287569 0.271930
O O1 0.164602 0.582720 0.748553
O O2 0.040917 0.772719 0.702707
O O3 0.981660 0.614544 0.897791
O O4 0.156992 0.753062 0.943291
O O5 0.201771 0.491767 0.490215
O O6 0.327059 0.443915 0.714400
O O7 0.119841 0.352630 0.682452
O O8 0.086975 0.199996 0.886338
O O9 0.058290 0.998592 0.752979
O O10 0.931269 0.065878 0.985361
O O11 0.131336 0.984504 0.017512
O O12 0.232694 0.861281 0.657733
O O13 0.446090 0.802129 0.679049
O O14 0.945078 0.384462 0.849257
#
# Coordination Sequence:
#
# PCOD8169084 Si02
#       7
#     4   4   4   4   4   4   4
#     4  10  24  44  71 104 142 186 243 300 347 447
#     4  11  25  43  70 109 140 190 238 297 368 428
#     4  11  25  46  69 107 144 182 242 305 349 427
#     4  11  24  47  72 102 142 192 242 294 365 424
#     4  11  25  44  76 102 139 191 242 297 366 421
#     4  11  25  44  73 107 150 188 239 295 377 427
#     4  11  24  46  71 103 151 181 248 302 348 436
#
# _framework density 22.630413999999998
#
# number of rings (size 3 to 8) (size 9 to 14) (size 15 to 20)
#    0.000    1.143    2.857    1.714   10.000    2.286 
#   10.286    0.000    0.000    0.000    0.000    0.000 
#    0.000    0.000    0.000    0.000    0.000    0.000 
#
# Total GULP energy -346991.719795 kJ/mol
# GULP energy per Si atom -12392.561421 kJ/mol
# Density = 2.257891 g / cm^3
# Si number density = 22.630414 Si / 1000 Ang^3
#
#
#
# Elastic Constant Matrix: (Units=GPa)
#
#
# Indices 1 2 3 4 5 6 
#
# 1 51.0227 50.3309 28.1130 0.0000 0.0000 0.0000
# 2 50.3309 143.5774 57.2307 0.0000 0.0000 0.0000
# 3 28.1130 57.2307 96.6103 0.0000 0.0000 0.0000
# 4 0.0000 0.0000 0.0000 23.0692 0.0000 0.0000
# 5 0.0000 0.0000 0.0000 0.0000 40.8746 0.0000
# 6 0.0000 0.0000 0.0000 0.0000 0.0000 22.7245
#
#
#
# Elastic Compliance Matrix: (Units=1/GPa)
#
#
# Indices 1 2 3 4 5 6 
#
# 1 0.030768 -0.009448 -0.003357 0.000000 0.000000 0.000000
# 2 -0.009448 0.012019 -0.004371 0.000000 0.000000 0.000000
# 3 -0.003357 -0.004371 0.013917 0.000000 0.000000 0.000000
# 4 0.000000 0.000000 0.000000 0.043348 0.000000 0.000000
# 5 0.000000 0.000000 0.000000 0.000000 0.024465 0.000000
# 6 0.000000 0.000000 0.000000 0.000000 0.000000 0.044005
#
#
# Mechanical properties :
#
#
# Convention : Reuss Voigt Hill
#
# Bulk Modulus (GPa) = 44.73501 62.50664 53.62082
# Shear Modulus (GPa) = 23.77288 27.70272 25.73780
#
# Velocity S-wave (km/s) = 3.24463 3.50256 3.37606
# Velocity P-wave (km/s) = 5.81785 6.63610 6.24040
#
# Compressibility (1/GPa) = 0.02235386
#
# Stress axis : x y z
#
# Youngs Moduli (GPa) = 32.50095 83.20179 71.85608
#
# Poissons Ratio (x) = 0.78608 0.24119
# Poissons Ratio (y) = 0.30706 0.31406
# Poissons Ratio (z) = 0.10909 0.36364
#
# Static dielectric constant tensor:
#      x y z
#    x 3.775150 0.000000 0.000000 
#    y 0.000000 4.375260 0.000000 
#    z 0.000000 0.000000 4.135850 
# 
# 
# High freq. dielectric constant tensor:
#      x y z
#    x 1.866920 0.000000 0.000000 
#    y 0.000000 1.910510 0.000000 
#    z 0.000000 0.000000 1.901610 
# 
# From -- ./inp_files/1449.got.cif
#   From: 2010.03.12/outbox.cif.g09.slc.cpg/sg29_1_cif.got.tgz:1449.got - 2010.04.14 03:43:10.
