data_PCOD8169592
_publ_section_title
;
Structure prediction by ZEFSAII (Michael W. Deem and Ramdas Pophale) SiO2 
 PCOD8169592
Probable space group: P N C 2
;
_chemical_formula_sum "Si O2"
_cell_formula_units_Z 32
_cell_length_a 16.304821
_cell_length_b 8.733016
_cell_length_c 10.992913
_cell_angle_alpha 90.000000
_cell_angle_beta 90.000000
_cell_angle_gamma 90.000000
_cell_volume 1565.283770
_symmetry_space_group_name_H-M "P N C 2"
_symmetry_group_IT_number 30
_symmetry_cell_setting 'orthorhombic'
loop_
_space_group_symop_operation_xyz
x,y,z
-x,-y,z
-x,1/2+y,1/2+z
x,1/2-y,1/2+z
loop_
_atom_site_type_symbol
_atom_site_label
_atom_site_fract_x
_atom_site_fract_y
_atom_site_fract_z
Si Si1 0.742420 0.014033 0.696120
Si Si2 0.922460 0.081007 0.044249
Si Si3 0.856984 0.665276 0.360827
Si Si4 0.818209 0.328850 0.746171
Si Si5 0.253512 0.067949 0.428917
Si Si6 0.438129 0.358283 0.928542
Si Si7 0.983769 0.173749 0.376255
Si Si8 0.434179 0.130764 0.706676
O O1 0.756711 0.184205 0.750494
O O2 0.809621 0.896325 0.744088
O O3 0.755007 0.026462 0.552613
O O4 0.653601 0.947944 0.731065
O O5 0.835804 0.106306 0.111964
O O6 0.959632 0.242133 0.000895
O O7 0.000000 0.000000 0.116150
O O8 0.895132 0.975337 0.933232
O O9 0.794132 0.770461 0.439082
O O10 0.932874 0.766029 0.314036
O O11 0.782571 0.465810 0.822971
O O12 0.910795 0.288932 0.784048
O O13 0.347683 0.088234 0.395673
O O14 0.500000 0.500000 0.918611
O O15 0.459430 0.239464 0.820007
O O16 0.437916 0.291732 0.069425
O O17 0.000000 0.000000 0.412502
O O18 0.500000 0.000000 0.706731
#
# Coordination Sequence:
#
# PCOD8169592 Si02
#       8
#     4   4   4   4   4   4   4   4
#     4  11  25  43  66  93 132 171 216 277 327 395
#     4  10  24  41  59  88 126 171 220 276 327 394
#     4  11  23  41  64  90 124 168 223 269 326 387
#     4  12  24  41  62  93 128 166 219 269 330 393
#     4  11  25  42  67  97 128 172 218 274 332 390
#     4  10  23  44  70 100 142 172 223 271 337 403
#     4  11  22  40  59  88 126 167 219 269 333 385
#     4  10  23  45  69 103 137 179 218 275 332 404
#
# _framework density 20.443577999999999
#
# number of rings (size 3 to 8) (size 9 to 14) (size 15 to 20)
#    0.000    1.250    3.750    1.125    3.500    1.500 
#    0.000    0.000    0.000    0.000    0.000    0.000 
#    0.000    0.000    0.000    0.000    0.000    0.000 
#
# Total GULP energy -396581.200936 kJ/mol
# GULP energy per Si atom -12393.162529 kJ/mol
# Density = 2.039705 g / cm^3
# Si number density = 20.443578 Si / 1000 Ang^3
#
#
#
# Elastic Constant Matrix: (Units=GPa)
#
#
# Indices 1 2 3 4 5 6 
#
# 1 105.7991 32.0545 26.7255 0.0000 0.0000 0.0000
# 2 32.0545 108.2248 39.2119 0.0000 0.0000 0.0000
# 3 26.7255 39.2119 83.8868 0.0000 0.0000 0.0000
# 4 0.0000 0.0000 0.0000 31.7493 0.0000 0.0000
# 5 0.0000 0.0000 0.0000 0.0000 33.8312 0.0000
# 6 0.0000 0.0000 0.0000 0.0000 0.0000 31.4890
#
#
#
# Elastic Compliance Matrix: (Units=1/GPa)
#
#
# Indices 1 2 3 4 5 6 
#
# 1 0.010749 -0.002339 -0.002331 0.000000 0.000000 0.000000
# 2 -0.002339 0.011633 -0.004692 0.000000 0.000000 0.000000
# 3 -0.002331 -0.004692 0.014857 0.000000 0.000000 0.000000
# 4 0.000000 0.000000 0.000000 0.031497 0.000000 0.000000
# 5 0.000000 0.000000 0.000000 0.000000 0.029558 0.000000
# 6 0.000000 0.000000 0.000000 0.000000 0.000000 0.031757
#
#
# Mechanical properties :
#
#
# Convention : Reuss Voigt Hill
#
# Bulk Modulus (GPa) = 54.01417 54.87718 54.44568
# Shear Modulus (GPa) = 32.26871 32.74183 32.50527
#
# Velocity S-wave (km/s) = 3.97725 4.00630 3.99181
# Velocity P-wave (km/s) = 6.89709 6.94997 6.92358
#
# Compressibility (1/GPa) = 0.01851366
#
# Stress axis : x y z
#
# Youngs Moduli (GPa) = 93.02781 85.96216 67.30839
#
# Poissons Ratio (x) = 0.20108 0.15691
# Poissons Ratio (y) = 0.21761 0.31584
# Poissons Ratio (z) = 0.21687 0.40338
#
# Static dielectric constant tensor:
#      x y z
#    x 3.798010 0.000000 0.000000 
#    y 0.000000 3.751760 0.000000 
#    z 0.000000 0.000000 3.828940 
# 
# 
# High freq. dielectric constant tensor:
#      x y z
#    x 1.811390 0.000000 0.000000 
#    y 0.000000 1.799120 0.000000 
#    z 0.000000 0.000000 1.798340 
# 
# From -- ./inp_files/4376.got.cif
#   From: 2010.03.12/outbox.cif.g09.slc.cpg/sg30_3_cif.got.tgz:4376.got - 2010.04.14 01:38:02.
