data_PCOD8169132
_publ_section_title
;
Structure prediction by ZEFSAII (Michael W. Deem and Ramdas Pophale) SiO2 
 PCOD8169132
Probable space group: P C A 21
;
_chemical_formula_sum "Si O2"
_cell_formula_units_Z 32
_cell_length_a 12.218796
_cell_length_b 12.986641
_cell_length_c 8.953714
_cell_angle_alpha 90.000000
_cell_angle_beta 90.000000
_cell_angle_gamma 90.000000
_cell_volume 1420.785340
_symmetry_space_group_name_H-M "P C A 21"
_symmetry_group_IT_number 29
_symmetry_cell_setting 'orthorhombic'
loop_
_space_group_symop_operation_xyz
x,y,z
-x,-y,1/2+z
1/2-x,y,1/2+z
1/2+x,-y,z
loop_
_atom_site_type_symbol
_atom_site_label
_atom_site_fract_x
_atom_site_fract_y
_atom_site_fract_z
Si Si1 0.315182 0.332126 0.043610
Si Si2 0.649065 0.149837 0.818656
Si Si3 0.478455 0.593500 0.686234
Si Si4 0.943475 0.925838 0.319251
Si Si5 0.524708 0.803693 0.101302
Si Si6 0.099448 0.416999 0.987166
Si Si7 0.773623 0.803444 0.784995
Si Si8 0.373986 0.809998 0.661164
O O1 0.434100 0.380898 0.057074
O O2 0.230999 0.412512 0.967343
O O3 0.275671 0.299212 0.208645
O O4 0.322772 0.228594 0.944955
O O5 0.580023 0.221760 0.705377
O O6 0.772319 0.143807 0.755277
O O7 0.574736 0.047064 0.813277
O O8 0.654670 0.193360 0.985831
O O9 0.413067 0.497652 0.621186
O O10 0.401622 0.693390 0.715241
O O11 0.537077 0.552667 0.836158
O O12 0.001642 0.886375 0.471573
O O13 0.820568 0.885454 0.306529
O O14 0.021324 0.884747 0.185992
O O15 0.559552 0.696335 0.030101
O O16 0.627019 0.852062 0.191570
#
# Coordination Sequence:
#
# PCOD8169132 Si02
#       8
#     4   4   4   4   4   4   4   4
#     4  11  20  44  65 102 133 176 237 291 355 412
#     4  12  30  43  75 104 148 197 234 297 374 441
#     4  12  26  47  74 103 144 190 237 304 366 439
#     4  12  24  47  73 102 143 189 248 297 356 440
#     4  11  24  48  68 107 144 184 243 304 351 429
#     4  11  26  43  73 104 139 191 241 297 360 429
#     4  11  21  39  74  96 134 180 230 301 345 409
#     4  12  27  53  68 108 151 191 244 305 367 437
#
# _framework density 22.522753999999999
#
# number of rings (size 3 to 8) (size 9 to 14) (size 15 to 20)
#    0.000    0.500    6.250    2.250    8.750    1.000 
#    0.000    0.000    0.000    0.000    0.000    0.000 
#    0.000    0.000    0.000    0.000    0.000    0.000 
#
# Total GULP energy -396765.184794 kJ/mol
# GULP energy per Si atom -12398.912025 kJ/mol
# Density = 2.247149 g / cm^3
# Si number density = 22.522754 Si / 1000 Ang^3
#
#
#
# Elastic Constant Matrix: (Units=GPa)
#
#
# Indices 1 2 3 4 5 6 
#
# 1 80.6163 11.2392 30.0569 0.0000 0.0000 0.0000
# 2 11.2392 59.3924 9.4470 0.0000 0.0000 0.0000
# 3 30.0569 9.4470 101.5351 0.0000 0.0000 0.0000
# 4 0.0000 0.0000 0.0000 26.9558 0.0000 0.0000
# 5 0.0000 0.0000 0.0000 0.0000 41.3652 0.0000
# 6 0.0000 0.0000 0.0000 0.0000 0.0000 26.1050
#
#
#
# Elastic Compliance Matrix: (Units=1/GPa)
#
#
# Indices 1 2 3 4 5 6 
#
# 1 0.014184 -0.002047 -0.004008 0.000000 0.000000 0.000000
# 2 -0.002047 0.017385 -0.001012 0.000000 0.000000 0.000000
# 3 -0.004008 -0.001012 0.011130 0.000000 0.000000 0.000000
# 4 0.000000 0.000000 0.000000 0.037098 0.000000 0.000000
# 5 0.000000 0.000000 0.000000 0.000000 0.024175 0.000000
# 6 0.000000 0.000000 0.000000 0.000000 0.000000 0.038307
#
#
# Mechanical properties :
#
#
# Convention : Reuss Voigt Hill
#
# Bulk Modulus (GPa) = 35.00712 38.11446 36.56079
# Shear Modulus (GPa) = 30.13243 31.60525 30.86884
#
# Velocity S-wave (km/s) = 3.66165 3.75007 3.70613
# Velocity P-wave (km/s) = 5.78392 5.97579 5.88064
#
# Compressibility (1/GPa) = 0.02856562
#
# Stress axis : x y z
#
# Youngs Moduli (GPa) = 70.50058 57.51960 89.85088
#
# Poissons Ratio (x) = 0.11772 0.36017
# Poissons Ratio (y) = 0.14429 0.09091
# Poissons Ratio (z) = 0.28260 0.05819
#
# Static dielectric constant tensor:
#      x y z
#    x 4.210220 0.000000 0.000000 
#    y 0.000000 3.800050 0.000000 
#    z 0.000000 0.000000 4.244140 
# 
# 
# High freq. dielectric constant tensor:
#      x y z
#    x 1.894350 0.000000 0.000000 
#    y 0.000000 1.862730 0.000000 
#    z 0.000000 0.000000 1.904420 
# 
# From -- ./inp_files/1583.got.cif
#   From: 2010.03.12/outbox.cif.g09.slc.cpg/sg29_1_cif.got.tgz:1583.got - 2010.04.14 03:43:10.
