data_PCOD8169530
_publ_section_title
;
Structure prediction by ZEFSAII (Michael W. Deem and Ramdas Pophale) SiO2 
 PCOD8169530
Probable space group: P N C 2
;
_chemical_formula_sum "Si O2"
_cell_formula_units_Z 28
_cell_length_a 9.064218
_cell_length_b 17.842640
_cell_length_c 8.559336
_cell_angle_alpha 90.000000
_cell_angle_beta 90.000000
_cell_angle_gamma 90.000000
_cell_volume 1384.297805
_symmetry_space_group_name_H-M "P N C 2"
_symmetry_group_IT_number 30
_symmetry_cell_setting 'orthorhombic'
loop_
_space_group_symop_operation_xyz
x,y,z
-x,-y,z
-x,1/2+y,1/2+z
x,1/2-y,1/2+z
loop_
_atom_site_type_symbol
_atom_site_label
_atom_site_fract_x
_atom_site_fract_y
_atom_site_fract_z
Si Si1 0.261627 0.500000 0.617770
Si Si2 0.500000 0.500000 0.869324
Si Si3 0.832509 0.836874 0.119586
Si Si4 0.663396 0.225826 0.818598
Si Si5 0.167451 0.836879 0.115976
Si Si6 0.499992 0.620563 0.117779
Si Si7 0.663348 0.774162 0.416956
Si Si8 0.500000 0.500000 0.366226
O O1 0.361353 0.477445 0.765188
O O2 0.164473 0.426229 0.587803
O O3 0.164441 0.573762 0.647715
O O4 0.361365 0.522566 0.470368
O O5 0.448410 0.570234 0.972686
O O6 0.751786 0.815708 0.280544
O O7 0.999981 0.807800 0.117870
O O8 0.750681 0.798680 0.973763
O O9 0.750589 0.298703 0.761737
O O10 0.641673 0.169959 0.670429
O O11 0.500024 0.249962 0.867846
O O12 0.751983 0.184303 0.954936
O O13 0.551596 0.570232 0.262863
O O14 0.641638 0.669972 0.065130
#
# Coordination Sequence:
#
# PCOD8169530 Si02
#       8
#     4   2   4   4   4   4   4   2
#     4  11  23  40  66  92 128 178 220 268 326 402
#     4  10  22  36  66 100 126 166 224 282 322 386
#     4  12  26  43  64  98 137 175 216 274 343 397
#     4  12  23  42  68  97 127 171 223 277 323 398
#     4  12  26  43  64  98 137 175 216 274 343 397
#     4  11  20  38  64  99 128 160 224 279 328 378
#     4  12  23  42  68  97 127 171 223 277 323 398
#     4  10  22  36  66 100 126 166 224 282 322 386
#
# _framework density 20.226861
#
# number of rings (size 3 to 8) (size 9 to 14) (size 15 to 20)
#    0.000    0.571    5.714    3.000    4.000    0.000 
#    0.000    0.000    0.000    0.000    0.000    0.000 
#    0.000    0.000    0.000    0.000    0.000    0.000 
#
# Total GULP energy -347224.830038 kJ/mol
# GULP energy per Si atom -12400.886787 kJ/mol
# Density = 2.018082 g / cm^3
# Si number density = 20.226861 Si / 1000 Ang^3
#
#
#
# Elastic Constant Matrix: (Units=GPa)
#
#
# Indices 1 2 3 4 5 6 
#
# 1 138.0483 43.7127 45.1323 0.0000 0.0000 0.0000
# 2 43.7127 137.7151 44.0750 0.0000 0.0000 0.0000
# 3 45.1323 44.0750 98.5838 0.0000 0.0000 0.0000
# 4 0.0000 0.0000 0.0000 41.5751 0.0000 0.0000
# 5 0.0000 0.0000 0.0000 0.0000 25.3779 0.0000
# 6 0.0000 0.0000 0.0000 0.0000 0.0000 22.7612
#
#
#
# Elastic Compliance Matrix: (Units=1/GPa)
#
#
# Indices 1 2 3 4 5 6 
#
# 1 0.008874 -0.001770 -0.003271 0.000000 0.000000 0.000000
# 2 -0.001770 0.008827 -0.003136 0.000000 0.000000 0.000000
# 3 -0.003271 -0.003136 0.013043 0.000000 0.000000 0.000000
# 4 0.000000 0.000000 0.000000 0.024053 0.000000 0.000000
# 5 0.000000 0.000000 0.000000 0.000000 0.039404 0.000000
# 6 0.000000 0.000000 0.000000 0.000000 0.000000 0.043934
#
#
# Mechanical properties :
#
#
# Convention : Reuss Voigt Hill
#
# Bulk Modulus (GPa) = 69.49402 71.13194 70.31298
# Shear Modulus (GPa) = 31.39008 34.03800 32.71404
#
# Velocity S-wave (km/s) = 3.94369 4.10666 4.02600
# Velocity P-wave (km/s) = 7.42757 7.59800 7.51327
#
# Compressibility (1/GPa) = 0.01438973
#
# Stress axis : x y z
#
# Youngs Moduli (GPa) = 112.69286 113.29147 76.66741
#
# Poissons Ratio (x) = 0.20049 0.25080
# Poissons Ratio (y) = 0.19943 0.24044
# Poissons Ratio (z) = 0.36864 0.35530
#
# Static dielectric constant tensor:
#      x y z
#    x 3.482400 0.000000 0.000000 
#    y 0.000000 3.962040 0.000000 
#    z 0.000000 0.000000 3.853990 
# 
# 
# High freq. dielectric constant tensor:
#      x y z
#    x 1.764900 0.000000 0.000000 
#    y 0.000000 1.810540 0.000000 
#    z 0.000000 0.000000 1.801800 
# 
# From -- ./inp_files/2017.got.cif
#   From: 2010.03.12/outbox.cif.g09.slc.cpg/sg30_2_cif.got.tgz:2017.got - 2010.04.14 01:38:02.
