data_PCOD8169828
_publ_section_title
;
Structure prediction by ZEFSAII (Michael W. Deem and Ramdas Pophale) SiO2 
 PCOD8169828
Probable space group: P M N 21
;
_chemical_formula_sum "Si O2"
_cell_formula_units_Z 24
_cell_length_a 8.680522
_cell_length_b 9.251782
_cell_length_c 16.636867
_cell_angle_alpha 90.000000
_cell_angle_beta 90.000000
_cell_angle_gamma 90.000000
_cell_volume 1336.111733
_symmetry_space_group_name_H-M "P M N 21"
_symmetry_group_IT_number 31
_symmetry_cell_setting 'orthorhombic'
loop_
_space_group_symop_operation_xyz
x,y,z
1/2-x,-y,1/2+z
-x,y,z
1/2+x,-y,1/2+z
loop_
_atom_site_type_symbol
_atom_site_label
_atom_site_fract_x
_atom_site_fract_y
_atom_site_fract_z
Si Si1 0.330034 0.080845 0.796770
Si Si2 0.315895 0.641211 0.859987
Si Si3 0.682323 0.172291 0.037341
Si Si4 0.818533 0.329956 0.889385
Si Si5 0.320040 0.178476 0.219932
Si Si6 0.332259 0.899068 0.957594
O O1 0.500000 0.113966 0.760889
O O2 0.246149 0.230799 0.817525
O O3 0.231026 0.987663 0.733486
O O4 0.348707 0.988771 0.876382
O O5 0.500000 0.624834 0.864907
O O6 0.232017 0.491325 0.870667
O O7 0.273727 0.708255 0.773646
O O8 0.251881 0.747663 0.932014
O O9 0.500000 0.168209 0.019485
O O10 0.717964 0.219184 0.127857
O O11 0.757749 0.287352 0.977521
O O12 0.751062 0.008552 0.020422
O O13 0.000000 0.317030 0.889216
O O14 0.500000 0.192650 0.239227
O O15 0.500000 0.859348 0.992581
#
# Coordination Sequence:
#
# PCOD8169828 Si02
#       6
#     4   4   4   4   4   4
#     4   9  17  32  52  72  98 133 170 205 251 307
#     4  10  19  33  53  74 102 140 177 212 258 314
#     4   9  18  34  54  76 104 136 169 210 263 314
#     4  11  21  33  52  77 104 135 177 221 257 303
#     4  10  19  32  53  80 106 133 172 217 256 302
#     4   7  13  28  50  71  90 123 167 201 237 296
#
# _framework density 17.962568000000001
#
# number of rings (size 3 to 8) (size 9 to 14) (size 15 to 20)
#    0.000    2.667    0.000    5.000    0.000    1.333 
#    0.000    2.500    0.000    8.000    0.000    0.000 
#    0.000    0.000    0.000    0.000    0.000    0.000 
#
# Total GULP energy -297347.249215 kJ/mol
# GULP energy per Si atom -12389.468717 kJ/mol
# Density = 1.792168 g / cm^3
# Si number density = 17.962568 Si / 1000 Ang^3
#
#
#
# Elastic Constant Matrix: (Units=GPa)
#
#
# Indices 1 2 3 4 5 6 
#
# 1 58.4351 13.5788 14.9716 0.0000 0.0000 0.0000
# 2 13.5788 114.3092 29.4326 0.0000 0.0000 0.0000
# 3 14.9716 29.4326 62.0259 0.0000 0.0000 0.0000
# 4 0.0000 0.0000 0.0000 19.6569 0.0000 0.0000
# 5 0.0000 0.0000 0.0000 0.0000 23.1982 0.0000
# 6 0.0000 0.0000 0.0000 0.0000 0.0000 29.1217
#
#
#
# Elastic Compliance Matrix: (Units=1/GPa)
#
#
# Indices 1 2 3 4 5 6 
#
# 1 0.018381 -0.001186 -0.003874 0.000000 0.000000 0.000000
# 2 -0.001186 0.010042 -0.004479 0.000000 0.000000 0.000000
# 3 -0.003874 -0.004479 0.019183 0.000000 0.000000 0.000000
# 4 0.000000 0.000000 0.000000 0.050873 0.000000 0.000000
# 5 0.000000 0.000000 0.000000 0.000000 0.043107 0.000000
# 6 0.000000 0.000000 0.000000 0.000000 0.000000 0.034339
#
#
# Mechanical properties :
#
#
# Convention : Reuss Voigt Hill
#
# Bulk Modulus (GPa) = 35.05300 38.97067 37.01184
# Shear Modulus (GPa) = 24.44844 26.18116 25.31480
#
# Velocity S-wave (km/s) = 3.69328 3.82192 3.75815
# Velocity P-wave (km/s) = 6.14361 6.42018 6.28341
#
# Compressibility (1/GPa) = 0.02852823
#
# Stress axis : x y z
#
# Youngs Moduli (GPa) = 54.40359 99.57817 52.13007
#
# Poissons Ratio (x) = 0.11810 0.20195
# Poissons Ratio (y) = 0.06452 0.23349
# Poissons Ratio (z) = 0.21076 0.44601
#
# Static dielectric constant tensor:
#      x y z
#    x 3.298380 0.000000 0.000000 
#    y 0.000000 3.520400 0.000000 
#    z 0.000000 0.000000 3.273590 
# 
# 
# High freq. dielectric constant tensor:
#      x y z
#    x 1.689320 0.000000 0.000000 
#    y 0.000000 1.694390 0.000000 
#    z 0.000000 0.000000 1.672510 
# 
# From -- ./inp_files/5699.got.cif
#   From: 2010.03.12/outbox.cif.g09.slc.cpg/sg31_3_cif.got.tgz:5699.got - 2010.04.14 01:42:59.
