data_PCOD8169508
_publ_section_title
;
Structure prediction by ZEFSAII (Michael W. Deem and Ramdas Pophale) SiO2 
 PCOD8169508
Probable space group: P N C 2
;
_chemical_formula_sum "Si O2"
_cell_formula_units_Z 32
_cell_length_a 9.117494
_cell_length_b 12.271394
_cell_length_c 13.542873
_cell_angle_alpha 90.000000
_cell_angle_beta 90.000000
_cell_angle_gamma 90.000000
_cell_volume 1515.235694
_symmetry_space_group_name_H-M "P N C 2"
_symmetry_group_IT_number 30
_symmetry_cell_setting 'orthorhombic'
loop_
_space_group_symop_operation_xyz
x,y,z
-x,-y,z
-x,1/2+y,1/2+z
x,1/2-y,1/2+z
loop_
_atom_site_type_symbol
_atom_site_label
_atom_site_fract_x
_atom_site_fract_y
_atom_site_fract_z
Si Si1 0.380900 0.421687 0.752140
Si Si2 0.814860 0.200848 0.794597
Si Si3 0.773725 0.280878 0.513758
Si Si4 0.858721 0.074609 0.192509
Si Si5 0.021178 0.620740 0.126576
Si Si6 0.702627 0.708487 0.132934
Si Si7 0.543717 0.712300 0.937965
Si Si8 0.509171 0.621359 0.287408
O O1 0.500000 0.500000 0.700487
O O2 0.236567 0.494761 0.760834
O O3 0.347263 0.322862 0.678692
O O4 0.446318 0.387198 0.859409
O O5 0.841408 0.179554 0.909912
O O6 0.881161 0.317828 0.759861
O O7 0.642308 0.187476 0.767834
O O8 0.902089 0.109108 0.733776
O O9 0.780452 0.382690 0.590565
O O10 0.612596 0.230322 0.492564
O O11 0.872541 0.182614 0.552118
O O12 0.000000 0.000000 0.166124
O O13 0.874409 0.689844 0.142857
O O14 0.000000 0.500000 0.083348
O O15 0.608909 0.616682 0.189659
O O16 0.668789 0.696319 0.018154
O O17 0.591282 0.818769 0.876822
O O18 0.500000 0.500000 0.326521
#
# Coordination Sequence:
#
# PCOD8169508 Si02
#       8
#     4   4   4   4   4   4   4   4
#     4  11  22  39  63  92 123 162 211 264 324 385
#     4  10  22  42  62  87 126 165 210 263 317 387
#     4  10  22  42  64  89 126 170 214 259 317 388
#     4  11  23  41  64  93 129 173 215 264 328 389
#     4  11  24  40  60  89 123 165 206 257 316 373
#     4  11  23  38  59  91 127 157 204 267 311 371
#     4  10  23  40  61  91 123 160 208 261 318 383
#     4  10  21  40  64  88 116 160 206 257 319 378
#
# _framework density 21.118825000000001
#
# number of rings (size 3 to 8) (size 9 to 14) (size 15 to 20)
#    0.000    1.500    0.000    6.750    0.000    9.000 
#    0.000    0.000    0.000    0.000    0.000    0.000 
#    0.000    0.000    0.000    0.000    0.000    0.000 
#
# Total GULP energy -396553.954137 kJ/mol
# GULP energy per Si atom -12392.311067 kJ/mol
# Density = 2.107076 g / cm^3
# Si number density = 21.118825 Si / 1000 Ang^3
#
#
#
# Elastic Constant Matrix: (Units=GPa)
#
#
# Indices 1 2 3 4 5 6 
#
# 1 95.3519 28.3083 47.5378 0.0000 0.0000 0.0000
# 2 28.3083 94.0377 30.4400 0.0000 0.0000 0.0000
# 3 47.5378 30.4400 123.8426 0.0000 0.0000 0.0000
# 4 0.0000 0.0000 0.0000 12.7295 0.0000 0.0000
# 5 0.0000 0.0000 0.0000 0.0000 20.5784 0.0000
# 6 0.0000 0.0000 0.0000 0.0000 0.0000 39.2414
#
#
#
# Elastic Compliance Matrix: (Units=1/GPa)
#
#
# Indices 1 2 3 4 5 6 
#
# 1 0.013530 -0.002598 -0.004555 0.000000 0.000000 0.000000
# 2 -0.002598 0.012052 -0.001965 0.000000 0.000000 0.000000
# 3 -0.004555 -0.001965 0.010306 0.000000 0.000000 0.000000
# 4 0.000000 0.000000 0.000000 0.078558 0.000000 0.000000
# 5 0.000000 0.000000 0.000000 0.000000 0.048595 0.000000
# 6 0.000000 0.000000 0.000000 0.000000 0.000000 0.025483
#
#
# Mechanical properties :
#
#
# Convention : Reuss Voigt Hill
#
# Bulk Modulus (GPa) = 56.65174 58.42270 57.53722
# Shear Modulus (GPa) = 23.51348 28.30627 25.90987
#
# Velocity S-wave (km/s) = 3.34037 3.66503 3.50646
# Velocity P-wave (km/s) = 6.46227 6.75528 6.61040
#
# Compressibility (1/GPa) = 0.01765171
#
# Stress axis : x y z
#
# Youngs Moduli (GPa) = 73.91155 82.97159 97.02969
#
# Poissons Ratio (x) = 0.21560 0.44195
# Poissons Ratio (y) = 0.19206 0.19066
# Poissons Ratio (z) = 0.33665 0.16304
#
# Static dielectric constant tensor:
#      x y z
#    x 3.897040 0.000000 0.000000 
#    y 0.000000 3.911620 0.000000 
#    z 0.000000 0.000000 3.964920 
# 
# 
# High freq. dielectric constant tensor:
#      x y z
#    x 1.827930 0.000000 0.000000 
#    y 0.000000 1.831800 0.000000 
#    z 0.000000 0.000000 1.828300 
# 
# From -- ./inp_files/5201.got.cif
#   From: 2010.03.12/outbox.cif.g09.slc.cpg/sg30_3_cif.got.tgz:5201.got - 2010.04.14 01:38:02.
