data_PCOD8169293
_publ_section_title
;
Structure prediction by ZEFSAII (Michael W. Deem and Ramdas Pophale) SiO2 
 PCOD8169293
Probable space group: P C A 21
;
_chemical_formula_sum "Si O2"
_cell_formula_units_Z 20
_cell_length_a 20.399246
_cell_length_b 5.317832
_cell_length_c 7.297651
_cell_angle_alpha 90.000000
_cell_angle_beta 90.000000
_cell_angle_gamma 90.000000
_cell_volume 791.647452
_symmetry_space_group_name_H-M "P C A 21"
_symmetry_group_IT_number 29
_symmetry_cell_setting 'orthorhombic'
loop_
_space_group_symop_operation_xyz
x,y,z
-x,-y,1/2+z
1/2-x,y,1/2+z
1/2+x,-y,z
loop_
_atom_site_type_symbol
_atom_site_label
_atom_site_fract_x
_atom_site_fract_y
_atom_site_fract_z
Si Si1 0.565188 0.568385 0.316560
Si Si2 0.864137 0.495728 0.468602
Si Si3 0.441506 0.725984 0.157383
Si Si4 0.840714 0.929626 0.984887
Si Si5 0.199070 0.986920 0.091211
O O1 0.583574 0.428467 0.127915
O O2 0.508902 0.779745 0.270856
O O3 0.534709 0.375483 0.460615
O O4 0.632397 0.665311 0.410239
O O5 0.898229 0.478784 0.270034
O O6 0.839227 0.780676 0.496291
O O7 0.808971 0.273243 0.477358
O O8 0.397516 0.967940 0.118259
O O9 0.825385 0.080976 0.796761
O O10 0.774406 0.918604 0.103187
#
# Coordination Sequence:
#
# PCOD8169293 Si02
#       5
#     4   4   4   4   4
#     4  11  26  46  70 110 149 198 259 312 379 452
#     4  11  26  47  76 110 152 191 252 310 378 447
#     4  12  25  46  74 105 150 203 254 314 379 448
#     4  11  27  45  76 107 153 197 251 311 382 448
#     4  11  26  48  74 114 150 195 246 313 376 455
#
# _framework density 25.263769
#
# number of rings (size 3 to 8) (size 9 to 14) (size 15 to 20)
#    0.000    0.800    4.000    1.200    8.400    6.400 
#    0.000    0.000    0.000    0.000    0.000    0.000 
#    0.000    0.000    0.000    0.000    0.000    0.000 
#
# Total GULP energy -247779.810816 kJ/mol
# GULP energy per Si atom -12388.990541 kJ/mol
# Density = 2.520627 g / cm^3
# Si number density = 25.263769 Si / 1000 Ang^3
#
#
#
# Elastic Constant Matrix: (Units=GPa)
#
#
# Indices 1 2 3 4 5 6 
#
# 1 94.5139 0.3038 9.7748 0.0000 0.0000 0.0000
# 2 0.3038 71.4184 12.6124 0.0000 0.0000 0.0000
# 3 9.7748 12.6124 87.3567 0.0000 0.0000 0.0000
# 4 0.0000 0.0000 0.0000 34.9127 0.0000 0.0000
# 5 0.0000 0.0000 0.0000 0.0000 46.1943 0.0000
# 6 0.0000 0.0000 0.0000 0.0000 0.0000 32.5992
#
#
#
# Elastic Compliance Matrix: (Units=1/GPa)
#
#
# Indices 1 2 3 4 5 6 
#
# 1 0.010706 0.000170 -0.001223 0.000000 0.000000 0.000000
# 2 0.000170 0.014371 -0.002094 0.000000 0.000000 0.000000
# 3 -0.001223 -0.002094 0.011886 0.000000 0.000000 0.000000
# 4 0.000000 0.000000 0.000000 0.028643 0.000000 0.000000
# 5 0.000000 0.000000 0.000000 0.000000 0.021648 0.000000
# 6 0.000000 0.000000 0.000000 0.000000 0.000000 0.030676
#
#
# Mechanical properties :
#
#
# Convention : Reuss Voigt Hill
#
# Bulk Modulus (GPa) = 32.60352 33.18567 32.89459
# Shear Modulus (GPa) = 37.18959 38.11443 37.65201
#
# Velocity S-wave (km/s) = 3.84090 3.88836 3.86470
# Velocity P-wave (km/s) = 5.70992 5.77264 5.74137
#
# Compressibility (1/GPa) = 0.03067154
#
# Stress axis : x y z
#
# Youngs Moduli (GPa) = 93.40251 69.58427 84.12952
#
# Poissons Ratio (x) = -0.01186 0.10286
# Poissons Ratio (y) = -0.01591 0.17616
# Poissons Ratio (z) = 0.11419 0.14570
#
# Static dielectric constant tensor:
#      x y z
#    x 4.670630 0.000000 0.000000 
#    y 0.000000 3.893350 0.000000 
#    z 0.000000 0.000000 4.956300 
# 
# 
# High freq. dielectric constant tensor:
#      x y z
#    x 2.011200 0.000000 0.000000 
#    y 0.000000 1.966790 0.000000 
#    z 0.000000 0.000000 2.033390 
# 
# From -- ./inp_files/1997.got.cif
#   From: 2010.03.12/outbox.cif.g09.slc.cpg/sg29_1_cif.got.tgz:1997.got - 2010.04.14 03:43:10.
