data_PCOD8169244
_publ_section_title
;
Structure prediction by ZEFSAII (Michael W. Deem and Ramdas Pophale) SiO2 
 PCOD8169244
Probable space group: P C A 21
;
_chemical_formula_sum "Si O2"
_cell_formula_units_Z 28
_cell_length_a 14.452597
_cell_length_b 8.896684
_cell_length_c 9.281557
_cell_angle_alpha 90.000000
_cell_angle_beta 90.000000
_cell_angle_gamma 90.000000
_cell_volume 1193.424349
_symmetry_space_group_name_H-M "P C A 21"
_symmetry_group_IT_number 29
_symmetry_cell_setting 'orthorhombic'
loop_
_space_group_symop_operation_xyz
x,y,z
-x,-y,1/2+z
1/2-x,y,1/2+z
1/2+x,-y,z
loop_
_atom_site_type_symbol
_atom_site_label
_atom_site_fract_x
_atom_site_fract_y
_atom_site_fract_z
Si Si1 0.867289 0.994499 0.814530
Si Si2 0.061356 0.679447 0.383360
Si Si3 0.194933 0.071190 0.988325
Si Si4 0.647084 0.614926 0.896038
Si Si5 0.555569 0.154935 0.880882
Si Si6 0.661334 0.366590 0.670358
Si Si7 0.639205 0.362835 0.111857
O O1 0.823351 0.946847 0.659782
O O2 0.791648 0.004580 0.942428
O O3 0.947110 0.874937 0.856705
O O4 0.913339 0.158529 0.814354
O O5 0.126833 0.619540 0.508035
O O6 0.080226 0.570928 0.245758
O O7 0.956558 0.667987 0.430399
O O8 0.209317 0.240227 0.927397
O O9 0.110402 0.001268 0.897006
O O10 0.660469 0.534672 0.741021
O O11 0.676988 0.494799 0.013606
O O12 0.592919 0.250763 0.747619
O O13 0.574281 0.246645 0.026984
O O14 0.764107 0.291972 0.672362
#
# Coordination Sequence:
#
# PCOD8169244 Si02
#       7
#     4   4   4   4   4   4   4
#     4  12  28  46  80 109 155 205 263 327 389 463
#     4  12  23  45  74 108 146 199 251 311 381 462
#     4  12  27  49  73 111 151 199 261 326 388 455
#     4  11  26  47  69 108 148 192 251 319 385 449
#     4  11  25  49  76 109 148 201 253 314 386 462
#     4  11  25  47  75 107 150 198 251 308 383 467
#     4  11  24  47  73 106 146 198 250 307 378 460
#
# _framework density 23.461898000000001
#
# number of rings (size 3 to 8) (size 9 to 14) (size 15 to 20)
#    0.000    0.571    2.857    5.143    4.000    2.286 
#    5.143    0.000    0.000    0.000    0.000    0.000 
#    0.000    0.000    0.000    0.000    0.000    0.000 
#
# Total GULP energy -347118.730109 kJ/mol
# GULP energy per Si atom -12397.097504 kJ/mol
# Density = 2.340850 g / cm^3
# Si number density = 23.461898 Si / 1000 Ang^3
#
#
#
# Elastic Constant Matrix: (Units=GPa)
#
#
# Indices 1 2 3 4 5 6 
#
# 1 119.9861 -4.9799 40.6992 0.0000 0.0000 0.0000
# 2 -4.9799 86.3174 43.7185 0.0000 0.0000 0.0000
# 3 40.6992 43.7185 146.7467 0.0000 0.0000 0.0000
# 4 0.0000 0.0000 0.0000 22.6749 0.0000 0.0000
# 5 0.0000 0.0000 0.0000 0.0000 41.7440 0.0000
# 6 0.0000 0.0000 0.0000 0.0000 0.0000 33.5702
#
#
#
# Elastic Compliance Matrix: (Units=1/GPa)
#
#
# Indices 1 2 3 4 5 6 
#
# 1 0.009551 0.002229 -0.003313 0.000000 0.000000 0.000000
# 2 0.002229 0.014164 -0.004838 0.000000 0.000000 0.000000
# 3 -0.003313 -0.004838 0.009175 0.000000 0.000000 0.000000
# 4 0.000000 0.000000 0.000000 0.044102 0.000000 0.000000
# 5 0.000000 0.000000 0.000000 0.000000 0.023956 0.000000
# 6 0.000000 0.000000 0.000000 0.000000 0.000000 0.029788
#
#
# Mechanical properties :
#
#
# Convention : Reuss Voigt Hill
#
# Bulk Modulus (GPa) = 47.51611 56.88064 52.19837
# Shear Modulus (GPa) = 33.42396 37.83867 35.63131
#
# Velocity S-wave (km/s) = 3.77849 4.02029 3.90126
# Velocity P-wave (km/s) = 6.27156 6.77102 6.52607
#
# Compressibility (1/GPa) = 0.02104550
#
# Stress axis : x y z
#
# Youngs Moduli (GPa) = 104.70653 70.60117 108.99732
#
# Poissons Ratio (x) = -0.15736 0.36109
# Poissons Ratio (y) = -0.23338 0.52732
# Poissons Ratio (z) = 0.34687 0.34156
#
# Static dielectric constant tensor:
#      x y z
#    x 4.190010 0.000000 0.000000 
#    y 0.000000 4.331330 0.000000 
#    z 0.000000 0.000000 4.361250 
# 
# 
# High freq. dielectric constant tensor:
#      x y z
#    x 1.933820 0.000000 0.000000 
#    y 0.000000 1.923100 0.000000 
#    z 0.000000 0.000000 1.943020 
# 
# From -- ./inp_files/1772.got.cif
#   From: 2010.03.12/outbox.cif.g09.slc.cpg/sg29_1_cif.got.tgz:1772.got - 2010.04.14 03:43:10.
