data_PCOD8169927
_publ_section_title
;
Structure prediction by ZEFSAII (Michael W. Deem and Ramdas Pophale) SiO2 
 PCOD8169927
Probable space group: P M N 21
;
_chemical_formula_sum "Si O2"
_cell_formula_units_Z 32
_cell_length_a 9.147676
_cell_length_b 15.917486
_cell_length_c 10.800774
_cell_angle_alpha 90.000000
_cell_angle_beta 90.000000
_cell_angle_gamma 90.000000
_cell_volume 1572.679151
_symmetry_space_group_name_H-M "P M N 21"
_symmetry_group_IT_number 31
_symmetry_cell_setting 'orthorhombic'
loop_
_space_group_symop_operation_xyz
x,y,z
1/2-x,-y,1/2+z
-x,y,z
1/2+x,-y,1/2+z
loop_
_atom_site_type_symbol
_atom_site_label
_atom_site_fract_x
_atom_site_fract_y
_atom_site_fract_z
Si Si1 0.338213 0.721673 0.475530
Si Si2 0.172055 0.745703 0.075468
Si Si3 0.331928 0.159365 0.135602
Si Si4 0.667894 0.841731 0.883319
Si Si5 0.162059 0.142884 0.762642
Si Si6 0.835240 0.973142 0.423958
Si Si7 0.172241 0.459188 0.884671
Si Si8 0.172548 0.557129 0.132784
O O1 0.500000 0.707895 0.535217
O O2 0.221291 0.752591 0.576277
O O3 0.350287 0.790818 0.371242
O O4 0.280776 0.635491 0.416780
O O5 0.229820 0.819594 0.161932
O O6 0.219681 0.654598 0.124675
O O7 0.000000 0.751751 0.062750
O O8 0.243495 0.764153 0.942197
O O9 0.500000 0.170140 0.175047
O O10 0.228649 0.139109 0.248906
O O11 0.307482 0.080736 0.046070
O O12 0.500000 0.814608 0.876044
O O13 0.689601 0.929227 0.958559
O O14 0.226076 0.055723 0.814752
O O15 0.000000 0.126318 0.705871
O O16 0.000000 0.958586 0.375155
O O17 0.251084 0.484074 0.754529
O O18 0.000000 0.469107 0.861984
O O19 0.223081 0.515098 0.002678
O O20 0.000000 0.545646 0.150006
#
# Coordination Sequence:
#
# PCOD8169927 Si02
#       8
#     4   4   4   4   4   4   4   4
#     4   9  18  35  60  86 112 148 194 241 292 353
#     4  11  23  39  59  86 121 159 200 245 300 360
#     4  10  21  38  58  83 117 153 194 245 303 359
#     4  11  24  40  58  84 118 157 202 246 301 361
#     4  10  19  34  60  88 113 148 193 238 288 347
#     4   9  21  39  58  84 115 152 194 243 295 350
#     4  10  21  40  64  92 126 163 208 259 311 374
#     4  10  23  41  63  93 128 164 209 259 314 378
#
# _framework density 20.347445
#
# number of rings (size 3 to 8) (size 9 to 14) (size 15 to 20)
#    0.000    2.000    1.250    1.500    1.750    4.500 
#    0.000    2.500    0.000    0.000    0.000    0.000 
#    0.000    0.000    0.000    0.000    0.000    0.000 
#
# Total GULP energy -396753.949985 kJ/mol
# GULP energy per Si atom -12398.560937 kJ/mol
# Density = 2.030113 g / cm^3
# Si number density = 20.347445 Si / 1000 Ang^3
#
#
#
# Elastic Constant Matrix: (Units=GPa)
#
#
# Indices 1 2 3 4 5 6 
#
# 1 97.2008 37.5779 52.2377 0.0000 0.0000 0.0000
# 2 37.5779 56.9533 39.7342 0.0000 0.0000 0.0000
# 3 52.2377 39.7342 108.2320 0.0000 0.0000 0.0000
# 4 0.0000 0.0000 0.0000 23.1414 0.0000 0.0000
# 5 0.0000 0.0000 0.0000 0.0000 41.7764 0.0000
# 6 0.0000 0.0000 0.0000 0.0000 0.0000 25.5084
#
#
#
# Elastic Compliance Matrix: (Units=1/GPa)
#
#
# Indices 1 2 3 4 5 6 
#
# 1 0.015626 -0.006787 -0.005050 0.000000 0.000000 0.000000
# 2 -0.006787 0.026551 -0.006472 0.000000 0.000000 0.000000
# 3 -0.005050 -0.006472 0.014053 0.000000 0.000000 0.000000
# 4 0.000000 0.000000 0.000000 0.043213 0.000000 0.000000
# 5 0.000000 0.000000 0.000000 0.000000 0.023937 0.000000
# 6 0.000000 0.000000 0.000000 0.000000 0.000000 0.039203
#
#
# Mechanical properties :
#
#
# Convention : Reuss Voigt Hill
#
# Bulk Modulus (GPa) = 50.98825 57.94285 54.46555
# Shear Modulus (GPa) = 24.30283 26.94100 25.62192
#
# Velocity S-wave (km/s) = 3.45975 3.64269 3.55240
# Velocity P-wave (km/s) = 6.40882 6.79933 6.60696
#
# Compressibility (1/GPa) = 0.01961236
#
# Stress axis : x y z
#
# Youngs Moduli (GPa) = 63.99694 37.66289 71.15975
#
# Poissons Ratio (x) = 0.25560 0.35937
# Poissons Ratio (y) = 0.43432 0.46055
# Poissons Ratio (z) = 0.32320 0.24376
#
# Static dielectric constant tensor:
#      x y z
#    x 3.779260 0.000000 0.000000 
#    y 0.000000 3.713300 0.000000 
#    z 0.000000 0.000000 3.705810 
# 
# 
# High freq. dielectric constant tensor:
#      x y z
#    x 1.796000 0.000000 0.000000 
#    y 0.000000 1.789030 0.000000 
#    z 0.000000 0.000000 1.793730 
# 
# From -- ./inp_files/3667.got.cif
#   From: 2010.03.12/outbox.cif.g09.slc.cpg/sg31_2_cif.got.tgz:3667.got - 2010.04.14 01:42:59.
