data_PCOD8169675
_publ_section_title
;
Structure prediction by ZEFSAII (Michael W. Deem and Ramdas Pophale) SiO2 
 PCOD8169675
Probable space group: P M N 21
;
_chemical_formula_sum "Si O2"
_cell_formula_units_Z 32
_cell_length_a 8.755460
_cell_length_b 11.581295
_cell_length_c 18.035109
_cell_angle_alpha 90.000000
_cell_angle_beta 90.000000
_cell_angle_gamma 90.000000
_cell_volume 1828.752210
_symmetry_space_group_name_H-M "P M N 21"
_symmetry_group_IT_number 31
_symmetry_cell_setting 'orthorhombic'
loop_
_space_group_symop_operation_xyz
x,y,z
1/2-x,-y,1/2+z
-x,y,z
1/2+x,-y,1/2+z
loop_
_atom_site_type_symbol
_atom_site_label
_atom_site_fract_x
_atom_site_fract_y
_atom_site_fract_z
Si Si1 0.831968 0.943237 0.690680
Si Si2 0.319068 0.734649 0.910468
Si Si3 0.671054 0.162398 0.027938
Si Si4 0.318914 0.370780 0.556144
Si Si5 0.322033 0.732180 0.747621
Si Si6 0.179541 0.157953 0.612208
Si Si7 0.180892 0.373062 0.097243
Si Si8 0.821045 0.949958 0.969935
O O1 0.829357 0.902975 0.605803
O O2 0.716882 0.868443 0.739482
O O3 0.000000 0.925536 0.725151
O O4 0.791822 0.081234 0.686848
O O5 0.500000 0.728056 0.923518
O O6 0.271110 0.686560 0.828770
O O7 0.265533 0.868669 0.910723
O O8 0.234813 0.659097 0.972766
O O9 0.500000 0.184168 0.999111
O O10 0.754627 0.285221 0.035774
O O11 0.757982 0.081353 0.968187
O O12 0.500000 0.356392 0.561953
O O13 0.235366 0.290593 0.618426
O O14 0.265415 0.499743 0.575135
O O15 0.500000 0.720762 0.741253
O O16 0.250638 0.658198 0.679447
O O17 0.288362 0.107856 0.548773
O O18 0.000000 0.152022 0.589911
O O19 0.000000 0.361456 0.096960
O O20 0.000000 0.951583 0.952855
#
# Coordination Sequence:
#
# PCOD8169675 Si02
#       8
#     4   4   4   4   4   4   4   4
#     4   8  15  26  42  65  90 114 141 180 227 275
#     4  10  19  31  47  68  94 122 156 196 240 290
#     4   9  16  27  44  67  92 117 147 183 226 272
#     4  10  19  30  47  70  95 125 162 202 239 278
#     4   9  18  31  48  68  91 121 154 194 240 286
#     4   9  16  27  43  65  92 118 148 186 227 271
#     4   9  18  32  48  69  95 123 162 203 237 278
#     4  10  17  26  43  66  91 118 146 180 228 276
#
# _framework density 17.498270000000002
#
# number of rings (size 3 to 8) (size 9 to 14) (size 15 to 20)
#    0.000    2.750    0.000    4.875    0.000    5.500 
#    0.000    0.000    0.000    1.500    0.000    8.750 
#    0.000    0.000    0.000    0.000    0.000    0.000 
#
# Total GULP energy -396440.444595 kJ/mol
# GULP energy per Si atom -12388.763894 kJ/mol
# Density = 1.745844 g / cm^3
# Si number density = 17.498270 Si / 1000 Ang^3
#
#
#
# Elastic Constant Matrix: (Units=GPa)
#
#
# Indices 1 2 3 4 5 6 
#
# 1 48.2002 29.5035 18.6973 0.0000 0.0000 0.0000
# 2 29.5035 136.9558 41.4443 0.0000 0.0000 0.0000
# 3 18.6973 41.4443 60.7259 0.0000 0.0000 0.0000
# 4 0.0000 0.0000 0.0000 15.2995 0.0000 0.0000
# 5 0.0000 0.0000 0.0000 0.0000 15.2712 0.0000
# 6 0.0000 0.0000 0.0000 0.0000 0.0000 26.7029
#
#
#
# Elastic Compliance Matrix: (Units=1/GPa)
#
#
# Indices 1 2 3 4 5 6 
#
# 1 0.025085 -0.003865 -0.005086 0.000000 0.000000 0.000000
# 2 -0.003865 0.009798 -0.005497 0.000000 0.000000 0.000000
# 3 -0.005086 -0.005497 0.021785 0.000000 0.000000 0.000000
# 4 0.000000 0.000000 0.000000 0.065362 0.000000 0.000000
# 5 0.000000 0.000000 0.000000 0.000000 0.065483 0.000000
# 6 0.000000 0.000000 0.000000 0.000000 0.000000 0.037449
#
#
# Mechanical properties :
#
#
# Convention : Reuss Voigt Hill
#
# Bulk Modulus (GPa) = 36.00666 47.24133 41.62400
# Shear Modulus (GPa) = 19.00317 21.87050 20.43683
#
# Velocity S-wave (km/s) = 3.29903 3.53918 3.42121
# Velocity P-wave (km/s) = 5.92734 6.61494 6.28056
#
# Compressibility (1/GPa) = 0.02777264
#
# Stress axis : x y z
#
# Youngs Moduli (GPa) = 39.86382 102.06608 45.90362
#
# Poissons Ratio (x) = 0.39448 0.23346
# Poissons Ratio (y) = 0.15407 0.25232
# Poissons Ratio (z) = 0.20275 0.56102
#
# Static dielectric constant tensor:
#      x y z
#    x 3.253480 0.000000 0.000000 
#    y 0.000000 3.555860 0.000000 
#    z 0.000000 0.000000 3.145030 
# 
# 
# High freq. dielectric constant tensor:
#      x y z
#    x 1.681940 0.000000 0.000000 
#    y 0.000000 1.669150 0.000000 
#    z 0.000000 0.000000 1.632540 
# 
# From -- ./inp_files/5904.got.cif
#   From: 2010.03.12/outbox.cif.g09.slc.cpg/sg31_3_cif.got.tgz:5904.got - 2010.04.14 01:42:59.
