data_PCOD8169494
_publ_section_title
;
Structure prediction by ZEFSAII (Michael W. Deem and Ramdas Pophale) SiO2 
 PCOD8169494
Probable space group: P N C 2
;
_chemical_formula_sum "Si O2"
_cell_formula_units_Z 30
_cell_length_a 12.065360
_cell_length_b 8.419820
_cell_length_c 13.264672
_cell_angle_alpha 90.000000
_cell_angle_beta 90.000000
_cell_angle_gamma 90.000000
_cell_volume 1347.533614
_symmetry_space_group_name_H-M "P N C 2"
_symmetry_group_IT_number 30
_symmetry_cell_setting 'orthorhombic'
loop_
_space_group_symop_operation_xyz
x,y,z
-x,-y,z
-x,1/2+y,1/2+z
x,1/2-y,1/2+z
loop_
_atom_site_type_symbol
_atom_site_label
_atom_site_fract_x
_atom_site_fract_y
_atom_site_fract_z
Si Si1 0.767403 0.820185 0.920010
Si Si2 0.423794 0.343930 0.272690
Si Si3 0.877949 0.972982 0.107578
Si Si4 0.079962 0.317837 0.237999
Si Si5 0.271161 0.962947 0.428294
Si Si6 0.253602 0.502194 0.147869
Si Si7 0.500000 0.000000 0.317730
Si Si8 0.166003 0.737283 0.758804
O O1 0.642593 0.848622 0.879092
O O2 0.855252 0.874218 0.837186
O O3 0.785087 0.634181 0.937713
O O4 0.790860 0.914337 0.023519
O O5 0.500000 0.500000 0.271834
O O6 0.340969 0.362885 0.176550
O O7 0.479995 0.167587 0.256775
O O8 0.891334 0.860446 0.205002
O O9 0.830243 0.129928 0.158765
O O10 0.000000 0.000000 0.058472
O O11 0.127783 0.429266 0.147279
O O12 0.950437 0.332931 0.262839
O O13 0.279443 0.906542 0.543833
O O14 0.190586 0.849491 0.363946
O O15 0.393524 0.964863 0.384471
O O16 0.261816 0.633817 0.237355
#
# Coordination Sequence:
#
# PCOD8169494 Si02
#       8
#     4   4   4   4   4   4   2   4
#     4  10  21  39  69  90 134 181 222 280 341 416
#     4  10  23  44  69  99 133 177 232 295 350 416
#     4  10  21  38  62  96 134 177 225 269 337 422
#     4  10  21  41  61  95 136 181 223 279 345 417
#     4  11  23  43  67  98 134 180 229 289 351 424
#     4  11  24  41  70  98 139 177 232 292 350 425
#     4  10  24  44  72  96 136 180 234 294 368 416
#     4  11  24  40  65 101 140 178 229 287 348 428
#
# _framework density 22.262893999999999
#
# number of rings (size 3 to 8) (size 9 to 14) (size 15 to 20)
#    0.000    1.600    2.667    1.200    0.933    7.467 
#    2.400    0.000    7.333    0.000    0.000    0.000 
#    0.000    0.000    0.000    0.000    0.000    0.000 
#
# Total GULP energy -371679.115865 kJ/mol
# GULP energy per Si atom -12389.303862 kJ/mol
# Density = 2.221222 g / cm^3
# Si number density = 22.262894 Si / 1000 Ang^3
#
#
#
# Elastic Constant Matrix: (Units=GPa)
#
#
# Indices 1 2 3 4 5 6 
#
# 1 98.6567 48.7576 43.7658 0.0000 0.0000 0.0000
# 2 48.7576 115.2195 37.4007 0.0000 0.0000 0.0000
# 3 43.7658 37.4007 109.5331 0.0000 0.0000 0.0000
# 4 0.0000 0.0000 0.0000 33.0776 0.0000 0.0000
# 5 0.0000 0.0000 0.0000 0.0000 24.3487 0.0000
# 6 0.0000 0.0000 0.0000 0.0000 0.0000 42.6561
#
#
#
# Elastic Compliance Matrix: (Units=1/GPa)
#
#
# Indices 1 2 3 4 5 6 
#
# 1 0.014284 -0.004714 -0.004098 0.000000 0.000000 0.000000
# 2 -0.004714 0.011317 -0.001981 0.000000 0.000000 0.000000
# 3 -0.004098 -0.001981 0.011443 0.000000 0.000000 0.000000
# 4 0.000000 0.000000 0.000000 0.030232 0.000000 0.000000
# 5 0.000000 0.000000 0.000000 0.000000 0.041070 0.000000
# 6 0.000000 0.000000 0.000000 0.000000 0.000000 0.023443
#
#
# Mechanical properties :
#
#
# Convention : Reuss Voigt Hill
#
# Bulk Modulus (GPa) = 64.68744 64.80639 64.74691
# Shear Modulus (GPa) = 31.54032 32.91550 32.22791
#
# Velocity S-wave (km/s) = 3.76802 3.84929 3.80887
# Velocity P-wave (km/s) = 6.93180 6.99491 6.96343
#
# Compressibility (1/GPa) = 0.01545895
#
# Stress axis : x y z
#
# Youngs Moduli (GPa) = 70.00906 88.36275 87.38826
#
# Poissons Ratio (x) = 0.41658 0.35808
# Poissons Ratio (y) = 0.33005 0.17307
# Poissons Ratio (z) = 0.28687 0.17500
#
# Static dielectric constant tensor:
#      x y z
#    x 4.033790 0.000000 0.000000 
#    y 0.000000 4.292310 0.000000 
#    z 0.000000 0.000000 3.862600 
# 
# 
# High freq. dielectric constant tensor:
#      x y z
#    x 1.870370 0.000000 0.000000 
#    y 0.000000 1.896130 0.000000 
#    z 0.000000 0.000000 1.857350 
# 
# From -- ./inp_files/5489.got.cif
#   From: 2010.03.12/outbox.cif.g09.slc.cpg/sg30_3_cif.got.tgz:5489.got - 2010.04.14 01:38:02.
