data_PCOD8169173
_publ_section_title
;
Structure prediction by ZEFSAII (Michael W. Deem and Ramdas Pophale) SiO2 
 PCOD8169173
Probable space group: P C A 21
;
_chemical_formula_sum "Si O2"
_cell_formula_units_Z 32
_cell_length_a 14.513460
_cell_length_b 10.833323
_cell_length_c 8.344760
_cell_angle_alpha 90.000000
_cell_angle_beta 90.000000
_cell_angle_gamma 90.000000
_cell_volume 1312.038270
_symmetry_space_group_name_H-M "P C A 21"
_symmetry_group_IT_number 29
_symmetry_cell_setting 'orthorhombic'
loop_
_space_group_symop_operation_xyz
x,y,z
-x,-y,1/2+z
1/2-x,y,1/2+z
1/2+x,-y,z
loop_
_atom_site_type_symbol
_atom_site_label
_atom_site_fract_x
_atom_site_fract_y
_atom_site_fract_z
Si Si1 0.560629 0.332073 0.739970
Si Si2 0.313973 0.886463 0.603019
Si Si3 0.526006 0.074149 0.877482
Si Si4 0.531165 0.487747 0.041098
Si Si5 0.697396 0.539458 0.265142
Si Si6 0.138465 0.337899 0.578196
Si Si7 0.748506 0.282272 0.343398
Si Si8 0.365438 0.051155 0.093582
O O1 0.508536 0.212623 0.812207
O O2 0.520116 0.378614 0.568447
O O3 0.667017 0.295582 0.714445
O O4 0.547272 0.451821 0.856424
O O5 0.411598 0.935776 0.539978
O O6 0.317843 0.830114 0.782792
O O7 0.293929 0.760127 0.507403
O O8 0.234116 0.988090 0.582575
O O9 0.576448 0.992978 0.745876
O O10 0.425280 0.024541 0.931558
O O11 0.629978 0.503355 0.121309
O O12 0.465793 0.380788 0.117806
O O13 0.792561 0.585904 0.191165
O O14 0.657060 0.639623 0.388381
O O15 0.704171 0.414822 0.370196
O O16 0.151898 0.195295 0.617374
#
# Coordination Sequence:
#
# PCOD8169173 Si02
#       8
#     4   4   4   4   4   4   4   4
#     4  11  22  46  66 106 141 175 242 288 356 425
#     4  11  24  44  71 101 137 184 238 300 343 426
#     4  11  26  48  70 103 139 193 240 297 348 440
#     4  12  23  45  70 101 147 183 230 306 360 434
#     4  12  25  44  73 103 143 186 232 302 370 428
#     4  12  28  45  69 110 145 194 235 299 365 439
#     4  11  23  42  73 101 133 177 242 291 355 424
#     4  12  27  50  70 103 149 188 247 295 361 428
#
# _framework density 24.389530000000001
#
# number of rings (size 3 to 8) (size 9 to 14) (size 15 to 20)
#    0.000    0.500    6.250    3.000    3.500    0.000 
#    4.500    0.000    0.000    0.000    0.000    0.000 
#    0.000    0.000    0.000    0.000    0.000    0.000 
#
# Total GULP energy -396586.342645 kJ/mol
# GULP energy per Si atom -12393.323208 kJ/mol
# Density = 2.433402 g / cm^3
# Si number density = 24.389530 Si / 1000 Ang^3
#
#
#
# Elastic Constant Matrix: (Units=GPa)
#
#
# Indices 1 2 3 4 5 6 
#
# 1 70.4519 32.3907 -7.4995 0.0000 0.0000 0.0000
# 2 32.3907 112.9900 14.6487 0.0000 0.0000 0.0000
# 3 -7.4995 14.6487 39.0998 0.0000 0.0000 0.0000
# 4 0.0000 0.0000 0.0000 35.3172 0.0000 0.0000
# 5 0.0000 0.0000 0.0000 0.0000 38.8205 0.0000
# 6 0.0000 0.0000 0.0000 0.0000 0.0000 34.1652
#
#
#
# Elastic Compliance Matrix: (Units=1/GPa)
#
#
# Indices 1 2 3 4 5 6 
#
# 1 0.017395 -0.005696 0.005470 0.000000 0.000000 0.000000
# 2 -0.005696 0.011167 -0.005276 0.000000 0.000000 0.000000
# 3 0.005470 -0.005276 0.028602 0.000000 0.000000 0.000000
# 4 0.000000 0.000000 0.000000 0.028315 0.000000 0.000000
# 5 0.000000 0.000000 0.000000 0.000000 0.025760 0.000000
# 6 0.000000 0.000000 0.000000 0.000000 0.000000 0.029270
#
#
# Mechanical properties :
#
#
# Convention : Reuss Voigt Hill
#
# Bulk Modulus (GPa) = 21.66355 33.51350 27.58853
# Shear Modulus (GPa) = 29.95839 33.86069 31.90954
#
# Velocity S-wave (km/s) = 3.50856 3.73007 3.62101
# Velocity P-wave (km/s) = 5.03139 5.68524 5.36828
#
# Compressibility (1/GPa) = 0.04616048
#
# Stress axis : x y z
#
# Youngs Moduli (GPa) = 57.48744 89.54786 34.96307
#
# Poissons Ratio (x) = 0.51005 -0.19126
# Poissons Ratio (y) = 0.32744 0.18448
# Poissons Ratio (z) = -0.31448 0.47248
#
# Static dielectric constant tensor:
#      x y z
#    x 4.653700 0.000000 0.000000 
#    y 0.000000 4.361900 0.000000 
#    z 0.000000 0.000000 4.316560 
# 
# 
# High freq. dielectric constant tensor:
#      x y z
#    x 1.979290 0.000000 0.000000 
#    y 0.000000 1.967020 0.000000 
#    z 0.000000 0.000000 1.961790 
# 
# From -- ./inp_files/1875.got.cif
#   From: 2010.03.12/outbox.cif.g09.slc.cpg/sg29_1_cif.got.tgz:1875.got - 2010.04.14 03:43:10.
