data_PCOD8169528
_publ_section_title
;
Structure prediction by ZEFSAII (Michael W. Deem and Ramdas Pophale) SiO2 
 PCOD8169528
Probable space group: P N C 2
;
_chemical_formula_sum "Si O2"
_cell_formula_units_Z 26
_cell_length_a 6.262664
_cell_length_b 16.387995
_cell_length_c 14.154027
_cell_angle_alpha 90.000000
_cell_angle_beta 90.000000
_cell_angle_gamma 90.000000
_cell_volume 1452.663266
_symmetry_space_group_name_H-M "P N C 2"
_symmetry_group_IT_number 30
_symmetry_cell_setting 'orthorhombic'
loop_
_space_group_symop_operation_xyz
x,y,z
-x,-y,z
-x,1/2+y,1/2+z
x,1/2-y,1/2+z
loop_
_atom_site_type_symbol
_atom_site_label
_atom_site_fract_x
_atom_site_fract_y
_atom_site_fract_z
Si Si1 0.500000 0.000000 0.033690
Si Si2 0.179757 0.287714 0.960958
Si Si3 0.559795 0.328244 0.465659
Si Si4 0.837167 0.933534 0.177028
Si Si5 0.799039 0.273002 0.822791
Si Si6 0.547975 0.593278 0.854004
Si Si7 0.902804 0.221282 0.114213
O O1 0.299804 0.020943 0.098556
O O2 0.556369 0.074410 0.965122
O O3 0.320620 0.206143 0.967787
O O4 0.331773 0.366483 0.944603
O O5 0.028610 0.283358 0.870003
O O6 0.040508 0.290122 0.057530
O O7 0.671604 0.301053 0.369289
O O8 0.687455 0.296139 0.556698
O O9 0.690430 0.899380 0.260429
O O10 0.960819 0.860398 0.127065
O O11 0.000000 0.000000 0.220276
O O12 0.671171 0.358483 0.832379
O O13 0.832309 0.244918 0.715339
O O14 0.500000 0.500000 0.880482
#
# Coordination Sequence:
#
# PCOD8169528 Si02
#       7
#     2   4   4   4   4   4   4
#     4  12  20  34  54  86 122 150 184 242 298 358
#     4  10  22  36  56  86 113 156 195 234 292 347
#     4  10  22  36  55  89 114 151 194 239 296 347
#     4  12  21  31  57  91 119 147 177 238 313 361
#     4  10  22  38  56  88 114 155 196 237 285 356
#     4  11  22  35  55  88 120 150 191 241 299 354
#     4  11  20  36  57  83 117 150 195 236 291 355
#
# _framework density 17.898160000000001
#
# number of rings (size 3 to 8) (size 9 to 14) (size 15 to 20)
#    0.000    1.231    5.385    1.846    0.000    0.000 
#    0.000    0.000    0.000    0.000   48.000    0.000 
#    0.000    0.000    0.000    0.000    0.000    0.000 
#
# Total GULP energy -322392.602959 kJ/mol
# GULP energy per Si atom -12399.715498 kJ/mol
# Density = 1.785742 g / cm^3
# Si number density = 17.898160 Si / 1000 Ang^3
#
#
#
# Elastic Constant Matrix: (Units=GPa)
#
#
# Indices 1 2 3 4 5 6 
#
# 1 104.7747 43.1289 52.1791 0.0000 0.0000 0.0000
# 2 43.1289 101.0460 60.5320 0.0000 0.0000 0.0000
# 3 52.1791 60.5320 126.9165 0.0000 0.0000 0.0000
# 4 0.0000 0.0000 0.0000 26.2638 0.0000 0.0000
# 5 0.0000 0.0000 0.0000 0.0000 35.0199 0.0000
# 6 0.0000 0.0000 0.0000 0.0000 0.0000 36.2013
#
#
#
# Elastic Compliance Matrix: (Units=1/GPa)
#
#
# Indices 1 2 3 4 5 6 
#
# 1 0.012705 -0.003211 -0.003692 0.000000 0.000000 0.000000
# 2 -0.003211 0.014667 -0.005675 0.000000 0.000000 0.000000
# 3 -0.003692 -0.005675 0.012104 0.000000 0.000000 0.000000
# 4 0.000000 0.000000 0.000000 0.038075 0.000000 0.000000
# 5 0.000000 0.000000 0.000000 0.000000 0.028555 0.000000
# 6 0.000000 0.000000 0.000000 0.000000 0.000000 0.027623
#
#
# Mechanical properties :
#
#
# Convention : Reuss Voigt Hill
#
# Bulk Modulus (GPa) = 69.83593 71.60190 70.71891
# Shear Modulus (GPa) = 30.55163 31.29015 30.92089
#
# Velocity S-wave (km/s) = 4.13603 4.18572 4.16095
# Velocity P-wave (km/s) = 7.86843 7.96570 7.91722
#
# Compressibility (1/GPa) = 0.01431928
#
# Stress axis : x y z
#
# Youngs Moduli (GPa) = 78.71153 68.18173 82.61982
#
# Poissons Ratio (x) = 0.21894 0.30501
# Poissons Ratio (y) = 0.25275 0.46887
# Poissons Ratio (z) = 0.29058 0.38693
#
# Static dielectric constant tensor:
#      x y z
#    x 3.667030 0.000000 0.000000 
#    y 0.000000 3.327480 0.000000 
#    z 0.000000 0.000000 3.296950 
# 
# 
# High freq. dielectric constant tensor:
#      x y z
#    x 1.720050 0.000000 0.000000 
#    y 0.000000 1.675560 0.000000 
#    z 0.000000 0.000000 1.680720 
# 
# From -- ./inp_files/4689.got.cif
#   From: 2010.03.12/outbox.cif.g09.slc.cpg/sg30_3_cif.got.tgz:4689.got - 2010.04.14 01:38:02.
