data_PCOD8169716
_publ_section_title
;
Structure prediction by ZEFSAII (Michael W. Deem and Ramdas Pophale) SiO2 
 PCOD8169716
Probable space group: P M N 21
;
_chemical_formula_sum "Si O2"
_cell_formula_units_Z 24
_cell_length_a 16.373426
_cell_length_b 9.190149
_cell_length_c 8.541787
_cell_angle_alpha 90.000000
_cell_angle_beta 90.000000
_cell_angle_gamma 90.000000
_cell_volume 1285.318775
_symmetry_space_group_name_H-M "P M N 21"
_symmetry_group_IT_number 31
_symmetry_cell_setting 'orthorhombic'
loop_
_space_group_symop_operation_xyz
x,y,z
1/2-x,-y,1/2+z
-x,y,z
1/2+x,-y,1/2+z
loop_
_atom_site_type_symbol
_atom_site_label
_atom_site_fract_x
_atom_site_fract_y
_atom_site_fract_z
Si Si1 0.407661 0.815801 0.210210
Si Si2 0.827295 0.899845 0.219082
Si Si3 0.241884 0.356771 0.843932
Si Si4 0.908002 0.155801 0.349239
Si Si5 0.740922 0.673929 0.711441
Si Si6 0.326737 0.069073 0.349401
O O1 0.500000 0.757233 0.228603
O O2 0.346611 0.700403 0.288558
O O3 0.404593 0.977240 0.288849
O O4 0.382164 0.831091 0.029439
O O5 0.818505 0.730386 0.266003
O O6 0.903707 0.985856 0.294764
O O7 0.748718 0.971592 0.297432
O O8 0.830097 0.915145 0.034246
O O9 0.252528 0.522888 0.799550
O O10 0.249037 0.345105 0.028423
O O11 0.846410 0.252559 0.247316
O O12 0.000000 0.211742 0.321427
O O13 0.816870 0.772796 0.770794
#
# Coordination Sequence:
#
# PCOD8169716 Si02
#       6
#     4   4   4   4   4   4
#     4  10  20  35  55  79 107 138 174 217 264 311
#     4  10  18  31  52  76 102 133 172 211 251 303
#     4  11  21  35  55  78 107 140 177 217 261 315
#     4  10  20  35  55  79 107 138 174 217 264 311
#     4  11  21  35  55  78 107 140 177 217 261 315
#     4  10  18  31  52  76 102 133 172 211 251 303
#
# _framework density 18.672408999999998
#
# number of rings (size 3 to 8) (size 9 to 14) (size 15 to 20)
#    0.000    1.667    0.000   11.000    0.000    2.667 
#    0.000    1.667    0.000   10.000    0.000    0.000 
#    0.000    0.000    0.000    0.000    0.000    0.000 
#
# Total GULP energy -297490.801012 kJ/mol
# GULP energy per Si atom -12395.450042 kJ/mol
# Density = 1.862991 g / cm^3
# Si number density = 18.672409 Si / 1000 Ang^3
#
#
#
# Elastic Constant Matrix: (Units=GPa)
#
#
# Indices 1 2 3 4 5 6 
#
# 1 57.6844 19.7905 14.3421 0.0000 0.0000 0.0000
# 2 19.7905 84.4068 -16.6384 0.0000 0.0000 0.0000
# 3 14.3421 -16.6384 91.6692 0.0000 0.0000 0.0000
# 4 0.0000 0.0000 0.0000 -308.1919 0.0000 0.0000
# 5 0.0000 0.0000 0.0000 0.0000 26.5008 0.0000
# 6 0.0000 0.0000 0.0000 0.0000 0.0000 18.6702
#
#
#
# Elastic Compliance Matrix: (Units=1/GPa)
#
#
# Indices 1 2 3 4 5 6 
#
# 1 0.020293 -0.005584 -0.004188 0.000000 0.000000 0.000000
# 2 -0.005584 0.013823 0.003383 0.000000 0.000000 0.000000
# 3 -0.004188 0.003383 0.012178 0.000000 0.000000 0.000000
# 4 0.000000 0.000000 0.000000 -0.003245 0.000000 0.000000
# 5 0.000000 0.000000 0.000000 0.000000 0.037735 0.000000
# 6 0.000000 0.000000 0.000000 0.000000 0.000000 0.053561
#
#
# Mechanical properties :
#
#
# Convention : Reuss Voigt Hill
#
# Bulk Modulus (GPa) = 29.83705 29.86100 29.84903
# Shear Modulus (GPa) = 31.58646 -38.18643 -3.29999
#
# Velocity S-wave (km/s) = 4.11738 -4.52715 -1.33084
# Velocity P-wave (km/s) = 6.21431 3.36156 3.69578
#
# Compressibility (1/GPa) = 0.03351538
#
# Stress axis : x y z
#
# Youngs Moduli (GPa) = 49.27890 72.34157 82.11518
#
# Poissons Ratio (x) = 0.40392 0.34392
# Poissons Ratio (y) = 0.27515 -0.27776
# Poissons Ratio (z) = 0.20640 -0.24470
#
# Static dielectric constant tensor:
#      x y z
#    x 2.896960 0.000000 0.000000 
#    y 0.000000 4.610260 0.000000 
#    z 0.000000 0.000000 3.602990 
# 
# 
# High freq. dielectric constant tensor:
#      x y z
#    x 1.698490 0.000000 0.000000 
#    y 0.000000 1.721950 0.000000 
#    z 0.000000 0.000000 1.750030 
# 
# From -- ./inp_files/2800.got.cif
#   From: 2010.03.12/outbox.cif.g09.slc.cpg/sg31_2_cif.got.tgz:2800.got - 2010.04.14 01:42:59.
