data_PCOD8169199
_publ_section_title
;
Structure prediction by ZEFSAII (Michael W. Deem and Ramdas Pophale) SiO2 
 PCOD8169199
Probable space group: P C A 21
;
_chemical_formula_sum "Si O2"
_cell_formula_units_Z 32
_cell_length_a 13.060468
_cell_length_b 12.754434
_cell_length_c 9.470480
_cell_angle_alpha 90.000000
_cell_angle_beta 90.000000
_cell_angle_gamma 90.000000
_cell_volume 1577.581924
_symmetry_space_group_name_H-M "P C A 21"
_symmetry_group_IT_number 29
_symmetry_cell_setting 'orthorhombic'
loop_
_space_group_symop_operation_xyz
x,y,z
-x,-y,1/2+z
1/2-x,y,1/2+z
1/2+x,-y,z
loop_
_atom_site_type_symbol
_atom_site_label
_atom_site_fract_x
_atom_site_fract_y
_atom_site_fract_z
Si Si1 0.865638 0.620734 0.198610
Si Si2 0.972172 0.207123 0.748155
Si Si3 0.966858 0.779793 0.738231
Si Si4 0.623328 0.884642 0.968681
Si Si5 0.392609 0.875545 0.466690
Si Si6 0.630734 0.382122 0.657233
Si Si7 0.720193 0.710307 0.416932
Si Si8 0.228187 0.712782 0.391894
O O1 0.901158 0.502744 0.170498
O O2 0.794921 0.629104 0.337371
O O3 0.970436 0.683924 0.219040
O O4 0.797356 0.666108 0.072267
O O5 0.963925 0.143505 0.602417
O O6 0.860352 0.228937 0.807551
O O7 0.032814 0.135702 0.858282
O O8 0.909756 0.850872 0.624769
O O9 0.887640 0.721659 0.839835
O O10 0.029287 0.688749 0.658430
O O11 0.042116 0.854656 0.825901
O O12 0.726079 0.823940 0.924477
O O13 0.649785 0.006839 0.967036
O O14 0.294592 0.800162 0.472311
O O15 0.704197 0.354871 0.786282
O O16 0.685600 0.367113 0.507764
#
# Coordination Sequence:
#
# PCOD8169199 Si02
#       8
#     4   4   4   4   4   4   4   4
#     4  11  24  42  68  94 128 171 210 264 321 371
#     4  11  23  45  63  95 132 163 216 264 310 385
#     4  11  23  45  63  95 132 163 216 264 310 385
#     4  11  24  42  68  94 128 171 210 264 321 371
#     4  11  24  42  68  94 128 171 210 264 321 371
#     4  11  24  42  68  94 128 171 210 264 321 371
#     4  11  23  45  63  95 132 163 216 264 310 385
#     4  11  23  45  63  95 132 163 216 264 310 385
#
# _framework density 20.284210000000002
#
# number of rings (size 3 to 8) (size 9 to 14) (size 15 to 20)
#    0.000    1.000    5.000    1.500    0.000    4.000 
#    0.000    0.000    0.000    0.000    0.000    0.000 
#    0.000    0.000    0.000    0.000    0.000    0.000 
#
# Total GULP energy -397049.811959 kJ/mol
# GULP energy per Si atom -12407.806624 kJ/mol
# Density = 2.023804 g / cm^3
# Si number density = 20.284210 Si / 1000 Ang^3
#
#
#
# Elastic Constant Matrix: (Units=GPa)
#
#
# Indices 1 2 3 4 5 6 
#
# 1 65.1296 -0.6630 7.9256 0.0000 0.0000 0.0000
# 2 -0.6630 79.9195 6.3989 0.0000 0.0000 0.0000
# 3 7.9256 6.3989 80.4358 0.0000 0.0000 0.0000
# 4 0.0000 0.0000 0.0000 20.9769 0.0000 0.0000
# 5 0.0000 0.0000 0.0000 0.0000 32.4553 0.0000
# 6 0.0000 0.0000 0.0000 0.0000 0.0000 17.5021
#
#
#
# Elastic Compliance Matrix: (Units=1/GPa)
#
#
# Indices 1 2 3 4 5 6 
#
# 1 0.015545 0.000253 -0.001552 0.000000 0.000000 0.000000
# 2 0.000253 0.012597 -0.001027 0.000000 0.000000 0.000000
# 3 -0.001552 -0.001027 0.012667 0.000000 0.000000 0.000000
# 4 0.000000 0.000000 0.000000 0.047672 0.000000 0.000000
# 5 0.000000 0.000000 0.000000 0.000000 0.030812 0.000000
# 6 0.000000 0.000000 0.000000 0.000000 0.000000 0.057136
#
#
# Mechanical properties :
#
#
# Convention : Reuss Voigt Hill
#
# Bulk Modulus (GPa) = 27.65656 28.08976 27.87316
# Shear Modulus (GPa) = 25.88897 28.30841 27.09869
#
# Velocity S-wave (km/s) = 3.57643 3.73981 3.65903
# Velocity P-wave (km/s) = 5.54243 5.70319 5.62339
#
# Compressibility (1/GPa) = 0.03615778
#
# Stress axis : x y z
#
# Youngs Moduli (GPa) = 64.32756 79.38440 78.94593
#
# Poissons Ratio (x) = -0.02010 0.12252
# Poissons Ratio (y) = -0.01629 0.08108
# Poissons Ratio (z) = 0.09983 0.08153
#
# Static dielectric constant tensor:
#      x y z
#    x 3.683410 0.000000 0.000000 
#    y 0.000000 3.519530 0.000000 
#    z 0.000000 0.000000 3.915190 
# 
# 
# High freq. dielectric constant tensor:
#      x y z
#    x 1.798280 0.000000 0.000000 
#    y 0.000000 1.785360 0.000000 
#    z 0.000000 0.000000 1.813360 
# 
# From -- ./inp_files/1836.got.cif
#   From: 2010.03.12/outbox.cif.g09.slc.cpg/sg29_1_cif.got.tgz:1836.got - 2010.04.14 03:43:10.
