data_PCOD8169089
_publ_section_title
;
Structure prediction by ZEFSAII (Michael W. Deem and Ramdas Pophale) SiO2 
 PCOD8169089
Probable space group: P C A 21
;
_chemical_formula_sum "Si O2"
_cell_formula_units_Z 32
_cell_length_a 18.318831
_cell_length_b 6.368340
_cell_length_c 12.673111
_cell_angle_alpha 90.000000
_cell_angle_beta 90.000000
_cell_angle_gamma 90.000000
_cell_volume 1478.452026
_symmetry_space_group_name_H-M "P C A 21"
_symmetry_group_IT_number 29
_symmetry_cell_setting 'orthorhombic'
loop_
_space_group_symop_operation_xyz
x,y,z
-x,-y,1/2+z
1/2-x,y,1/2+z
1/2+x,-y,z
loop_
_atom_site_type_symbol
_atom_site_label
_atom_site_fract_x
_atom_site_fract_y
_atom_site_fract_z
Si Si1 0.439840 0.834402 0.435090
Si Si2 0.050688 0.485155 0.092794
Si Si3 0.926245 0.360523 0.217695
Si Si4 0.304016 0.111576 0.447083
Si Si5 0.176111 0.854884 0.352523
Si Si6 0.952718 0.165492 0.007597
Si Si7 0.830686 0.813546 0.682264
Si Si8 0.778091 0.533309 0.298489
O O1 0.415030 0.683528 0.532309
O O2 0.460180 0.715064 0.328014
O O3 0.372908 0.983732 0.401327
O O4 0.513776 0.941543 0.476545
O O5 0.108039 0.364590 0.167624
O O6 0.981806 0.538580 0.170413
O O7 0.020335 0.330535 0.999914
O O8 0.845716 0.449644 0.231721
O O9 0.923034 0.172650 0.129178
O O10 0.308541 0.094121 0.571192
O O11 0.305866 0.354594 0.406814
O O12 0.227659 0.007970 0.418014
O O13 0.110437 0.774061 0.425571
O O14 0.220934 0.651268 0.317834
O O15 0.143541 0.987619 0.253521
O O16 0.758121 0.715748 0.730733
#
# Coordination Sequence:
#
# PCOD8169089 Si02
#       8
#     4   4   4   4   4   4   4   4
#     4  12  23  46  73  98 146 185 240 298 358 433
#     4  10  25  44  66 106 136 191 228 298 351 427
#     4  10  24  45  70 100 139 191 236 280 377 415
#     4  11  25  42  71 101 138 185 240 285 363 434
#     4  11  26  44  72 105 139 187 235 303 351 435
#     4  10  26  43  67 106 136 180 244 289 353 433
#     4  11  25  44  67 106 139 180 239 287 370 423
#     4  11  26  44  70 104 139 193 232 300 355 438
#
# _framework density 21.644259000000002
#
# number of rings (size 3 to 8) (size 9 to 14) (size 15 to 20)
#    0.750    0.500    2.500    1.500    5.250    5.000 
#    0.000    0.000    0.000    0.000    0.000    0.000 
#    0.000    0.000    0.000    0.000    0.000    0.000 
#
# Total GULP energy -396595.777431 kJ/mol
# GULP energy per Si atom -12393.618045 kJ/mol
# Density = 2.159500 g / cm^3
# Si number density = 21.644259 Si / 1000 Ang^3
#
#
#
# Elastic Constant Matrix: (Units=GPa)
#
#
# Indices 1 2 3 4 5 6 
#
# 1 88.2716 27.8560 34.5838 0.0000 0.0000 0.0000
# 2 27.8560 75.8560 27.8834 0.0000 0.0000 0.0000
# 3 34.5838 27.8834 114.0342 0.0000 0.0000 0.0000
# 4 0.0000 0.0000 0.0000 39.5609 0.0000 0.0000
# 5 0.0000 0.0000 0.0000 0.0000 43.3298 0.0000
# 6 0.0000 0.0000 0.0000 0.0000 0.0000 39.9252
#
#
#
# Elastic Compliance Matrix: (Units=1/GPa)
#
#
# Indices 1 2 3 4 5 6 
#
# 1 0.013825 -0.003885 -0.003243 0.000000 0.000000 0.000000
# 2 -0.003885 0.015576 -0.002631 0.000000 0.000000 0.000000
# 3 -0.003243 -0.002631 0.010396 0.000000 0.000000 0.000000
# 4 0.000000 0.000000 0.000000 0.025277 0.000000 0.000000
# 5 0.000000 0.000000 0.000000 0.000000 0.023079 0.000000
# 6 0.000000 0.000000 0.000000 0.000000 0.000000 0.025047
#
#
# Mechanical properties :
#
#
# Convention : Reuss Voigt Hill
#
# Bulk Modulus (GPa) = 49.30729 50.97867 50.14298
# Shear Modulus (GPa) = 35.84803 37.08575 36.46689
#
# Velocity S-wave (km/s) = 4.07410 4.14384 4.10912
# Velocity P-wave (km/s) = 6.70532 6.81904 6.76242
#
# Compressibility (1/GPa) = 0.02028098
#
# Stress axis : x y z
#
# Youngs Moduli (GPa) = 72.33185 64.19958 96.19071
#
# Poissons Ratio (x) = 0.24941 0.31194
# Poissons Ratio (y) = 0.28100 0.25303
# Poissons Ratio (z) = 0.23457 0.16888
#
# Static dielectric constant tensor:
#      x y z
#    x 3.974480 0.000000 0.000000 
#    y 0.000000 3.843410 0.000000 
#    z 0.000000 0.000000 3.939940 
# 
# 
# High freq. dielectric constant tensor:
#      x y z
#    x 1.855970 0.000000 0.000000 
#    y 0.000000 1.838970 0.000000 
#    z 0.000000 0.000000 1.857340 
# 
# From -- ./inp_files/3868.got.cif
#   From: 2010.03.12/outbox.cif.g09.slc.cpg/sg29_2_cif.got.tgz:3868.got - 2010.04.14 03:43:10.
