data_PCOD8169193
_publ_section_title
;
Structure prediction by ZEFSAII (Michael W. Deem and Ramdas Pophale) SiO2 
 PCOD8169193
Probable space group: P C A 21
;
_chemical_formula_sum "Si O2"
_cell_formula_units_Z 32
_cell_length_a 13.113734
_cell_length_b 6.485841
_cell_length_c 17.400460
_cell_angle_alpha 90.000000
_cell_angle_beta 90.000000
_cell_angle_gamma 90.000000
_cell_volume 1479.971654
_symmetry_space_group_name_H-M "P C A 21"
_symmetry_group_IT_number 29
_symmetry_cell_setting 'orthorhombic'
loop_
_space_group_symop_operation_xyz
x,y,z
-x,-y,1/2+z
1/2-x,y,1/2+z
1/2+x,-y,z
loop_
_atom_site_type_symbol
_atom_site_label
_atom_site_fract_x
_atom_site_fract_y
_atom_site_fract_z
Si Si1 0.106823 0.142852 0.819930
Si Si2 0.149854 0.676728 0.477872
Si Si3 0.446770 0.757353 0.228446
Si Si4 0.809528 0.709775 0.076017
Si Si5 0.077089 0.559301 0.314233
Si Si6 0.482956 0.972869 0.075321
Si Si7 0.731240 0.550085 0.730167
Si Si8 0.325423 0.991307 0.481443
O O1 0.199278 0.296423 0.799179
O O2 0.998101 0.249032 0.802654
O O3 0.113566 0.942003 0.768025
O O4 0.117062 0.077559 0.907557
O O5 0.162344 0.513217 0.544773
O O6 0.111974 0.555259 0.402556
O O7 0.066743 0.841067 0.506332
O O8 0.258059 0.790072 0.461722
O O9 0.525933 0.658431 0.289791
O O10 0.502590 0.833852 0.150997
O O11 0.362603 0.591848 0.204743
O O12 0.742913 0.681296 0.153685
O O13 0.911519 0.835229 0.097673
O O14 0.744751 0.827043 0.012642
O O15 0.174230 0.588488 0.258362
O O16 0.589920 0.065104 0.045335
#
# Coordination Sequence:
#
# PCOD8169193 Si02
#       8
#     4   4   4   4   4   4   4   4
#     4  11  24  44  66  98 135 175 225 281 336 401
#     4  11  24  44  67 101 134 176 224 282 340 404
#     4  11  24  42  69  97 135 183 220 281 340 403
#     4  11  24  43  69  96 137 179 219 283 336 403
#     4  11  25  42  70 101 131 175 227 279 342 402
#     4  11  23  45  66  98 140 177 231 275 339 410
#     4  11  23  44  66 100 136 172 227 280 337 407
#     4  11  25  42  69  99 132 179 227 277 342 404
#
# _framework density 21.622036000000001
#
# number of rings (size 3 to 8) (size 9 to 14) (size 15 to 20)
#    0.000    1.000    3.750    2.250    1.750    5.000 
#    0.000    0.000    0.000    0.000    0.000    0.000 
#    0.000    0.000    0.000    0.000    0.000    0.000 
#
# Total GULP energy -396905.739102 kJ/mol
# GULP energy per Si atom -12403.304347 kJ/mol
# Density = 2.157282 g / cm^3
# Si number density = 21.622036 Si / 1000 Ang^3
#
#
#
# Elastic Constant Matrix: (Units=GPa)
#
#
# Indices 1 2 3 4 5 6 
#
# 1 93.0139 36.7326 37.9169 0.0000 0.0000 0.0000
# 2 36.7326 93.2908 45.5312 0.0000 0.0000 0.0000
# 3 37.9169 45.5312 116.7867 0.0000 0.0000 0.0000
# 4 0.0000 0.0000 0.0000 37.5365 0.0000 0.0000
# 5 0.0000 0.0000 0.0000 0.0000 32.1278 0.0000
# 6 0.0000 0.0000 0.0000 0.0000 0.0000 22.2602
#
#
#
# Elastic Compliance Matrix: (Units=1/GPa)
#
#
# Indices 1 2 3 4 5 6 
#
# 1 0.013454 -0.003910 -0.002844 0.000000 0.000000 0.000000
# 2 -0.003910 0.014374 -0.004335 0.000000 0.000000 0.000000
# 3 -0.002844 -0.004335 0.011176 0.000000 0.000000 0.000000
# 4 0.000000 0.000000 0.000000 0.026641 0.000000 0.000000
# 5 0.000000 0.000000 0.000000 0.000000 0.031126 0.000000
# 6 0.000000 0.000000 0.000000 0.000000 0.000000 0.044923
#
#
# Mechanical properties :
#
#
# Convention : Reuss Voigt Hill
#
# Bulk Modulus (GPa) = 59.42492 60.38363 59.90427
# Shear Modulus (GPa) = 29.50204 30.57894 30.04049
#
# Velocity S-wave (km/s) = 3.69784 3.76473 3.73144
# Velocity P-wave (km/s) = 6.76574 6.84727 6.80663
#
# Compressibility (1/GPa) = 0.01682796
#
# Stress axis : x y z
#
# Youngs Moduli (GPa) = 74.32531 69.56962 89.47810
#
# Poissons Ratio (x) = 0.27198 0.25448
# Poissons Ratio (y) = 0.29058 0.38786
# Poissons Ratio (z) = 0.21138 0.30156
#
# Static dielectric constant tensor:
#      x y z
#    x 3.860930 0.000000 0.000000 
#    y 0.000000 3.834540 0.000000 
#    z 0.000000 0.000000 3.884880 
# 
# 
# High freq. dielectric constant tensor:
#      x y z
#    x 1.845440 0.000000 0.000000 
#    y 0.000000 1.848880 0.000000 
#    z 0.000000 0.000000 1.862800 
# 
# From -- ./inp_files/5210.got.cif
#   From: 2010.03.12/outbox.cif.g09.slc.cpg/sg29_3_cif.got.tgz:5210.got - 2010.04.14 03:43:10.
