data_PCOD8169143
_publ_section_title
;
Structure prediction by ZEFSAII (Michael W. Deem and Ramdas Pophale) SiO2 
 PCOD8169143
Probable space group: P C A 21
;
_chemical_formula_sum "Si O2"
_cell_formula_units_Z 28
_cell_length_a 9.031531
_cell_length_b 17.284615
_cell_length_c 7.463779
_cell_angle_alpha 90.000000
_cell_angle_beta 90.000000
_cell_angle_gamma 90.000000
_cell_volume 1165.144687
_symmetry_space_group_name_H-M "P C A 21"
_symmetry_group_IT_number 29
_symmetry_cell_setting 'orthorhombic'
loop_
_space_group_symop_operation_xyz
x,y,z
-x,-y,1/2+z
1/2-x,y,1/2+z
1/2+x,-y,z
loop_
_atom_site_type_symbol
_atom_site_label
_atom_site_fract_x
_atom_site_fract_y
_atom_site_fract_z
Si Si1 0.088731 0.251481 0.016060
Si Si2 0.127693 0.437623 0.522571
Si Si3 0.965161 0.168425 0.345681
Si Si4 0.425130 0.275606 0.119396
Si Si5 0.775512 0.044554 0.791794
Si Si6 0.549319 0.583310 0.120404
Si Si7 0.560790 0.960585 0.578851
O O1 0.030587 0.185269 0.149083
O O2 0.263768 0.262134 0.034453
O O3 0.001613 0.330962 0.060095
O O4 0.053726 0.230612 0.808107
O O5 0.063019 0.368781 0.650901
O O6 0.304071 0.443127 0.516756
O O7 0.074404 0.412873 0.329635
O O8 0.077829 0.522163 0.580269
O O9 0.953783 0.244251 0.474352
O O10 0.085622 0.115018 0.454952
O O11 0.807407 0.126975 0.314037
O O12 0.884567 0.041394 0.617752
O O13 0.655830 0.973713 0.762251
O O14 0.881668 0.033824 0.963098
#
# Coordination Sequence:
#
# PCOD8169143 Si02
#       7
#     4   4   4   4   4   4   4
#     4  11  22  43  70 110 152 202 255 312 384 460
#     4  11  21  40  69 106 147 200 256 313 376 450
#     4  12  26  45  76 109 150 194 252 323 375 463
#     4  11  22  42  71 110 152 201 256 310 388 455
#     4  12  26  51  77 109 144 194 248 313 385 465
#     4  11  21  40  70 104 150 198 256 313 375 450
#     4  12  26  49  77 106 145 189 251 306 387 463
#
# _framework density 24.03135
#
# number of rings (size 3 to 8) (size 9 to 14) (size 15 to 20)
#    0.000    0.571    5.714    4.286    2.000    1.143 
#    2.571    1.429    0.000    0.000    0.000    0.000 
#    0.000    0.000    0.000    0.000    0.000    0.000 
#
# Total GULP energy -347044.382058 kJ/mol
# GULP energy per Si atom -12394.442216 kJ/mol
# Density = 2.397665 g / cm^3
# Si number density = 24.031350 Si / 1000 Ang^3
#
#
#
# Elastic Constant Matrix: (Units=GPa)
#
#
# Indices 1 2 3 4 5 6 
#
# 1 92.1411 50.3897 31.4160 0.0000 0.0000 0.0000
# 2 50.3897 94.1239 13.8340 0.0000 0.0000 0.0000
# 3 31.4160 13.8340 122.6770 0.0000 0.0000 0.0000
# 4 0.0000 0.0000 0.0000 46.2201 0.0000 0.0000
# 5 0.0000 0.0000 0.0000 0.0000 41.7718 0.0000
# 6 0.0000 0.0000 0.0000 0.0000 0.0000 44.5044
#
#
#
# Elastic Compliance Matrix: (Units=1/GPa)
#
#
# Indices 1 2 3 4 5 6 
#
# 1 0.016560 -0.008381 -0.003296 0.000000 0.000000 0.000000
# 2 -0.008381 0.015045 0.000450 0.000000 0.000000 0.000000
# 3 -0.003296 0.000450 0.008945 0.000000 0.000000 0.000000
# 4 0.000000 0.000000 0.000000 0.021636 0.000000 0.000000
# 5 0.000000 0.000000 0.000000 0.000000 0.023940 0.000000
# 6 0.000000 0.000000 0.000000 0.000000 0.000000 0.022470
#
#
# Mechanical properties :
#
#
# Convention : Reuss Voigt Hill
#
# Bulk Modulus (GPa) = 55.26190 55.58016 55.42103
# Shear Modulus (GPa) = 36.47484 40.71943 38.59714
#
# Velocity S-wave (km/s) = 3.90012 4.12081 4.01199
# Velocity P-wave (km/s) = 6.58232 6.76904 6.67633
#
# Compressibility (1/GPa) = 0.01809565
#
# Stress axis : x y z
#
# Youngs Moduli (GPa) = 60.38640 66.46696 111.79728
#
# Poissons Ratio (x) = 0.55707 0.36845
# Poissons Ratio (y) = 0.50610 -0.05027
# Poissons Ratio (z) = 0.19901 -0.02989
#
# Static dielectric constant tensor:
#      x y z
#    x 3.724310 0.000000 0.000000 
#    y 0.000000 4.226180 0.000000 
#    z 0.000000 0.000000 4.643240 
# 
# 
# High freq. dielectric constant tensor:
#      x y z
#    x 1.921380 0.000000 0.000000 
#    y 0.000000 1.945290 0.000000 
#    z 0.000000 0.000000 1.982480 
# 
# From -- ./inp_files/1221.got.cif
#   From: 2010.03.12/outbox.cif.g09.slc.cpg/sg29_1_cif.got.tgz:1221.got - 2010.04.14 03:43:10.
