data_PCOD8169411
_publ_section_title
;
Structure prediction by ZEFSAII (Michael W. Deem and Ramdas Pophale) SiO2 
 PCOD8169411
Probable space group: P N C 2
;
_chemical_formula_sum "Si O2"
_cell_formula_units_Z 30
_cell_length_a 11.989290
_cell_length_b 7.669879
_cell_length_c 14.926496
_cell_angle_alpha 90.000000
_cell_angle_beta 90.000000
_cell_angle_gamma 90.000000
_cell_volume 1372.586890
_symmetry_space_group_name_H-M "P N C 2"
_symmetry_group_IT_number 30
_symmetry_cell_setting 'orthorhombic'
loop_
_space_group_symop_operation_xyz
x,y,z
-x,-y,z
-x,1/2+y,1/2+z
x,1/2-y,1/2+z
loop_
_atom_site_type_symbol
_atom_site_label
_atom_site_fract_x
_atom_site_fract_y
_atom_site_fract_z
Si Si1 0.604235 0.377065 0.676410
Si Si2 0.580471 0.264056 0.489238
Si Si3 0.347975 0.348903 0.446217
Si Si4 0.024987 0.798351 0.393359
Si Si5 0.199085 0.246962 0.798281
Si Si6 0.733592 0.366108 0.843745
Si Si7 0.000000 0.500000 0.534665
Si Si8 0.783715 0.855571 0.111173
O O1 0.500000 0.500000 0.701030
O O2 0.574835 0.235223 0.597950
O O3 0.652282 0.283705 0.766710
O O4 0.701891 0.494140 0.639517
O O5 0.458071 0.225663 0.445607
O O6 0.612002 0.464004 0.476717
O O7 0.673276 0.147048 0.440542
O O8 0.283132 0.379697 0.352294
O O9 0.258967 0.268999 0.518383
O O10 0.144571 0.776228 0.344548
O O11 0.929438 0.727072 0.326967
O O12 0.029393 0.672764 0.478599
O O13 0.000000 0.000000 0.421439
O O14 0.249671 0.432134 0.825335
O O15 0.207116 0.213394 0.691516
O O16 0.900517 0.548119 0.600291
#
# Coordination Sequence:
#
# PCOD8169411 Si02
#       8
#     4   4   4   4   4   4   2   4
#     4  10  19  37  58  89 119 162 210 252 301 389
#     4  10  20  36  61  89 121 154 213 254 307 374
#     4  10  19  38  58  86 121 161 198 260 305 367
#     4  10  22  41  62  97 128 157 213 268 307 377
#     4  10  22  38  61  86 125 158 207 260 311 375
#     4  10  23  35  60  89 121 157 202 260 313 363
#     4  12  22  40  78  86 122 180 208 252 336 372
#     4  10  21  35  63  90 113 166 214 244 312 388
#
# _framework density 21.856539000000001
#
# number of rings (size 3 to 8) (size 9 to 14) (size 15 to 20)
#    0.000    1.867    4.000    1.600    8.400    0.000 
#    0.000    1.333    7.333    0.000    0.000    0.000 
#    0.000    0.000    0.000    0.000    0.000    0.000 
#
# Total GULP energy -371739.092838 kJ/mol
# GULP energy per Si atom -12391.303095 kJ/mol
# Density = 2.180679 g / cm^3
# Si number density = 21.856539 Si / 1000 Ang^3
#
#
#
# Elastic Constant Matrix: (Units=GPa)
#
#
# Indices 1 2 3 4 5 6 
#
# 1 174.7637 11.7384 69.0346 0.0000 0.0000 0.0000
# 2 11.7384 14.8685 17.6394 0.0000 0.0000 0.0000
# 3 69.0346 17.6394 135.2163 0.0000 0.0000 0.0000
# 4 0.0000 0.0000 0.0000 105.9424 0.0000 0.0000
# 5 0.0000 0.0000 0.0000 0.0000 44.7258 0.0000
# 6 0.0000 0.0000 0.0000 0.0000 0.0000 23.6698
#
#
#
# Elastic Compliance Matrix: (Units=1/GPa)
#
#
# Indices 1 2 3 4 5 6 
#
# 1 0.007198 -0.001565 -0.003471 0.000000 0.000000 0.000000
# 2 -0.001565 0.079912 -0.009626 0.000000 0.000000 0.000000
# 3 -0.003471 -0.009626 0.010423 0.000000 0.000000 0.000000
# 4 0.000000 0.000000 0.000000 0.009439 0.000000 0.000000
# 5 0.000000 0.000000 0.000000 0.000000 0.022358 0.000000
# 6 0.000000 0.000000 0.000000 0.000000 0.000000 0.042248
#
#
# Mechanical properties :
#
#
# Convention : Reuss Voigt Hill
#
# Bulk Modulus (GPa) = 14.66065 57.96368 36.31217
# Shear Modulus (GPa) = 22.35750 49.96332 36.16041
#
# Velocity S-wave (km/s) = 3.20178 4.78637 4.07190
# Velocity P-wave (km/s) = 4.51562 7.55800 6.22552
#
# Compressibility (1/GPa) = 0.06820981
#
# Stress axis : x y z
#
# Youngs Moduli (GPa) = 138.92395 12.51382 95.93897
#
# Poissons Ratio (x) = 0.01959 0.33299
# Poissons Ratio (y) = 0.21744 0.92347
# Poissons Ratio (z) = 0.48218 0.12045
#
# Static dielectric constant tensor:
#      x y z
#    x 4.481970 0.000000 0.000000 
#    y 0.000000 3.461050 0.000000 
#    z 0.000000 0.000000 5.492500 
# 
# 
# High freq. dielectric constant tensor:
#      x y z
#    x 1.887160 0.000000 0.000000 
#    y 0.000000 1.805560 0.000000 
#    z 0.000000 0.000000 1.862260 
# 
# From -- ./inp_files/5469.got.cif
#   From: 2010.03.12/outbox.cif.g09.slc.cpg/sg30_3_cif.got.tgz:5469.got - 2010.04.14 01:38:02.
