data_PCOD8169086
_publ_section_title
;
Structure prediction by ZEFSAII (Michael W. Deem and Ramdas Pophale) SiO2 
 PCOD8169086
Probable space group: P C A 21
;
_chemical_formula_sum "Si O2"
_cell_formula_units_Z 32
_cell_length_a 12.849508
_cell_length_b 6.657365
_cell_length_c 17.387959
_cell_angle_alpha 90.000000
_cell_angle_beta 90.000000
_cell_angle_gamma 90.000000
_cell_volume 1487.433214
_symmetry_space_group_name_H-M "P C A 21"
_symmetry_group_IT_number 29
_symmetry_cell_setting 'orthorhombic'
loop_
_space_group_symop_operation_xyz
x,y,z
-x,-y,1/2+z
1/2-x,y,1/2+z
1/2+x,-y,z
loop_
_atom_site_type_symbol
_atom_site_label
_atom_site_fract_x
_atom_site_fract_y
_atom_site_fract_z
Si Si1 0.005393 0.222864 0.857340
Si Si2 0.682191 0.013252 0.605214
Si Si3 0.093086 0.108553 0.443885
Si Si4 0.855252 0.334916 0.599972
Si Si5 0.986291 0.048216 0.696120
Si Si6 0.274315 0.322833 0.359436
Si Si7 0.679362 0.718992 0.195880
Si Si8 0.078366 0.588914 0.933888
O O1 0.127942 0.169655 0.874553
O O2 0.989452 0.441722 0.896980
O O3 0.990459 0.208809 0.765637
O O4 0.914235 0.092532 0.894845
O O5 0.619453 0.945783 0.530500
O O6 0.598811 0.040910 0.673717
O O7 0.758447 0.833451 0.629046
O O8 0.743525 0.222376 0.591349
O O9 0.179556 0.258570 0.412471
O O10 0.975499 0.194214 0.432325
O O11 0.938763 0.166097 0.623582
O O12 0.853353 0.502477 0.665486
O O13 0.890863 0.449114 0.522750
O O14 0.919065 0.854010 0.720737
O O15 0.248802 0.323136 0.270086
O O16 0.315697 0.548712 0.383970
#
# Coordination Sequence:
#
# PCOD8169086 Si02
#       8
#     4   4   4   4   4   4   4   4
#     4  10  25  43  67 100 135 180 229 286 347 416
#     4  11  25  43  70  97 135 184 228 287 347 412
#     4  12  24  44  71  97 140 187 228 292 348 411
#     4  11  26  43  70 101 134 184 228 292 347 421
#     4  11  23  46  70  99 138 178 239 281 353 419
#     4  10  24  45  66 101 138 174 233 290 343 419
#     4  11  24  45  67  99 138 178 230 284 351 419
#     4  10  25  45  65 106 134 173 237 282 344 425
#
# _framework density 21.513569
#
# number of rings (size 3 to 8) (size 9 to 14) (size 15 to 20)
#    0.750    0.500    3.750    0.750    5.250    4.000 
#    0.000    0.000    0.000    0.000    0.000    0.000 
#    0.000    0.000    0.000    0.000    0.000    0.000 
#
# Total GULP energy -396437.584891 kJ/mol
# GULP energy per Si atom -12388.674528 kJ/mol
# Density = 2.146460 g / cm^3
# Si number density = 21.513569 Si / 1000 Ang^3
#
#
#
# Elastic Constant Matrix: (Units=GPa)
#
#
# Indices 1 2 3 4 5 6 
#
# 1 78.8125 27.6665 20.1163 0.0000 0.0000 0.0000
# 2 27.6665 84.1119 34.8860 0.0000 0.0000 0.0000
# 3 20.1163 34.8860 112.4312 0.0000 0.0000 0.0000
# 4 0.0000 0.0000 0.0000 33.0615 0.0000 0.0000
# 5 0.0000 0.0000 0.0000 0.0000 30.0514 0.0000
# 6 0.0000 0.0000 0.0000 0.0000 0.0000 42.0298
#
#
#
# Elastic Compliance Matrix: (Units=1/GPa)
#
#
# Indices 1 2 3 4 5 6 
#
# 1 0.014503 -0.004240 -0.001279 0.000000 0.000000 0.000000
# 2 -0.004240 0.014884 -0.003860 0.000000 0.000000 0.000000
# 3 -0.001279 -0.003860 0.010321 0.000000 0.000000 0.000000
# 4 0.000000 0.000000 0.000000 0.030247 0.000000 0.000000
# 5 0.000000 0.000000 0.000000 0.000000 0.033276 0.000000
# 6 0.000000 0.000000 0.000000 0.000000 0.000000 0.023793
#
#
# Mechanical properties :
#
#
# Convention : Reuss Voigt Hill
#
# Bulk Modulus (GPa) = 47.73170 48.96590 48.34880
# Shear Modulus (GPa) = 32.72983 33.87432 33.30208
#
# Velocity S-wave (km/s) = 3.90469 3.97237 3.93868
# Velocity P-wave (km/s) = 6.52409 6.62190 6.57318
#
# Compressibility (1/GPa) = 0.02095044
#
# Stress axis : x y z
#
# Youngs Moduli (GPa) = 68.95003 67.18433 96.89083
#
# Poissons Ratio (x) = 0.28485 0.12396
# Poissons Ratio (y) = 0.29234 0.37398
# Poissons Ratio (z) = 0.08821 0.25932
#
# Static dielectric constant tensor:
#      x y z
#    x 3.925400 0.000000 0.000000 
#    y 0.000000 3.670660 0.000000 
#    z 0.000000 0.000000 3.815870 
# 
# 
# High freq. dielectric constant tensor:
#      x y z
#    x 1.851030 0.000000 0.000000 
#    y 0.000000 1.825260 0.000000 
#    z 0.000000 0.000000 1.853600 
# 
# From -- ./inp_files/5235.got.cif
#   From: 2010.03.12/outbox.cif.g09.slc.cpg/sg29_3_cif.got.tgz:5235.got - 2010.04.14 03:43:10.
