data_PCOD8169182
_publ_section_title
;
Structure prediction by ZEFSAII (Michael W. Deem and Ramdas Pophale) SiO2 
 PCOD8169182
Probable space group: P C A 21
;
_chemical_formula_sum "Si O2"
_cell_formula_units_Z 28
_cell_length_a 10.069819
_cell_length_b 6.567411
_cell_length_c 19.361453
_cell_angle_alpha 90.000000
_cell_angle_beta 90.000000
_cell_angle_gamma 90.000000
_cell_volume 1280.424002
_symmetry_space_group_name_H-M "P C A 21"
_symmetry_group_IT_number 29
_symmetry_cell_setting 'orthorhombic'
loop_
_space_group_symop_operation_xyz
x,y,z
-x,-y,1/2+z
1/2-x,y,1/2+z
1/2+x,-y,z
loop_
_atom_site_type_symbol
_atom_site_label
_atom_site_fract_x
_atom_site_fract_y
_atom_site_fract_z
Si Si1 0.760164 0.099361 0.356300
Si Si2 0.088229 0.566986 0.404728
Si Si3 0.123369 0.986869 0.217773
Si Si4 0.519746 0.589642 0.661959
Si Si5 0.313138 0.285662 0.451805
Si Si6 0.028168 0.664367 0.789587
Si Si7 0.706941 0.708596 0.106464
O O1 0.637474 0.199395 0.397150
O O2 0.872080 0.275105 0.351733
O O3 0.731323 0.065584 0.275512
O O4 0.804571 0.896920 0.396322
O O5 0.185452 0.432440 0.451284
O O6 0.942999 0.579708 0.437691
O O7 0.087288 0.461568 0.328779
O O8 0.201331 0.099639 0.156994
O O9 0.017788 0.128102 0.255363
O O10 0.046694 0.798698 0.185118
O O11 0.583929 0.480688 0.729346
O O12 0.405672 0.455822 0.625776
O O13 0.643996 0.617517 0.610594
O O14 0.319867 0.203486 0.529959
#
# Coordination Sequence:
#
# PCOD8169182 Si02
#       7
#     4   4   4   4   4   4   4
#     4  12  24  42  73 104 140 178 241 291 358 419
#     4  12  25  44  71 100 142 183 234 297 355 419
#     4  11  23  41  70 104 138 178 233 298 350 417
#     4  11  24  45  75 101 142 184 240 294 356 418
#     4  12  28  46  69 105 145 194 237 290 357 430
#     4  11  23  40  67 108 129 178 233 296 349 411
#     4  11  27  46  69 102 144 189 236 284 357 432
#
# _framework density 21.867756
#
# number of rings (size 3 to 8) (size 9 to 14) (size 15 to 20)
#    0.000    0.571    4.286    3.429    4.000    3.429 
#    0.000    0.000    0.000    0.000    0.000    0.000 
#    0.000    0.000    0.000    0.000    0.000    0.000 
#
# Total GULP energy -347172.085289 kJ/mol
# GULP energy per Si atom -12399.003046 kJ/mol
# Density = 2.181798 g / cm^3
# Si number density = 21.867756 Si / 1000 Ang^3
#
#
#
# Elastic Constant Matrix: (Units=GPa)
#
#
# Indices 1 2 3 4 5 6 
#
# 1 115.4098 45.4016 39.1333 0.0000 0.0000 0.0000
# 2 45.4016 97.2800 31.8320 0.0000 0.0000 0.0000
# 3 39.1333 31.8320 115.4980 0.0000 0.0000 0.0000
# 4 0.0000 0.0000 0.0000 23.8190 0.0000 0.0000
# 5 0.0000 0.0000 0.0000 0.0000 23.1373 0.0000
# 6 0.0000 0.0000 0.0000 0.0000 0.0000 30.7764
#
#
#
# Elastic Compliance Matrix: (Units=1/GPa)
#
#
# Indices 1 2 3 4 5 6 
#
# 1 0.011285 -0.004414 -0.002607 0.000000 0.000000 0.000000
# 2 -0.004414 0.013025 -0.002094 0.000000 0.000000 0.000000
# 3 -0.002607 -0.002094 0.010119 0.000000 0.000000 0.000000
# 4 0.000000 0.000000 0.000000 0.041983 0.000000 0.000000
# 5 0.000000 0.000000 0.000000 0.000000 0.043220 0.000000
# 6 0.000000 0.000000 0.000000 0.000000 0.000000 0.032492
#
#
# Mechanical properties :
#
#
# Convention : Reuss Voigt Hill
#
# Bulk Modulus (GPa) = 61.73491 62.32463 62.02977
# Shear Modulus (GPa) = 28.44875 29.66793 29.05834
#
# Velocity S-wave (km/s) = 3.61077 3.68733 3.64925
# Velocity P-wave (km/s) = 6.75840 6.83309 6.79585
#
# Compressibility (1/GPa) = 0.01619829
#
# Stress axis : x y z
#
# Youngs Moduli (GPa) = 88.61175 76.77639 98.82662
#
# Poissons Ratio (x) = 0.33887 0.25766
# Poissons Ratio (y) = 0.39111 0.20697
# Poissons Ratio (z) = 0.23103 0.16079
#
# Static dielectric constant tensor:
#      x y z
#    x 3.946530 0.000000 0.000000 
#    y 0.000000 3.996400 0.000000 
#    z 0.000000 0.000000 3.952280 
# 
# 
# High freq. dielectric constant tensor:
#      x y z
#    x 1.867810 0.000000 0.000000 
#    y 0.000000 1.868340 0.000000 
#    z 0.000000 0.000000 1.857050 
# 
# From -- ./inp_files/5121.got.cif
#   From: 2010.03.12/outbox.cif.g09.slc.cpg/sg29_3_cif.got.tgz:5121.got - 2010.04.14 03:43:10.
