data_PCOD8169670
_publ_section_title
;
Structure prediction by ZEFSAII (Michael W. Deem and Ramdas Pophale) SiO2 
 PCOD8169670
Probable space group: P N C 2
;
_chemical_formula_sum "Si O2"
_cell_formula_units_Z 18
_cell_length_a 4.840909
_cell_length_b 26.560995
_cell_length_c 5.452233
_cell_angle_alpha 90.000000
_cell_angle_beta 90.000000
_cell_angle_gamma 90.000000
_cell_volume 701.044628
_symmetry_space_group_name_H-M "P N C 2"
_symmetry_group_IT_number 30
_symmetry_cell_setting 'orthorhombic'
loop_
_space_group_symop_operation_xyz
x,y,z
-x,-y,z
-x,1/2+y,1/2+z
x,1/2-y,1/2+z
loop_
_atom_site_type_symbol
_atom_site_label
_atom_site_fract_x
_atom_site_fract_y
_atom_site_fract_z
Si Si1 0.472391 0.780082 0.640040
Si Si2 0.851220 0.433652 0.457392
Si Si3 0.500000 0.000000 0.647336
Si Si4 0.325605 0.418974 0.768229
Si Si5 0.030722 0.347462 0.104157
O O1 0.413178 0.744499 0.405541
O O2 0.282551 0.828562 0.580863
O O3 0.785199 0.799373 0.676908
O O4 0.758512 0.483506 0.312667
O O5 0.585508 0.407976 0.590644
O O6 0.018527 0.392567 0.298530
O O7 0.085777 0.452586 0.644977
O O8 0.431127 0.049509 0.497174
O O9 0.172516 0.367576 0.852774
#
# Coordination Sequence:
#
# PCOD8169670 Si02
#       5
#     4   4   2   4   4
#     4  12  29  52  84 117 156 205 258 336 401 486
#     4  12  28  48  78 107 158 204 258 323 383 474
#     4  12  28  50  68 124 148 210 266 310 394 456
#     4  12  28  48  78 107 158 204 258 323 383 474
#     4  12  28  51  76 114 152 198 264 313 404 466
#
# _framework density 25.67597
#
# number of rings (size 3 to 8) (size 9 to 14) (size 15 to 20)
#    0.000    0.000    0.000    8.667    9.333   13.333 
#    0.000    0.000    0.000    0.000    0.000    0.000 
#    0.000    0.000    0.000    0.000    0.000    0.000 
#
# Total GULP energy -223158.931748 kJ/mol
# GULP energy per Si atom -12397.718430 kJ/mol
# Density = 2.561753 g / cm^3
# Si number density = 25.675970 Si / 1000 Ang^3
#
#
#
# Elastic Constant Matrix: (Units=GPa)
#
#
# Indices 1 2 3 4 5 6 
#
# 1 135.7846 -6.4602 20.9576 0.0000 0.0000 0.0000
# 2 -6.4602 49.9798 2.9904 0.0000 0.0000 0.0000
# 3 20.9576 2.9904 88.3592 0.0000 0.0000 0.0000
# 4 0.0000 0.0000 0.0000 24.4196 0.0000 0.0000
# 5 0.0000 0.0000 0.0000 0.0000 21.1378 0.0000
# 6 0.0000 0.0000 0.0000 0.0000 0.0000 46.7184
#
#
#
# Elastic Compliance Matrix: (Units=1/GPa)
#
#
# Indices 1 2 3 4 5 6 
#
# 1 0.007705 0.001108 -0.001865 0.000000 0.000000 0.000000
# 2 0.001108 0.020208 -0.000947 0.000000 0.000000 0.000000
# 3 -0.001865 -0.000947 0.011792 0.000000 0.000000 0.000000
# 4 0.000000 0.000000 0.000000 0.040951 0.000000 0.000000
# 5 0.000000 0.000000 0.000000 0.000000 0.047309 0.000000
# 6 0.000000 0.000000 0.000000 0.000000 0.000000 0.021405
#
#
# Mechanical properties :
#
#
# Convention : Reuss Voigt Hill
#
# Bulk Modulus (GPa) = 27.55075 34.34434 30.94754
# Shear Modulus (GPa) = 30.32578 35.56419 32.94498
#
# Velocity S-wave (km/s) = 3.44044 3.72575 3.58593
# Velocity P-wave (km/s) = 5.15127 5.64920 5.40597
#
# Compressibility (1/GPa) = 0.03629665
#
# Stress axis : x y z
#
# Youngs Moduli (GPa) = 129.78317 49.48565 84.80438
#
# Poissons Ratio (x) = -0.05481 0.15816
# Poissons Ratio (y) = -0.14374 0.08028
# Poissons Ratio (z) = 0.24205 0.04684
#
# Static dielectric constant tensor:
#      x y z
#    x 4.997880 0.000000 0.000000 
#    y 0.000000 4.428420 0.000000 
#    z 0.000000 0.000000 4.877710 
# 
# 
# High freq. dielectric constant tensor:
#      x y z
#    x 2.056400 0.000000 0.000000 
#    y 0.000000 2.020270 0.000000 
#    z 0.000000 0.000000 2.034630 
# 
# From -- ./inp_files/149.got.cif
#   From: 2010.03.12/outbox.cif.g09.slc.cpg/sg30_1_cif.got.tgz:149.got - 2010.04.14 01:38:02.
