data_PCOD8169234
_publ_section_title
;
Structure prediction by ZEFSAII (Michael W. Deem and Ramdas Pophale) SiO2 
 PCOD8169234
Probable space group: P C A 21
;
_chemical_formula_sum "Si O2"
_cell_formula_units_Z 28
_cell_length_a 15.465434
_cell_length_b 9.425824
_cell_length_c 8.314118
_cell_angle_alpha 90.000000
_cell_angle_beta 90.000000
_cell_angle_gamma 90.000000
_cell_volume 1211.986053
_symmetry_space_group_name_H-M "P C A 21"
_symmetry_group_IT_number 29
_symmetry_cell_setting 'orthorhombic'
loop_
_space_group_symop_operation_xyz
x,y,z
-x,-y,1/2+z
1/2-x,y,1/2+z
1/2+x,-y,z
loop_
_atom_site_type_symbol
_atom_site_label
_atom_site_fract_x
_atom_site_fract_y
_atom_site_fract_z
Si Si1 0.566933 0.127136 0.421780
Si Si2 0.344211 0.452068 0.221456
Si Si3 0.973607 0.344834 0.649493
Si Si4 0.153579 0.400114 0.096874
Si Si5 0.419702 0.101953 0.662901
Si Si6 0.803784 0.234855 0.152242
Si Si7 0.143404 0.845920 0.981951
O O1 0.528769 0.250262 0.310249
O O2 0.513753 0.116313 0.585983
O O3 0.660936 0.172450 0.484305
O O4 0.570430 0.974419 0.335405
O O5 0.427013 0.393053 0.122773
O O6 0.253982 0.409535 0.142433
O O7 0.352398 0.400398 0.404296
O O8 0.348301 0.621064 0.209850
O O9 0.909120 0.478818 0.668690
O O10 0.946418 0.243536 0.498146
O O11 0.123813 0.254102 0.178209
O O12 0.361577 0.005344 0.545928
O O13 0.820978 0.132388 0.303086
O O14 0.702750 0.246314 0.107539
#
# Coordination Sequence:
#
# PCOD8169234 Si02
#       7
#     4   4   4   4   4   4   4
#     4  11  25  47  76 103 149 196 254 304 386 455
#     4  12  26  45  77 108 155 189 257 315 375 445
#     4  11  24  47  74 107 142 201 244 309 376 449
#     4  12  27  48  72 113 152 193 252 318 380 448
#     4  11  25  49  68 112 150 189 253 313 377 454
#     4  12  23  45  76 106 139 204 245 309 361 470
#     4  11  24  45  75 103 147 192 253 294 379 451
#
# _framework density 23.102575000000002
#
# number of rings (size 3 to 8) (size 9 to 14) (size 15 to 20)
#    0.000    0.571    4.286    3.429    2.000    2.286 
#   12.857    0.000    0.000    0.000    0.000    0.000 
#    0.000    0.000    0.000    0.000    0.000    0.000 
#
# Total GULP energy -347149.768608 kJ/mol
# GULP energy per Si atom -12398.206022 kJ/mol
# Density = 2.304999 g / cm^3
# Si number density = 23.102575 Si / 1000 Ang^3
#
#
#
# Elastic Constant Matrix: (Units=GPa)
#
#
# Indices 1 2 3 4 5 6 
#
# 1 125.7597 42.6041 15.0538 0.0000 0.0000 0.0000
# 2 42.6041 125.8493 8.6007 0.0000 0.0000 0.0000
# 3 15.0538 8.6007 24.1040 0.0000 0.0000 0.0000
# 4 0.0000 0.0000 0.0000 33.6603 0.0000 0.0000
# 5 0.0000 0.0000 0.0000 0.0000 34.3085 0.0000
# 6 0.0000 0.0000 0.0000 0.0000 0.0000 34.4798
#
#
#
# Elastic Compliance Matrix: (Units=1/GPa)
#
#
# Indices 1 2 3 4 5 6 
#
# 1 0.009518 -0.002886 -0.004914 0.000000 0.000000 0.000000
# 2 -0.002886 0.009020 -0.001416 0.000000 0.000000 0.000000
# 3 -0.004914 -0.001416 0.045061 0.000000 0.000000 0.000000
# 4 0.000000 0.000000 0.000000 0.029709 0.000000 0.000000
# 5 0.000000 0.000000 0.000000 0.000000 0.029147 0.000000
# 6 0.000000 0.000000 0.000000 0.000000 0.000000 0.029003
#
#
# Mechanical properties :
#
#
# Convention : Reuss Voigt Hill
#
# Bulk Modulus (GPa) = 22.14054 45.35892 33.74973
# Shear Modulus (GPa) = 27.03501 34.45335 30.74418
#
# Velocity S-wave (km/s) = 3.42455 3.86595 3.65193
# Velocity P-wave (km/s) = 5.02406 6.29315 5.69407
#
# Compressibility (1/GPa) = 0.04516602
#
# Stress axis : x y z
#
# Youngs Moduli (GPa) = 105.06746 110.86662 22.19199
#
# Poissons Ratio (x) = 0.31998 0.10906
# Poissons Ratio (y) = 0.30325 0.03142
# Poissons Ratio (z) = 0.51633 0.15698
#
# Static dielectric constant tensor:
#      x y z
#    x 4.343970 0.000000 0.000000 
#    y 0.000000 4.228440 0.000000 
#    z 0.000000 0.000000 4.010720 
# 
# 
# High freq. dielectric constant tensor:
#      x y z
#    x 1.925690 0.000000 0.000000 
#    y 0.000000 1.914490 0.000000 
#    z 0.000000 0.000000 1.913050 
# 
# From -- ./inp_files/1769.got.cif
#   From: 2010.03.12/outbox.cif.g09.slc.cpg/sg29_1_cif.got.tgz:1769.got - 2010.04.14 03:43:10.
