data_PCOD8169436
_publ_section_title
;
Structure prediction by ZEFSAII (Michael W. Deem and Ramdas Pophale) SiO2 
 PCOD8169436
Probable space group: P N C 2
;
_chemical_formula_sum "Si O2"
_cell_formula_units_Z 32
_cell_length_a 15.173824
_cell_length_b 11.246354
_cell_length_c 8.848599
_cell_angle_alpha 90.000000
_cell_angle_beta 90.000000
_cell_angle_gamma 90.000000
_cell_volume 1510.015156
_symmetry_space_group_name_H-M "P N C 2"
_symmetry_group_IT_number 30
_symmetry_cell_setting 'orthorhombic'
loop_
_space_group_symop_operation_xyz
x,y,z
-x,-y,z
-x,1/2+y,1/2+z
x,1/2-y,1/2+z
loop_
_atom_site_type_symbol
_atom_site_label
_atom_site_fract_x
_atom_site_fract_y
_atom_site_fract_z
Si Si1 0.614508 0.295428 0.333540
Si Si2 0.794026 0.199307 0.435613
Si Si3 0.242592 0.345346 0.933695
Si Si4 0.187678 0.530295 0.486901
Si Si5 0.101404 0.498494 0.780882
Si Si6 0.506732 0.135192 0.117629
Si Si7 0.258385 0.532735 0.179090
Si Si8 0.310635 0.361423 0.611567
O O1 0.693657 0.204849 0.374735
O O2 0.538851 0.222558 0.249070
O O3 0.573498 0.354896 0.480410
O O4 0.651686 0.407368 0.239046
O O5 0.829389 0.330611 0.464375
O O6 0.853598 0.125700 0.317350
O O7 0.798787 0.134346 0.596969
O O8 0.146874 0.392199 0.877601
O O9 0.306780 0.339663 0.790560
O O10 0.284445 0.432168 0.059696
O O11 0.239847 0.217650 0.015686
O O12 0.111784 0.477872 0.598344
O O13 0.197442 0.478727 0.315465
O O14 0.280264 0.497171 0.573329
O O15 0.000000 0.500000 0.826969
O O16 0.409023 0.171239 0.061231
O O17 0.500000 0.000000 0.178884
#
# Coordination Sequence:
#
# PCOD8169436 Si02
#       8
#     4   4   4   4   4   4   4   4
#     4  11  23  40  60  98 132 173 230 282 333 395
#     4  10  20  39  67  93 127 171 215 271 341 395
#     4  10  23  43  68  92 131 182 216 271 342 405
#     4  10  20  38  68  95 126 172 214 267 338 401
#     4  10  23  43  68 100 132 165 221 279 337 416
#     4  12  26  38  62  96 136 178 235 288 324 398
#     4  10  20  36  67  91 123 172 221 266 332 400
#     4  11  23  41  63  91 138 182 225 266 340 393
#
# _framework density 21.191839000000002
#
# number of rings (size 3 to 8) (size 9 to 14) (size 15 to 20)
#    0.000    1.500    1.250    4.500    7.000    1.000 
#    4.500    3.125    0.000    0.000    0.000    0.000 
#    0.000    0.000    0.000    0.000    0.000    0.000 
#
# Total GULP energy -396547.109675 kJ/mol
# GULP energy per Si atom -12392.097177 kJ/mol
# Density = 2.114361 g / cm^3
# Si number density = 21.191839 Si / 1000 Ang^3
#
#
#
# Elastic Constant Matrix: (Units=GPa)
#
#
# Indices 1 2 3 4 5 6 
#
# 1 121.8596 32.3345 23.4852 0.0000 0.0000 0.0000
# 2 32.3345 76.1292 31.3839 0.0000 0.0000 0.0000
# 3 23.4852 31.3839 115.1631 0.0000 0.0000 0.0000
# 4 0.0000 0.0000 0.0000 38.4306 0.0000 0.0000
# 5 0.0000 0.0000 0.0000 0.0000 24.5770 0.0000
# 6 0.0000 0.0000 0.0000 0.0000 0.0000 22.5309
#
#
#
# Elastic Compliance Matrix: (Units=1/GPa)
#
#
# Indices 1 2 3 4 5 6 
#
# 1 0.009336 -0.003583 -0.000927 0.000000 0.000000 0.000000
# 2 -0.003583 0.016173 -0.003677 0.000000 0.000000 0.000000
# 3 -0.000927 -0.003677 0.009874 0.000000 0.000000 0.000000
# 4 0.000000 0.000000 0.000000 0.026021 0.000000 0.000000
# 5 0.000000 0.000000 0.000000 0.000000 0.040688 0.000000
# 6 0.000000 0.000000 0.000000 0.000000 0.000000 0.044384
#
#
# Mechanical properties :
#
#
# Convention : Reuss Voigt Hill
#
# Bulk Modulus (GPa) = 52.60655 54.17324 53.38990
# Shear Modulus (GPa) = 29.55323 32.17093 30.86208
#
# Velocity S-wave (km/s) = 3.73843 3.90048 3.82031
# Velocity P-wave (km/s) = 6.59639 6.77523 6.68641
#
# Compressibility (1/GPa) = 0.01900904
#
# Stress axis : x y z
#
# Youngs Moduli (GPa) = 107.11724 61.83136 101.27142
#
# Poissons Ratio (x) = 0.22153 0.09392
# Poissons Ratio (y) = 0.38378 0.37235
# Poissons Ratio (z) = 0.09934 0.22734
#
# Static dielectric constant tensor:
#      x y z
#    x 3.502040 0.000000 0.000000 
#    y 0.000000 3.905200 0.000000 
#    z 0.000000 0.000000 4.161070 
# 
# 
# High freq. dielectric constant tensor:
#      x y z
#    x 1.788810 0.000000 0.000000 
#    y 0.000000 1.833700 0.000000 
#    z 0.000000 0.000000 1.851810 
# 
# From -- ./inp_files/2687.got.cif
#   From: 2010.03.12/outbox.cif.g09.slc.cpg/sg30_2_cif.got.tgz:2687.got - 2010.04.14 01:38:02.
