data_PCOD8169781
_publ_section_title
;
Structure prediction by ZEFSAII (Michael W. Deem and Ramdas Pophale) SiO2 
 PCOD8169781
Probable space group: P M N 21
;
_chemical_formula_sum "Si O2"
_cell_formula_units_Z 32
_cell_length_a 13.399371
_cell_length_b 7.627610
_cell_length_c 18.319444
_cell_angle_alpha 90.000000
_cell_angle_beta 90.000000
_cell_angle_gamma 90.000000
_cell_volume 1872.342003
_symmetry_space_group_name_H-M "P M N 21"
_symmetry_group_IT_number 31
_symmetry_cell_setting 'orthorhombic'
loop_
_space_group_symop_operation_xyz
x,y,z
1/2-x,-y,1/2+z
-x,y,z
1/2+x,-y,1/2+z
loop_
_atom_site_type_symbol
_atom_site_label
_atom_site_fract_x
_atom_site_fract_y
_atom_site_fract_z
Si Si1 0.612218 0.592826 0.864950
Si Si2 0.114696 0.602401 0.111572
Si Si3 0.701735 0.560239 0.017221
Si Si4 0.201357 0.914469 0.197592
Si Si5 0.882780 0.276973 0.210733
Si Si6 0.616722 0.184336 0.005251
Si Si7 0.113807 0.138312 0.608235
Si Si8 0.888411 0.811976 0.342604
O O1 0.500000 0.644625 0.890551
O O2 0.647314 0.709284 0.796408
O O3 0.611467 0.396070 0.835735
O O4 0.687040 0.616371 0.932866
O O5 0.183056 0.592497 0.039116
O O6 0.128637 0.787090 0.152259
O O7 0.149180 0.450146 0.166949
O O8 0.000000 0.582476 0.087152
O O9 0.674916 0.357442 0.030752
O O10 0.630026 0.678231 0.067420
O O11 0.316556 0.873458 0.179387
O O12 0.187281 0.891536 0.284050
O O13 0.174904 0.113272 0.175657
O O14 0.000000 0.246696 0.203506
O O15 0.500000 0.231679 0.006280
O O16 0.644488 0.021827 0.055798
O O17 0.647695 0.130006 0.923023
O O18 0.000000 0.123839 0.634315
O O19 0.000000 0.884538 0.326486
#
# Coordination Sequence:
#
# PCOD8169781 Si02
#       8
#     4   4   4   4   4   4   4   4
#     4   9  17  30  50  76 101 122 155 205 248 285
#     4  10  20  34  49  72 103 130 161 199 239 286
#     4  10  19  32  52  74  98 130 159 196 245 291
#     4  11  20  31  50  74  99 131 160 195 244 294
#     4  10  19  30  50  77 101 124 157 201 247 289
#     4   9  18  32  51  75 101 123 155 204 249 287
#     4  10  21  34  49  72  99 129 166 199 239 290
#     4   9  16  29  49  74 100 125 153 199 253 288
#
# _framework density 17.090896000000001
#
# number of rings (size 3 to 8) (size 9 to 14) (size 15 to 20)
#    0.000    2.250    1.250    3.750    1.750    0.000 
#    0.000    0.000    0.000    3.750    0.000    0.000 
#    0.000    0.000    0.000    0.000    0.000    0.000 
#
# Total GULP energy -396801.000964 kJ/mol
# GULP energy per Si atom -12400.031280 kJ/mol
# Density = 1.705200 g / cm^3
# Si number density = 17.090896 Si / 1000 Ang^3
#
#
#
# Elastic Constant Matrix: (Units=GPa)
#
#
# Indices 1 2 3 4 5 6 
#
# 1 82.5055 39.6542 51.3476 0.0000 0.0000 0.0000
# 2 39.6542 77.7142 42.6905 0.0000 0.0000 0.0000
# 3 51.3476 42.6905 84.9495 0.0000 0.0000 0.0000
# 4 0.0000 0.0000 0.0000 24.6099 0.0000 0.0000
# 5 0.0000 0.0000 0.0000 0.0000 28.2669 0.0000
# 6 0.0000 0.0000 0.0000 0.0000 0.0000 18.3018
#
#
#
# Elastic Compliance Matrix: (Units=1/GPa)
#
#
# Indices 1 2 3 4 5 6 
#
# 1 0.020808 -0.005122 -0.010003 0.000000 0.000000 0.000000
# 2 -0.005122 0.019035 -0.006470 0.000000 0.000000 0.000000
# 3 -0.010003 -0.006470 0.021069 0.000000 0.000000 0.000000
# 4 0.000000 0.000000 0.000000 0.040634 0.000000 0.000000
# 5 0.000000 0.000000 0.000000 0.000000 0.035377 0.000000
# 6 0.000000 0.000000 0.000000 0.000000 0.000000 0.054639
#
#
# Mechanical properties :
#
#
# Convention : Reuss Voigt Hill
#
# Bulk Modulus (GPa) = 56.42680 56.95043 56.68861
# Shear Modulus (GPa) = 20.77612 21.66753 21.22182
#
# Velocity S-wave (km/s) = 3.49036 3.56446 3.52760
# Velocity P-wave (km/s) = 7.02360 7.09471 7.05924
#
# Compressibility (1/GPa) = 0.01772207
#
# Stress axis : x y z
#
# Youngs Moduli (GPa) = 48.05898 52.53353 47.46220
#
# Poissons Ratio (x) = 0.26910 0.47477
# Poissons Ratio (y) = 0.24618 0.30707
# Poissons Ratio (z) = 0.48074 0.33989
#
# Static dielectric constant tensor:
#      x y z
#    x 2.971050 0.000000 0.000000 
#    y 0.000000 3.293410 0.000000 
#    z 0.000000 0.000000 3.142470 
# 
# 
# High freq. dielectric constant tensor:
#      x y z
#    x 1.629120 0.000000 0.000000 
#    y 0.000000 1.675930 0.000000 
#    z 0.000000 0.000000 1.649090 
# 
# From -- ./inp_files/6048.got.cif
#   From: 2010.03.12/outbox.cif.g09.slc.cpg/sg31_4_cif.got.tgz:6048.got - 2010.04.14 01:42:59.
