data_PCOD8169142
_publ_section_title
;
Structure prediction by ZEFSAII (Michael W. Deem and Ramdas Pophale) SiO2 
 PCOD8169142
Probable space group: P C A 21
;
_chemical_formula_sum "Si O2"
_cell_formula_units_Z 32
_cell_length_a 14.058429
_cell_length_b 10.154315
_cell_length_c 9.732848
_cell_angle_alpha 90.000000
_cell_angle_beta 90.000000
_cell_angle_gamma 90.000000
_cell_volume 1389.400224
_symmetry_space_group_name_H-M "P C A 21"
_symmetry_group_IT_number 29
_symmetry_cell_setting 'orthorhombic'
loop_
_space_group_symop_operation_xyz
x,y,z
-x,-y,1/2+z
1/2-x,y,1/2+z
1/2+x,-y,z
loop_
_atom_site_type_symbol
_atom_site_label
_atom_site_fract_x
_atom_site_fract_y
_atom_site_fract_z
Si Si1 0.570268 0.849791 0.486730
Si Si2 0.177728 0.587976 0.162490
Si Si3 0.454749 0.757976 0.234466
Si Si4 0.843049 0.489165 0.344442
Si Si5 0.487764 0.311843 0.244312
Si Si6 0.475837 0.127009 0.472992
Si Si7 0.266977 0.039042 0.486681
Si Si8 0.743248 0.128530 0.736101
O O1 0.533009 0.799956 0.342638
O O2 0.541570 0.740842 0.596640
O O3 0.684306 0.852471 0.480757
O O4 0.526169 0.992598 0.520039
O O5 0.245486 0.497188 0.256521
O O6 0.207427 0.739145 0.184337
O O7 0.070267 0.579162 0.220077
O O8 0.182162 0.546907 0.002056
O O9 0.409217 0.618505 0.271190
O O10 0.370589 0.864523 0.226026
O O11 0.509333 0.760630 0.089135
O O12 0.900103 0.625007 0.329410
O O13 0.523203 0.187133 0.334931
O O14 0.364757 0.105007 0.439219
O O15 0.234747 0.913593 0.392869
O O16 0.280813 0.989204 0.641420
#
# Coordination Sequence:
#
# PCOD8169142 Si02
#       8
#     4   4   4   4   4   4   4   4
#     4  12  23  46  70 104 147 196 236 310 371 447
#     4  11  25  48  77 105 139 196 252 313 351 444
#     4  11  23  43  70  99 147 190 251 300 361 433
#     4  11  28  49  76 107 138 197 258 302 372 428
#     4  12  28  48  74 108 152 189 248 307 370 446
#     4  12  25  42  71 110 150 194 240 305 382 446
#     4  12  23  40  67 104 150 187 244 298 390 438
#     4  11  21  40  69 103 139 193 247 301 351 450
#
# _framework density 23.031521999999999
#
# number of rings (size 3 to 8) (size 9 to 14) (size 15 to 20)
#    0.000    0.500    3.750    5.250    5.250    1.000 
#    2.250    0.000    0.000    0.000    0.000    0.000 
#    0.000    0.000    0.000    0.000    0.000    0.000 
#
# Total GULP energy -396846.934040 kJ/mol
# GULP energy per Si atom -12401.466689 kJ/mol
# Density = 2.297910 g / cm^3
# Si number density = 23.031522 Si / 1000 Ang^3
#
#
#
# Elastic Constant Matrix: (Units=GPa)
#
#
# Indices 1 2 3 4 5 6 
#
# 1 108.4026 19.8194 33.9471 0.0000 0.0000 0.0000
# 2 19.8194 41.7381 10.7401 0.0000 0.0000 0.0000
# 3 33.9471 10.7401 108.8065 0.0000 0.0000 0.0000
# 4 0.0000 0.0000 0.0000 21.6885 0.0000 0.0000
# 5 0.0000 0.0000 0.0000 0.0000 36.0951 0.0000
# 6 0.0000 0.0000 0.0000 0.0000 0.0000 38.2408
#
#
#
# Elastic Compliance Matrix: (Units=1/GPa)
#
#
# Indices 1 2 3 4 5 6 
#
# 1 0.010972 -0.004442 -0.002985 0.000000 0.000000 0.000000
# 2 -0.004442 0.026382 -0.001218 0.000000 0.000000 0.000000
# 3 -0.002985 -0.001218 0.010242 0.000000 0.000000 0.000000
# 4 0.000000 0.000000 0.000000 0.046107 0.000000 0.000000
# 5 0.000000 0.000000 0.000000 0.000000 0.027705 0.000000
# 6 0.000000 0.000000 0.000000 0.000000 0.000000 0.026150
#
#
# Mechanical properties :
#
#
# Convention : Reuss Voigt Hill
#
# Bulk Modulus (GPa) = 32.99700 43.10672 38.05186
# Shear Modulus (GPa) = 28.57978 32.16760 30.37369
#
# Velocity S-wave (km/s) = 3.52646 3.74127 3.63545
# Velocity P-wave (km/s) = 5.56230 6.11717 5.84633
#
# Compressibility (1/GPa) = 0.03030579
#
# Stress axis : x y z
#
# Youngs Moduli (GPa) = 91.14397 37.90518 97.63653
#
# Poissons Ratio (x) = 0.16837 0.29141
# Poissons Ratio (y) = 0.40485 0.11894
# Poissons Ratio (z) = 0.27203 0.04618
#
# Static dielectric constant tensor:
#      x y z
#    x 4.396560 0.000000 0.000000 
#    y 0.000000 3.939420 0.000000 
#    z 0.000000 0.000000 4.143520 
# 
# 
# High freq. dielectric constant tensor:
#      x y z
#    x 1.921820 0.000000 0.000000 
#    y 0.000000 1.889310 0.000000 
#    z 0.000000 0.000000 1.923140 
# 
# From -- ./inp_files/1893.got.cif
#   From: 2010.03.12/outbox.cif.g09.slc.cpg/sg29_1_cif.got.tgz:1893.got - 2010.04.14 03:43:10.
