data_PCOD8169058
_publ_section_title
;
Structure prediction by ZEFSAII (Michael W. Deem and Ramdas Pophale) SiO2 
 PCOD8169058
Probable space group: P C A 21
;
_chemical_formula_sum "Si O2"
_cell_formula_units_Z 28
_cell_length_a 8.530081
_cell_length_b 12.249463
_cell_length_c 12.512322
_cell_angle_alpha 90.000000
_cell_angle_beta 90.000000
_cell_angle_gamma 90.000000
_cell_volume 1307.398907
_symmetry_space_group_name_H-M "P C A 21"
_symmetry_group_IT_number 29
_symmetry_cell_setting 'orthorhombic'
loop_
_space_group_symop_operation_xyz
x,y,z
-x,-y,1/2+z
1/2-x,y,1/2+z
1/2+x,-y,z
loop_
_atom_site_type_symbol
_atom_site_label
_atom_site_fract_x
_atom_site_fract_y
_atom_site_fract_z
Si Si1 0.037438 0.084435 0.835150
Si Si2 0.536291 0.620522 0.335864
Si Si3 0.789047 0.500002 0.467305
Si Si4 0.536293 0.379478 0.598746
Si Si5 0.393801 0.137495 0.887292
Si Si6 0.962563 0.084433 0.599458
Si Si7 0.893798 0.137496 0.047316
O O1 0.215933 0.105715 0.865138
O O2 0.999997 0.130819 0.717304
O O3 0.008403 0.954304 0.838431
O O4 0.922672 0.144874 0.919296
O O5 0.689186 0.557116 0.375317
O O6 0.392314 0.594860 0.414175
O O7 0.499998 0.578247 0.217305
O O8 0.565126 0.749166 0.332369
O O9 0.689181 0.442890 0.559290
O O10 0.892310 0.594865 0.520438
O O11 0.565139 0.250835 0.602242
O O12 0.422667 0.144870 0.015313
O O13 0.784070 0.105711 0.569463
O O14 0.991599 0.954302 0.596180
#
# Coordination Sequence:
#
# PCOD8169058 Si02
#       7
#     4   4   4   4   4   4   4
#     4  11  23  40  61  91 131 165 199 249 298 359
#     4  11  23  43  66  90 123 162 202 257 311 357
#     4  10  24  42  64  94 120 154 212 258 304 370
#     4  11  23  43  66  90 123 162 202 257 311 357
#     4  11  23  39  62  93 124 164 208 243 298 373
#     4  11  23  40  61  91 131 165 199 249 298 359
#     4  11  23  39  62  93 124 164 208 243 298 373
#
# _framework density 21.41657
#
# number of rings (size 3 to 8) (size 9 to 14) (size 15 to 20)
#    0.000    1.143    0.000    7.714    0.000    4.571 
#    0.000    7.143    0.000    0.000    0.000    0.000 
#    0.000    0.000    0.000    0.000    0.000    0.000 
#
# Total GULP energy -347342.795419 kJ/mol
# GULP energy per Si atom -12405.099836 kJ/mol
# Density = 2.136782 g / cm^3
# Si number density = 21.416570 Si / 1000 Ang^3
#
#
#
# Elastic Constant Matrix: (Units=GPa)
#
#
# Indices 1 2 3 4 5 6 
#
# 1 179.8130 61.9682 77.5842 0.0000 0.0000 0.0000
# 2 61.9682 91.1608 12.1142 0.0000 0.0000 0.0000
# 3 77.5842 12.1142 157.7634 0.0000 0.0000 0.0000
# 4 0.0000 0.0000 0.0000 23.6594 0.0000 0.0000
# 5 0.0000 0.0000 0.0000 0.0000 4.9327 0.0000
# 6 0.0000 0.0000 0.0000 0.0000 0.0000 15.6174
#
#
#
# Elastic Compliance Matrix: (Units=1/GPa)
#
#
# Indices 1 2 3 4 5 6 
#
# 1 0.009355 -0.005807 -0.004155 0.000000 0.000000 0.000000
# 2 -0.005807 0.014688 0.001728 0.000000 0.000000 0.000000
# 3 -0.004155 0.001728 0.008249 0.000000 0.000000 0.000000
# 4 0.000000 0.000000 0.000000 0.042266 0.000000 0.000000
# 5 0.000000 0.000000 0.000000 0.000000 0.202727 0.000000
# 6 0.000000 0.000000 0.000000 0.000000 0.000000 0.064031
#
#
# Mechanical properties :
#
#
# Convention : Reuss Voigt Hill
#
# Bulk Modulus (GPa) = 63.19510 81.34114 72.26812
# Shear Modulus (GPa) = 13.77183 27.31327 20.54255
#
# Velocity S-wave (km/s) = 2.53858 3.57506 3.10044
# Velocity P-wave (km/s) = 6.17772 7.42323 6.82893
#
# Compressibility (1/GPa) = 0.01582401
#
# Stress axis : x y z
#
# Youngs Moduli (GPa) = 106.89018 68.08436 121.22459
#
# Poissons Ratio (x) = 0.39539 0.50367
# Poissons Ratio (y) = 0.62075 -0.20949
# Poissons Ratio (z) = 0.44411 -0.11766
#
# Static dielectric constant tensor:
#      x y z
#    x 3.944170 0.000000 0.000000 
#    y 0.000000 3.739470 0.000000 
#    z 0.000000 0.000000 4.291290 
# 
# 
# High freq. dielectric constant tensor:
#      x y z
#    x 1.853530 0.000000 0.000000 
#    y 0.000000 1.828720 0.000000 
#    z 0.000000 0.000000 1.854290 
# 
# From -- ./inp_files/2895.got.cif
#   From: 2010.03.12/outbox.cif.g09.slc.cpg/sg29_2_cif.got.tgz:2895.got - 2010.04.14 03:43:10.
