data_PCOD8169205
_publ_section_title
;
Structure prediction by ZEFSAII (Michael W. Deem and Ramdas Pophale) SiO2 
 PCOD8169205
Probable space group: P C A 21
;
_chemical_formula_sum "Si O2"
_cell_formula_units_Z 24
_cell_length_a 13.186957
_cell_length_b 9.288099
_cell_length_c 8.453923
_cell_angle_alpha 90.000000
_cell_angle_beta 90.000000
_cell_angle_gamma 90.000000
_cell_volume 1035.451386
_symmetry_space_group_name_H-M "P C A 21"
_symmetry_group_IT_number 29
_symmetry_cell_setting 'orthorhombic'
loop_
_space_group_symop_operation_xyz
x,y,z
-x,-y,1/2+z
1/2-x,y,1/2+z
1/2+x,-y,z
loop_
_atom_site_type_symbol
_atom_site_label
_atom_site_fract_x
_atom_site_fract_y
_atom_site_fract_z
Si Si1 0.302164 0.785480 0.535020
Si Si2 0.010240 0.161783 0.420002
Si Si3 0.394523 0.398068 0.729946
Si Si4 0.710844 0.542931 0.934049
Si Si5 0.037815 0.341677 0.729711
Si Si6 0.608495 0.143730 0.371194
O O1 0.389167 0.865611 0.431238
O O2 0.307761 0.618880 0.489338
O O3 0.326579 0.814329 0.716921
O O4 0.188368 0.843261 0.513344
O O5 0.032883 0.266066 0.272791
O O6 0.051237 0.230563 0.584363
O O7 0.067185 0.016635 0.376337
O O8 0.321059 0.357220 0.583020
O O9 0.327625 0.435447 0.885993
O O10 0.462924 0.531757 0.674871
O O11 0.643218 0.587913 0.782658
O O12 0.986143 0.255051 0.877608
#
# Coordination Sequence:
#
# PCOD8169205 Si02
#       6
#     4   4   4   4   4   4
#     4  11  23  46  69  98 135 188 234 285 359 417
#     4  11  26  45  67 106 147 182 238 291 360 432
#     4  12  23  42  69 106 136 181 236 295 349 421
#     4  12  23  41  74 102 136 181 241 292 350 416
#     4  11  23  46  70 103 138 187 237 291 351 419
#     4  11  26  44  71  99 144 185 234 288 359 433
#
# _framework density 23.178297000000001
#
# number of rings (size 3 to 8) (size 9 to 14) (size 15 to 20)
#    0.000    0.667    6.667    1.000    0.000   10.667 
#    0.000    0.000    0.000    0.000    0.000    0.000 
#    0.000    0.000    0.000    0.000    0.000    0.000 
#
# Total GULP energy -297538.118050 kJ/mol
# GULP energy per Si atom -12397.421585 kJ/mol
# Density = 2.312554 g / cm^3
# Si number density = 23.178297 Si / 1000 Ang^3
#
#
#
# Elastic Constant Matrix: (Units=GPa)
#
#
# Indices 1 2 3 4 5 6 
#
# 1 59.5989 13.9601 -11.7375 0.0000 0.0000 0.0000
# 2 13.9601 80.5929 -17.0605 0.0000 0.0000 0.0000
# 3 -11.7375 -17.0605 23.9105 0.0000 0.0000 0.0000
# 4 0.0000 0.0000 0.0000 29.6324 0.0000 0.0000
# 5 0.0000 0.0000 0.0000 0.0000 33.6232 0.0000
# 6 0.0000 0.0000 0.0000 0.0000 0.0000 18.6224
#
#
#
# Elastic Compliance Matrix: (Units=1/GPa)
#
#
# Indices 1 2 3 4 5 6 
#
# 1 0.018733 -0.001529 0.008105 0.000000 0.000000 0.000000
# 2 -0.001529 0.014740 0.009767 0.000000 0.000000 0.000000
# 3 0.008105 0.009767 0.052770 0.000000 0.000000 0.000000
# 4 0.000000 0.000000 0.000000 0.033747 0.000000 0.000000
# 5 0.000000 0.000000 0.000000 0.000000 0.029741 0.000000
# 6 0.000000 0.000000 0.000000 0.000000 0.000000 0.053699
#
#
# Mechanical properties :
#
#
# Convention : Reuss Voigt Hill
#
# Bulk Modulus (GPa) = 8.40840 14.93628 11.67234
# Shear Modulus (GPa) = 23.76553 28.30493 26.03523
#
# Velocity S-wave (km/s) = 3.20556 3.49833 3.35514
# Velocity P-wave (km/s) = 4.16370 4.77241 4.47841
#
# Compressibility (1/GPa) = 0.11892875
#
# Stress axis : x y z
#
# Youngs Moduli (GPa) = 53.38109 67.84054 18.95013
#
# Poissons Ratio (x) = 0.10374 -0.15359
# Poissons Ratio (y) = 0.08163 -0.18508
# Poissons Ratio (z) = -0.43265 -0.66259
#
# Static dielectric constant tensor:
#      x y z
#    x 4.488610 0.000000 0.000000 
#    y 0.000000 3.989700 0.000000 
#    z 0.000000 0.000000 4.180240 
# 
# 
# High freq. dielectric constant tensor:
#      x y z
#    x 1.929970 0.000000 0.000000 
#    y 0.000000 1.898440 0.000000 
#    z 0.000000 0.000000 1.917740 
# 
# From -- ./inp_files/1705.got.cif
#   From: 2010.03.12/outbox.cif.g09.slc.cpg/sg29_1_cif.got.tgz:1705.got - 2010.04.14 03:43:10.
