data_PCOD8169467
_publ_section_title
;
Structure prediction by ZEFSAII (Michael W. Deem and Ramdas Pophale) SiO2 
 PCOD8169467
Probable space group: P N C 2
;
_chemical_formula_sum "Si O2"
_cell_formula_units_Z 18
_cell_length_a 8.187965
_cell_length_b 10.930186
_cell_length_c 8.546175
_cell_angle_alpha 90.000000
_cell_angle_beta 90.000000
_cell_angle_gamma 90.000000
_cell_volume 764.848310
_symmetry_space_group_name_H-M "P N C 2"
_symmetry_group_IT_number 30
_symmetry_cell_setting 'orthorhombic'
loop_
_space_group_symop_operation_xyz
x,y,z
-x,-y,z
-x,1/2+y,1/2+z
x,1/2-y,1/2+z
loop_
_atom_site_type_symbol
_atom_site_label
_atom_site_fract_x
_atom_site_fract_y
_atom_site_fract_z
Si Si1 0.000000 0.000000 0.900651
Si Si2 0.177936 0.832980 0.655110
Si Si3 0.248882 0.203295 0.961007
Si Si4 0.538062 0.639091 0.190323
Si Si5 0.014510 0.633536 0.829363
O O1 0.871653 0.067814 0.785940
O O2 0.110594 0.097830 0.000749
O O3 0.366153 0.794861 0.671325
O O4 0.088956 0.706215 0.684903
O O5 0.131261 0.875584 0.481746
O O6 0.397726 0.138979 0.868406
O O7 0.161443 0.309282 0.862309
O O8 0.323462 0.280926 0.103543
O O9 0.500000 0.500000 0.130927
O O10 0.000000 0.500000 0.758590
#
# Coordination Sequence:
#
# PCOD8169467 Si02
#       5
#     2   4   4   4   4
#     4  10  20  42  72  98 138 190 232 286 344 444
#     4  11  22  43  70  98 139 184 233 287 362 413
#     4  11  24  44  71 105 138 191 239 284 368 417
#     4  12  24  45  71 104 147 184 232 306 360 423
#     4  11  23  44  69  99 136 188 234 287 345 440
#
# _framework density 23.534077
#
# number of rings (size 3 to 8) (size 9 to 14) (size 15 to 20)
#    0.000    0.889    3.333    5.333    0.000    0.000 
#   18.000    1.111    0.000    0.000    0.000    0.000 
#    0.000    0.000    0.000    0.000    0.000    0.000 
#
# Total GULP energy -223045.880037 kJ/mol
# GULP energy per Si atom -12391.437780 kJ/mol
# Density = 2.348051 g / cm^3
# Si number density = 23.534077 Si / 1000 Ang^3
#
#
#
# Elastic Constant Matrix: (Units=GPa)
#
#
# Indices 1 2 3 4 5 6 
#
# 1 96.7628 14.3443 13.1390 0.0000 0.0000 0.0000
# 2 14.3443 154.5534 24.4421 0.0000 0.0000 0.0000
# 3 13.1390 24.4421 41.0677 0.0000 0.0000 0.0000
# 4 0.0000 0.0000 0.0000 17.7770 0.0000 0.0000
# 5 0.0000 0.0000 0.0000 0.0000 40.3854 0.0000
# 6 0.0000 0.0000 0.0000 0.0000 0.0000 31.3824
#
#
#
# Elastic Compliance Matrix: (Units=1/GPa)
#
#
# Indices 1 2 3 4 5 6 
#
# 1 0.010840 -0.000505 -0.003167 0.000000 0.000000 0.000000
# 2 -0.000505 0.007166 -0.004103 0.000000 0.000000 0.000000
# 3 -0.003167 -0.004103 0.027806 0.000000 0.000000 0.000000
# 4 0.000000 0.000000 0.000000 0.056252 0.000000 0.000000
# 5 0.000000 0.000000 0.000000 0.000000 0.024761 0.000000
# 6 0.000000 0.000000 0.000000 0.000000 0.000000 0.031865
#
#
# Mechanical properties :
#
#
# Convention : Reuss Voigt Hill
#
# Bulk Modulus (GPa) = 33.04747 44.02607 38.53677
# Shear Modulus (GPa) = 27.12554 33.93954 30.53254
#
# Velocity S-wave (km/s) = 3.39869 3.80168 3.60582
# Velocity P-wave (km/s) = 5.42903 6.16590 5.80916
#
# Compressibility (1/GPa) = 0.03025950
#
# Stress axis : x y z
#
# Youngs Moduli (GPa) = 92.25515 139.54635 35.96401
#
# Poissons Ratio (x) = 0.07049 0.11391
# Poissons Ratio (y) = 0.04660 0.14757
# Poissons Ratio (z) = 0.29220 0.57262
#
# Static dielectric constant tensor:
#      x y z
#    x 3.996410 0.000000 0.000000 
#    y 0.000000 4.415560 0.000000 
#    z 0.000000 0.000000 3.981090 
# 
# 
# High freq. dielectric constant tensor:
#      x y z
#    x 1.940510 0.000000 0.000000 
#    y 0.000000 1.942440 0.000000 
#    z 0.000000 0.000000 1.923380 
# 
# From -- ./inp_files/1662.got.cif
#   From: 2010.03.12/outbox.cif.g09.slc.cpg/sg30_1_cif.got.tgz:1662.got - 2010.04.14 01:38:02.
