data_PCOD8169094
_publ_section_title
;
Structure prediction by ZEFSAII (Michael W. Deem and Ramdas Pophale) SiO2 
 PCOD8169094
Probable space group: P C A 21
;
_chemical_formula_sum "Si O2"
_cell_formula_units_Z 28
_cell_length_a 12.432238
_cell_length_b 6.380794
_cell_length_c 15.740944
_cell_angle_alpha 90.000000
_cell_angle_beta 90.000000
_cell_angle_gamma 90.000000
_cell_volume 1248.690516
_symmetry_space_group_name_H-M "P C A 21"
_symmetry_group_IT_number 29
_symmetry_cell_setting 'orthorhombic'
loop_
_space_group_symop_operation_xyz
x,y,z
-x,-y,1/2+z
1/2-x,y,1/2+z
1/2+x,-y,z
loop_
_atom_site_type_symbol
_atom_site_label
_atom_site_fract_x
_atom_site_fract_y
_atom_site_fract_z
Si Si1 0.599070 0.386144 0.528560
Si Si2 0.196867 0.264317 0.225335
Si Si3 0.288540 0.914224 0.589002
Si Si4 0.054383 0.309594 0.386873
Si Si5 0.588289 0.636361 0.805572
Si Si6 0.067406 0.074671 0.955516
Si Si7 0.047428 0.599453 0.152471
O O1 0.694281 0.244784 0.565060
O O2 0.626453 0.529431 0.445197
O O3 0.497649 0.244214 0.508100
O O4 0.561534 0.537634 0.603968
O O5 0.124560 0.216494 0.309013
O O6 0.300768 0.395947 0.255010
O O7 0.129932 0.406442 0.160466
O O8 0.235210 0.057382 0.172433
O O9 0.397710 0.788828 0.604559
O O10 0.319271 0.042428 0.504387
O O11 0.945027 0.425863 0.355664
O O12 0.010825 0.123818 0.445354
O O13 0.602444 0.839435 0.864092
O O14 0.487908 0.684341 0.744100
#
# Coordination Sequence:
#
# PCOD8169094 Si02
#       7
#     4   4   4   4   4   4   4
#     4  11  25  42  70 107 137 182 231 288 351 413
#     4  11  25  43  70 102 136 182 237 282 349 416
#     4  12  26  41  75 101 137 182 231 283 351 409
#     4  10  24  46  68  96 145 180 226 291 347 419
#     4  10  25  43  68  98 136 182 228 283 348 411
#     4  11  24  44  68 100 141 174 230 284 345 413
#     4  11  23  47  65 100 142 180 227 285 341 411
#
# _framework density 22.423489
#
# number of rings (size 3 to 8) (size 9 to 14) (size 15 to 20)
#    0.000    1.143    2.857    1.714    6.000    4.571 
#    0.000    0.000    0.000    0.000    0.000    0.000 
#    0.000    0.000    0.000    0.000    0.000    0.000 
#
# Total GULP energy -347150.240328 kJ/mol
# GULP energy per Si atom -12398.222869 kJ/mol
# Density = 2.237245 g / cm^3
# Si number density = 22.423489 Si / 1000 Ang^3
#
#
#
# Elastic Constant Matrix: (Units=GPa)
#
#
# Indices 1 2 3 4 5 6 
#
# 1 66.8018 16.3022 29.9873 0.0000 0.0000 0.0000
# 2 16.3022 69.5337 46.7230 0.0000 0.0000 0.0000
# 3 29.9873 46.7230 117.5217 0.0000 0.0000 0.0000
# 4 0.0000 0.0000 0.0000 33.2805 0.0000 0.0000
# 5 0.0000 0.0000 0.0000 0.0000 32.9933 0.0000
# 6 0.0000 0.0000 0.0000 0.0000 0.0000 27.9384
#
#
#
# Elastic Compliance Matrix: (Units=1/GPa)
#
#
# Indices 1 2 3 4 5 6 
#
# 1 0.017014 -0.001462 -0.003760 0.000000 0.000000 0.000000
# 2 -0.001462 0.019750 -0.007479 0.000000 0.000000 0.000000
# 3 -0.003760 -0.007479 0.012442 0.000000 0.000000 0.000000
# 4 0.000000 0.000000 0.000000 0.030048 0.000000 0.000000
# 5 0.000000 0.000000 0.000000 0.000000 0.030309 0.000000
# 6 0.000000 0.000000 0.000000 0.000000 0.000000 0.035793
#
#
# Mechanical properties :
#
#
# Convention : Reuss Voigt Hill
#
# Bulk Modulus (GPa) = 42.01065 48.87577 45.44321
# Shear Modulus (GPa) = 27.98101 29.56543 28.77322
#
# Velocity S-wave (km/s) = 3.53632 3.63506 3.58603
# Velocity P-wave (km/s) = 5.95397 6.28189 6.12013
#
# Compressibility (1/GPa) = 0.02380349
#
# Stress axis : x y z
#
# Youngs Moduli (GPa) = 58.77362 50.63373 80.37431
#
# Poissons Ratio (x) = 0.07405 0.30221
# Poissons Ratio (y) = 0.08596 0.60109
# Poissons Ratio (z) = 0.22099 0.37867
#
# Static dielectric constant tensor:
#      x y z
#    x 3.783820 0.000000 0.000000 
#    y 0.000000 3.997760 0.000000 
#    z 0.000000 0.000000 4.266930 
# 
# 
# High freq. dielectric constant tensor:
#      x y z
#    x 1.875120 0.000000 0.000000 
#    y 0.000000 1.878320 0.000000 
#    z 0.000000 0.000000 1.904280 
# 
# From -- ./inp_files/5094.got.cif
#   From: 2010.03.12/outbox.cif.g09.slc.cpg/sg29_3_cif.got.tgz:5094.got - 2010.04.14 03:43:10.
