data_PCOD8169223
_publ_section_title
;
Structure prediction by ZEFSAII (Michael W. Deem and Ramdas Pophale) SiO2 
 PCOD8169223
Probable space group: P C A 21
;
_chemical_formula_sum "Si O2"
_cell_formula_units_Z 24
_cell_length_a 21.628991
_cell_length_b 5.491844
_cell_length_c 8.683561
_cell_angle_alpha 90.000000
_cell_angle_beta 90.000000
_cell_angle_gamma 90.000000
_cell_volume 1031.459812
_symmetry_space_group_name_H-M "P C A 21"
_symmetry_group_IT_number 29
_symmetry_cell_setting 'orthorhombic'
loop_
_space_group_symop_operation_xyz
x,y,z
-x,-y,1/2+z
1/2-x,y,1/2+z
1/2+x,-y,z
loop_
_atom_site_type_symbol
_atom_site_label
_atom_site_fract_x
_atom_site_fract_y
_atom_site_fract_z
Si Si1 0.128294 0.903432 0.654770
Si Si2 0.604241 0.994995 0.319976
Si Si3 0.810984 0.600657 0.269938
Si Si4 0.442663 0.617374 0.618630
Si Si5 0.485663 0.739084 0.300709
Si Si6 0.319139 0.348458 0.632335
O O1 0.129566 0.864383 0.469508
O O2 0.154407 0.652972 0.730463
O O3 0.058413 0.940687 0.718930
O O4 0.164298 0.155551 0.685953
O O5 0.555721 0.127870 0.205727
O O6 0.552420 0.801562 0.377022
O O7 0.661933 0.905906 0.215419
O O8 0.741811 0.549594 0.212392
O O9 0.810592 0.670353 0.449519
O O10 0.443645 0.628962 0.435655
O O11 0.501289 0.459220 0.669434
O O12 0.375755 0.522487 0.672721
#
# Coordination Sequence:
#
# PCOD8169223 Si02
#       6
#     4   4   4   4   4   4
#     4  12  28  47  77 110 150 197 250 308 382 445
#     4  11  26  43  75 106 151 193 256 307 383 451
#     4  12  29  49  76 105 150 196 252 308 371 447
#     4  11  24  44  73 105 151 193 251 309 377 448
#     4  11  24  43  72 108 150 197 247 317 381 452
#     4  11  27  48  73 106 144 200 250 311 372 447
#
# _framework density 23.267993000000001
#
# number of rings (size 3 to 8) (size 9 to 14) (size 15 to 20)
#    0.000    0.667    1.667    4.000   14.000    2.667 
#    0.000    0.000    0.000    0.000    0.000    0.000 
#    0.000    0.000    0.000    0.000    0.000    0.000 
#
# Total GULP energy -297340.594064 kJ/mol
# GULP energy per Si atom -12389.191419 kJ/mol
# Density = 2.321503 g / cm^3
# Si number density = 23.267993 Si / 1000 Ang^3
#
#
#
# Elastic Constant Matrix: (Units=GPa)
#
#
# Indices 1 2 3 4 5 6 
#
# 1 109.8699 27.8849 52.5690 0.0000 0.0000 0.0000
# 2 27.8849 85.3652 29.8673 0.0000 0.0000 0.0000
# 3 52.5690 29.8673 171.2772 0.0000 0.0000 0.0000
# 4 0.0000 0.0000 0.0000 36.5271 0.0000 0.0000
# 5 0.0000 0.0000 0.0000 0.0000 42.1143 0.0000
# 6 0.0000 0.0000 0.0000 0.0000 0.0000 24.2449
#
#
#
# Elastic Compliance Matrix: (Units=1/GPa)
#
#
# Indices 1 2 3 4 5 6 
#
# 1 0.011190 -0.002613 -0.002979 0.000000 0.000000 0.000000
# 2 -0.002613 0.013086 -0.001480 0.000000 0.000000 0.000000
# 3 -0.002979 -0.001480 0.007011 0.000000 0.000000 0.000000
# 4 0.000000 0.000000 0.000000 0.027377 0.000000 0.000000
# 5 0.000000 0.000000 0.000000 0.000000 0.023745 0.000000
# 6 0.000000 0.000000 0.000000 0.000000 0.000000 0.041246
#
#
# Mechanical properties :
#
#
# Convention : Reuss Voigt Hill
#
# Bulk Modulus (GPa) = 58.33252 65.23941 61.78597
# Shear Modulus (GPa) = 34.84022 37.65666 36.24844
#
# Velocity S-wave (km/s) = 3.87375 4.02728 3.95126
# Velocity P-wave (km/s) = 6.71805 7.05156 6.88683
#
# Compressibility (1/GPa) = 0.01714310
#
# Stress axis : x y z
#
# Youngs Moduli (GPa) = 89.36436 76.41922 142.63653
#
# Poissons Ratio (x) = 0.19969 0.42489
# Poissons Ratio (y) = 0.23352 0.21108
# Poissons Ratio (z) = 0.26620 0.11309
#
# Static dielectric constant tensor:
#      x y z
#    x 4.236980 0.000000 0.000000 
#    y 0.000000 4.084040 0.000000 
#    z 0.000000 0.000000 4.172820 
# 
# 
# High freq. dielectric constant tensor:
#      x y z
#    x 1.937160 0.000000 0.000000 
#    y 0.000000 1.908290 0.000000 
#    z 0.000000 0.000000 1.935370 
# 
# From -- ./inp_files/2383.got.cif
#   From: 2010.03.12/outbox.cif.g09.slc.cpg/sg29_2_cif.got.tgz:2383.got - 2010.04.14 03:43:10.
