data_PCOD8169674
_publ_section_title
;
Structure prediction by ZEFSAII (Michael W. Deem and Ramdas Pophale) SiO2 
 PCOD8169674
Probable space group: P M N 21
;
_chemical_formula_sum "Si O2"
_cell_formula_units_Z 32
_cell_length_a 9.084870
_cell_length_b 11.438613
_cell_length_c 18.089943
_cell_angle_alpha 90.000000
_cell_angle_beta 90.000000
_cell_angle_gamma 90.000000
_cell_volume 1879.876342
_symmetry_space_group_name_H-M "P M N 21"
_symmetry_group_IT_number 31
_symmetry_cell_setting 'orthorhombic'
loop_
_space_group_symop_operation_xyz
x,y,z
1/2-x,-y,1/2+z
-x,y,z
1/2+x,-y,1/2+z
loop_
_atom_site_type_symbol
_atom_site_label
_atom_site_fract_x
_atom_site_fract_y
_atom_site_fract_z
Si Si1 0.832338 0.399789 0.829430
Si Si2 0.670062 0.740607 0.636743
Si Si3 0.326517 0.052913 0.907065
Si Si4 0.331407 0.842091 0.272087
Si Si5 0.666434 0.158213 0.351601
Si Si6 0.174653 0.368794 0.286920
Si Si7 0.171213 0.258841 0.974281
Si Si8 0.338463 0.052106 0.188760
O O1 0.815799 0.298197 0.766892
O O2 0.722109 0.501011 0.806748
O O3 0.785515 0.350929 0.910437
O O4 0.000000 0.446534 0.831519
O O5 0.500000 0.752295 0.651293
O O6 0.733968 0.661061 0.703490
O O7 0.704246 0.686227 0.555744
O O8 0.728310 0.874140 0.638753
O O9 0.500000 0.036740 0.916583
O O10 0.289212 0.114800 0.829993
O O11 0.263531 0.138592 0.970231
O O12 0.249494 0.925221 0.910642
O O13 0.500000 0.870940 0.299053
O O14 0.302143 0.911838 0.194542
O O15 0.500000 0.182202 0.378664
O O16 0.752661 0.280830 0.345810
O O17 0.668490 0.095430 0.272901
O O18 0.000000 0.358792 0.292853
O O19 0.000000 0.225975 0.965848
O O20 0.500000 0.071336 0.154637
#
# Coordination Sequence:
#
# PCOD8169674 Si02
#       8
#     4   4   4   4   4   4   4   4
#     4   9  17  30  48  67  89 124 166 199 229 276
#     4   9  18  31  47  67  92 122 154 193 239 286
#     4  10  17  25  42  69  94 113 140 184 235 273
#     4   8  15  28  44  63  89 121 153 182 220 275
#     4   9  16  28  45  64  89 121 151 178 218 275
#     4  10  19  30  46  71  98 121 155 204 246 276
#     4   9  18  33  49  65  90 125 162 193 231 291
#     4   8  14  25  43  66  89 113 143 181 224 272
#
# _framework density 17.022393999999998
#
# number of rings (size 3 to 8) (size 9 to 14) (size 15 to 20)
#    0.000    3.000    0.000    3.375    0.000    6.000 
#    0.000    0.000    0.000    1.500    0.000    5.250 
#    0.000    0.000    0.000    0.000    0.000    0.000 
#
# Total GULP energy -396437.936873 kJ/mol
# GULP energy per Si atom -12388.685527 kJ/mol
# Density = 1.698365 g / cm^3
# Si number density = 17.022394 Si / 1000 Ang^3
#
#
#
# Elastic Constant Matrix: (Units=GPa)
#
#
# Indices 1 2 3 4 5 6 
#
# 1 73.6661 43.6350 27.9992 0.0000 0.0000 0.0000
# 2 43.6350 112.1636 39.3012 0.0000 0.0000 0.0000
# 3 27.9992 39.3012 61.9720 0.0000 0.0000 0.0000
# 4 0.0000 0.0000 0.0000 16.5052 0.0000 0.0000
# 5 0.0000 0.0000 0.0000 0.0000 16.2804 0.0000
# 6 0.0000 0.0000 0.0000 0.0000 0.0000 29.8502
#
#
#
# Elastic Compliance Matrix: (Units=1/GPa)
#
#
# Indices 1 2 3 4 5 6 
#
# 1 0.018748 -0.005561 -0.004944 0.000000 0.000000 0.000000
# 2 -0.005561 0.013112 -0.005803 0.000000 0.000000 0.000000
# 3 -0.004944 -0.005803 0.022050 0.000000 0.000000 0.000000
# 4 0.000000 0.000000 0.000000 0.060587 0.000000 0.000000
# 5 0.000000 0.000000 0.000000 0.000000 0.061424 0.000000
# 6 0.000000 0.000000 0.000000 0.000000 0.000000 0.033501
#
#
# Mechanical properties :
#
#
# Convention : Reuss Voigt Hill
#
# Bulk Modulus (GPa) = 46.96019 52.18582 49.57301
# Shear Modulus (GPa) = 20.06944 21.65158 20.86051
#
# Velocity S-wave (km/s) = 3.43738 3.57031 3.50448
# Velocity P-wave (km/s) = 6.58797 6.90795 6.74986
#
# Compressibility (1/GPa) = 0.02129463
#
# Stress axis : x y z
#
# Youngs Moduli (GPa) = 53.33941 76.26386 45.35164
#
# Poissons Ratio (x) = 0.42413 0.22420
# Poissons Ratio (y) = 0.29664 0.26317
# Poissons Ratio (z) = 0.26368 0.44255
#
# Static dielectric constant tensor:
#      x y z
#    x 3.157720 0.000000 0.000000 
#    y 0.000000 3.260300 0.000000 
#    z 0.000000 0.000000 3.057150 
# 
# 
# High freq. dielectric constant tensor:
#      x y z
#    x 1.658130 0.000000 0.000000 
#    y 0.000000 1.646340 0.000000 
#    z 0.000000 0.000000 1.614720 
# 
# From -- ./inp_files/5903.got.cif
#   From: 2010.03.12/outbox.cif.g09.slc.cpg/sg31_3_cif.got.tgz:5903.got - 2010.04.14 01:42:59.
