data_PCOD8169516
_publ_section_title
;
Structure prediction by ZEFSAII (Michael W. Deem and Ramdas Pophale) SiO2 
 PCOD8169516
Probable space group: P N C 2
;
_chemical_formula_sum "Si O2"
_cell_formula_units_Z 20
_cell_length_a 8.417045
_cell_length_b 7.892266
_cell_length_c 14.376879
_cell_angle_alpha 90.000000
_cell_angle_beta 90.000000
_cell_angle_gamma 90.000000
_cell_volume 955.049718
_symmetry_space_group_name_H-M "P N C 2"
_symmetry_group_IT_number 30
_symmetry_cell_setting 'orthorhombic'
loop_
_space_group_symop_operation_xyz
x,y,z
-x,-y,z
-x,1/2+y,1/2+z
x,1/2-y,1/2+z
loop_
_atom_site_type_symbol
_atom_site_label
_atom_site_fract_x
_atom_site_fract_y
_atom_site_fract_z
Si Si1 0.805688 0.304128 0.557590
Si Si2 0.783041 0.789181 0.374163
Si Si3 0.673078 0.574118 0.680553
Si Si4 0.000000 0.500000 0.409312
Si Si5 0.540995 0.804423 0.527106
Si Si6 0.000000 0.000000 0.511954
O O1 0.800634 0.434457 0.643788
O O2 0.624154 0.291917 0.527033
O O3 0.899058 0.127765 0.579235
O O4 0.894850 0.376903 0.470008
O O5 0.751386 0.871698 0.275967
O O6 0.616646 0.758450 0.427220
O O7 0.880384 0.617484 0.350287
O O8 0.874149 0.911482 0.444889
O O9 0.500000 0.500000 0.701566
O O10 0.657047 0.731477 0.608420
O O11 0.500000 0.000000 0.544623
#
# Coordination Sequence:
#
# PCOD8169516 Si02
#       6
#     4   4   4   2   4   2
#     4  10  21  41  67  95 130 174 219 273 334 408
#     4  11  22  43  66  95 135 174 221 277 336 402
#     4  10  23  41  65 100 126 176 233 276 329 398
#     4  10  22  41  67  96 130 174 212 267 355 388
#     4  11  21  42  66  93 131 179 226 270 327 396
#     4  10  22  39  67  98 132 176 214 269 357 400
#
# _framework density 20.941316
#
# number of rings (size 3 to 8) (size 9 to 14) (size 15 to 20)
#    0.000    1.600    4.000    0.600    0.000    0.800 
#    3.600    5.000    0.000    0.000    0.000    0.000 
#    0.000    0.000    0.000    0.000    0.000    0.000 
#
# Total GULP energy -247881.481808 kJ/mol
# GULP energy per Si atom -12394.074090 kJ/mol
# Density = 2.089365 g / cm^3
# Si number density = 20.941316 Si / 1000 Ang^3
#
#
#
# Elastic Constant Matrix: (Units=GPa)
#
#
# Indices 1 2 3 4 5 6 
#
# 1 89.9282 46.9452 51.8930 0.0000 0.0000 0.0000
# 2 46.9452 138.4913 65.6870 0.0000 0.0000 0.0000
# 3 51.8930 65.6870 118.8569 0.0000 0.0000 0.0000
# 4 0.0000 0.0000 0.0000 42.2806 0.0000 0.0000
# 5 0.0000 0.0000 0.0000 0.0000 15.8329 0.0000
# 6 0.0000 0.0000 0.0000 0.0000 0.0000 38.6254
#
#
#
# Elastic Compliance Matrix: (Units=1/GPa)
#
#
# Indices 1 2 3 4 5 6 
#
# 1 0.015623 -0.002793 -0.005278 0.000000 0.000000 0.000000
# 2 -0.002793 0.010285 -0.004465 0.000000 0.000000 0.000000
# 3 -0.005278 -0.004465 0.013185 0.000000 0.000000 0.000000
# 4 0.000000 0.000000 0.000000 0.023651 0.000000 0.000000
# 5 0.000000 0.000000 0.000000 0.000000 0.063159 0.000000
# 6 0.000000 0.000000 0.000000 0.000000 0.000000 0.025890
#
#
# Mechanical properties :
#
#
# Convention : Reuss Voigt Hill
#
# Bulk Modulus (GPa) = 71.31072 75.14743 73.22908
# Shear Modulus (GPa) = 27.54228 31.53121 29.53675
#
# Velocity S-wave (km/s) = 3.63052 3.88454 3.75967
# Velocity P-wave (km/s) = 7.19033 7.48880 7.34108
#
# Compressibility (1/GPa) = 0.01402314
#
# Stress axis : x y z
#
# Youngs Moduli (GPa) = 64.00664 97.22920 75.84231
#
# Poissons Ratio (x) = 0.27153 0.40028
# Poissons Ratio (y) = 0.17875 0.33862
# Poissons Ratio (z) = 0.33781 0.43411
#
# Static dielectric constant tensor:
#      x y z
#    x 4.422370 0.000000 0.000000 
#    y 0.000000 4.369940 0.000000 
#    z 0.000000 0.000000 3.451710 
# 
# 
# High freq. dielectric constant tensor:
#      x y z
#    x 1.844040 0.000000 0.000000 
#    y 0.000000 1.835080 0.000000 
#    z 0.000000 0.000000 1.786950 
# 
# From -- ./inp_files/3548.got.cif
#   From: 2010.03.12/outbox.cif.g09.slc.cpg/sg30_2_cif.got.tgz:3548.got - 2010.04.14 01:38:02.
