data_PCOD8169666
_publ_section_title
;
Structure prediction by ZEFSAII (Michael W. Deem and Ramdas Pophale) SiO2 
 PCOD8169666
Probable space group: P N C 2
;
_chemical_formula_sum "Si O2"
_cell_formula_units_Z 16
_cell_length_a 5.018511
_cell_length_b 24.422933
_cell_length_c 5.163414
_cell_angle_alpha 90.000000
_cell_angle_beta 90.000000
_cell_angle_gamma 90.000000
_cell_volume 632.862914
_symmetry_space_group_name_H-M "P N C 2"
_symmetry_group_IT_number 30
_symmetry_cell_setting 'orthorhombic'
loop_
_space_group_symop_operation_xyz
x,y,z
-x,-y,z
-x,1/2+y,1/2+z
x,1/2-y,1/2+z
loop_
_atom_site_type_symbol
_atom_site_label
_atom_site_fract_x
_atom_site_fract_y
_atom_site_fract_z
Si Si1 0.425938 0.561497 0.059810
Si Si2 0.200801 0.359031 0.841323
Si Si3 0.705486 0.285320 0.825834
Si Si4 0.090166 0.561712 0.536220
O O1 0.500000 0.500000 0.135006
O O2 0.234266 0.584722 0.282115
O O3 0.692953 0.599003 0.061992
O O4 0.286064 0.564470 0.782076
O O5 0.409380 0.309888 0.812479
O O6 0.912501 0.333037 0.899414
O O7 0.160867 0.397741 0.587073
O O8 0.748152 0.261138 0.540601
O O9 0.000000 0.500000 0.489809
#
# Coordination Sequence:
#
# PCOD8169666 Si02
#       4
#     4   4   4   4
#     4  12  27  47  77 119 164 208 258 319 393 492
#     4  12  28  53  84 112 158 211 260 322 412 460
#     4  12  30  53  80 112 152 201 274 340 388 460
#     4  12  27  47  77 119 164 208 258 319 393 492
#
# _framework density 25.281938
#
# number of rings (size 3 to 8) (size 9 to 14) (size 15 to 20)
#    0.000    0.000    5.000    3.000    3.500    4.000 
#    0.000    0.000    0.000    0.000    0.000    0.000 
#    0.000    0.000    0.000    0.000    0.000    0.000 
#
# Total GULP energy -198381.430097 kJ/mol
# GULP energy per Si atom -12398.839381 kJ/mol
# Density = 2.522440 g / cm^3
# Si number density = 25.281938 Si / 1000 Ang^3
#
#
#
# Elastic Constant Matrix: (Units=GPa)
#
#
# Indices 1 2 3 4 5 6 
#
# 1 108.8818 23.2139 31.8367 0.0000 0.0000 0.0000
# 2 23.2139 120.1829 17.7250 0.0000 0.0000 0.0000
# 3 31.8367 17.7250 121.4583 0.0000 0.0000 0.0000
# 4 0.0000 0.0000 0.0000 -20.3631 0.0000 0.0000
# 5 0.0000 0.0000 0.0000 0.0000 47.1814 0.0000
# 6 0.0000 0.0000 0.0000 0.0000 0.0000 49.2141
#
#
#
# Elastic Compliance Matrix: (Units=1/GPa)
#
#
# Indices 1 2 3 4 5 6 
#
# 1 0.010245 -0.001618 -0.002449 0.000000 0.000000 0.000000
# 2 -0.001618 0.008759 -0.000854 0.000000 0.000000 0.000000
# 3 -0.002449 -0.000854 0.009000 0.000000 0.000000 0.000000
# 4 0.000000 0.000000 0.000000 -0.049108 0.000000 0.000000
# 5 0.000000 0.000000 0.000000 0.000000 0.021195 0.000000
# 6 0.000000 0.000000 0.000000 0.000000 0.000000 0.020319
#
#
# Mechanical properties :
#
#
# Convention : Reuss Voigt Hill
#
# Bulk Modulus (GPa) = 55.06080 55.11935 55.09007
# Shear Modulus (GPa) = 137.71523 33.72297 85.71910
#
# Velocity S-wave (km/s) = 7.38851 3.65619 5.82914
# Velocity P-wave (km/s) = 9.72691 6.29864 8.19407
#
# Compressibility (1/GPa) = 0.01816174
#
# Stress axis : x y z
#
# Youngs Moduli (GPa) = 97.60500 114.16703 111.11122
#
# Poissons Ratio (x) = 0.18469 0.27216
# Poissons Ratio (y) = 0.15789 0.09491
# Poissons Ratio (z) = 0.23908 0.09752
#
# Static dielectric constant tensor:
#      x y z
#    x 4.805300 0.000000 0.000000 
#    y 0.000000 4.966060 0.000000 
#    z 0.000000 0.000000 4.476150 
# 
# 
# High freq. dielectric constant tensor:
#      x y z
#    x 2.025120 0.000000 0.000000 
#    y 0.000000 2.025030 0.000000 
#    z 0.000000 0.000000 2.005360 
# 
# From -- ./inp_files/123.got.cif
#   From: 2010.03.12/outbox.cif.g09.slc.cpg/sg30_1_cif.got.tgz:123.got - 2010.04.14 01:38:02.
