data_PCOD8169543
_publ_section_title
;
Structure prediction by ZEFSAII (Michael W. Deem and Ramdas Pophale) SiO2 
 PCOD8169543
Probable space group: P N C 2
;
_chemical_formula_sum "Si O2"
_cell_formula_units_Z 26
_cell_length_a 6.370924
_cell_length_b 16.568082
_cell_length_c 11.178687
_cell_angle_alpha 90.000000
_cell_angle_beta 90.000000
_cell_angle_gamma 90.000000
_cell_volume 1179.955030
_symmetry_space_group_name_H-M "P N C 2"
_symmetry_group_IT_number 30
_symmetry_cell_setting 'orthorhombic'
loop_
_space_group_symop_operation_xyz
x,y,z
-x,-y,z
-x,1/2+y,1/2+z
x,1/2-y,1/2+z
loop_
_atom_site_type_symbol
_atom_site_label
_atom_site_fract_x
_atom_site_fract_y
_atom_site_fract_z
Si Si1 0.318508 0.627108 0.414500
Si Si2 0.688933 0.830599 0.348777
Si Si3 0.372821 0.428622 0.620351
Si Si4 0.625318 0.675292 0.222967
Si Si5 0.953856 0.595315 0.055288
Si Si6 0.000000 0.500000 0.477446
Si Si7 0.663382 0.295849 0.014541
O O1 0.471086 0.600668 0.519009
O O2 0.447780 0.623516 0.291074
O O3 0.235409 0.715907 0.454523
O O4 0.124020 0.565551 0.396402
O O5 0.690173 0.864022 0.216715
O O6 0.729816 0.734897 0.322627
O O7 0.865492 0.873464 0.428195
O O8 0.462335 0.843132 0.410373
O O9 0.500000 0.500000 0.687306
O O10 0.154984 0.452494 0.562370
O O11 0.798557 0.615779 0.165443
O O12 0.507515 0.725635 0.117733
O O13 0.000000 0.500000 0.050756
O O14 0.166326 0.645460 0.073636
#
# Coordination Sequence:
#
# PCOD8169543 Si02
#       7
#     4   4   4   4   4   2   4
#     4  10  22  44  68  97 137 178 227 279 342 408
#     4  10  23  41  71  96 133 178 229 284 337 411
#     4  10  22  40  64  99 136 171 220 282 342 401
#     4  10  23  46  70  94 136 185 225 284 339 415
#     4  11  27  45  70 106 138 182 234 287 348 423
#     4  10  24  38  66 104 134 170 218 284 338 412
#     4  10  23  43  67  95 132 182 228 275 345 405
#
# _framework density 22.034737
#
# number of rings (size 3 to 8) (size 9 to 14) (size 15 to 20)
#    0.000    1.846    1.538    0.000    5.385    6.769 
#   11.077    0.000    0.000    0.000    0.000    0.000 
#    0.000    0.000    0.000    0.000    0.000    0.000 
#
# Total GULP energy -322269.465578 kJ/mol
# GULP energy per Si atom -12394.979445 kJ/mol
# Density = 2.198458 g / cm^3
# Si number density = 22.034737 Si / 1000 Ang^3
#
#
#
# Elastic Constant Matrix: (Units=GPa)
#
#
# Indices 1 2 3 4 5 6 
#
# 1 107.5518 70.8411 40.0740 0.0000 0.0000 0.0000
# 2 70.8411 128.6738 44.0803 0.0000 0.0000 0.0000
# 3 40.0740 44.0803 91.1857 0.0000 0.0000 0.0000
# 4 0.0000 0.0000 0.0000 36.3325 0.0000 0.0000
# 5 0.0000 0.0000 0.0000 0.0000 27.9079 0.0000
# 6 0.0000 0.0000 0.0000 0.0000 0.0000 30.8662
#
#
#
# Elastic Compliance Matrix: (Units=1/GPa)
#
#
# Indices 1 2 3 4 5 6 
#
# 1 0.015322 -0.007345 -0.003183 0.000000 0.000000 0.000000
# 2 -0.007345 0.012835 -0.002977 0.000000 0.000000 0.000000
# 3 -0.003183 -0.002977 0.013804 0.000000 0.000000 0.000000
# 4 0.000000 0.000000 0.000000 0.027524 0.000000 0.000000
# 5 0.000000 0.000000 0.000000 0.000000 0.035832 0.000000
# 6 0.000000 0.000000 0.000000 0.000000 0.000000 0.032398
#
#
# Mechanical properties :
#
#
# Convention : Reuss Voigt Hill
#
# Bulk Modulus (GPa) = 66.88022 70.82245 68.85133
# Shear Modulus (GPa) = 29.46237 30.51570 29.98904
#
# Velocity S-wave (km/s) = 3.66059 3.72545 3.69316
# Velocity P-wave (km/s) = 6.94871 7.12154 7.03566
#
# Compressibility (1/GPa) = 0.01495210
#
# Stress axis : x y z
#
# Youngs Moduli (GPa) = 65.26691 77.91144 72.44065
#
# Poissons Ratio (x) = 0.57226 0.23057
# Poissons Ratio (y) = 0.47938 0.21563
# Poissons Ratio (z) = 0.20774 0.23192
#
# Static dielectric constant tensor:
#      x y z
#    x 4.018770 0.000000 0.000000 
#    y 0.000000 4.351740 0.000000 
#    z 0.000000 0.000000 3.979140 
# 
# 
# High freq. dielectric constant tensor:
#      x y z
#    x 1.864450 0.000000 0.000000 
#    y 0.000000 1.867970 0.000000 
#    z 0.000000 0.000000 1.872920 
# 
# From -- ./inp_files/3173.got.cif
#   From: 2010.03.12/outbox.cif.g09.slc.cpg/sg30_2_cif.got.tgz:3173.got - 2010.04.14 01:38:02.
