data_PCOD8169676
_publ_section_title
;
Structure prediction by ZEFSAII (Michael W. Deem and Ramdas Pophale) SiO2 
 PCOD8169676
Probable space group: P M N 21
;
_chemical_formula_sum "Si O2"
_cell_formula_units_Z 32
_cell_length_a 8.740352
_cell_length_b 11.531803
_cell_length_c 17.743278
_cell_angle_alpha 90.000000
_cell_angle_beta 90.000000
_cell_angle_gamma 90.000000
_cell_volume 1788.380785
_symmetry_space_group_name_H-M "P M N 21"
_symmetry_group_IT_number 31
_symmetry_cell_setting 'orthorhombic'
loop_
_space_group_symop_operation_xyz
x,y,z
1/2-x,-y,1/2+z
-x,y,z
1/2+x,-y,1/2+z
loop_
_atom_site_type_symbol
_atom_site_label
_atom_site_fract_x
_atom_site_fract_y
_atom_site_fract_z
Si Si1 0.820889 0.627796 0.879580
Si Si2 0.678316 0.271165 0.220044
Si Si3 0.822769 0.960101 0.792698
Si Si4 0.825230 0.848033 0.361479
Si Si5 0.175424 0.608437 0.422464
Si Si6 0.820992 0.158704 0.436971
Si Si7 0.178286 0.277133 0.066668
Si Si8 0.324508 0.959359 0.502502
O O1 0.766822 0.660947 0.795014
O O2 0.781696 0.495367 0.895666
O O3 0.734027 0.707734 0.941975
O O4 0.000000 0.648921 0.888737
O O5 0.500000 0.293756 0.205925
O O6 0.772359 0.321167 0.149290
O O7 0.711954 0.132623 0.226903
O O8 0.726416 0.081767 0.785323
O O9 0.000000 0.991955 0.794845
O O10 0.774823 0.896337 0.869283
O O11 0.806800 0.709046 0.358473
O O12 0.710007 0.895037 0.424152
O O13 0.000000 0.880550 0.381764
O O14 0.225332 0.654209 0.504246
O O15 0.000000 0.567393 0.427802
O O16 0.000000 0.153763 0.422107
O O17 0.776613 0.078200 0.509797
O O18 0.214227 0.138432 0.064916
O O19 0.000000 0.302203 0.052493
O O20 0.500000 0.997009 0.506397
#
# Coordination Sequence:
#
# PCOD8169676 Si02
#       8
#     4   4   4   4   4   4   4   4
#     4  10  20  34  51  72  99 132 171 212 252 296
#     4   9  19  33  49  71  99 129 161 205 256 303
#     4   9  16  27  44  67  94 123 153 188 235 286
#     4   9  16  26  43  68  94 120 151 190 235 280
#     4  10  20  33  50  73 101 132 169 212 252 297
#     4  10  17  26  44  69  94 121 153 192 238 283
#     4  10  20  32  50  74  99 130 165 205 252 302
#     4   9  16  27  43  66  94 121 151 188 234 285
#
# _framework density 17.893281000000002
#
# number of rings (size 3 to 8) (size 9 to 14) (size 15 to 20)
#    0.000    2.500    0.000    5.625    0.000    6.000 
#    0.000    0.000    0.000    1.500    0.000    3.500 
#    0.000    0.000    0.000    0.000    0.000    0.000 
#
# Total GULP energy -396450.022017 kJ/mol
# GULP energy per Si atom -12389.063188 kJ/mol
# Density = 1.785255 g / cm^3
# Si number density = 17.893281 Si / 1000 Ang^3
#
#
#
# Elastic Constant Matrix: (Units=GPa)
#
#
# Indices 1 2 3 4 5 6 
#
# 1 51.0987 32.8754 22.1136 0.0000 0.0000 0.0000
# 2 32.8754 104.7267 27.2401 0.0000 0.0000 0.0000
# 3 22.1136 27.2401 48.1711 0.0000 0.0000 0.0000
# 4 0.0000 0.0000 0.0000 17.0001 0.0000 0.0000
# 5 0.0000 0.0000 0.0000 0.0000 19.6542 0.0000
# 6 0.0000 0.0000 0.0000 0.0000 0.0000 29.4683
#
#
#
# Elastic Compliance Matrix: (Units=1/GPa)
#
#
# Indices 1 2 3 4 5 6 
#
# 1 0.027547 -0.006282 -0.009093 0.000000 0.000000 0.000000
# 2 -0.006282 0.012628 -0.004257 0.000000 0.000000 0.000000
# 3 -0.009093 -0.004257 0.027341 0.000000 0.000000 0.000000
# 4 0.000000 0.000000 0.000000 0.058823 0.000000 0.000000
# 5 0.000000 0.000000 0.000000 0.000000 0.050880 0.000000
# 6 0.000000 0.000000 0.000000 0.000000 0.000000 0.033935
#
#
# Mechanical properties :
#
#
# Convention : Reuss Voigt Hill
#
# Bulk Modulus (GPa) = 35.39704 40.93938 38.16821
# Shear Modulus (GPa) = 19.24291 21.34235 20.29263
#
# Velocity S-wave (km/s) = 3.28293 3.45738 3.37128
# Velocity P-wave (km/s) = 5.84768 6.23437 6.04412
#
# Compressibility (1/GPa) = 0.02825095
#
# Stress axis : x y z
#
# Youngs Moduli (GPa) = 36.30162 79.18889 36.57503
#
# Poissons Ratio (x) = 0.49748 0.33259
# Poissons Ratio (y) = 0.22805 0.15570
# Poissons Ratio (z) = 0.33010 0.33711
#
# Static dielectric constant tensor:
#      x y z
#    x 3.320860 0.000000 0.000000 
#    y 0.000000 3.772680 0.000000 
#    z 0.000000 0.000000 3.125800 
# 
# 
# High freq. dielectric constant tensor:
#      x y z
#    x 1.706590 0.000000 0.000000 
#    y 0.000000 1.690290 0.000000 
#    z 0.000000 0.000000 1.638980 
# 
# From -- ./inp_files/5927.got.cif
#   From: 2010.03.12/outbox.cif.g09.slc.cpg/sg31_3_cif.got.tgz:5927.got - 2010.04.14 01:42:59.
