data_PCOD8169880
_publ_section_title
;
Structure prediction by ZEFSAII (Michael W. Deem and Ramdas Pophale) SiO2 
 PCOD8169880
Probable space group: P M N 21
;
_chemical_formula_sum "Si O2"
_cell_formula_units_Z 32
_cell_length_a 9.014803
_cell_length_b 11.655898
_cell_length_c 14.356910
_cell_angle_alpha 90.000000
_cell_angle_beta 90.000000
_cell_angle_gamma 90.000000
_cell_volume 1508.561281
_symmetry_space_group_name_H-M "P M N 21"
_symmetry_group_IT_number 31
_symmetry_cell_setting 'orthorhombic'
loop_
_space_group_symop_operation_xyz
x,y,z
1/2-x,-y,1/2+z
-x,y,z
1/2+x,-y,1/2+z
loop_
_atom_site_type_symbol
_atom_site_label
_atom_site_fract_x
_atom_site_fract_y
_atom_site_fract_z
Si Si1 0.829918 0.176580 0.876270
Si Si2 0.172518 0.415649 0.778931
Si Si3 0.827708 0.916645 0.068380
Si Si4 0.829170 0.139702 0.182112
Si Si5 0.670685 0.955415 0.875439
Si Si6 0.326127 0.519453 0.951187
Si Si7 0.173897 0.659488 0.099725
Si Si8 0.671937 0.279464 0.043968
O O1 0.804865 0.286982 0.813862
O O2 0.000000 0.142461 0.886116
O O3 0.741154 0.071123 0.832510
O O4 0.765825 0.194631 0.979226
O O5 0.254673 0.501737 0.849407
O O6 0.248047 0.419466 0.678015
O O7 0.000000 0.450110 0.771029
O O8 0.795119 0.794197 0.117817
O O9 0.000000 0.928730 0.046031
O O10 0.774073 0.019471 0.135537
O O11 0.746048 0.915096 0.969763
O O12 0.808256 0.137880 0.293629
O O13 0.729869 0.247380 0.147145
O O14 0.000000 0.161894 0.156318
O O15 0.500000 0.979048 0.896331
O O16 0.500000 0.544303 0.938759
O O17 0.245705 0.626230 0.000251
O O18 0.295828 0.410410 0.017677
O O19 0.000000 0.631158 0.098955
O O20 0.500000 0.250497 0.033118
#
# Coordination Sequence:
#
# PCOD8169880 Si02
#       8
#     4   4   4   4   4   4   4   4
#     4  10  19  33  56  84 117 154 192 242 295 347
#     4  10  21  38  63  93 120 156 205 254 303 361
#     4  10  22  40  60  85 121 162 198 245 301 356
#     4  10  21  37  57  84 120 157 192 238 297 357
#     4  11  22  35  55  86 120 158 199 241 293 356
#     4  10  22  41  63  89 121 156 200 255 305 358
#     4  11  23  41  64  90 122 163 205 251 306 364
#     4  10  20  35  58  85 111 146 193 244 292 345
#
# _framework density 21.212264000000001
#
# number of rings (size 3 to 8) (size 9 to 14) (size 15 to 20)
#    0.000    1.750    1.250    3.000    0.000    6.000 
#    2.250    0.000    0.000    0.000    0.000    0.000 
#    0.000    0.000    0.000    0.000    0.000    0.000 
#
# Total GULP energy -396842.794556 kJ/mol
# GULP energy per Si atom -12401.337330 kJ/mol
# Density = 2.116398 g / cm^3
# Si number density = 21.212264 Si / 1000 Ang^3
#
#
#
# Elastic Constant Matrix: (Units=GPa)
#
#
# Indices 1 2 3 4 5 6 
#
# 1 83.8797 16.0350 36.4756 0.0000 0.0000 0.0000
# 2 16.0350 26.2852 0.1514 0.0000 0.0000 0.0000
# 3 36.4756 0.1514 88.7670 0.0000 0.0000 0.0000
# 4 0.0000 0.0000 0.0000 27.4910 0.0000 0.0000
# 5 0.0000 0.0000 0.0000 0.0000 36.0508 0.0000
# 6 0.0000 0.0000 0.0000 0.0000 0.0000 30.3188
#
#
#
# Elastic Compliance Matrix: (Units=1/GPa)
#
#
# Indices 1 2 3 4 5 6 
#
# 1 0.016896 -0.010267 -0.006925 0.000000 0.000000 0.000000
# 2 -0.010267 0.044284 0.004144 0.000000 0.000000 0.000000
# 3 -0.006925 0.004144 0.014104 0.000000 0.000000 0.000000
# 4 0.000000 0.000000 0.000000 0.036376 0.000000 0.000000
# 5 0.000000 0.000000 0.000000 0.000000 0.027739 0.000000
# 6 0.000000 0.000000 0.000000 0.000000 0.000000 0.032983
#
#
# Mechanical properties :
#
#
# Convention : Reuss Voigt Hill
#
# Bulk Modulus (GPa) = 20.33116 33.80621 27.06869
# Shear Modulus (GPa) = 23.26934 28.52345 25.89639
#
# Velocity S-wave (km/s) = 3.31566 3.67095 3.49782
# Velocity P-wave (km/s) = 4.92580 5.82576 5.39458
#
# Compressibility (1/GPa) = 0.04918558
#
# Stress axis : x y z
#
# Youngs Moduli (GPa) = 59.18497 22.58156 70.90127
#
# Poissons Ratio (x) = 0.23186 0.49102
# Poissons Ratio (y) = 0.60768 -0.29378
# Poissons Ratio (z) = 0.40988 -0.09357
#
# Static dielectric constant tensor:
#      x y z
#    x 3.811830 0.000000 0.000000 
#    y 0.000000 3.709550 0.000000 
#    z 0.000000 0.000000 3.736680 
# 
# 
# High freq. dielectric constant tensor:
#      x y z
#    x 1.836550 0.000000 0.000000 
#    y 0.000000 1.818800 0.000000 
#    z 0.000000 0.000000 1.832660 
# 
# From -- ./inp_files/5003.got.cif
#   From: 2010.03.12/outbox.cif.g09.slc.cpg/sg31_3_cif.got.tgz:5003.got - 2010.04.14 01:42:59.
