data_PCOD8169632
_publ_section_title
;
Structure prediction by ZEFSAII (Michael W. Deem and Ramdas Pophale) SiO2 
 PCOD8169632
Probable space group: P N C 2
;
_chemical_formula_sum "Si O2"
_cell_formula_units_Z 22
_cell_length_a 8.978587
_cell_length_b 7.858987
_cell_length_c 14.230526
_cell_angle_alpha 90.000000
_cell_angle_beta 90.000000
_cell_angle_gamma 90.000000
_cell_volume 1004.142893
_symmetry_space_group_name_H-M "P N C 2"
_symmetry_group_IT_number 30
_symmetry_cell_setting 'orthorhombic'
loop_
_space_group_symop_operation_xyz
x,y,z
-x,-y,z
-x,1/2+y,1/2+z
x,1/2-y,1/2+z
loop_
_atom_site_type_symbol
_atom_site_label
_atom_site_fract_x
_atom_site_fract_y
_atom_site_fract_z
Si Si1 0.176081 0.975637 0.895080
Si Si2 0.000000 0.500000 0.758363
Si Si3 0.500000 0.000000 0.482958
Si Si4 0.823607 0.208805 0.696916
Si Si5 0.791547 0.641952 0.906557
Si Si6 0.612979 0.343831 0.556791
Si Si7 0.000000 0.500000 0.054856
O O1 0.206117 0.875706 0.798007
O O2 0.249554 0.161979 0.886476
O O3 0.256829 0.872095 0.978756
O O4 0.000000 0.000000 0.913654
O O5 0.034912 0.666062 0.697893
O O6 0.144934 0.454719 0.817308
O O7 0.645138 0.968485 0.421479
O O8 0.478218 0.829618 0.543101
O O9 0.684017 0.319500 0.660162
O O10 0.866396 0.070981 0.618615
O O11 0.915195 0.637892 0.989878
O O12 0.500000 0.500000 0.557612
#
# Coordination Sequence:
#
# PCOD8169632 Si02
#       7
#     4   2   2   4   4   4   2
#     4  12  24  49  77 107 145 198 257 312 372 444
#     4  11  24  44  67 112 138 186 257 306 363 440
#     4  12  24  48  74 102 154 196 238 296 380 462
#     4  12  25  44  75 111 144 189 256 313 370 441
#     4  11  23  44  76 101 148 197 240 308 378 435
#     4  12  28  51  73 110 153 201 246 305 384 453
#     4  11  22  42  73 112 144 190 249 316 361 432
#
# _framework density 21.909234000000001
#
# number of rings (size 3 to 8) (size 9 to 14) (size 15 to 20)
#    0.000    0.364    6.364    2.182    3.818    0.000 
#   11.455    0.000    0.000    0.000    0.000    0.000 
#    0.000    0.000    0.000    0.000    0.000    0.000 
#
# Total GULP energy -272761.869508 kJ/mol
# GULP energy per Si atom -12398.266796 kJ/mol
# Density = 2.185937 g / cm^3
# Si number density = 21.909234 Si / 1000 Ang^3
#
#
#
# Elastic Constant Matrix: (Units=GPa)
#
#
# Indices 1 2 3 4 5 6 
#
# 1 119.3885 43.9057 48.3822 0.0000 0.0000 0.0000
# 2 43.9057 150.1471 48.2920 0.0000 0.0000 0.0000
# 3 48.3822 48.2920 102.8530 0.0000 0.0000 0.0000
# 4 0.0000 0.0000 0.0000 18.2243 0.0000 0.0000
# 5 0.0000 0.0000 0.0000 0.0000 17.8198 0.0000
# 6 0.0000 0.0000 0.0000 0.0000 0.0000 43.9113
#
#
#
# Elastic Compliance Matrix: (Units=1/GPa)
#
#
# Indices 1 2 3 4 5 6 
#
# 1 0.010740 -0.001785 -0.004214 0.000000 0.000000 0.000000
# 2 -0.001785 0.008142 -0.002983 0.000000 0.000000 0.000000
# 3 -0.004214 -0.002983 0.013105 0.000000 0.000000 0.000000
# 4 0.000000 0.000000 0.000000 0.054872 0.000000 0.000000
# 5 0.000000 0.000000 0.000000 0.000000 0.056117 0.000000
# 6 0.000000 0.000000 0.000000 0.000000 0.000000 0.022773
#
#
# Mechanical properties :
#
#
# Convention : Reuss Voigt Hill
#
# Bulk Modulus (GPa) = 71.31168 72.61649 71.96409
# Shear Modulus (GPa) = 26.54095 31.44500 28.99298
#
# Velocity S-wave (km/s) = 3.48430 3.79257 3.64170
# Velocity P-wave (km/s) = 6.98616 7.23839 7.11339
#
# Compressibility (1/GPa) = 0.01402295
#
# Stress axis : x y z
#
# Youngs Moduli (GPa) = 93.10734 122.82646 76.30437
#
# Poissons Ratio (x) = 0.21928 0.32155
# Poissons Ratio (y) = 0.16622 0.22760
# Poissons Ratio (z) = 0.39235 0.36637
#
# Static dielectric constant tensor:
#      x y z
#    x 4.123610 0.000000 0.000000 
#    y 0.000000 4.219940 0.000000 
#    z 0.000000 0.000000 3.900360 
# 
# 
# High freq. dielectric constant tensor:
#      x y z
#    x 1.860410 0.000000 0.000000 
#    y 0.000000 1.883420 0.000000 
#    z 0.000000 0.000000 1.854330 
# 
# From -- ./inp_files/4976.got.cif
#   From: 2010.03.12/outbox.cif.g09.slc.cpg/sg30_3_cif.got.tgz:4976.got - 2010.04.14 01:38:02.
