data_PCOD8169784
_publ_section_title
;
Structure prediction by ZEFSAII (Michael W. Deem and Ramdas Pophale) SiO2 
 PCOD8169784
Probable space group: P M N 21
;
_chemical_formula_sum "Si O2"
_cell_formula_units_Z 32
_cell_length_a 9.059403
_cell_length_b 9.537070
_cell_length_c 20.526502
_cell_angle_alpha 90.000000
_cell_angle_beta 90.000000
_cell_angle_gamma 90.000000
_cell_volume 1773.493069
_symmetry_space_group_name_H-M "P M N 21"
_symmetry_group_IT_number 31
_symmetry_cell_setting 'orthorhombic'
loop_
_space_group_symop_operation_xyz
x,y,z
1/2-x,-y,1/2+z
-x,y,z
1/2+x,-y,1/2+z
loop_
_atom_site_type_symbol
_atom_site_label
_atom_site_fract_x
_atom_site_fract_y
_atom_site_fract_z
Si Si1 0.324536 0.834462 0.448670
Si Si2 0.332219 0.343841 0.228339
Si Si3 0.167091 0.893730 0.575521
Si Si4 0.326596 0.987082 0.843062
Si Si5 0.670211 0.931570 0.699846
Si Si6 0.326622 0.519072 0.475153
Si Si7 0.662802 0.437137 0.097635
Si Si8 0.670095 0.303235 0.370040
O O1 0.500000 0.849785 0.448127
O O2 0.260454 0.922416 0.509913
O O3 0.272196 0.672899 0.453740
O O4 0.256345 0.891215 0.381955
O O5 0.500000 0.284381 0.216396
O O6 0.208955 0.227050 0.218008
O O7 0.303814 0.468081 0.174695
O O8 0.318822 0.394553 0.303020
O O9 0.235280 0.981038 0.636786
O O10 0.176637 0.730382 0.592423
O O11 0.000000 0.944653 0.564046
O O12 0.500000 0.989017 0.858428
O O13 0.296943 0.018786 0.766172
O O14 0.263464 0.837870 0.866005
O O15 0.500000 0.940700 0.679807
O O16 0.500000 0.512511 0.473784
O O17 0.274146 0.485447 0.548839
O O18 0.262578 0.401702 0.426520
O O19 0.500000 0.488565 0.077929
O O20 0.500000 0.262446 0.384166
#
# Coordination Sequence:
#
# PCOD8169784 Si02
#       8
#     4   4   4   4   4   4   4   4
#     4  10  19  31  48  70  96 126 158 192 234 280
#     4   8  14  25  42  63  86 114 149 188 229 269
#     4   9  16  27  44  66  91 118 152 193 234 275
#     4  10  20  32  47  70  97 124 157 194 232 277
#     4   9  16  26  42  65  91 117 149 191 234 274
#     4   9  18  30  46  69  93 119 152 189 229 275
#     4   8  14  24  40  63  88 115 146 183 227 270
#     4   9  17  31  49  68  92 121 153 190 231 274
#
# _framework density 18.043488
#
# number of rings (size 3 to 8) (size 9 to 14) (size 15 to 20)
#    0.000    3.000    0.000    2.250    0.000    5.500 
#    0.000    0.000    0.000    1.500    0.000    5.250 
#    0.000    0.000    0.000    0.000    0.000    0.000 
#
# Total GULP energy -396481.406292 kJ/mol
# GULP energy per Si atom -12390.043947 kJ/mol
# Density = 1.800242 g / cm^3
# Si number density = 18.043488 Si / 1000 Ang^3
#
#
#
# Elastic Constant Matrix: (Units=GPa)
#
#
# Indices 1 2 3 4 5 6 
#
# 1 60.5736 5.2872 6.5336 0.0000 0.0000 0.0000
# 2 5.2872 17.2615 -7.2595 0.0000 0.0000 0.0000
# 3 6.5336 -7.2595 28.7081 0.0000 0.0000 0.0000
# 4 0.0000 0.0000 0.0000 23.3826 0.0000 0.0000
# 5 0.0000 0.0000 0.0000 0.0000 34.9347 0.0000
# 6 0.0000 0.0000 0.0000 0.0000 0.0000 14.7067
#
#
#
# Elastic Compliance Matrix: (Units=1/GPa)
#
#
# Indices 1 2 3 4 5 6 
#
# 1 0.017868 -0.008038 -0.006099 0.000000 0.000000 0.000000
# 2 -0.008038 0.068443 0.019137 0.000000 0.000000 0.000000
# 3 -0.006099 0.019137 0.041061 0.000000 0.000000 0.000000
# 4 0.000000 0.000000 0.000000 0.042767 0.000000 0.000000
# 5 0.000000 0.000000 0.000000 0.000000 0.028625 0.000000
# 6 0.000000 0.000000 0.000000 0.000000 0.000000 0.067996
#
#
# Mechanical properties :
#
#
# Convention : Reuss Voigt Hill
#
# Bulk Modulus (GPa) = 7.27960 12.85177 10.06569
# Shear Modulus (GPa) = 16.52614 21.40360 18.96487
#
# Velocity S-wave (km/s) = 3.02968 3.44790 3.24553
# Velocity P-wave (km/s) = 4.03508 4.79466 4.43117
#
# Compressibility (1/GPa) = 0.13737010
#
# Stress axis : x y z
#
# Youngs Moduli (GPa) = 55.96488 14.61080 24.35420
#
# Poissons Ratio (x) = 0.11744 0.14854
# Poissons Ratio (y) = 0.44986 -0.46606
# Poissons Ratio (z) = 0.34135 -0.27960
#
# Static dielectric constant tensor:
#      x y z
#    x 3.345330 0.000000 0.000000 
#    y 0.000000 2.782230 0.000000 
#    z 0.000000 0.000000 3.908490 
# 
# 
# High freq. dielectric constant tensor:
#      x y z
#    x 1.702920 0.000000 0.000000 
#    y 0.000000 1.623370 0.000000 
#    z 0.000000 0.000000 1.722900 
# 
# From -- ./inp_files/5881.got.cif
#   From: 2010.03.12/outbox.cif.g09.slc.cpg/sg31_3_cif.got.tgz:5881.got - 2010.04.14 01:42:59.
