data_PCOD8169960
_publ_section_title
;
Structure prediction by ZEFSAII (Michael W. Deem and Ramdas Pophale) SiO2 
 PCOD8169960
Probable space group: P M N 21
;
_chemical_formula_sum "Si O2"
_cell_formula_units_Z 32
_cell_length_a 8.690756
_cell_length_b 14.514834
_cell_length_c 12.557334
_cell_angle_alpha 90.000000
_cell_angle_beta 90.000000
_cell_angle_gamma 90.000000
_cell_volume 1584.043399
_symmetry_space_group_name_H-M "P M N 21"
_symmetry_group_IT_number 31
_symmetry_cell_setting 'orthorhombic'
loop_
_space_group_symop_operation_xyz
x,y,z
1/2-x,-y,1/2+z
-x,y,z
1/2+x,-y,1/2+z
loop_
_atom_site_type_symbol
_atom_site_label
_atom_site_fract_x
_atom_site_fract_y
_atom_site_fract_z
Si Si1 0.820371 0.122778 0.055880
Si Si2 0.820993 0.438735 0.777654
Si Si3 0.681347 0.940548 0.982242
Si Si4 0.183084 0.831376 0.781506
Si Si5 0.316724 0.366816 0.346533
Si Si6 0.679100 0.750884 0.367987
Si Si7 0.329334 0.162362 0.672591
Si Si8 0.329695 0.363438 0.582382
O O1 0.746804 0.126284 0.172591
O O2 0.000000 0.101260 0.067990
O O3 0.792991 0.218124 0.990139
O O4 0.741387 0.044877 0.983534
O O5 0.744962 0.538225 0.801171
O O6 0.754678 0.353469 0.849528
O O7 0.787229 0.420164 0.654736
O O8 0.000000 0.447041 0.799588
O O9 0.500000 0.937253 0.965732
O O10 0.758630 0.886736 0.884304
O O11 0.723422 0.900414 0.098217
O O12 0.241833 0.725018 0.786331
O O13 0.000000 0.837710 0.781040
O O14 0.500000 0.366655 0.342765
O O15 0.256118 0.363630 0.466448
O O16 0.500000 0.750993 0.337916
O O17 0.758204 0.825065 0.289783
O O18 0.500000 0.117871 0.683249
O O19 0.343455 0.259534 0.617134
O O20 0.500000 0.409361 0.585439
#
# Coordination Sequence:
#
# PCOD8169960 Si02
#       8
#     4   4   4   4   4   4   4   4
#     4  11  25  43  62  89 125 165 205 253 310 370
#     4   9  18  34  57  86 117 158 204 249 299 358
#     4  12  25  41  63  90 119 158 203 252 309 368
#     4  11  23  43  65  90 124 162 205 255 307 367
#     4   9  18  35  59  84 118 160 198 243 307 363
#     4   9  20  38  59  86 123 161 203 251 302 359
#     4  10  19  35  61  87 114 150 198 254 304 358
#     4   9  17  33  54  80 112 152 196 245 302 357
#
# _framework density 20.201466
#
# number of rings (size 3 to 8) (size 9 to 14) (size 15 to 20)
#    0.000    2.000    1.250    2.250    1.750    2.500 
#    0.000    3.125    0.000    0.000    0.000    0.000 
#    0.000    0.000    0.000    0.000    0.000    0.000 
#
# Total GULP energy -396653.345613 kJ/mol
# GULP energy per Si atom -12395.417050 kJ/mol
# Density = 2.015549 g / cm^3
# Si number density = 20.201466 Si / 1000 Ang^3
#
#
#
# Elastic Constant Matrix: (Units=GPa)
#
#
# Indices 1 2 3 4 5 6 
#
# 1 57.4622 20.2559 19.6023 0.0000 0.0000 0.0000
# 2 20.2559 92.4261 47.9695 0.0000 0.0000 0.0000
# 3 19.6023 47.9695 89.4769 0.0000 0.0000 0.0000
# 4 0.0000 0.0000 0.0000 19.4201 0.0000 0.0000
# 5 0.0000 0.0000 0.0000 0.0000 33.2788 0.0000
# 6 0.0000 0.0000 0.0000 0.0000 0.0000 20.1593
#
#
#
# Elastic Compliance Matrix: (Units=1/GPa)
#
#
# Indices 1 2 3 4 5 6 
#
# 1 0.019326 -0.002824 -0.002720 0.000000 0.000000 0.000000
# 2 -0.002824 0.015403 -0.007639 0.000000 0.000000 0.000000
# 3 -0.002720 -0.007639 0.015867 0.000000 0.000000 0.000000
# 4 0.000000 0.000000 0.000000 0.051493 0.000000 0.000000
# 5 0.000000 0.000000 0.000000 0.000000 0.030049 0.000000
# 6 0.000000 0.000000 0.000000 0.000000 0.000000 0.049605
#
#
# Mechanical properties :
#
#
# Convention : Reuss Voigt Hill
#
# Bulk Modulus (GPa) = 41.27002 46.11338 43.69170
# Shear Modulus (GPa) = 23.12822 24.67415 23.90118
#
# Velocity S-wave (km/s) = 3.38728 3.49865 3.44341
# Velocity P-wave (km/s) = 5.98095 6.26075 6.12245
#
# Compressibility (1/GPa) = 0.02423067
#
# Stress axis : x y z
#
# Youngs Moduli (GPa) = 51.74367 64.92230 63.02244
#
# Poissons Ratio (x) = 0.18332 0.17142
# Poissons Ratio (y) = 0.14611 0.48144
# Poissons Ratio (z) = 0.14074 0.49595
#
# Static dielectric constant tensor:
#      x y z
#    x 3.579330 0.000000 0.000000 
#    y 0.000000 3.969420 0.000000 
#    z 0.000000 0.000000 3.760570 
# 
# 
# High freq. dielectric constant tensor:
#      x y z
#    x 1.773540 0.000000 0.000000 
#    y 0.000000 1.793390 0.000000 
#    z 0.000000 0.000000 1.789720 
# 
# From -- ./inp_files/3639.got.cif
#   From: 2010.03.12/outbox.cif.g09.slc.cpg/sg31_2_cif.got.tgz:3639.got - 2010.04.14 01:42:59.
