data_PCOD8169272
_publ_section_title
;
Structure prediction by ZEFSAII (Michael W. Deem and Ramdas Pophale) SiO2 
 PCOD8169272
Probable space group: P C A 21
;
_chemical_formula_sum "Si O2"
_cell_formula_units_Z 28
_cell_length_a 9.596631
_cell_length_b 8.302749
_cell_length_c 14.554670
_cell_angle_alpha 90.000000
_cell_angle_beta 90.000000
_cell_angle_gamma 90.000000
_cell_volume 1159.693086
_symmetry_space_group_name_H-M "P C A 21"
_symmetry_group_IT_number 29
_symmetry_cell_setting 'orthorhombic'
loop_
_space_group_symop_operation_xyz
x,y,z
-x,-y,1/2+z
1/2-x,y,1/2+z
1/2+x,-y,z
loop_
_atom_site_type_symbol
_atom_site_label
_atom_site_fract_x
_atom_site_fract_y
_atom_site_fract_z
Si Si1 0.650773 0.604287 0.316480
Si Si2 0.904067 0.037301 0.454378
Si Si3 0.222721 0.610677 0.574777
Si Si4 0.359455 0.142388 0.273551
Si Si5 0.504634 0.420096 0.175863
Si Si6 0.365302 0.610572 0.398534
Si Si7 0.843708 0.027676 0.077432
O O1 0.710248 0.785888 0.308615
O O2 0.562205 0.581235 0.223708
O O3 0.532583 0.580028 0.396055
O O4 0.776863 0.470608 0.315024
O O5 0.931796 0.933083 0.363215
O O6 0.795385 0.964393 0.527600
O O7 0.840937 0.200254 0.410961
O O8 0.040025 0.061319 0.516456
O O9 0.366293 0.661276 0.624231
O O10 0.283529 0.526859 0.482677
O O11 0.127684 0.468925 0.614743
O O12 0.137306 0.778387 0.568484
O O13 0.459257 0.289826 0.250320
O O14 0.344046 0.025292 0.185054
#
# Coordination Sequence:
#
# PCOD8169272 Si02
#       7
#     4   4   4   4   4   4   4
#     4  12  25  45  72 108 143 189 252 300 380 443
#     4  11  28  49  76 109 150 196 252 307 379 454
#     4  11  26  46  75 101 153 189 248 313 368 454
#     4  12  27  45  82 105 154 194 249 319 378 448
#     4  12  25  46  68 112 139 195 247 299 380 446
#     4  11  25  47  71 106 145 193 245 313 366 454
#     4  11  28  50  74 113 148 196 253 305 381 451
#
# _framework density 24.144321000000001
#
# number of rings (size 3 to 8) (size 9 to 14) (size 15 to 20)
#    0.000    0.571    2.857    3.429   10.000    4.571 
#    0.000    0.000    0.000    0.000    0.000    0.000 
#    0.000    0.000    0.000    0.000    0.000    0.000 
#
# Total GULP energy -346899.380669 kJ/mol
# GULP energy per Si atom -12389.263595 kJ/mol
# Density = 2.408937 g / cm^3
# Si number density = 24.144321 Si / 1000 Ang^3
#
#
#
# Elastic Constant Matrix: (Units=GPa)
#
#
# Indices 1 2 3 4 5 6 
#
# 1 139.1485 31.1326 45.7308 0.0000 0.0000 0.0000
# 2 31.1326 60.7894 23.8564 0.0000 0.0000 0.0000
# 3 45.7308 23.8564 102.3601 0.0000 0.0000 0.0000
# 4 0.0000 0.0000 0.0000 39.0542 0.0000 0.0000
# 5 0.0000 0.0000 0.0000 0.0000 45.2184 0.0000
# 6 0.0000 0.0000 0.0000 0.0000 0.0000 36.6126
#
#
#
# Elastic Compliance Matrix: (Units=1/GPa)
#
#
# Indices 1 2 3 4 5 6 
#
# 1 0.008999 -0.003336 -0.003243 0.000000 0.000000 0.000000
# 2 -0.003336 0.019343 -0.003018 0.000000 0.000000 0.000000
# 3 -0.003243 -0.003018 0.011922 0.000000 0.000000 0.000000
# 4 0.000000 0.000000 0.000000 0.025605 0.000000 0.000000
# 5 0.000000 0.000000 0.000000 0.000000 0.022115 0.000000
# 6 0.000000 0.000000 0.000000 0.000000 0.000000 0.027313
#
#
# Mechanical properties :
#
#
# Convention : Reuss Voigt Hill
#
# Bulk Modulus (GPa) = 47.46044 55.97086 51.71565
# Shear Modulus (GPa) = 35.33244 37.61558 36.47401
#
# Velocity S-wave (km/s) = 3.82957 3.95137 3.89095
# Velocity P-wave (km/s) = 6.26529 6.63701 6.45382
#
# Compressibility (1/GPa) = 0.02107018
#
# Stress axis : x y z
#
# Youngs Moduli (GPa) = 111.12744 51.69822 83.88182
#
# Poissons Ratio (x) = 0.17246 0.27201
# Poissons Ratio (y) = 0.37072 0.25314
# Poissons Ratio (z) = 0.36036 0.15601
#
# Static dielectric constant tensor:
#      x y z
#    x 4.565230 0.000000 0.000000 
#    y 0.000000 4.005000 0.000000 
#    z 0.000000 0.000000 4.842550 
# 
# 
# High freq. dielectric constant tensor:
#      x y z
#    x 1.974430 0.000000 0.000000 
#    y 0.000000 1.940560 0.000000 
#    z 0.000000 0.000000 1.969570 
# 
# From -- ./inp_files/4222.got.cif
#   From: 2010.03.12/outbox.cif.g09.slc.cpg/sg29_3_cif.got.tgz:4222.got - 2010.04.14 03:43:10.
