data_PCOD8169394
_publ_section_title
;
Structure prediction by ZEFSAII (Michael W. Deem and Ramdas Pophale) SiO2 
 PCOD8169394
Probable space group: P N C 2
;
_chemical_formula_sum "Si O2"
_cell_formula_units_Z 30
_cell_length_a 12.187571
_cell_length_b 23.122942
_cell_length_c 5.496608
_cell_angle_alpha 90.000000
_cell_angle_beta 90.000000
_cell_angle_gamma 90.000000
_cell_volume 1549.012827
_symmetry_space_group_name_H-M "P N C 2"
_symmetry_group_IT_number 30
_symmetry_cell_setting 'orthorhombic'
loop_
_space_group_symop_operation_xyz
x,y,z
-x,-y,z
-x,1/2+y,1/2+z
x,1/2-y,1/2+z
loop_
_atom_site_type_symbol
_atom_site_label
_atom_site_fract_x
_atom_site_fract_y
_atom_site_fract_z
Si Si1 0.397972 0.455472 0.608140
Si Si2 0.901822 0.398311 0.375278
Si Si3 0.267203 0.773319 0.345742
Si Si4 0.000000 0.500000 0.055145
Si Si5 0.701479 0.389512 0.051366
Si Si6 0.471593 0.067485 0.614425
Si Si7 0.194143 0.518809 0.754073
Si Si8 0.978530 0.272100 0.382161
O O1 0.500000 0.500000 0.606377
O O2 0.403315 0.417524 0.360485
O O3 0.276121 0.483292 0.581866
O O4 0.406668 0.418702 0.860745
O O5 0.786770 0.375256 0.265874
O O6 0.874464 0.430587 0.624191
O O7 0.975412 0.341541 0.417944
O O8 0.967267 0.443708 0.208456
O O9 0.323564 0.750970 0.598681
O O10 0.282562 0.842351 0.338603
O O11 0.140047 0.757091 0.349665
O O12 0.896679 0.520320 0.889613
O O13 0.577007 0.391209 0.141635
O O14 0.725393 0.453333 0.952276
O O15 0.500000 0.000000 0.615825
O O16 0.037879 0.244784 0.623717
#
# Coordination Sequence:
#
# PCOD8169394 Si02
#       8
#     4   4   4   2   4   4   4   4
#     4  10  19  33  51  73 107 140 188 224 265 324
#     4  11  21  35  55  75 115 157 190 235 291 358
#     4  10  19  31  45  77 107 143 184 216 276 348
#     4  10  26  36  50  86 106 166 204 230 304 352
#     4  11  20  30  55  74 112 153 177 229 282 337
#     4  10  19  32  45  80 102 138 187 218 265 329
#     4  11  21  36  53  74 112 160 190 240 283 351
#     4  10  19  34  52  79 107 142 188 233 284 353
#
# _framework density 19.367175
#
# number of rings (size 3 to 8) (size 9 to 14) (size 15 to 20)
#    0.000    1.600    5.333    3.600    3.733    0.000 
#    0.000    0.000    0.000    0.000    0.000    0.000 
#    0.000    6.400    0.000    0.000    0.000    0.000 
#
# Total GULP energy -371672.285675 kJ/mol
# GULP energy per Si atom -12389.076189 kJ/mol
# Density = 1.932309 g / cm^3
# Si number density = 19.367175 Si / 1000 Ang^3
#
#
#
# Elastic Constant Matrix: (Units=GPa)
#
#
# Indices 1 2 3 4 5 6 
#
# 1 55.4714 23.1923 18.0374 0.0000 0.0000 0.0000
# 2 23.1923 40.0064 6.9695 0.0000 0.0000 0.0000
# 3 18.0374 6.9695 148.9936 0.0000 0.0000 0.0000
# 4 0.0000 0.0000 0.0000 21.6643 0.0000 0.0000
# 5 0.0000 0.0000 0.0000 0.0000 15.8560 0.0000
# 6 0.0000 0.0000 0.0000 0.0000 0.0000 14.9677
#
#
#
# Elastic Compliance Matrix: (Units=1/GPa)
#
#
# Indices 1 2 3 4 5 6 
#
# 1 0.024570 -0.013838 -0.002327 0.000000 0.000000 0.000000
# 2 -0.013838 0.032995 0.000132 0.000000 0.000000 0.000000
# 3 -0.002327 0.000132 0.006987 0.000000 0.000000 0.000000
# 4 0.000000 0.000000 0.000000 0.046159 0.000000 0.000000
# 5 0.000000 0.000000 0.000000 0.000000 0.063068 0.000000
# 6 0.000000 0.000000 0.000000 0.000000 0.000000 0.066810
#
#
# Mechanical properties :
#
#
# Convention : Reuss Voigt Hill
#
# Bulk Modulus (GPa) = 30.78301 37.87441 34.32871
# Shear Modulus (GPa) = 17.63768 23.58241 20.61005
#
# Velocity S-wave (km/s) = 3.02105 3.49327 3.26571
# Velocity P-wave (km/s) = 5.30075 5.98907 5.65539
#
# Compressibility (1/GPa) = 0.03248545
#
# Stress axis : x y z
#
# Youngs Moduli (GPa) = 40.70080 30.30758 143.11772
#
# Poissons Ratio (x) = 0.41939 0.33305
# Poissons Ratio (y) = 0.56321 -0.01887
# Poissons Ratio (z) = 0.09472 -0.00400
#
# Static dielectric constant tensor:
#      x y z
#    x 3.171790 0.000000 0.000000 
#    y 0.000000 3.281710 0.000000 
#    z 0.000000 0.000000 4.880970 
# 
# 
# High freq. dielectric constant tensor:
#      x y z
#    x 1.695330 0.000000 0.000000 
#    y 0.000000 1.713400 0.000000 
#    z 0.000000 0.000000 1.785780 
# 
# From -- ./inp_files/797.got.cif
#   From: 2010.03.12/outbox.cif.g09.slc.cpg/sg30_1_cif.got.tgz:797.got - 2010.04.14 01:38:02.
