data_PCOD8169475
_publ_section_title
;
Structure prediction by ZEFSAII (Michael W. Deem and Ramdas Pophale) SiO2 
 PCOD8169475
Probable space group: P N C 2
;
_chemical_formula_sum "Si O2"
_cell_formula_units_Z 32
_cell_length_a 10.038984
_cell_length_b 12.107353
_cell_length_c 13.758037
_cell_angle_alpha 90.000000
_cell_angle_beta 90.000000
_cell_angle_gamma 90.000000
_cell_volume 1672.227803
_symmetry_space_group_name_H-M "P N C 2"
_symmetry_group_IT_number 30
_symmetry_cell_setting 'orthorhombic'
loop_
_space_group_symop_operation_xyz
x,y,z
-x,-y,z
-x,1/2+y,1/2+z
x,1/2-y,1/2+z
loop_
_atom_site_type_symbol
_atom_site_label
_atom_site_fract_x
_atom_site_fract_y
_atom_site_fract_z
Si Si1 0.023943 0.294122 0.142850
Si Si2 0.363492 0.934793 0.255790
Si Si3 0.889817 0.919116 0.239997
Si Si4 0.712494 0.275644 0.142943
Si Si5 0.023943 0.294122 0.920044
Si Si6 0.889817 0.919116 0.822897
Si Si7 0.287506 0.724356 0.919951
Si Si8 0.636508 0.065207 0.807104
O O1 0.112706 0.188897 0.172463
O O2 0.069925 0.394384 0.210942
O O3 0.869879 0.266069 0.163128
O O4 0.050526 0.327216 0.031447
O O5 0.356027 0.838638 0.175123
O O6 0.346496 0.879337 0.361384
O O7 0.500000 0.000000 0.248762
O O8 0.253444 0.026618 0.235675
O O9 0.930076 0.894384 0.351952
O O10 0.000000 0.000000 0.194724
O O11 0.653503 0.379337 0.201510
O O12 0.679069 0.297699 0.031447
O O13 0.112706 0.188897 0.890431
O O14 0.869879 0.266068 0.899766
O O15 0.746556 0.973382 0.827219
O O16 0.000000 0.000000 0.868170
O O17 0.356027 0.838638 0.887771
O O18 0.500000 0.000000 0.814132
#
# Coordination Sequence:
#
# PCOD8169475 Si02
#       8
#     4   4   4   4   4   4   4   4
#     4  10  21  35  59  90 115 143 190 244 280 324
#     4  11  23  39  59  84 116 156 186 229 286 337
#     4  11  19  37  59  83 112 146 193 231 277 336
#     4  10  21  39  59  84 115 149 190 234 286 340
#     4  10  21  35  59  90 115 143 190 244 280 324
#     4  11  19  37  59  83 112 146 193 231 277 336
#     4  10  21  39  59  84 115 149 190 234 286 340
#     4  11  23  39  59  84 116 156 186 229 286 337
#
# _framework density 19.136149
#
# number of rings (size 3 to 8) (size 9 to 14) (size 15 to 20)
#    0.000    1.500    5.000    1.500    0.000    8.000 
#    0.000    2.500    0.000    0.000    0.000    0.000 
#    0.000    0.000    0.000    0.000    0.000    0.000 
#
# Total GULP energy -396873.316662 kJ/mol
# GULP energy per Si atom -12402.291146 kJ/mol
# Density = 1.909259 g / cm^3
# Si number density = 19.136149 Si / 1000 Ang^3
#
#
#
# Elastic Constant Matrix: (Units=GPa)
#
#
# Indices 1 2 3 4 5 6 
#
# 1 130.3477 41.5401 3.8703 0.0000 0.0000 0.0000
# 2 41.5401 60.2230 -25.7250 0.0000 0.0000 0.0000
# 3 3.8703 -25.7250 50.4414 0.0000 0.0000 0.0000
# 4 0.0000 0.0000 0.0000 17.5126 0.0000 0.0000
# 5 0.0000 0.0000 0.0000 0.0000 -89.2783 0.0000
# 6 0.0000 0.0000 0.0000 0.0000 0.0000 4.3797
#
#
#
# Elastic Compliance Matrix: (Units=1/GPa)
#
#
# Indices 1 2 3 4 5 6 
#
# 1 0.011129 -0.010281 -0.006097 0.000000 0.000000 0.000000
# 2 -0.010281 0.030728 0.016460 0.000000 0.000000 0.000000
# 3 -0.006097 0.016460 0.028687 0.000000 0.000000 0.000000
# 4 0.000000 0.000000 0.000000 0.057102 0.000000 0.000000
# 5 0.000000 0.000000 0.000000 0.000000 -0.011201 0.000000
# 6 0.000000 0.000000 0.000000 0.000000 0.000000 0.228329
#
#
# Mechanical properties :
#
#
# Convention : Reuss Voigt Hill
#
# Bulk Modulus (GPa) = 14.14283 31.15365 22.64824
# Shear Modulus (GPa) = 13.58031 1.27791 7.42911
#
# Velocity S-wave (km/s) = 2.66685 0.81808 1.97248
# Velocity P-wave (km/s) = 4.10968 4.14821 4.12899
#
# Compressibility (1/GPa) = 0.07070719
#
# Stress axis : x y z
#
# Youngs Moduli (GPa) = 89.85263 32.54387 34.85850
#
# Poissons Ratio (x) = 0.33459 0.21255
# Poissons Ratio (y) = 0.92380 -0.57377
# Poissons Ratio (z) = 0.54786 -0.53567
#
# Static dielectric constant tensor:
#      x y z
#    x 3.191600 0.000000 0.000000 
#    y 0.000000 3.417010 0.000000 
#    z 0.000000 0.000000 3.505980 
# 
# 
# High freq. dielectric constant tensor:
#      x y z
#    x 1.725360 0.000000 0.000000 
#    y 0.000000 1.757330 0.000000 
#    z 0.000000 0.000000 1.743700 
# 
# From -- ./inp_files/5208.got.cif
#   From: 2010.03.12/outbox.cif.g09.slc.cpg/sg30_3_cif.got.tgz:5208.got - 2010.04.14 01:38:02.
