data_PCOD8169672
_publ_section_title
;
Structure prediction by ZEFSAII (Michael W. Deem and Ramdas Pophale) SiO2 
 PCOD8169672
Probable space group: P M N 21
;
_chemical_formula_sum "Si O2"
_cell_formula_units_Z 32
_cell_length_a 8.980205
_cell_length_b 9.756866
_cell_length_c 21.017218
_cell_angle_alpha 90.000000
_cell_angle_beta 90.000000
_cell_angle_gamma 90.000000
_cell_volume 1841.500412
_symmetry_space_group_name_H-M "P M N 21"
_symmetry_group_IT_number 31
_symmetry_cell_setting 'orthorhombic'
loop_
_space_group_symop_operation_xyz
x,y,z
1/2-x,-y,1/2+z
-x,y,z
1/2+x,-y,1/2+z
loop_
_atom_site_type_symbol
_atom_site_label
_atom_site_fract_x
_atom_site_fract_y
_atom_site_fract_z
Si Si1 0.175456 0.418450 0.299960
Si Si2 0.671862 0.382790 0.694511
Si Si3 0.823489 0.926014 0.180134
Si Si4 0.175959 0.108028 0.299304
Si Si5 0.328042 0.371635 0.556307
Si Si6 0.824563 0.087689 0.552382
Si Si7 0.831268 0.911330 0.926248
Si Si8 0.164716 0.584640 0.922839
O O1 0.248861 0.517637 0.246512
O O2 0.233951 0.263824 0.289428
O O3 0.222556 0.472451 0.370002
O O4 0.000000 0.420694 0.295484
O O5 0.500000 0.374752 0.712869
O O6 0.734757 0.227745 0.696342
O O7 0.694453 0.448971 0.623824
O O8 0.745521 0.981730 0.115718
O O9 0.000000 0.927425 0.169011
O O10 0.774424 0.023473 0.237645
O O11 0.251144 0.040121 0.361358
O O12 0.000000 0.103901 0.309840
O O13 0.500000 0.315630 0.552661
O O14 0.211953 0.248094 0.555397
O O15 0.298211 0.470126 0.494806
O O16 0.752698 0.025044 0.487777
O O17 0.000000 0.062522 0.550790
O O18 0.823986 0.747752 0.929794
O O19 0.000000 0.965740 0.925778
O O20 0.000000 0.539038 0.901639
#
# Coordination Sequence:
#
# PCOD8169672 Si02
#       8
#     4   4   4   4   4   4   4   4
#     4   9  16  26  42  64  85 106 137 176 209 241
#     4   8  14  26  44  62  81 110 143 170 203 251
#     4   9  17  30  45  61  86 119 146 169 210 263
#     4   9  17  28  44  66  88 111 143 180 212 247
#     4   8  14  26  42  59  81 110 142 172 208 253
#     4  10  17  25  41  65  88 109 141 183 217 246
#     4   9  16  27  43  62  86 114 142 174 216 259
#     4   8  14  24  39  59  81 107 136 168 207 250
#
# _framework density 17.377134000000002
#
# number of rings (size 3 to 8) (size 9 to 14) (size 15 to 20)
#    0.000    3.250    0.000    3.000    0.000    3.500 
#    0.000    2.500    0.000    1.500    0.000    1.750 
#    0.000    0.000    0.000    0.000    0.000    0.000 
#
# Total GULP energy -396449.811087 kJ/mol
# GULP energy per Si atom -12389.056596 kJ/mol
# Density = 1.733758 g / cm^3
# Si number density = 17.377134 Si / 1000 Ang^3
#
#
#
# Elastic Constant Matrix: (Units=GPa)
#
#
# Indices 1 2 3 4 5 6 
#
# 1 55.4936 11.1527 38.1202 0.0000 0.0000 0.0000
# 2 11.1527 29.3498 28.8659 0.0000 0.0000 0.0000
# 3 38.1202 28.8659 136.4167 0.0000 0.0000 0.0000
# 4 0.0000 0.0000 0.0000 25.5621 0.0000 0.0000
# 5 0.0000 0.0000 0.0000 0.0000 32.2636 0.0000
# 6 0.0000 0.0000 0.0000 0.0000 0.0000 7.7773
#
#
#
# Elastic Compliance Matrix: (Units=1/GPa)
#
#
# Indices 1 2 3 4 5 6 
#
# 1 0.022507 -0.002989 -0.005657 0.000000 0.000000 0.000000
# 2 -0.002989 0.043423 -0.008353 0.000000 0.000000 0.000000
# 3 -0.005657 -0.008353 0.010679 0.000000 0.000000 0.000000
# 4 0.000000 0.000000 0.000000 0.039120 0.000000 0.000000
# 5 0.000000 0.000000 0.000000 0.000000 0.030995 0.000000
# 6 0.000000 0.000000 0.000000 0.000000 0.000000 0.128579
#
#
# Mechanical properties :
#
#
# Convention : Reuss Voigt Hill
#
# Bulk Modulus (GPa) = 23.46822 41.94863 32.70843
# Shear Modulus (GPa) = 15.45576 22.66201 19.05889
#
# Velocity S-wave (km/s) = 2.98557 3.61519 3.31536
# Velocity P-wave (km/s) = 5.04176 6.45125 5.78956
#
# Compressibility (1/GPa) = 0.04261081
#
# Stress axis : x y z
#
# Youngs Moduli (GPa) = 44.43144 23.02927 93.64395
#
# Poissons Ratio (x) = 0.06883 0.52972
# Poissons Ratio (y) = 0.13280 0.78222
# Poissons Ratio (z) = 0.25134 0.19237
#
# Static dielectric constant tensor:
#      x y z
#    x 3.036900 0.000000 0.000000 
#    y 0.000000 2.816090 0.000000 
#    z 0.000000 0.000000 3.846470 
# 
# 
# High freq. dielectric constant tensor:
#      x y z
#    x 1.652220 0.000000 0.000000 
#    y 0.000000 1.597920 0.000000 
#    z 0.000000 0.000000 1.700250 
# 
# From -- ./inp_files/5828.got.cif
#   From: 2010.03.12/outbox.cif.g09.slc.cpg/sg31_3_cif.got.tgz:5828.got - 2010.04.14 01:42:59.
