data_PCOD8169388
_publ_section_title
;
Structure prediction by ZEFSAII (Michael W. Deem and Ramdas Pophale) SiO2 
 PCOD8169388
Probable space group: P N C 2
;
_chemical_formula_sum "Si O2"
_cell_formula_units_Z 22
_cell_length_a 9.044463
_cell_length_b 12.849930
_cell_length_c 10.050685
_cell_angle_alpha 90.000000
_cell_angle_beta 90.000000
_cell_angle_gamma 90.000000
_cell_volume 1168.097811
_symmetry_space_group_name_H-M "P N C 2"
_symmetry_group_IT_number 30
_symmetry_cell_setting 'orthorhombic'
loop_
_space_group_symop_operation_xyz
x,y,z
-x,-y,z
-x,1/2+y,1/2+z
x,1/2-y,1/2+z
loop_
_atom_site_type_symbol
_atom_site_label
_atom_site_fract_x
_atom_site_fract_y
_atom_site_fract_z
Si Si1 0.092111 0.785760 0.869550
Si Si2 0.771607 0.692674 0.836600
Si Si3 0.000000 0.000000 0.939317
Si Si4 0.396228 0.238225 0.088854
Si Si5 0.277195 0.793138 0.127646
Si Si6 0.260940 0.034184 0.128541
O O1 0.211143 0.745162 0.765723
O O2 0.938810 0.725778 0.861546
O O3 0.067490 0.909361 0.846763
O O4 0.158515 0.766428 0.015376
O O5 0.692439 0.766537 0.725230
O O6 0.775639 0.574430 0.778906
O O7 0.675376 0.695127 0.970451
O O8 0.119748 0.052220 0.035355
O O9 0.569077 0.266864 0.101243
O O10 0.382944 0.112659 0.064599
O O11 0.313154 0.915910 0.134948
#
# Coordination Sequence:
#
# PCOD8169388 Si02
#       6
#     4   4   2   4   4   4
#     4  11  21  37  60  84 119 153 205 249 293 359
#     4  10  19  36  59  87 115 158 194 241 298 359
#     4  10  18  38  58  92 112 162 202 246 296 358
#     4  10  20  36  60  88 120 155 195 246 300 365
#     4  11  22  38  60  90 118 156 200 251 304 357
#     4   9  20  35  64  83 120 154 200 233 308 366
#
# _framework density 18.834040000000002
#
# number of rings (size 3 to 8) (size 9 to 14) (size 15 to 20)
#    1.091    0.727    1.818    4.909    0.000    0.000 
#    0.000    3.636    0.000    2.182    0.000    0.000 
#    0.000    0.000    0.000    0.000    0.000    0.000 
#
# Total GULP energy -272648.412421 kJ/mol
# GULP energy per Si atom -12393.109656 kJ/mol
# Density = 1.879117 g / cm^3
# Si number density = 18.834040 Si / 1000 Ang^3
#
#
#
# Elastic Constant Matrix: (Units=GPa)
#
#
# Indices 1 2 3 4 5 6 
#
# 1 125.9375 18.3772 28.1972 0.0000 0.0000 0.0000
# 2 18.3772 41.2606 17.8433 0.0000 0.0000 0.0000
# 3 28.1972 17.8433 81.1559 0.0000 0.0000 0.0000
# 4 0.0000 0.0000 0.0000 33.6440 0.0000 0.0000
# 5 0.0000 0.0000 0.0000 0.0000 30.3953 0.0000
# 6 0.0000 0.0000 0.0000 0.0000 0.0000 23.8692
#
#
#
# Elastic Compliance Matrix: (Units=1/GPa)
#
#
# Indices 1 2 3 4 5 6 
#
# 1 0.008915 -0.002908 -0.002458 0.000000 0.000000 0.000000
# 2 -0.002908 0.027731 -0.005087 0.000000 0.000000 0.000000
# 3 -0.002458 -0.005087 0.014294 0.000000 0.000000 0.000000
# 4 0.000000 0.000000 0.000000 0.029723 0.000000 0.000000
# 5 0.000000 0.000000 0.000000 0.000000 0.032900 0.000000
# 6 0.000000 0.000000 0.000000 0.000000 0.000000 0.041895
#
#
# Mechanical properties :
#
#
# Convention : Reuss Voigt Hill
#
# Bulk Modulus (GPa) = 33.29423 41.90993 37.60208
# Shear Modulus (GPa) = 26.82756 29.84414 28.33585
#
# Velocity S-wave (km/s) = 3.77824 3.98500 3.88300
# Velocity P-wave (km/s) = 6.06214 6.59350 6.33339
#
# Compressibility (1/GPa) = 0.03003524
#
# Stress axis : x y z
#
# Youngs Moduli (GPa) = 112.16884 36.06066 69.95716
#
# Poissons Ratio (x) = 0.10485 0.17197
# Poissons Ratio (y) = 0.32615 0.35586
# Poissons Ratio (z) = 0.27574 0.18343
#
# Static dielectric constant tensor:
#      x y z
#    x 3.505410 0.000000 0.000000 
#    y 0.000000 3.213320 0.000000 
#    z 0.000000 0.000000 3.387280 
# 
# 
# High freq. dielectric constant tensor:
#      x y z
#    x 1.747990 0.000000 0.000000 
#    y 0.000000 1.704010 0.000000 
#    z 0.000000 0.000000 1.724690 
# 
# From -- ./inp_files/1798.got.cif
#   From: 2010.03.12/outbox.cif.g09.slc.cpg/sg30_1_cif.got.tgz:1798.got - 2010.04.14 01:38:02.
