data_PCOD8169809
_publ_section_title
;
Structure prediction by ZEFSAII (Michael W. Deem and Ramdas Pophale) SiO2 
 PCOD8169809
Probable space group: P M N 21
;
_chemical_formula_sum "Si O2"
_cell_formula_units_Z 32
_cell_length_a 9.579502
_cell_length_b 11.981390
_cell_length_c 14.454692
_cell_angle_alpha 90.000000
_cell_angle_beta 90.000000
_cell_angle_gamma 90.000000
_cell_volume 1659.048108
_symmetry_space_group_name_H-M "P M N 21"
_symmetry_group_IT_number 31
_symmetry_cell_setting 'orthorhombic'
loop_
_space_group_symop_operation_xyz
x,y,z
1/2-x,-y,1/2+z
-x,y,z
1/2+x,-y,1/2+z
loop_
_atom_site_type_symbol
_atom_site_label
_atom_site_fract_x
_atom_site_fract_y
_atom_site_fract_z
Si Si1 0.165473 0.991373 0.762920
Si Si2 0.160207 0.846934 0.151224
Si Si3 0.163107 0.593093 0.169297
Si Si4 0.656917 0.795128 0.688460
Si Si5 0.840723 0.879497 0.948849
Si Si6 0.337043 0.609063 0.543960
Si Si7 0.846478 0.308094 0.380927
Si Si8 0.661130 0.436754 0.875445
O O1 0.230039 0.892747 0.700566
O O2 0.203830 0.971601 0.871874
O O3 0.000000 0.998172 0.746392
O O4 0.238066 0.106025 0.730724
O O5 0.196595 0.717215 0.131974
O O6 0.000000 0.857908 0.185016
O O7 0.183040 0.917201 0.055350
O O8 0.224814 0.497710 0.101169
O O9 0.224154 0.583431 0.273219
O O10 0.000000 0.568363 0.176643
O O11 0.500000 0.847292 0.685025
O O12 0.688570 0.724879 0.597173
O O13 0.669480 0.706923 0.771247
O O14 0.761881 0.764121 0.937197
O O15 0.000000 0.848514 0.931324
O O16 0.500000 0.590547 0.522216
O O17 0.253900 0.629796 0.449104
O O18 0.820898 0.435488 0.404329
O O19 0.000000 0.269569 0.412935
O O20 0.500000 0.397572 0.881431
#
# Coordination Sequence:
#
# PCOD8169809 Si02
#       8
#     4   4   4   4   4   4   4   4
#     4  10  21  37  56  80 110 137 172 231 284 315
#     4  10  20  37  59  79 105 147 189 219 260 327
#     4   9  18  35  57  79 109 147 183 218 262 323
#     4   9  17  33  56  77 101 137 181 219 259 319
#     4   9  19  35  56  82 106 136 180 230 275 313
#     4  10  19  34  56  81 108 144 184 217 260 324
#     4   9  16  29  52  78 105 139 177 219 261 313
#     4  10  19  32  50  78 114 145 174 217 271 318
#
# _framework density 19.288167999999999
#
# number of rings (size 3 to 8) (size 9 to 14) (size 15 to 20)
#    0.000    2.500    1.250    1.125    0.000    3.000 
#    2.250    1.875    0.000    0.000    0.000    0.000 
#    0.000    0.000    0.000    0.000    0.000    0.000 
#
# Total GULP energy -396670.270454 kJ/mol
# GULP energy per Si atom -12395.945952 kJ/mol
# Density = 1.924427 g / cm^3
# Si number density = 19.288168 Si / 1000 Ang^3
#
#
#
# Elastic Constant Matrix: (Units=GPa)
#
#
# Indices 1 2 3 4 5 6 
#
# 1 57.3394 17.0608 31.7869 0.0000 0.0000 0.0000
# 2 17.0608 41.5217 11.2000 0.0000 0.0000 0.0000
# 3 31.7869 11.2000 96.5042 0.0000 0.0000 0.0000
# 4 0.0000 0.0000 0.0000 24.0794 0.0000 0.0000
# 5 0.0000 0.0000 0.0000 0.0000 28.8590 0.0000
# 6 0.0000 0.0000 0.0000 0.0000 0.0000 25.0794
#
#
#
# Elastic Compliance Matrix: (Units=1/GPa)
#
#
# Indices 1 2 3 4 5 6 
#
# 1 0.023572 -0.007836 -0.006855 0.000000 0.000000 0.000000
# 2 -0.007836 0.027467 -0.000607 0.000000 0.000000 0.000000
# 3 -0.006855 -0.000607 0.012690 0.000000 0.000000 0.000000
# 4 0.000000 0.000000 0.000000 0.041529 0.000000 0.000000
# 5 0.000000 0.000000 0.000000 0.000000 0.034651 0.000000
# 6 0.000000 0.000000 0.000000 0.000000 0.000000 0.039873
#
#
# Mechanical properties :
#
#
# Convention : Reuss Voigt Hill
#
# Bulk Modulus (GPa) = 30.18035 35.05119 32.61577
# Shear Modulus (GPa) = 22.58121 24.62474 23.60298
#
# Velocity S-wave (km/s) = 3.42530 3.57694 3.50194
# Velocity P-wave (km/s) = 5.59684 5.93895 5.77043
#
# Compressibility (1/GPa) = 0.03313414
#
# Stress axis : x y z
#
# Youngs Moduli (GPa) = 42.42394 36.40701 78.79943
#
# Poissons Ratio (x) = 0.28530 0.54014
# Poissons Ratio (y) = 0.33245 0.04780
# Poissons Ratio (z) = 0.29080 0.02209
#
# Static dielectric constant tensor:
#      x y z
#    x 3.352150 0.000000 0.000000 
#    y 0.000000 3.292350 0.000000 
#    z 0.000000 0.000000 3.624450 
# 
# 
# High freq. dielectric constant tensor:
#      x y z
#    x 1.730650 0.000000 0.000000 
#    y 0.000000 1.735000 0.000000 
#    z 0.000000 0.000000 1.754520 
# 
# From -- ./inp_files/5139.got.cif
#   From: 2010.03.12/outbox.cif.g09.slc.cpg/sg31_3_cif.got.tgz:5139.got - 2010.04.14 01:42:59.
