data_PCOD8169907
_publ_section_title
;
Structure prediction by ZEFSAII (Michael W. Deem and Ramdas Pophale) SiO2 
 PCOD8169907
Probable space group: P M N 21
;
_chemical_formula_sum "Si O2"
_cell_formula_units_Z 28
_cell_length_a 12.574999
_cell_length_b 10.972001
_cell_length_c 10.905951
_cell_angle_alpha 90.000000
_cell_angle_beta 90.000000
_cell_angle_gamma 90.000000
_cell_volume 1504.725704
_symmetry_space_group_name_H-M "P M N 21"
_symmetry_group_IT_number 31
_symmetry_cell_setting 'orthorhombic'
loop_
_space_group_symop_operation_xyz
x,y,z
1/2-x,-y,1/2+z
-x,y,z
1/2+x,-y,1/2+z
loop_
_atom_site_type_symbol
_atom_site_label
_atom_site_fract_x
_atom_site_fract_y
_atom_site_fract_z
Si Si1 0.116649 0.524829 0.432040
Si Si2 0.744991 0.653804 0.077489
Si Si3 0.374743 0.834892 0.252209
Si Si4 0.381315 0.099481 0.159354
Si Si5 0.620604 0.316185 0.341284
Si Si6 0.236062 0.255869 0.991248
Si Si7 0.697080 0.570354 0.701396
O O1 0.151097 0.440331 0.543898
O O2 0.192503 0.642934 0.422137
O O3 0.117885 0.430837 0.316780
O O4 0.000000 0.576478 0.456577
O O5 0.694682 0.759861 0.156418
O O6 0.823202 0.566648 0.153652
O O7 0.813682 0.706548 0.965653
O O8 0.500000 0.809289 0.237378
O O9 0.342804 0.803813 0.392401
O O10 0.343640 0.972065 0.216578
O O11 0.500000 0.088445 0.103304
O O12 0.381658 0.187554 0.275101
O O13 0.305048 0.147034 0.050796
O O14 0.500000 0.363455 0.366199
O O15 0.682120 0.412033 0.253871
O O16 0.170465 0.325687 0.100132
#
# Coordination Sequence:
#
# PCOD8169907 Si02
#       7
#     4   4   4   4   4   4   4
#     4  10  19  34  56  80 110 142 180 226 276 333
#     4  10  20  35  51  84 112 142 177 223 278 326
#     4  11  23  37  56  82 112 148 186 226 280 332
#     4   9  20  38  59  81 105 144 189 228 274 324
#     4   9  19  36  59  80 107 145 188 227 269 326
#     4  10  20  37  58  79 110 148 183 229 270 328
#     4   9  19  35  51  82 112 139 181 219 281 323
#
# _framework density 18.608042000000001
#
# number of rings (size 3 to 8) (size 9 to 14) (size 15 to 20)
#    0.000    2.286    1.429    0.857    2.000    5.143 
#    0.000    0.000    0.000    1.714    0.000    0.000 
#    0.000    0.000    0.000    0.000    0.000    0.000 
#
# Total GULP energy -346918.701533 kJ/mol
# GULP energy per Si atom -12389.953626 kJ/mol
# Density = 1.856569 g / cm^3
# Si number density = 18.608042 Si / 1000 Ang^3
#
#
#
# Elastic Constant Matrix: (Units=GPa)
#
#
# Indices 1 2 3 4 5 6 
#
# 1 50.9776 12.6915 23.6886 0.0000 0.0000 0.0000
# 2 12.6915 80.3126 28.8038 0.0000 0.0000 0.0000
# 3 23.6886 28.8038 94.5721 0.0000 0.0000 0.0000
# 4 0.0000 0.0000 0.0000 30.3096 0.0000 0.0000
# 5 0.0000 0.0000 0.0000 0.0000 20.7986 0.0000
# 6 0.0000 0.0000 0.0000 0.0000 0.0000 18.0714
#
#
#
# Elastic Compliance Matrix: (Units=1/GPa)
#
#
# Indices 1 2 3 4 5 6 
#
# 1 0.022409 -0.001715 -0.005091 0.000000 0.000000 0.000000
# 2 -0.001715 0.014110 -0.003868 0.000000 0.000000 0.000000
# 3 -0.005091 -0.003868 0.013027 0.000000 0.000000 0.000000
# 4 0.000000 0.000000 0.000000 0.032993 0.000000 0.000000
# 5 0.000000 0.000000 0.000000 0.000000 0.048080 0.000000
# 6 0.000000 0.000000 0.000000 0.000000 0.000000 0.055336
#
#
# Mechanical properties :
#
#
# Convention : Reuss Voigt Hill
#
# Bulk Modulus (GPa) = 35.46326 39.58112 37.52219
# Shear Modulus (GPa) = 23.07322 24.54783 23.81053
#
# Velocity S-wave (km/s) = 3.52513 3.63603 3.58101
# Velocity P-wave (km/s) = 5.97228 6.24057 6.10790
#
# Compressibility (1/GPa) = 0.02819820
#
# Stress axis : x y z
#
# Youngs Moduli (GPa) = 44.62479 70.87398 76.76364
#
# Poissons Ratio (x) = 0.12158 0.39077
# Poissons Ratio (y) = 0.07655 0.29689
# Poissons Ratio (z) = 0.22717 0.27411
#
# Static dielectric constant tensor:
#      x y z
#    x 3.324730 0.000000 0.000000 
#    y 0.000000 3.400820 0.000000 
#    z 0.000000 0.000000 3.618840 
# 
# 
# High freq. dielectric constant tensor:
#      x y z
#    x 1.703540 0.000000 0.000000 
#    y 0.000000 1.715660 0.000000 
#    z 0.000000 0.000000 1.734870 
# 
# From -- ./inp_files/4002.got.cif
#   From: 2010.03.12/outbox.cif.g09.slc.cpg/sg31_3_cif.got.tgz:4002.got - 2010.04.14 01:42:59.
