data_PCOD8169738
_publ_section_title
;
Structure prediction by ZEFSAII (Michael W. Deem and Ramdas Pophale) SiO2 
 PCOD8169738
Probable space group: P M N 21
;
_chemical_formula_sum "Si O2"
_cell_formula_units_Z 32
_cell_length_a 8.904960
_cell_length_b 12.661054
_cell_length_c 14.369617
_cell_angle_alpha 90.000000
_cell_angle_beta 90.000000
_cell_angle_gamma 90.000000
_cell_volume 1620.119417
_symmetry_space_group_name_H-M "P M N 21"
_symmetry_group_IT_number 31
_symmetry_cell_setting 'orthorhombic'
loop_
_space_group_symop_operation_xyz
x,y,z
1/2-x,-y,1/2+z
-x,y,z
1/2+x,-y,1/2+z
loop_
_atom_site_type_symbol
_atom_site_label
_atom_site_fract_x
_atom_site_fract_y
_atom_site_fract_z
Si Si1 0.177698 0.631327 0.112500
Si Si2 0.177432 0.072636 0.988123
Si Si3 0.834173 0.178314 0.691582
Si Si4 0.826808 0.540481 0.307152
Si Si5 0.836127 0.276184 0.889374
Si Si6 0.178841 0.869641 0.873116
Si Si7 0.177653 0.039385 0.199227
Si Si8 0.675602 0.653401 0.928488
O O1 0.229521 0.753612 0.123025
O O2 0.231459 0.560734 0.201324
O O3 0.000000 0.626745 0.098080
O O4 0.261671 0.591233 0.019469
O O5 0.245982 0.180834 0.945254
O O6 0.000000 0.075473 0.972840
O O7 0.238173 0.967383 0.936635
O O8 0.223656 0.072339 0.095449
O O9 0.858214 0.243614 0.783867
O O10 0.000000 0.155845 0.647501
O O11 0.749104 0.073033 0.720323
O O12 0.757586 0.616014 0.386950
O O13 0.795767 0.420084 0.337849
O O14 0.000000 0.569286 0.307552
O O15 0.000000 0.299983 0.934070
O O16 0.251809 0.877173 0.770812
O O17 0.233119 0.761209 0.918119
O O18 0.000000 0.869461 0.865077
O O19 0.000000 0.034458 0.212362
O O20 0.500000 0.677313 0.940857
#
# Coordination Sequence:
#
# PCOD8169738 Si02
#       8
#     4   4   4   4   4   4   4   4
#     4  10  20  37  61  89 115 152 200 245 298 353
#     4   9  19  36  56  81 115 153 189 234 289 346
#     4  10  18  32  56  83 114 150 194 245 289 339
#     4   9  21  40  60  84 117 149 188 246 298 346
#     4   9  17  34  58  80 105 143 190 237 285 341
#     4  11  22  40  61  85 121 159 198 243 293 354
#     4  11  21  34  55  84 119 158 196 238 295 355
#     4  11  23  41  61  86 120 156 197 246 297 350
#
# _framework density 19.751629999999999
#
# number of rings (size 3 to 8) (size 9 to 14) (size 15 to 20)
#    0.000    2.000    1.250    2.625    0.000    3.000 
#    2.250    3.125    0.000    0.000    0.000    0.000 
#    0.000    0.000    0.000    0.000    0.000    0.000 
#
# Total GULP energy -396683.809629 kJ/mol
# GULP energy per Si atom -12396.369051 kJ/mol
# Density = 1.970667 g / cm^3
# Si number density = 19.751630 Si / 1000 Ang^3
#
#
#
# Elastic Constant Matrix: (Units=GPa)
#
#
# Indices 1 2 3 4 5 6 
#
# 1 74.8792 21.0145 36.8121 0.0000 0.0000 0.0000
# 2 21.0145 66.1631 38.1501 0.0000 0.0000 0.0000
# 3 36.8121 38.1501 105.0538 0.0000 0.0000 0.0000
# 4 0.0000 0.0000 0.0000 26.0914 0.0000 0.0000
# 5 0.0000 0.0000 0.0000 0.0000 27.3828 0.0000
# 6 0.0000 0.0000 0.0000 0.0000 0.0000 26.6972
#
#
#
# Elastic Compliance Matrix: (Units=1/GPa)
#
#
# Indices 1 2 3 4 5 6 
#
# 1 0.016431 -0.002402 -0.004885 0.000000 0.000000 0.000000
# 2 -0.002402 0.019468 -0.006228 0.000000 0.000000 0.000000
# 3 -0.004885 -0.006228 0.013493 0.000000 0.000000 0.000000
# 4 0.000000 0.000000 0.000000 0.038327 0.000000 0.000000
# 5 0.000000 0.000000 0.000000 0.000000 0.036519 0.000000
# 6 0.000000 0.000000 0.000000 0.000000 0.000000 0.037457
#
#
# Mechanical properties :
#
#
# Convention : Reuss Voigt Hill
#
# Bulk Modulus (GPa) = 44.72104 48.67217 46.69660
# Shear Modulus (GPa) = 25.48694 26.04223 25.76459
#
# Velocity S-wave (km/s) = 3.59607 3.63503 3.61561
# Velocity P-wave (km/s) = 6.31927 6.50489 6.41275
#
# Compressibility (1/GPa) = 0.02236084
#
# Stress axis : x y z
#
# Youngs Moduli (GPa) = 60.86210 51.36562 74.11482
#
# Poissons Ratio (x) = 0.12337 0.36207
# Poissons Ratio (y) = 0.14618 0.46161
# Poissons Ratio (z) = 0.29733 0.31992
#
# Static dielectric constant tensor:
#      x y z
#    x 3.691340 0.000000 0.000000 
#    y 0.000000 3.564650 0.000000 
#    z 0.000000 0.000000 3.726270 
# 
# 
# High freq. dielectric constant tensor:
#      x y z
#    x 1.763470 0.000000 0.000000 
#    y 0.000000 1.758040 0.000000 
#    z 0.000000 0.000000 1.770140 
# 
# From -- ./inp_files/4978.got.cif
#   From: 2010.03.12/outbox.cif.g09.slc.cpg/sg31_3_cif.got.tgz:4978.got - 2010.04.14 01:42:59.
