data_PCOD8169752
_publ_section_title
;
Structure prediction by ZEFSAII (Michael W. Deem and Ramdas Pophale) SiO2 
 PCOD8169752
Probable space group: P M N 21
;
_chemical_formula_sum "Si O2"
_cell_formula_units_Z 32
_cell_length_a 9.159087
_cell_length_b 14.579618
_cell_length_c 14.002359
_cell_angle_alpha 90.000000
_cell_angle_beta 90.000000
_cell_angle_gamma 90.000000
_cell_volume 1869.818867
_symmetry_space_group_name_H-M "P M N 21"
_symmetry_group_IT_number 31
_symmetry_cell_setting 'orthorhombic'
loop_
_space_group_symop_operation_xyz
x,y,z
1/2-x,-y,1/2+z
-x,y,z
1/2+x,-y,1/2+z
loop_
_atom_site_type_symbol
_atom_site_label
_atom_site_fract_x
_atom_site_fract_y
_atom_site_fract_z
Si Si1 0.328175 0.145951 0.502720
Si Si2 0.670167 0.470496 0.708715
Si Si3 0.666606 0.883079 0.813038
Si Si4 0.834376 0.360133 0.078898
Si Si5 0.332593 0.509851 0.402799
Si Si6 0.326008 0.350941 0.536504
Si Si7 0.164878 0.017271 0.132761
Si Si8 0.327470 0.189929 0.145300
O O1 0.500000 0.149045 0.482307
O O2 0.248519 0.101261 0.412190
O O3 0.266755 0.247803 0.522791
O O4 0.289110 0.082665 0.594200
O O5 0.500000 0.456165 0.725148
O O6 0.703200 0.569307 0.663325
O O7 0.746322 0.461518 0.809629
O O8 0.730993 0.391484 0.637295
O O9 0.500000 0.852107 0.831677
O O10 0.672004 0.977543 0.749473
O O11 0.750543 0.804923 0.750455
O O12 0.721492 0.276636 0.083409
O O13 0.000000 0.323935 0.090133
O O14 0.813830 0.408015 0.977343
O O15 0.500000 0.495862 0.374089
O O16 0.270855 0.415340 0.449380
O O17 0.500000 0.354729 0.538054
O O18 0.272466 0.096734 0.091771
O O19 0.000000 0.039572 0.098317
O O20 0.500000 0.188738 0.157414
#
# Coordination Sequence:
#
# PCOD8169752 Si02
#       8
#     4   4   4   4   4   4   4   4
#     4  10  18  33  57  79 101 137 177 210 250 308
#     4   9  18  33  51  72 103 138 170 208 255 308
#     4   9  19  34  50  75 107 133 163 206 261 309
#     4   9  18  33  50  70 103 140 168 207 265 311
#     4   9  18  32  50  73 103 138 172 208 255 308
#     4   8  17  33  52  76 104 135 171 209 253 303
#     4   8  18  34  50  72 106 137 161 204 266 312
#     4  10  19  32  52  75  97 126 172 218 251 299
#
# _framework density 17.113956999999999
#
# number of rings (size 3 to 8) (size 9 to 14) (size 15 to 20)
#    0.750    2.250    0.000    2.625    1.750    1.500 
#    0.000    3.750    0.000    1.500    0.000    0.000 
#    0.000    0.000    0.000    0.000    0.000    0.000 
#
# Total GULP energy -396526.123286 kJ/mol
# GULP energy per Si atom -12391.441353 kJ/mol
# Density = 1.707501 g / cm^3
# Si number density = 17.113957 Si / 1000 Ang^3
#
#
#
# Elastic Constant Matrix: (Units=GPa)
#
#
# Indices 1 2 3 4 5 6 
#
# 1 68.7327 40.3907 34.4219 0.0000 0.0000 0.0000
# 2 40.3907 99.5224 49.4980 0.0000 0.0000 0.0000
# 3 34.4219 49.4980 99.6600 0.0000 0.0000 0.0000
# 4 0.0000 0.0000 0.0000 18.0772 0.0000 0.0000
# 5 0.0000 0.0000 0.0000 0.0000 30.5852 0.0000
# 6 0.0000 0.0000 0.0000 0.0000 0.0000 15.3982
#
#
#
# Elastic Compliance Matrix: (Units=1/GPa)
#
#
# Indices 1 2 3 4 5 6 
#
# 1 0.020160 -0.006267 -0.003851 0.000000 0.000000 0.000000
# 2 -0.006267 0.015292 -0.005431 0.000000 0.000000 0.000000
# 3 -0.003851 -0.005431 0.014061 0.000000 0.000000 0.000000
# 4 0.000000 0.000000 0.000000 0.055318 0.000000 0.000000
# 5 0.000000 0.000000 0.000000 0.000000 0.032696 0.000000
# 6 0.000000 0.000000 0.000000 0.000000 0.000000 0.064943
#
#
# Mechanical properties :
#
#
# Convention : Reuss Voigt Hill
#
# Bulk Modulus (GPa) = 54.29598 57.39292 55.84445
# Shear Modulus (GPa) = 20.85885 22.38573 21.62229
#
# Velocity S-wave (km/s) = 3.49495 3.62061 3.55833
# Velocity P-wave (km/s) = 6.93406 7.14751 7.04160
#
# Compressibility (1/GPa) = 0.01841757
#
# Stress axis : x y z
#
# Youngs Moduli (GPa) = 49.60259 65.39232 71.11671
#
# Poissons Ratio (x) = 0.40980 0.27385
# Poissons Ratio (y) = 0.31085 0.38621
# Poissons Ratio (z) = 0.19101 0.35513
#
# Static dielectric constant tensor:
#      x y z
#    x 3.004540 0.000000 0.000000 
#    y 0.000000 3.168540 0.000000 
#    z 0.000000 0.000000 3.074960 
# 
# 
# High freq. dielectric constant tensor:
#      x y z
#    x 1.647670 0.000000 0.000000 
#    y 0.000000 1.648080 0.000000 
#    z 0.000000 0.000000 1.649480 
# 
# From -- ./inp_files/5131.got.cif
#   From: 2010.03.12/outbox.cif.g09.slc.cpg/sg31_3_cif.got.tgz:5131.got - 2010.04.14 01:42:59.
