data_PCOD8169350
_publ_section_title
;
Structure prediction by ZEFSAII (Michael W. Deem and Ramdas Pophale) SiO2 
 PCOD8169350
Probable space group: P C A 21
;
_chemical_formula_sum "Si O2"
_cell_formula_units_Z 20
_cell_length_a 15.464099
_cell_length_b 5.297556
_cell_length_c 9.995827
_cell_angle_alpha 90.000000
_cell_angle_beta 90.000000
_cell_angle_gamma 90.000000
_cell_volume 818.877444
_symmetry_space_group_name_H-M "P C A 21"
_symmetry_group_IT_number 29
_symmetry_cell_setting 'orthorhombic'
loop_
_space_group_symop_operation_xyz
x,y,z
-x,-y,1/2+z
1/2-x,y,1/2+z
1/2+x,-y,z
loop_
_atom_site_type_symbol
_atom_site_label
_atom_site_fract_x
_atom_site_fract_y
_atom_site_fract_z
Si Si1 0.348385 0.699890 0.197030
Si Si2 0.943984 0.448578 0.949034
Si Si3 0.225362 0.358331 0.348714
Si Si4 0.552829 0.045694 0.913903
Si Si5 0.789745 0.958853 0.591769
O O1 0.312010 0.503132 0.305156
O O2 0.389439 0.933782 0.279373
O O3 0.271244 0.794905 0.100437
O O4 0.422663 0.574407 0.106721
O O5 0.855975 0.453641 0.862427
O O6 0.994341 0.707967 0.927940
O O7 0.997400 0.207369 0.899952
O O8 0.200110 0.150059 0.239914
O O9 0.243100 0.237670 0.493219
O O10 0.615393 0.033743 0.042009
#
# Coordination Sequence:
#
# PCOD8169350 Si02
#       5
#     4   4   4   4   4
#     4  12  28  52  82 112 166 208 282 318 402 490
#     4  12  30  51  78 122 160 208 262 341 404 464
#     4  12  27  53  83 113 157 215 274 323 400 494
#     4  12  30  51  78 122 160 208 262 341 404 464
#     4  12  27  53  83 113 157 215 274 323 400 494
#
# _framework density 24.423677000000001
#
# number of rings (size 3 to 8) (size 9 to 14) (size 15 to 20)
#    0.000    0.000    4.000    3.600    8.400    0.000 
#    0.000    0.000    0.000    0.000    0.000    0.000 
#    0.000    0.000    0.000    0.000    0.000    0.000 
#
# Total GULP energy -248168.583671 kJ/mol
# GULP energy per Si atom -12408.429184 kJ/mol
# Density = 2.436809 g / cm^3
# Si number density = 24.423677 Si / 1000 Ang^3
#
#
#
# Elastic Constant Matrix: (Units=GPa)
#
#
# Indices 1 2 3 4 5 6 
#
# 1 82.3015 31.6327 21.4787 0.0000 0.0000 0.0000
# 2 31.6327 106.6139 14.7956 0.0000 0.0000 0.0000
# 3 21.4787 14.7956 71.4747 0.0000 0.0000 0.0000
# 4 0.0000 0.0000 0.0000 40.9756 0.0000 0.0000
# 5 0.0000 0.0000 0.0000 0.0000 51.1042 0.0000
# 6 0.0000 0.0000 0.0000 0.0000 0.0000 54.1249
#
#
#
# Elastic Compliance Matrix: (Units=1/GPa)
#
#
# Indices 1 2 3 4 5 6 
#
# 1 0.014554 -0.003821 -0.003583 0.000000 0.000000 0.000000
# 2 -0.003821 0.010660 -0.001058 0.000000 0.000000 0.000000
# 3 -0.003583 -0.001058 0.015287 0.000000 0.000000 0.000000
# 4 0.000000 0.000000 0.000000 0.024405 0.000000 0.000000
# 5 0.000000 0.000000 0.000000 0.000000 0.019568 0.000000
# 6 0.000000 0.000000 0.000000 0.000000 0.000000 0.018476
#
#
# Mechanical properties :
#
#
# Convention : Reuss Voigt Hill
#
# Bulk Modulus (GPa) = 42.41477 44.02267 43.21872
# Shear Modulus (GPa) = 39.14429 42.07316 40.60872
#
# Velocity S-wave (km/s) = 4.00774 4.15497 4.08202
# Velocity P-wave (km/s) = 6.23056 6.40953 6.32068
#
# Compressibility (1/GPa) = 0.02357669
#
# Stress axis : x y z
#
# Youngs Moduli (GPa) = 68.70943 93.80647 65.41646
#
# Poissons Ratio (x) = 0.35844 0.23436
# Poissons Ratio (y) = 0.26254 0.06924
# Poissons Ratio (z) = 0.24616 0.09929
#
# Static dielectric constant tensor:
#      x y z
#    x 4.650570 0.000000 0.000000 
#    y 0.000000 4.431400 0.000000 
#    z 0.000000 0.000000 4.442470 
# 
# 
# High freq. dielectric constant tensor:
#      x y z
#    x 1.984610 0.000000 0.000000 
#    y 0.000000 1.977740 0.000000 
#    z 0.000000 0.000000 1.980090 
# 
# From -- ./inp_files/3312.got.cif
#   From: 2010.03.12/outbox.cif.g09.slc.cpg/sg29_2_cif.got.tgz:3312.got - 2010.04.14 03:43:10.
