data_PCOD8169030
_publ_section_title
;
Structure prediction by ZEFSAII (Michael W. Deem and Ramdas Pophale) SiO2 
 PCOD8169030
Probable space group: P C A 21
;
_chemical_formula_sum "Si O2"
_cell_formula_units_Z 28
_cell_length_a 15.421289
_cell_length_b 5.422848
_cell_length_c 14.136616
_cell_angle_alpha 90.000000
_cell_angle_beta 90.000000
_cell_angle_gamma 90.000000
_cell_volume 1182.207115
_symmetry_space_group_name_H-M "P C A 21"
_symmetry_group_IT_number 29
_symmetry_cell_setting 'orthorhombic'
loop_
_space_group_symop_operation_xyz
x,y,z
-x,-y,1/2+z
1/2-x,y,1/2+z
1/2+x,-y,z
loop_
_atom_site_type_symbol
_atom_site_label
_atom_site_fract_x
_atom_site_fract_y
_atom_site_fract_z
Si Si1 0.504288 0.403557 0.436030
Si Si2 0.054865 0.719295 0.633665
Si Si3 0.671848 0.334461 0.926588
Si Si4 0.764406 0.961123 0.284495
Si Si5 0.677907 0.704331 0.441995
Si Si6 0.444221 0.222488 0.247696
Si Si7 0.228300 0.917583 0.582853
O O1 0.497816 0.266249 0.537208
O O2 0.429613 0.608849 0.429008
O O3 0.597896 0.526959 0.429056
O O4 0.496395 0.216559 0.347518
O O5 0.029846 0.469275 0.689763
O O6 0.157244 0.703997 0.604519
O O7 0.035057 0.968376 0.692641
O O8 0.729429 0.572420 0.945357
O O9 0.693049 0.211623 0.825716
O O10 0.694932 0.145820 0.011112
O O11 0.684122 0.878362 0.349267
O O12 0.842135 0.761039 0.274459
O O13 0.725210 0.008175 0.180529
O O14 0.669496 0.862003 0.538156
#
# Coordination Sequence:
#
# PCOD8169030 Si02
#       7
#     4   4   4   4   4   4   4
#     4  12  24  48  76 102 162 186 248 322 364 444
#     4  11  25  46  75 108 146 196 247 304 376 437
#     4  11  24  46  69 107 140 199 247 301 381 435
#     4  10  23  45  74 100 147 193 249 307 371 443
#     4  11  24  46  69 107 140 199 247 301 381 435
#     4  11  25  46  75 108 146 196 247 304 376 437
#     4  10  23  45  74 100 147 193 249 307 371 443
#
# _framework density 23.684514
#
# number of rings (size 3 to 8) (size 9 to 14) (size 15 to 20)
#    0.000    1.143    2.857    3.429    0.000    4.571 
#    5.143    1.429    0.000    0.000    0.000    0.000 
#    0.000    0.000    0.000    0.000    0.000    0.000 
#
# Total GULP energy -347158.049507 kJ/mol
# GULP energy per Si atom -12398.501768 kJ/mol
# Density = 2.363061 g / cm^3
# Si number density = 23.684514 Si / 1000 Ang^3
#
#
#
# Elastic Constant Matrix: (Units=GPa)
#
#
# Indices 1 2 3 4 5 6 
#
# 1 50.9789 21.4367 36.7526 0.0000 0.0000 0.0000
# 2 21.4367 113.2686 58.3428 0.0000 0.0000 0.0000
# 3 36.7526 58.3428 192.1000 0.0000 0.0000 0.0000
# 4 0.0000 0.0000 0.0000 31.1233 0.0000 0.0000
# 5 0.0000 0.0000 0.0000 0.0000 25.1397 0.0000
# 6 0.0000 0.0000 0.0000 0.0000 0.0000 21.2045
#
#
#
# Elastic Compliance Matrix: (Units=1/GPa)
#
#
# Indices 1 2 3 4 5 6 
#
# 1 0.023341 -0.002510 -0.003703 0.000000 0.000000 0.000000
# 2 -0.002510 0.010736 -0.002780 0.000000 0.000000 0.000000
# 3 -0.003703 -0.002780 0.006759 0.000000 0.000000 0.000000
# 4 0.000000 0.000000 0.000000 0.032130 0.000000 0.000000
# 5 0.000000 0.000000 0.000000 0.000000 0.039778 0.000000
# 6 0.000000 0.000000 0.000000 0.000000 0.000000 0.047160
#
#
# Mechanical properties :
#
#
# Convention : Reuss Voigt Hill
#
# Bulk Modulus (GPa) = 43.76698 65.49019 54.62859
# Shear Modulus (GPa) = 26.95320 31.48119 29.21719
#
# Velocity S-wave (km/s) = 3.37710 3.64976 3.51607
# Velocity P-wave (km/s) = 5.80738 6.74330 6.29276
#
# Compressibility (1/GPa) = 0.02284827
#
# Stress axis : x y z
#
# Youngs Moduli (GPa) = 42.84254 93.14716 147.96031
#
# Poissons Ratio (x) = 0.23379 0.54795
# Poissons Ratio (y) = 0.10753 0.41138
# Poissons Ratio (z) = 0.15866 0.25898
#
# Static dielectric constant tensor:
#      x y z
#    x 3.915520 0.000000 0.000000 
#    y 0.000000 4.228800 0.000000 
#    z 0.000000 0.000000 4.841140 
# 
# 
# High freq. dielectric constant tensor:
#      x y z
#    x 1.907410 0.000000 0.000000 
#    y 0.000000 1.936660 0.000000 
#    z 0.000000 0.000000 1.967730 
# 
# From -- ./inp_files/4663.got.cif
#   From: 2010.03.12/outbox.cif.g09.slc.cpg/sg29_3_cif.got.tgz:4663.got - 2010.04.14 03:43:10.
