data_PCOD8169705
_publ_section_title
;
Structure prediction by ZEFSAII (Michael W. Deem and Ramdas Pophale) SiO2 
 PCOD8169705
Probable space group: P M N 21
;
_chemical_formula_sum "Si O2"
_cell_formula_units_Z 32
_cell_length_a 8.960367
_cell_length_b 20.665858
_cell_length_c 9.091658
_cell_angle_alpha 90.000000
_cell_angle_beta 90.000000
_cell_angle_gamma 90.000000
_cell_volume 1683.535697
_symmetry_space_group_name_H-M "P M N 21"
_symmetry_group_IT_number 31
_symmetry_cell_setting 'orthorhombic'
loop_
_space_group_symop_operation_xyz
x,y,z
1/2-x,-y,1/2+z
-x,y,z
1/2+x,-y,1/2+z
loop_
_atom_site_type_symbol
_atom_site_label
_atom_site_fract_x
_atom_site_fract_y
_atom_site_fract_z
Si Si1 0.167445 0.449394 0.106770
Si Si2 0.169316 0.169517 0.110253
Si Si3 0.826369 0.938596 0.111825
Si Si4 0.330590 0.689671 0.642319
Si Si5 0.329345 0.562359 0.951943
Si Si6 0.325749 0.820227 0.954540
Si Si7 0.673003 0.056571 0.955647
Si Si8 0.825689 0.690260 0.942960
O O1 0.190988 0.375538 0.045260
O O2 0.198450 0.447517 0.279926
O O3 0.000000 0.473440 0.072205
O O4 0.283103 0.496730 0.031922
O O5 0.187792 0.243696 0.051134
O O6 0.209013 0.166812 0.283069
O O7 0.000000 0.144970 0.084552
O O8 0.284324 0.126566 0.019375
O O9 0.792953 0.945297 0.283653
O O10 0.000000 0.927844 0.079622
O O11 0.735922 0.878599 0.049860
O O12 0.774085 0.003787 0.034272
O O13 0.500000 0.688406 0.711550
O O14 0.208943 0.689291 0.770216
O O15 0.500000 0.575874 0.988857
O O16 0.237727 0.623951 0.014058
O O17 0.500000 0.814108 0.983039
O O18 0.249759 0.754144 0.012221
O O19 0.500000 0.042561 0.988461
O O20 0.000000 0.693686 0.973033
#
# Coordination Sequence:
#
# PCOD8169705 Si02
#       8
#     4   4   4   4   4   4   4   4
#     4   9  18  33  52  75 104 139 180 225 269 317
#     4   9  18  34  57  82 107 138 176 217 261 314
#     4  11  24  40  57  80 109 141 179 220 262 312
#     4   8  16  32  52  76 107 139 175 220 266 315
#     4  10  20  34  52  76 107 142 180 223 270 319
#     4  10  20  36  58  83 109 138 175 218 265 316
#     4  11  24  39  56  81 111 142 177 219 264 311
#     4  10  18  30  52  79 106 139 178 218 263 316
#
# _framework density 19.007615000000001
#
# number of rings (size 3 to 8) (size 9 to 14) (size 15 to 20)
#    0.000    2.250    0.000    4.875    0.000   10.000 
#    0.000    1.250    0.000    6.000    0.000    0.000 
#    0.000    0.000    0.000    0.000    0.000    0.000 
#
# Total GULP energy -396730.323281 kJ/mol
# GULP energy per Si atom -12397.822603 kJ/mol
# Density = 1.896435 g / cm^3
# Si number density = 19.007615 Si / 1000 Ang^3
#
#
#
# Elastic Constant Matrix: (Units=GPa)
#
#
# Indices 1 2 3 4 5 6 
#
# 1 110.8693 61.8246 43.6481 0.0000 0.0000 0.0000
# 2 61.8246 152.8377 41.7176 0.0000 0.0000 0.0000
# 3 43.6481 41.7176 52.1024 0.0000 0.0000 0.0000
# 4 0.0000 0.0000 0.0000 28.4490 0.0000 0.0000
# 5 0.0000 0.0000 0.0000 0.0000 26.1199 0.0000
# 6 0.0000 0.0000 0.0000 0.0000 0.0000 39.7672
#
#
#
# Elastic Compliance Matrix: (Units=1/GPa)
#
#
# Indices 1 2 3 4 5 6 
#
# 1 0.014651 -0.003297 -0.009634 0.000000 0.000000 0.000000
# 2 -0.003297 0.009115 -0.004536 0.000000 0.000000 0.000000
# 3 -0.009634 -0.004536 0.030896 0.000000 0.000000 0.000000
# 4 0.000000 0.000000 0.000000 0.035151 0.000000 0.000000
# 5 0.000000 0.000000 0.000000 0.000000 0.038285 0.000000
# 6 0.000000 0.000000 0.000000 0.000000 0.000000 0.025146
#
#
# Mechanical properties :
#
#
# Convention : Reuss Voigt Hill
#
# Bulk Modulus (GPa) = 50.69049 67.79888 59.24469
# Shear Modulus (GPa) = 25.67366 30.10847 27.89106
#
# Velocity S-wave (km/s) = 3.67918 3.98429 3.83477
# Velocity P-wave (km/s) = 6.69140 7.54406 7.13049
#
# Compressibility (1/GPa) = 0.01972757
#
# Stress axis : x y z
#
# Youngs Moduli (GPa) = 68.25580 109.71365 32.36717
#
# Poissons Ratio (x) = 0.36171 0.31182
# Poissons Ratio (y) = 0.22503 0.14682
# Poissons Ratio (z) = 0.65756 0.49767
#
# Static dielectric constant tensor:
#      x y z
#    x 3.469820 0.000000 0.000000 
#    y 0.000000 3.906840 0.000000 
#    z 0.000000 0.000000 3.098770 
# 
# 
# High freq. dielectric constant tensor:
#      x y z
#    x 1.745390 0.000000 0.000000 
#    y 0.000000 1.764890 0.000000 
#    z 0.000000 0.000000 1.694320 
# 
# From -- ./inp_files/1856.got.cif
#   From: 2010.03.12/outbox.cif.g09.slc.cpg/sg31_1_cif.got.tgz:1856.got - 2010.04.14 01:42:59.
