data_PCOD8169153
_publ_section_title
;
Structure prediction by ZEFSAII (Michael W. Deem and Ramdas Pophale) SiO2 
 PCOD8169153
Probable space group: P C A 21
;
_chemical_formula_sum "Si O2"
_cell_formula_units_Z 32
_cell_length_a 19.487972
_cell_length_b 5.119949
_cell_length_c 15.865637
_cell_angle_alpha 90.000000
_cell_angle_beta 90.000000
_cell_angle_gamma 90.000000
_cell_volume 1583.032370
_symmetry_space_group_name_H-M "P C A 21"
_symmetry_group_IT_number 29
_symmetry_cell_setting 'orthorhombic'
loop_
_space_group_symop_operation_xyz
x,y,z
-x,-y,1/2+z
1/2-x,y,1/2+z
1/2+x,-y,z
loop_
_atom_site_type_symbol
_atom_site_label
_atom_site_fract_x
_atom_site_fract_y
_atom_site_fract_z
Si Si1 0.398170 0.489023 0.723500
Si Si2 0.437987 0.968332 0.020002
Si Si3 0.698322 0.013656 0.004720
Si Si4 0.731202 0.509552 0.912469
Si Si5 0.108394 0.470511 0.421992
Si Si6 0.762218 0.488569 0.218785
Si Si7 0.428636 0.982202 0.624024
Si Si8 0.686041 0.992996 0.630868
O O1 0.408655 0.494535 0.823495
O O2 0.318305 0.506994 0.698577
O O3 0.431346 0.229088 0.685711
O O4 0.439099 0.729971 0.682806
O O5 0.515671 0.002741 0.050213
O O6 0.393268 0.978810 0.105666
O O7 0.417549 0.191877 0.954105
O O8 0.431446 0.693176 0.972811
O O9 0.772987 0.046723 0.045264
O O10 0.644160 0.039379 0.078841
O O11 0.692546 0.242172 0.935747
O O12 0.690170 0.736935 0.959581
O O13 0.810688 0.504229 0.939039
O O14 0.723464 0.562933 0.814328
O O15 0.792911 0.202173 0.201731
O O16 0.800239 0.699637 0.161401
#
# Coordination Sequence:
#
# PCOD8169153 Si02
#       8
#     4   4   4   4   4   4   4   4
#     4  11  22  41  65  90 120 159 205 250 300 361
#     4  12  25  41  61  93 124 162 204 243 299 365
#     4  12  21  39  63  89 122 155 200 253 304 347
#     4  11  22  38  63  95 120 155 205 256 304 351
#     4  11  22  41  65  90 120 159 205 250 300 361
#     4  11  22  38  63  95 120 155 205 256 304 351
#     4  12  25  41  61  93 124 162 204 243 299 365
#     4  12  21  39  63  89 122 155 200 253 304 347
#
# _framework density 20.214368
#
# number of rings (size 3 to 8) (size 9 to 14) (size 15 to 20)
#    0.000    0.500    5.000    4.500    0.000    4.000 
#    0.000    7.500    0.000    0.000    0.000    0.000 
#    0.000    0.000    0.000    0.000    0.000    0.000 
#
# Total GULP energy -397014.918845 kJ/mol
# GULP energy per Si atom -12406.716214 kJ/mol
# Density = 2.016836 g / cm^3
# Si number density = 20.214368 Si / 1000 Ang^3
#
#
#
# Elastic Constant Matrix: (Units=GPa)
#
#
# Indices 1 2 3 4 5 6 
#
# 1 37.1431 20.4571 25.1717 0.0000 0.0000 0.0000
# 2 20.4571 109.2543 32.5822 0.0000 0.0000 0.0000
# 3 25.1717 32.5822 86.9887 0.0000 0.0000 0.0000
# 4 0.0000 0.0000 0.0000 40.2649 0.0000 0.0000
# 5 0.0000 0.0000 0.0000 0.0000 26.0566 0.0000
# 6 0.0000 0.0000 0.0000 0.0000 0.0000 17.1363
#
#
#
# Elastic Compliance Matrix: (Units=1/GPa)
#
#
# Indices 1 2 3 4 5 6 
#
# 1 0.034958 -0.003973 -0.008628 0.000000 0.000000 0.000000
# 2 -0.003973 0.010755 -0.002879 0.000000 0.000000 0.000000
# 3 -0.008628 -0.002879 0.015071 0.000000 0.000000 0.000000
# 4 0.000000 0.000000 0.000000 0.024836 0.000000 0.000000
# 5 0.000000 0.000000 0.000000 0.000000 0.038378 0.000000
# 6 0.000000 0.000000 0.000000 0.000000 0.000000 0.058356
#
#
# Mechanical properties :
#
#
# Convention : Reuss Voigt Hill
#
# Bulk Modulus (GPa) = 33.52854 43.31199 38.42027
# Shear Modulus (GPa) = 22.39608 27.03657 24.71633
#
# Velocity S-wave (km/s) = 3.33217 3.66114 3.50052
# Velocity P-wave (km/s) = 5.60597 6.27254 5.94860
#
# Compressibility (1/GPa) = 0.02982534
#
# Stress axis : x y z
#
# Youngs Moduli (GPa) = 28.60590 92.97677 66.35418
#
# Poissons Ratio (x) = 0.36936 0.57248
# Poissons Ratio (y) = 0.11364 0.19103
# Poissons Ratio (z) = 0.24680 0.26767
#
# Static dielectric constant tensor:
#      x y z
#    x 3.450020 0.000000 0.000000 
#    y 0.000000 3.831670 0.000000 
#    z 0.000000 0.000000 3.639700 
# 
# 
# High freq. dielectric constant tensor:
#      x y z
#    x 1.763730 0.000000 0.000000 
#    y 0.000000 1.811240 0.000000 
#    z 0.000000 0.000000 1.799710 
# 
# From -- ./inp_files/1821.got.cif
#   From: 2010.03.12/outbox.cif.g09.slc.cpg/sg29_1_cif.got.tgz:1821.got - 2010.04.14 03:43:10.
