data_PCOD8169178
_publ_section_title
;
Structure prediction by ZEFSAII (Michael W. Deem and Ramdas Pophale) SiO2 
 PCOD8169178
Probable space group: P C A 21
;
_chemical_formula_sum "Si O2"
_cell_formula_units_Z 32
_cell_length_a 14.132097
_cell_length_b 6.561864
_cell_length_c 16.773124
_cell_angle_alpha 90.000000
_cell_angle_beta 90.000000
_cell_angle_gamma 90.000000
_cell_volume 1555.420406
_symmetry_space_group_name_H-M "P C A 21"
_symmetry_group_IT_number 29
_symmetry_cell_setting 'orthorhombic'
loop_
_space_group_symop_operation_xyz
x,y,z
-x,-y,1/2+z
1/2-x,y,1/2+z
1/2+x,-y,z
loop_
_atom_site_type_symbol
_atom_site_label
_atom_site_fract_x
_atom_site_fract_y
_atom_site_fract_z
Si Si1 0.769615 0.046618 0.439170
Si Si2 0.928414 0.912454 0.928630
Si Si3 0.730385 0.046618 0.625948
Si Si4 0.428414 0.087546 0.636488
Si Si5 0.570357 0.753641 0.969246
Si Si6 0.570357 0.753641 0.595873
Si Si7 0.912026 0.354168 0.193458
Si Si8 0.412026 0.645832 0.371660
O O1 0.750000 0.089984 0.532559
O O2 0.814649 0.248353 0.399945
O O3 0.673781 0.977359 0.393120
O O4 0.843210 0.864546 0.425165
O O5 0.999474 0.803378 0.867373
O O6 0.910404 0.753927 0.001253
O O7 0.972369 0.126227 0.957545
O O8 0.685351 0.248353 0.665173
O O9 0.826219 0.977359 0.671998
O O10 0.656790 0.864546 0.639953
O O11 0.410404 0.246073 0.563866
O O12 0.499474 0.196622 0.697746
O O13 0.472369 0.873773 0.607574
O O14 0.561572 0.528437 0.934523
O O15 0.561572 0.528437 0.630595
O O16 0.897721 0.441517 0.282559
#
# Coordination Sequence:
#
# PCOD8169178 Si02
#       8
#     4   4   4   4   4   4   4   4
#     4   9  20  38  60  84 111 149 194 236 279 337
#     4   9  19  38  60  80 109 154 198 231 272 336
#     4   9  20  38  60  84 111 149 194 236 279 337
#     4   9  19  38  60  80 109 154 198 231 272 336
#     4   9  19  36  58  84 113 146 191 238 276 329
#     4   9  19  36  58  84 113 146 191 238 276 329
#     4  11  23  36  56  88 121 149 183 238 296 341
#     4  11  23  36  56  88 121 149 183 238 296 341
#
# _framework density 20.573217
#
# number of rings (size 3 to 8) (size 9 to 14) (size 15 to 20)
#    0.000    2.500    0.000    2.250    0.000   10.000 
#    0.000    2.500    0.000    0.000    0.000    0.000 
#    0.000    0.000    0.000    0.000    0.000    0.000 
#
# Total GULP energy -396631.034119 kJ/mol
# GULP energy per Si atom -12394.719816 kJ/mol
# Density = 2.052639 g / cm^3
# Si number density = 20.573217 Si / 1000 Ang^3
#
#
#
# Elastic Constant Matrix: (Units=GPa)
#
#
# Indices 1 2 3 4 5 6 
#
# 1 139.6874 34.5215 22.2501 0.0000 0.0000 0.0000
# 2 34.5215 93.1189 32.6540 0.0000 0.0000 0.0000
# 3 22.2501 32.6540 64.9264 0.0000 0.0000 0.0000
# 4 0.0000 0.0000 0.0000 14.3017 0.0000 0.0000
# 5 0.0000 0.0000 0.0000 0.0000 16.6618 0.0000
# 6 0.0000 0.0000 0.0000 0.0000 0.0000 21.9205
#
#
#
# Elastic Compliance Matrix: (Units=1/GPa)
#
#
# Indices 1 2 3 4 5 6 
#
# 1 0.008002 -0.002434 -0.001518 0.000000 0.000000 0.000000
# 2 -0.002434 0.013779 -0.006096 0.000000 0.000000 0.000000
# 3 -0.001518 -0.006096 0.018988 0.000000 0.000000 0.000000
# 4 0.000000 0.000000 0.000000 0.069922 0.000000 0.000000
# 5 0.000000 0.000000 0.000000 0.000000 0.060017 0.000000
# 6 0.000000 0.000000 0.000000 0.000000 0.000000 0.045619
#
#
# Mechanical properties :
#
#
# Convention : Reuss Voigt Hill
#
# Bulk Modulus (GPa) = 48.37200 52.95375 50.66288
# Shear Modulus (GPa) = 20.54946 24.46394 22.50670
#
# Velocity S-wave (km/s) = 3.16388 3.45210 3.31113
# Velocity P-wave (km/s) = 6.07536 6.45634 6.26875
#
# Compressibility (1/GPa) = 0.02067312
#
# Stress axis : x y z
#
# Youngs Moduli (GPa) = 124.96503 72.57414 52.66459
#
# Poissons Ratio (x) = 0.17667 0.07995
# Poissons Ratio (y) = 0.30420 0.32103
# Poissons Ratio (z) = 0.18970 0.44240
#
# Static dielectric constant tensor:
#      x y z
#    x 3.958970 0.000000 0.000000 
#    y 0.000000 3.497770 0.000000 
#    z 0.000000 0.000000 3.325730 
# 
# 
# High freq. dielectric constant tensor:
#      x y z
#    x 1.818270 0.000000 0.000000 
#    y 0.000000 1.790000 0.000000 
#    z 0.000000 0.000000 1.771770 
# 
# From -- ./inp_files/5234.got.cif
#   From: 2010.03.12/outbox.cif.g09.slc.cpg/sg29_3_cif.got.tgz:5234.got - 2010.04.14 03:43:10.
