data_PCOD8169341
_publ_section_title
;
Structure prediction by ZEFSAII (Michael W. Deem and Ramdas Pophale) SiO2 
 PCOD8169341
Probable space group: P C A 21
;
_chemical_formula_sum "Si O2"
_cell_formula_units_Z 16
_cell_length_a 23.109399
_cell_length_b 5.974313
_cell_length_c 4.662022
_cell_angle_alpha 90.000000
_cell_angle_beta 90.000000
_cell_angle_gamma 90.000000
_cell_volume 643.651731
_symmetry_space_group_name_H-M "P C A 21"
_symmetry_group_IT_number 29
_symmetry_cell_setting 'orthorhombic'
loop_
_space_group_symop_operation_xyz
x,y,z
-x,-y,1/2+z
1/2-x,y,1/2+z
1/2+x,-y,z
loop_
_atom_site_type_symbol
_atom_site_label
_atom_site_fract_x
_atom_site_fract_y
_atom_site_fract_z
Si Si1 0.378272 0.122481 0.788490
Si Si2 0.869270 0.178653 0.275560
Si Si3 0.710437 0.552332 0.601777
Si Si4 0.039760 0.477498 0.025043
O O1 0.334509 0.270473 0.977740
O O2 0.431882 0.259252 0.664424
O O3 0.347115 0.992806 0.523450
O O4 0.403751 0.949456 0.023156
O O5 0.816914 0.302961 0.106807
O O6 0.910317 0.357730 0.424179
O O7 0.771215 0.581473 0.433783
O O8 0.999063 0.599925 0.256883
#
# Coordination Sequence:
#
# PCOD8169341 Si02
#       4
#     4   4   4   4
#     4  12  26  47  73 104 142 184 234 291 349 416
#     4  12  26  47  73 104 142 184 234 291 349 416
#     4  12  26  46  72 104 142 184 234 290 348 416
#     4  12  26  48  74 104 144 186 234 292 350 416
#
# _framework density 24.858167000000002
#
# number of rings (size 3 to 8) (size 9 to 14) (size 15 to 20)
#    0.000    0.000    0.000   12.000    0.000   10.000 
#    0.000    5.000    0.000    0.000    0.000    0.000 
#    0.000    0.000    0.000    0.000    0.000    0.000 
#
# Total GULP energy -198321.115274 kJ/mol
# GULP energy per Si atom -12395.069705 kJ/mol
# Density = 2.480159 g / cm^3
# Si number density = 24.858167 Si / 1000 Ang^3
#
#
#
# Elastic Constant Matrix: (Units=GPa)
#
#
# Indices 1 2 3 4 5 6 
#
# 1 73.9195 14.1415 26.7726 0.0000 0.0000 0.0000
# 2 14.1415 88.8930 46.2212 0.0000 0.0000 0.0000
# 3 26.7726 46.2212 154.3457 0.0000 0.0000 0.0000
# 4 0.0000 0.0000 0.0000 66.1977 0.0000 0.0000
# 5 0.0000 0.0000 0.0000 0.0000 53.0375 0.0000
# 6 0.0000 0.0000 0.0000 0.0000 0.0000 12.7124
#
#
#
# Elastic Compliance Matrix: (Units=1/GPa)
#
#
# Indices 1 2 3 4 5 6 
#
# 1 0.014540 -0.001186 -0.002167 0.000000 0.000000 0.000000
# 2 -0.001186 0.013421 -0.003813 0.000000 0.000000 0.000000
# 3 -0.002167 -0.003813 0.007997 0.000000 0.000000 0.000000
# 4 0.000000 0.000000 0.000000 0.015106 0.000000 0.000000
# 5 0.000000 0.000000 0.000000 0.000000 0.018855 0.000000
# 6 0.000000 0.000000 0.000000 0.000000 0.000000 0.078663
#
#
# Mechanical properties :
#
#
# Convention : Reuss Voigt Hill
#
# Bulk Modulus (GPa) = 46.24349 54.60321 50.42335
# Shear Modulus (GPa) = 29.39049 41.72438 35.55744
#
# Velocity S-wave (km/s) = 3.44223 4.10139 3.78618
# Velocity P-wave (km/s) = 5.86872 6.66649 6.28029
#
# Compressibility (1/GPa) = 0.02162466
#
# Stress axis : x y z
#
# Youngs Moduli (GPa) = 68.77587 74.51001 125.05047
#
# Poissons Ratio (x) = 0.08840 0.27096
# Poissons Ratio (y) = 0.08160 0.47686
# Poissons Ratio (z) = 0.14902 0.28413
#
# Static dielectric constant tensor:
#      x y z
#    x 4.183750 0.000000 0.000000 
#    y 0.000000 4.652890 0.000000 
#    z 0.000000 0.000000 5.155610 
# 
# 
# High freq. dielectric constant tensor:
#      x y z
#    x 1.969550 0.000000 0.000000 
#    y 0.000000 1.992770 0.000000 
#    z 0.000000 0.000000 2.031020 
# 
# From -- ./inp_files/485.got.cif
#   From: 2010.03.12/outbox.cif.g09.slc.cpg/sg29_1_cif.got.tgz:485.got - 2010.04.14 03:43:10.
