data_PCOD8169636
_publ_section_title
;
Structure prediction by ZEFSAII (Michael W. Deem and Ramdas Pophale) SiO2 
 PCOD8169636
Probable space group: P N C 2
;
_chemical_formula_sum "Si O2"
_cell_formula_units_Z 30
_cell_length_a 8.335792
_cell_length_b 12.055823
_cell_length_c 13.405550
_cell_angle_alpha 90.000000
_cell_angle_beta 90.000000
_cell_angle_gamma 90.000000
_cell_volume 1347.188507
_symmetry_space_group_name_H-M "P N C 2"
_symmetry_group_IT_number 30
_symmetry_cell_setting 'orthorhombic'
loop_
_space_group_symop_operation_xyz
x,y,z
-x,-y,z
-x,1/2+y,1/2+z
x,1/2-y,1/2+z
loop_
_atom_site_type_symbol
_atom_site_label
_atom_site_fract_x
_atom_site_fract_y
_atom_site_fract_z
Si Si1 0.133205 0.414075 0.757820
Si Si2 0.000000 0.500000 0.295412
Si Si3 0.381198 0.916730 0.315120
Si Si4 0.180149 0.318730 0.173581
Si Si5 0.951454 0.874245 0.479656
Si Si6 0.335433 0.931393 0.871438
Si Si7 0.539952 0.204499 0.698289
Si Si8 0.723381 0.274478 0.995937
O O1 0.283726 0.494685 0.750223
O O2 0.141829 0.311704 0.682767
O O3 0.105769 0.357086 0.866515
O O4 0.000000 0.500000 0.723885
O O5 0.957999 0.607330 0.227050
O O6 0.839587 0.490169 0.364662
O O7 0.460451 0.830915 0.237450
O O8 0.284774 0.857214 0.401682
O O9 0.500000 0.000000 0.372419
O O10 0.360045 0.343534 0.212498
O O11 0.191702 0.346707 0.055935
O O12 0.088684 0.788103 0.518828
O O13 0.000000 0.000000 0.495832
O O14 0.344503 0.868360 0.766408
O O15 0.326884 0.848581 0.964860
O O16 0.500000 0.000000 0.889227
O O17 0.607647 0.192718 0.586701
#
# Coordination Sequence:
#
# PCOD8169636 Si02
#       8
#     4   2   4   4   4   4   4   4
#     4  11  24  45  70  96 135 182 231 289 344 410
#     4  12  24  44  72 100 142 186 230 294 352 420
#     4  11  23  44  68  95 131 179 231 281 346 407
#     4  12  25  43  70 105 139 183 236 289 353 420
#     4  11  23  42  67 104 133 179 238 282 344 419
#     4  11  25  48  71 100 142 187 234 289 357 422
#     4  11  26  43  68 100 139 182 232 292 351 414
#     4  11  25  44  68 101 140 181 230 295 348 415
#
# _framework density 22.268599999999999
#
# number of rings (size 3 to 8) (size 9 to 14) (size 15 to 20)
#    0.000    0.800    6.000    1.600    5.600    1.067 
#    2.400    0.000    1.467    0.000    0.000    0.000 
#    0.000    0.000    0.000    0.000    0.000    0.000 
#
# Total GULP energy -371702.761928 kJ/mol
# GULP energy per Si atom -12390.092064 kJ/mol
# Density = 2.221792 g / cm^3
# Si number density = 22.268600 Si / 1000 Ang^3
#
#
#
# Elastic Constant Matrix: (Units=GPa)
#
#
# Indices 1 2 3 4 5 6 
#
# 1 115.3319 25.0836 6.6724 0.0000 0.0000 0.0000
# 2 25.0836 100.2797 20.3507 0.0000 0.0000 0.0000
# 3 6.6724 20.3507 64.5860 0.0000 0.0000 0.0000
# 4 0.0000 0.0000 0.0000 13.3030 0.0000 0.0000
# 5 0.0000 0.0000 0.0000 0.0000 28.5175 0.0000
# 6 0.0000 0.0000 0.0000 0.0000 0.0000 50.0340
#
#
#
# Elastic Compliance Matrix: (Units=1/GPa)
#
#
# Indices 1 2 3 4 5 6 
#
# 1 0.009173 -0.002246 -0.000240 0.000000 0.000000 0.000000
# 2 -0.002246 0.011203 -0.003298 0.000000 0.000000 0.000000
# 3 -0.000240 -0.003298 0.016547 0.000000 0.000000 0.000000
# 4 0.000000 0.000000 0.000000 0.075171 0.000000 0.000000
# 5 0.000000 0.000000 0.000000 0.000000 0.035066 0.000000
# 6 0.000000 0.000000 0.000000 0.000000 0.000000 0.019986
#
#
# Mechanical properties :
#
#
# Convention : Reuss Voigt Hill
#
# Bulk Modulus (GPa) = 39.43893 42.71231 41.07562
# Shear Modulus (GPa) = 26.71417 33.57696 30.14557
#
# Velocity S-wave (km/s) = 3.46733 3.88727 3.68329
# Velocity P-wave (km/s) = 5.81196 6.27455 6.04768
#
# Compressibility (1/GPa) = 0.02535566
#
# Stress axis : x y z
#
# Youngs Moduli (GPa) = 109.01616 89.26055 60.43308
#
# Poissons Ratio (x) = 0.20046 0.01451
# Poissons Ratio (y) = 0.24483 0.19931
# Poissons Ratio (z) = 0.02617 0.29438
#
# Static dielectric constant tensor:
#      x y z
#    x 3.979130 0.000000 0.000000 
#    y 0.000000 4.097670 0.000000 
#    z 0.000000 0.000000 3.799300 
# 
# 
# High freq. dielectric constant tensor:
#      x y z
#    x 1.890240 0.000000 0.000000 
#    y 0.000000 1.884500 0.000000 
#    z 0.000000 0.000000 1.857320 
# 
# From -- ./inp_files/5195.got.cif
#   From: 2010.03.12/outbox.cif.g09.slc.cpg/sg30_3_cif.got.tgz:5195.got - 2010.04.14 01:38:02.
