data_PCOD8169956
_publ_section_title
;
Structure prediction by ZEFSAII (Michael W. Deem and Ramdas Pophale) SiO2 
 PCOD8169956
Probable space group: P M N 21
;
_chemical_formula_sum "Si O2"
_cell_formula_units_Z 24
_cell_length_a 9.226616
_cell_length_b 9.889205
_cell_length_c 13.946591
_cell_angle_alpha 90.000000
_cell_angle_beta 90.000000
_cell_angle_gamma 90.000000
_cell_volume 1272.541314
_symmetry_space_group_name_H-M "P M N 21"
_symmetry_group_IT_number 31
_symmetry_cell_setting 'orthorhombic'
loop_
_space_group_symop_operation_xyz
x,y,z
1/2-x,-y,1/2+z
-x,y,z
1/2+x,-y,1/2+z
loop_
_atom_site_type_symbol
_atom_site_label
_atom_site_fract_x
_atom_site_fract_y
_atom_site_fract_z
Si Si1 0.163829 0.902604 0.729290
Si Si2 0.832400 0.159437 0.855250
Si Si3 0.827679 0.604300 0.257631
Si Si4 0.331704 0.359775 0.348640
Si Si5 0.671650 0.278921 0.555661
Si Si6 0.671399 0.974510 0.551750
O O1 0.195319 0.790399 0.809177
O O2 0.268708 0.884814 0.638984
O O3 0.000000 0.890035 0.692205
O O4 0.192863 0.048609 0.774077
O O5 0.733985 0.287934 0.832705
O O6 0.000000 0.204326 0.860801
O O7 0.777915 0.098404 0.955232
O O8 0.765332 0.459126 0.285549
O O9 0.775011 0.640158 0.149634
O O10 0.000000 0.602310 0.264727
O O11 0.500000 0.402175 0.340263
O O12 0.279533 0.359194 0.459782
O O13 0.500000 0.266046 0.554773
O O14 0.736285 0.126784 0.555649
O O15 0.500000 0.978760 0.558603
#
# Coordination Sequence:
#
# PCOD8169956 Si02
#       6
#     4   4   4   4   4   4
#     4  10  20  35  58  87 114 143 188 241 284 326
#     4  10  20  36  59  85 112 148 192 229 278 346
#     4  11  23  38  58  86 118 148 189 240 287 331
#     4  10  21  40  61  81 114 156 193 229 281 347
#     4   9  18  36  60  81 107 150 192 230 279 338
#     4  10  19  35  60  86 113 151 194 231 279 342
#
# _framework density 18.859898999999999
#
# number of rings (size 3 to 8) (size 9 to 14) (size 15 to 20)
#    0.000    2.000    3.333    0.500    0.000    2.667 
#    0.000    7.500    0.000    0.000    0.000    0.000 
#    0.000    0.000    0.000    0.000    0.000    0.000 
#
# Total GULP energy -297633.170854 kJ/mol
# GULP energy per Si atom -12401.382119 kJ/mol
# Density = 1.881697 g / cm^3
# Si number density = 18.859899 Si / 1000 Ang^3
#
#
#
# Elastic Constant Matrix: (Units=GPa)
#
#
# Indices 1 2 3 4 5 6 
#
# 1 34.2014 17.5114 24.4121 0.0000 0.0000 0.0000
# 2 17.5114 60.7097 13.9968 0.0000 0.0000 0.0000
# 3 24.4121 13.9968 120.9672 0.0000 0.0000 0.0000
# 4 0.0000 0.0000 0.0000 30.1086 0.0000 0.0000
# 5 0.0000 0.0000 0.0000 0.0000 30.7051 0.0000
# 6 0.0000 0.0000 0.0000 0.0000 0.0000 31.7847
#
#
#
# Elastic Compliance Matrix: (Units=1/GPa)
#
#
# Indices 1 2 3 4 5 6 
#
# 1 0.039025 -0.009700 -0.006753 0.000000 0.000000 0.000000
# 2 -0.009700 0.019334 -0.000280 0.000000 0.000000 0.000000
# 3 -0.006753 -0.000280 0.009662 0.000000 0.000000 0.000000
# 4 0.000000 0.000000 0.000000 0.033213 0.000000 0.000000
# 5 0.000000 0.000000 0.000000 0.000000 0.032568 0.000000
# 6 0.000000 0.000000 0.000000 0.000000 0.000000 0.031462
#
#
# Mechanical properties :
#
#
# Convention : Reuss Voigt Hill
#
# Bulk Modulus (GPa) = 28.93842 36.41321 32.67582
# Shear Modulus (GPa) = 23.78149 29.18356 26.48252
#
# Velocity S-wave (km/s) = 3.55485 3.93795 3.75129
# Velocity P-wave (km/s) = 5.67683 6.32659 6.01050
#
# Compressibility (1/GPa) = 0.03455613
#
# Stress axis : x y z
#
# Youngs Moduli (GPa) = 25.62448 51.72204 103.49912
#
# Poissons Ratio (x) = 0.50169 0.69896
# Poissons Ratio (y) = 0.24855 0.02894
# Poissons Ratio (z) = 0.17305 0.01446
#
# Static dielectric constant tensor:
#      x y z
#    x 3.218780 0.000000 0.000000 
#    y 0.000000 3.379350 0.000000 
#    z 0.000000 0.000000 3.627140 
# 
# 
# High freq. dielectric constant tensor:
#      x y z
#    x 1.707660 0.000000 0.000000 
#    y 0.000000 1.729860 0.000000 
#    z 0.000000 0.000000 1.745990 
# 
# From -- ./inp_files/3925.got.cif
#   From: 2010.03.12/outbox.cif.g09.slc.cpg/sg31_2_cif.got.tgz:3925.got - 2010.04.14 01:42:59.
