data_PCOD8169836
_publ_section_title
;
Structure prediction by ZEFSAII (Michael W. Deem and Ramdas Pophale) SiO2 
 PCOD8169836
Probable space group: P M N 21
;
_chemical_formula_sum "Si O2"
_cell_formula_units_Z 32
_cell_length_a 8.659745
_cell_length_b 14.704651
_cell_length_c 12.590535
_cell_angle_alpha 90.000000
_cell_angle_beta 90.000000
_cell_angle_gamma 90.000000
_cell_volume 1603.260193
_symmetry_space_group_name_H-M "P M N 21"
_symmetry_group_IT_number 31
_symmetry_cell_setting 'orthorhombic'
loop_
_space_group_symop_operation_xyz
x,y,z
1/2-x,-y,1/2+z
-x,y,z
1/2+x,-y,1/2+z
loop_
_atom_site_type_symbol
_atom_site_label
_atom_site_fract_x
_atom_site_fract_y
_atom_site_fract_z
Si Si1 0.173776 0.641445 0.715380
Si Si2 0.177280 0.056436 0.131434
Si Si3 0.182645 0.747718 0.017117
Si Si4 0.821293 0.366360 0.001762
Si Si5 0.182236 0.824445 0.443111
Si Si6 0.182069 0.866497 0.209551
Si Si7 0.676654 0.808437 0.815823
Si Si8 0.176665 0.557021 0.932229
O O1 0.303037 0.624918 0.627782
O O2 0.202197 0.738972 0.766019
O O3 0.194057 0.566183 0.806053
O O4 0.000000 0.639503 0.667971
O O5 0.194246 0.099941 0.248559
O O6 0.000000 0.054174 0.095246
O O7 0.247682 0.955554 0.148238
O O8 0.263040 0.111214 0.038707
O O9 0.269497 0.818949 0.938322
O O10 0.246748 0.644790 0.995087
O O11 0.000000 0.752382 0.994252
O O12 0.221938 0.777970 0.137604
O O13 0.730391 0.279583 0.959425
O O14 0.745091 0.459987 0.957806
O O15 0.000000 0.354623 0.971256
O O16 0.251254 0.855575 0.328431
O O17 0.000000 0.829081 0.440617
O O18 0.000000 0.879655 0.219781
O O19 0.500000 0.773151 0.811036
O O20 0.000000 0.550009 0.968662
#
# Coordination Sequence:
#
# PCOD8169836 Si02
#       8
#     4   4   4   4   4   4   4   4
#     4  10  19  35  56  80 109 145 194 240 283 339
#     4  10  21  38  58  82 115 150 186 235 294 343
#     4   9  18  37  60  81 112 152 197 238 285 343
#     4  11  21  36  57  83 117 153 190 239 297 345
#     4  11  23  39  60  87 117 151 196 241 288 348
#     4   9  21  39  59  84 117 156 192 239 292 344
#     4  10  19  32  55  82 111 144 185 238 291 337
#     4   8  18  34  55  81 110 149 192 236 284 339
#
# _framework density 19.959330000000001
#
# number of rings (size 3 to 8) (size 9 to 14) (size 15 to 20)
#    0.000    2.250    1.250    2.250    1.750    1.500 
#    0.000   10.000    0.000    0.000    0.000    0.000 
#    0.000    0.000    0.000    0.000    0.000    0.000 
#
# Total GULP energy -396575.457517 kJ/mol
# GULP energy per Si atom -12392.983047 kJ/mol
# Density = 1.991390 g / cm^3
# Si number density = 19.959330 Si / 1000 Ang^3
#
#
#
# Elastic Constant Matrix: (Units=GPa)
#
#
# Indices 1 2 3 4 5 6 
#
# 1 43.2469 23.9598 28.2357 0.0000 0.0000 0.0000
# 2 23.9598 133.7977 66.9136 0.0000 0.0000 0.0000
# 3 28.2357 66.9136 125.6375 0.0000 0.0000 0.0000
# 4 0.0000 0.0000 0.0000 18.1378 0.0000 0.0000
# 5 0.0000 0.0000 0.0000 0.0000 24.3073 0.0000
# 6 0.0000 0.0000 0.0000 0.0000 0.0000 14.6433
#
#
#
# Elastic Compliance Matrix: (Units=1/GPa)
#
#
# Indices 1 2 3 4 5 6 
#
# 1 0.027708 -0.002518 -0.004886 0.000000 0.000000 0.000000
# 2 -0.002518 0.010416 -0.004982 0.000000 0.000000 0.000000
# 3 -0.004886 -0.004982 0.011711 0.000000 0.000000 0.000000
# 4 0.000000 0.000000 0.000000 0.055133 0.000000 0.000000
# 5 0.000000 0.000000 0.000000 0.000000 0.041140 0.000000
# 6 0.000000 0.000000 0.000000 0.000000 0.000000 0.068291
#
#
# Mechanical properties :
#
#
# Convention : Reuss Voigt Hill
#
# Bulk Modulus (GPa) = 39.89882 60.10002 49.99942
# Shear Modulus (GPa) = 20.19994 23.65589 21.92792
#
# Velocity S-wave (km/s) = 3.18473 3.44642 3.31815
# Velocity P-wave (km/s) = 5.79282 6.78334 6.30755
#
# Compressibility (1/GPa) = 0.02506340
#
# Stress axis : x y z
#
# Youngs Moduli (GPa) = 36.09032 96.00305 85.39233
#
# Poissons Ratio (x) = 0.24177 0.41721
# Poissons Ratio (y) = 0.09089 0.42540
# Poissons Ratio (z) = 0.17633 0.47826
#
# Static dielectric constant tensor:
#      x y z
#    x 3.394510 0.000000 0.000000 
#    y 0.000000 3.775610 0.000000 
#    z 0.000000 0.000000 3.941850 
# 
# 
# High freq. dielectric constant tensor:
#      x y z
#    x 1.752420 0.000000 0.000000 
#    y 0.000000 1.778180 0.000000 
#    z 0.000000 0.000000 1.782910 
# 
# From -- ./inp_files/3707.got.cif
#   From: 2010.03.12/outbox.cif.g09.slc.cpg/sg31_2_cif.got.tgz:3707.got - 2010.04.14 01:42:59.
