data_PCOD8169538
_publ_section_title
;
Structure prediction by ZEFSAII (Michael W. Deem and Ramdas Pophale) SiO2 
 PCOD8169538
Probable space group: P N C 2
;
_chemical_formula_sum "Si O2"
_cell_formula_units_Z 22
_cell_length_a 15.839239
_cell_length_b 11.071705
_cell_length_c 4.841472
_cell_angle_alpha 90.000000
_cell_angle_beta 90.000000
_cell_angle_gamma 90.000000
_cell_volume 849.036268
_symmetry_space_group_name_H-M "P N C 2"
_symmetry_group_IT_number 30
_symmetry_cell_setting 'orthorhombic'
loop_
_space_group_symop_operation_xyz
x,y,z
-x,-y,z
-x,1/2+y,1/2+z
x,1/2-y,1/2+z
loop_
_atom_site_type_symbol
_atom_site_label
_atom_site_fract_x
_atom_site_fract_y
_atom_site_fract_z
Si Si1 0.273312 0.494067 0.672710
Si Si2 0.579544 0.333299 0.655515
Si Si3 0.593826 0.673867 0.472838
Si Si4 0.000000 0.000000 0.211310
Si Si5 0.134801 0.834350 0.951398
Si Si6 0.858941 0.663846 0.951895
O O1 0.352474 0.572718 0.775510
O O2 0.315587 0.389277 0.493257
O O3 0.215676 0.580736 0.486762
O O4 0.219680 0.427896 0.912241
O O5 0.590914 0.284028 0.345340
O O6 0.486099 0.395292 0.616497
O O7 0.590170 0.699467 0.145330
O O8 0.943026 0.915153 0.406049
O O9 0.052130 0.912924 0.008804
O O10 0.136403 0.713229 0.138247
O O11 0.857216 0.783856 0.760467
#
# Coordination Sequence:
#
# PCOD8169538 Si02
#       6
#     4   4   4   2   4   4
#     4  11  23  39  63  88 120 162 195 241 303 351
#     4  10  22  39  59  86 119 156 202 249 291 346
#     4  10  22  39  59  86 119 156 202 249 291 346
#     4  10  24  42  70  88 118 162 194 238 300 350
#     4  11  25  42  62  92 123 153 197 245 291 353
#     4  11  25  42  62  92 123 153 197 245 291 353
#
# _framework density 25.911729999999999
#
# number of rings (size 3 to 8) (size 9 to 14) (size 15 to 20)
#    0.000    1.455    0.000    3.818    0.000   11.636 
#    0.000    5.455    0.000    0.000    0.000    0.000 
#    0.000    0.000    0.000    0.000    0.000    0.000 
#
# Total GULP energy -272547.016921 kJ/mol
# GULP energy per Si atom -12388.500769 kJ/mol
# Density = 2.585275 g / cm^3
# Si number density = 25.911730 Si / 1000 Ang^3
#
#
#
# Elastic Constant Matrix: (Units=GPa)
#
#
# Indices 1 2 3 4 5 6 
#
# 1 151.8829 37.4140 -4.4076 0.0000 0.0000 0.0000
# 2 37.4140 92.0375 5.0030 0.0000 0.0000 0.0000
# 3 -4.4076 5.0030 56.1489 0.0000 0.0000 0.0000
# 4 0.0000 0.0000 0.0000 4.4392 0.0000 0.0000
# 5 0.0000 0.0000 0.0000 0.0000 13.9144 0.0000
# 6 0.0000 0.0000 0.0000 0.0000 0.0000 66.6122
#
#
#
# Elastic Compliance Matrix: (Units=1/GPa)
#
#
# Indices 1 2 3 4 5 6 
#
# 1 0.007357 -0.003037 0.000848 0.000000 0.000000 0.000000
# 2 -0.003037 0.012171 -0.001323 0.000000 0.000000 0.000000
# 3 0.000848 -0.001323 0.017994 0.000000 0.000000 0.000000
# 4 0.000000 0.000000 0.000000 0.225266 0.000000 0.000000
# 5 0.000000 0.000000 0.000000 0.000000 0.071868 0.000000
# 6 0.000000 0.000000 0.000000 0.000000 0.000000 0.015012
#
#
# Mechanical properties :
#
#
# Convention : Reuss Voigt Hill
#
# Bulk Modulus (GPa) = 32.78750 41.78758 37.28754
# Shear Modulus (GPa) = 13.62925 34.46381 24.04653
#
# Velocity S-wave (km/s) = 2.29593 3.65094 3.04964
# Velocity P-wave (km/s) = 4.43953 5.82532 5.17898
#
# Compressibility (1/GPa) = 0.03049942
#
# Stress axis : x y z
#
# Youngs Moduli (GPa) = 135.93123 82.15932 55.57336
#
# Poissons Ratio (x) = 0.24949 -0.04713
# Poissons Ratio (y) = 0.41277 0.07352
# Poissons Ratio (z) = -0.11528 0.10869
#
# Static dielectric constant tensor:
#      x y z
#    x 5.159380 0.000000 0.000000 
#    y 0.000000 4.740400 0.000000 
#    z 0.000000 0.000000 4.146350 
# 
# 
# High freq. dielectric constant tensor:
#      x y z
#    x 2.060330 0.000000 0.000000 
#    y 0.000000 2.044710 0.000000 
#    z 0.000000 0.000000 2.013160 
# 
# From -- ./inp_files/890.got.cif
#   From: 2010.03.12/outbox.cif.g09.slc.cpg/sg30_1_cif.got.tgz:890.got - 2010.04.14 01:38:02.
