data_PCOD8169305
_publ_section_title
;
Structure prediction by ZEFSAII (Michael W. Deem and Ramdas Pophale) SiO2 
 PCOD8169305
Probable space group: P C A 21
;
_chemical_formula_sum "Si O2"
_cell_formula_units_Z 32
_cell_length_a 22.139925
_cell_length_b 7.746708
_cell_length_c 8.764566
_cell_angle_alpha 90.000000
_cell_angle_beta 90.000000
_cell_angle_gamma 90.000000
_cell_volume 1503.224161
_symmetry_space_group_name_H-M "P C A 21"
_symmetry_group_IT_number 29
_symmetry_cell_setting 'orthorhombic'
loop_
_space_group_symop_operation_xyz
x,y,z
-x,-y,1/2+z
1/2-x,y,1/2+z
1/2+x,-y,z
loop_
_atom_site_type_symbol
_atom_site_label
_atom_site_fract_x
_atom_site_fract_y
_atom_site_fract_z
Si Si1 0.219236 0.364329 0.725480
Si Si2 0.682232 0.099174 0.447131
Si Si3 0.676840 0.486444 0.430486
Si Si4 0.008663 0.305609 0.096176
Si Si5 0.049935 0.374988 0.428596
Si Si6 0.713399 0.961389 0.122560
Si Si7 0.616633 0.823882 0.911919
Si Si8 0.566965 0.961291 0.611023
O O1 0.266684 0.461861 0.829351
O O2 0.191127 0.501778 0.609592
O O3 0.250260 0.218580 0.620378
O O4 0.164375 0.296084 0.826554
O O5 0.660057 0.288030 0.399906
O O6 0.696634 0.995123 0.295390
O O7 0.742590 0.106783 0.551328
O O8 0.631447 0.995266 0.536331
O O9 0.620572 0.607590 0.387206
O O10 0.013248 0.354475 0.273076
O O11 0.073824 0.295719 0.015691
O O12 0.977416 0.119739 0.081411
O O13 0.969644 0.452598 0.015900
O O14 0.037902 0.209424 0.535610
O O15 0.652815 0.955196 0.021321
O O16 0.576456 0.931607 0.791599
#
# Coordination Sequence:
#
# PCOD8169305 Si02
#       8
#     4   4   4   4   4   4   4   4
#     4  12  22  41  71  97 138 181 231 286 361 427
#     4  12  23  42  67 103 147 178 237 290 355 433
#     4  12  25  43  68 105 143 183 231 293 361 426
#     4  12  28  48  72 105 141 190 256 291 362 429
#     4  12  26  49  74 101 150 188 241 309 354 429
#     4  12  22  43  68 104 138 189 231 289 361 434
#     4  12  24  43  76 101 139 192 242 292 364 428
#     4  12  24  49  72 102 140 193 237 306 352 426
#
# _framework density 21.287576999999999
#
# number of rings (size 3 to 8) (size 9 to 14) (size 15 to 20)
#    0.000    0.000    6.250    4.500    0.000    0.000 
#    4.500    0.000    0.000    0.000    0.000    0.000 
#    0.000    0.000    0.000    0.000    0.000    0.000 
#
# Total GULP energy -397027.882450 kJ/mol
# GULP energy per Si atom -12407.121327 kJ/mol
# Density = 2.123913 g / cm^3
# Si number density = 21.287577 Si / 1000 Ang^3
#
#
#
# Elastic Constant Matrix: (Units=GPa)
#
#
# Indices 1 2 3 4 5 6 
#
# 1 85.5592 28.3874 37.1708 0.0000 0.0000 0.0000
# 2 28.3874 105.7715 20.2503 0.0000 0.0000 0.0000
# 3 37.1708 20.2503 108.0284 0.0000 0.0000 0.0000
# 4 0.0000 0.0000 0.0000 25.3955 0.0000 0.0000
# 5 0.0000 0.0000 0.0000 0.0000 30.6441 0.0000
# 6 0.0000 0.0000 0.0000 0.0000 0.0000 32.4121
#
#
#
# Elastic Compliance Matrix: (Units=1/GPa)
#
#
# Indices 1 2 3 4 5 6 
#
# 1 0.014648 -0.003077 -0.004463 0.000000 0.000000 0.000000
# 2 -0.003077 0.010453 -0.000901 0.000000 0.000000 0.000000
# 3 -0.004463 -0.000901 0.010961 0.000000 0.000000 0.000000
# 4 0.000000 0.000000 0.000000 0.039377 0.000000 0.000000
# 5 0.000000 0.000000 0.000000 0.000000 0.032633 0.000000
# 6 0.000000 0.000000 0.000000 0.000000 0.000000 0.030853
#
#
# Mechanical properties :
#
#
# Convention : Reuss Voigt Hill
#
# Bulk Modulus (GPa) = 52.13708 52.33067 52.23387
# Shear Modulus (GPa) = 30.82637 31.92705 31.37671
#
# Velocity S-wave (km/s) = 3.80951 3.87692 3.84336
# Velocity P-wave (km/s) = 6.62531 6.68407 6.65476
#
# Compressibility (1/GPa) = 0.01918021
#
# Stress axis : x y z
#
# Youngs Moduli (GPa) = 68.27027 95.67071 91.22914
#
# Poissons Ratio (x) = 0.29435 0.40718
# Poissons Ratio (y) = 0.21005 0.08217
# Poissons Ratio (z) = 0.30471 0.08617
#
# Static dielectric constant tensor:
#      x y z
#    x 4.062930 0.000000 0.000000 
#    y 0.000000 3.753400 0.000000 
#    z 0.000000 0.000000 4.012900 
# 
# 
# High freq. dielectric constant tensor:
#      x y z
#    x 1.841660 0.000000 0.000000 
#    y 0.000000 1.831590 0.000000 
#    z 0.000000 0.000000 1.852280 
# 
# From -- ./inp_files/2262.got.cif
#   From: 2010.03.12/outbox.cif.g09.slc.cpg/sg29_2_cif.got.tgz:2262.got - 2010.04.14 03:43:10.
