data_PCOD8169823
_publ_section_title
;
Structure prediction by ZEFSAII (Michael W. Deem and Ramdas Pophale) SiO2 
 PCOD8169823
Probable space group: P M N 21
;
_chemical_formula_sum "Si O2"
_cell_formula_units_Z 32
_cell_length_a 9.209518
_cell_length_b 18.859530
_cell_length_c 10.347811
_cell_angle_alpha 90.000000
_cell_angle_beta 90.000000
_cell_angle_gamma 90.000000
_cell_volume 1797.282122
_symmetry_space_group_name_H-M "P M N 21"
_symmetry_group_IT_number 31
_symmetry_cell_setting 'orthorhombic'
loop_
_space_group_symop_operation_xyz
x,y,z
1/2-x,-y,1/2+z
-x,y,z
1/2+x,-y,1/2+z
loop_
_atom_site_type_symbol
_atom_site_label
_atom_site_fract_x
_atom_site_fract_y
_atom_site_fract_z
Si Si1 0.329552 0.844662 0.933450
Si Si2 0.169588 0.711951 0.538825
Si Si3 0.167991 0.293246 0.299247
Si Si4 0.169053 0.161742 0.938082
Si Si5 0.169128 0.454218 0.301393
Si Si6 0.329524 0.930713 0.687789
Si Si7 0.827606 0.078741 0.685587
Si Si8 0.169659 0.549701 0.537503
O O1 0.500000 0.854905 0.934537
O O2 0.290990 0.761318 0.914209
O O3 0.268486 0.891502 0.815123
O O4 0.266895 0.872095 0.069137
O O5 0.234833 0.728327 0.678563
O O6 0.244660 0.763894 0.435546
O O7 0.203475 0.630879 0.500397
O O8 0.000000 0.727600 0.542316
O O9 0.199761 0.373220 0.344457
O O10 0.000000 0.283710 0.257591
O O11 0.223043 0.115217 0.817759
O O12 0.000000 0.179855 0.926342
O O13 0.206496 0.118901 0.066828
O O14 0.227767 0.502714 0.418195
O O15 0.250458 0.473411 0.168877
O O16 0.000000 0.468093 0.276584
O O17 0.500000 0.947168 0.696060
O O18 0.244144 0.002934 0.670739
O O19 0.000000 0.069161 0.681070
O O20 0.000000 0.536900 0.561374
#
# Coordination Sequence:
#
# PCOD8169823 Si02
#       8
#     4   4   4   4   4   4   4   4
#     4   9  17  32  52  72  98 128 161 205 251 289
#     4  10  19  32  53  76 103 136 171 210 250 296
#     4   9  16  32  56  75  97 132 174 210 248 298
#     4  10  20  35  52  74 103 132 169 212 249 295
#     4   9  18  33  55  79 104 138 175 212 256 310
#     4  10  19  33  53  71  96 133 166 205 253 300
#     4  10  21  34  49  74 103 129 162 209 254 298
#     4   9  19  35  52  79 112 136 170 217 259 304
#
# _framework density 17.804660999999999
#
# number of rings (size 3 to 8) (size 9 to 14) (size 15 to 20)
#    0.000    2.500    1.250    1.125    0.000    2.000 
#    2.250    0.625    0.000    0.000    0.000    0.000 
#    0.000    0.000    0.000    0.000    0.000    0.000 
#
# Total GULP energy -396788.506902 kJ/mol
# GULP energy per Si atom -12399.640841 kJ/mol
# Density = 1.776414 g / cm^3
# Si number density = 17.804661 Si / 1000 Ang^3
#
#
#
# Elastic Constant Matrix: (Units=GPa)
#
#
# Indices 1 2 3 4 5 6 
#
# 1 43.6061 43.0844 36.4370 0.0000 0.0000 0.0000
# 2 43.0844 116.7374 57.5112 0.0000 0.0000 0.0000
# 3 36.4370 57.5112 102.8994 0.0000 0.0000 0.0000
# 4 0.0000 0.0000 0.0000 28.5856 0.0000 0.0000
# 5 0.0000 0.0000 0.0000 0.0000 17.4814 0.0000
# 6 0.0000 0.0000 0.0000 0.0000 0.0000 27.9742
#
#
#
# Elastic Compliance Matrix: (Units=1/GPa)
#
#
# Indices 1 2 3 4 5 6 
#
# 1 0.040647 -0.010917 -0.008292 0.000000 0.000000 0.000000
# 2 -0.010917 0.014753 -0.004380 0.000000 0.000000 0.000000
# 3 -0.008292 -0.004380 0.015102 0.000000 0.000000 0.000000
# 4 0.000000 0.000000 0.000000 0.034983 0.000000 0.000000
# 5 0.000000 0.000000 0.000000 0.000000 0.057204 0.000000
# 6 0.000000 0.000000 0.000000 0.000000 0.000000 0.035747
#
#
# Mechanical properties :
#
#
# Convention : Reuss Voigt Hill
#
# Bulk Modulus (GPa) = 42.87120 59.70089 51.28604
# Shear Modulus (GPa) = 19.73251 23.22226 21.47738
#
# Velocity S-wave (km/s) = 3.33269 3.61540 3.47692
# Velocity P-wave (km/s) = 6.24019 7.14367 6.70716
#
# Compressibility (1/GPa) = 0.02332568
#
# Stress axis : x y z
#
# Youngs Moduli (GPa) = 24.60180 67.78237 66.21454
#
# Poissons Ratio (x) = 0.73996 0.54905
# Poissons Ratio (y) = 0.26857 0.29002
# Poissons Ratio (z) = 0.20400 0.29688
#
# Static dielectric constant tensor:
#      x y z
#    x 3.135150 0.000000 0.000000 
#    y 0.000000 3.441930 0.000000 
#    z 0.000000 0.000000 3.467660 
# 
# 
# High freq. dielectric constant tensor:
#      x y z
#    x 1.670480 0.000000 0.000000 
#    y 0.000000 1.699280 0.000000 
#    z 0.000000 0.000000 1.682440 
# 
# From -- ./inp_files/3777.got.cif
#   From: 2010.03.12/outbox.cif.g09.slc.cpg/sg31_2_cif.got.tgz:3777.got - 2010.04.14 01:42:59.
