data_PCOD8169109
_publ_section_title
;
Structure prediction by ZEFSAII (Michael W. Deem and Ramdas Pophale) SiO2 
 PCOD8169109
Probable space group: P C A 21
;
_chemical_formula_sum "Si O2"
_cell_formula_units_Z 32
_cell_length_a 14.835272
_cell_length_b 7.547679
_cell_length_c 12.823984
_cell_angle_alpha 90.000000
_cell_angle_beta 90.000000
_cell_angle_gamma 90.000000
_cell_volume 1435.925481
_symmetry_space_group_name_H-M "P C A 21"
_symmetry_group_IT_number 29
_symmetry_cell_setting 'orthorhombic'
loop_
_space_group_symop_operation_xyz
x,y,z
-x,-y,1/2+z
1/2-x,y,1/2+z
1/2+x,-y,z
loop_
_atom_site_type_symbol
_atom_site_label
_atom_site_fract_x
_atom_site_fract_y
_atom_site_fract_z
Si Si1 0.177173 0.933231 0.591370
Si Si2 0.266339 0.217756 0.926959
Si Si3 0.837169 0.954156 0.730099
Si Si4 0.440914 0.301865 0.420675
Si Si5 0.906134 0.373200 0.548606
Si Si6 0.712353 0.405455 0.476105
Si Si7 0.098846 0.678359 0.281831
Si Si8 0.019584 0.011522 0.068747
O O1 0.166139 0.725008 0.560115
O O2 0.077718 0.995938 0.625291
O O3 0.219153 0.039755 0.492946
O O4 0.242964 0.963626 0.688691
O O5 0.318955 0.197080 0.816353
O O6 0.162773 0.257807 0.897280
O O7 0.301954 0.383327 0.997489
O O8 0.901366 0.887958 0.635261
O O9 0.895717 0.110237 0.778627
O O10 0.459927 0.459958 0.503418
O O11 0.496157 0.362085 0.318077
O O12 0.489707 0.125568 0.463914
O O13 0.817123 0.354048 0.478387
O O14 0.882965 0.411088 0.669785
O O15 0.959426 0.190122 0.538385
O O16 0.675872 0.386531 0.359450
#
# Coordination Sequence:
#
# PCOD8169109 Si02
#       8
#     4   4   4   4   4   4   4   4
#     4  12  23  45  69  98 139 186 224 292 354 413
#     4  11  25  41  70  97 135 182 236 285 349 422
#     4  11  24  44  68 103 142 180 231 288 347 425
#     4  11  23  44  68 100 137 180 235 289 349 418
#     4  10  25  45  65  99 144 180 228 297 343 420
#     4  11  22  43  67  97 137 183 224 293 349 408
#     4  11  23  43  69 100 141 179 233 287 354 422
#     4  11  23  41  68  96 137 184 223 281 351 408
#
# _framework density 22.285278999999999
#
# number of rings (size 3 to 8) (size 9 to 14) (size 15 to 20)
#    0.000    1.000    6.250    0.000    7.000    0.000 
#    0.000    5.000    0.000    0.000    0.000    0.000 
#    0.000    0.000    0.000    0.000    0.000    0.000 
#
# Total GULP energy -396621.719353 kJ/mol
# GULP energy per Si atom -12394.428730 kJ/mol
# Density = 2.223456 g / cm^3
# Si number density = 22.285279 Si / 1000 Ang^3
#
#
#
# Elastic Constant Matrix: (Units=GPa)
#
#
# Indices 1 2 3 4 5 6 
#
# 1 122.0120 27.4540 37.4983 0.0000 0.0000 0.0000
# 2 27.4540 101.8707 36.2758 0.0000 0.0000 0.0000
# 3 37.4983 36.2758 69.1581 0.0000 0.0000 0.0000
# 4 0.0000 0.0000 0.0000 32.0093 0.0000 0.0000
# 5 0.0000 0.0000 0.0000 0.0000 37.9832 0.0000
# 6 0.0000 0.0000 0.0000 0.0000 0.0000 24.1518
#
#
#
# Elastic Compliance Matrix: (Units=1/GPa)
#
#
# Indices 1 2 3 4 5 6 
#
# 1 0.009906 -0.000931 -0.004883 0.000000 0.000000 0.000000
# 2 -0.000931 0.012159 -0.005873 0.000000 0.000000 0.000000
# 3 -0.004883 -0.005873 0.020188 0.000000 0.000000 0.000000
# 4 0.000000 0.000000 0.000000 0.031241 0.000000 0.000000
# 5 0.000000 0.000000 0.000000 0.000000 0.026327 0.000000
# 6 0.000000 0.000000 0.000000 0.000000 0.000000 0.041405
#
#
# Mechanical properties :
#
#
# Convention : Reuss Voigt Hill
#
# Bulk Modulus (GPa) = 52.96878 55.05523 54.01200
# Shear Modulus (GPa) = 29.25831 31.61638 30.43735
#
# Velocity S-wave (km/s) = 3.62733 3.77066 3.69969
# Velocity P-wave (km/s) = 6.43144 6.61178 6.52223
#
# Compressibility (1/GPa) = 0.01887905
#
# Stress axis : x y z
#
# Youngs Moduli (GPa) = 100.94848 82.24676 49.53514
#
# Poissons Ratio (x) = 0.07656 0.24187
# Poissons Ratio (y) = 0.09397 0.29091
# Poissons Ratio (z) = 0.49292 0.48302
#
# Static dielectric constant tensor:
#      x y z
#    x 4.117550 0.000000 0.000000 
#    y 0.000000 4.194120 0.000000 
#    z 0.000000 0.000000 4.038390 
# 
# 
# High freq. dielectric constant tensor:
#      x y z
#    x 1.884880 0.000000 0.000000 
#    y 0.000000 1.882190 0.000000 
#    z 0.000000 0.000000 1.859030 
# 
# From -- ./inp_files/3458.got.cif
#   From: 2010.03.12/outbox.cif.g09.slc.cpg/sg29_2_cif.got.tgz:3458.got - 2010.04.14 03:43:10.
