data_PCOD8169648
_publ_section_title
;
Structure prediction by ZEFSAII (Michael W. Deem and Ramdas Pophale) SiO2 
 PCOD8169648
Probable space group: P N C 2
;
_chemical_formula_sum "Si O2"
_cell_formula_units_Z 20
_cell_length_a 15.863649
_cell_length_b 5.157428
_cell_length_c 10.513927
_cell_angle_alpha 90.000000
_cell_angle_beta 90.000000
_cell_angle_gamma 90.000000
_cell_volume 860.203535
_symmetry_space_group_name_H-M "P N C 2"
_symmetry_group_IT_number 30
_symmetry_cell_setting 'orthorhombic'
loop_
_space_group_symop_operation_xyz
x,y,z
-x,-y,z
-x,1/2+y,1/2+z
x,1/2-y,1/2+z
loop_
_atom_site_type_symbol
_atom_site_label
_atom_site_fract_x
_atom_site_fract_y
_atom_site_fract_z
Si Si1 0.164534 0.226727 0.822830
Si Si2 0.056524 0.256156 0.072409
Si Si3 0.404887 0.424180 0.937494
Si Si4 0.275713 0.722165 0.814863
Si Si5 0.404663 0.060073 0.715042
O O1 0.094919 0.207609 0.712745
O O2 0.223061 0.466388 0.779565
O O3 0.212390 0.956097 0.837836
O O4 0.126792 0.266672 0.962796
O O5 0.000000 0.500000 0.042056
O O6 0.000000 0.000000 0.064783
O O7 0.500000 0.500000 0.901827
O O8 0.338288 0.663691 0.935236
O O9 0.368312 0.235046 0.828911
O O10 0.402845 0.297716 0.077876
O O11 0.343985 0.806971 0.705938
O O12 0.500000 0.000000 0.752232
#
# Coordination Sequence:
#
# PCOD8169648 Si02
#       5
#     4   4   4   4   4
#     4  12  28  44  76 112 144 186 236 304 372 434
#     4  12  26  52  78 104 142 186 236 290 370 464
#     4  11  25  45  71 103 149 208 260 308 365 432
#     4  12  26  44  70 110 154 182 250 306 368 416
#     4  11  25  45  71 103 149 208 260 308 365 432
#
# _framework density 23.250309999999999
#
# number of rings (size 3 to 8) (size 9 to 14) (size 15 to 20)
#    0.000    0.400    4.000    3.600    5.600    2.400 
#    0.000    0.000    0.000    0.000    0.000    0.000 
#    0.000    0.000    0.000    0.000    0.000    0.000 
#
# Total GULP energy -247800.694095 kJ/mol
# GULP energy per Si atom -12390.034705 kJ/mol
# Density = 2.319739 g / cm^3
# Si number density = 23.250310 Si / 1000 Ang^3
#
#
#
# Elastic Constant Matrix: (Units=GPa)
#
#
# Indices 1 2 3 4 5 6 
#
# 1 110.1459 48.4986 13.5084 0.0000 0.0000 0.0000
# 2 48.4986 138.8844 30.3963 0.0000 0.0000 0.0000
# 3 13.5084 30.3963 128.8371 0.0000 0.0000 0.0000
# 4 0.0000 0.0000 0.0000 29.6160 0.0000 0.0000
# 5 0.0000 0.0000 0.0000 0.0000 -50.1671 0.0000
# 6 0.0000 0.0000 0.0000 0.0000 0.0000 47.1150
#
#
#
# Elastic Compliance Matrix: (Units=1/GPa)
#
#
# Indices 1 2 3 4 5 6 
#
# 1 0.010736 -0.003693 -0.000254 0.000000 0.000000 0.000000
# 2 -0.003693 0.008863 -0.001704 0.000000 0.000000 0.000000
# 3 -0.000254 -0.001704 0.008190 0.000000 0.000000 0.000000
# 4 0.000000 0.000000 0.000000 0.033766 0.000000 0.000000
# 5 0.000000 0.000000 0.000000 0.000000 -0.019933 0.000000
# 6 0.000000 0.000000 0.000000 0.000000 0.000000 0.021225
#
#
# Mechanical properties :
#
#
# Convention : Reuss Voigt Hill
#
# Bulk Modulus (GPa) = 60.65557 62.51934 61.58745
# Shear Modulus (GPa) = 62.77863 24.34373 43.56118
#
# Velocity S-wave (km/s) = 5.20191 3.23929 4.33318
# Velocity P-wave (km/s) = 7.88825 6.39834 7.18203
#
# Compressibility (1/GPa) = 0.01648653
#
# Stress axis : x y z
#
# Youngs Moduli (GPa) = 93.14158 112.83012 122.09472
#
# Poissons Ratio (x) = 0.41674 0.03105
# Poissons Ratio (y) = 0.34402 0.20802
# Poissons Ratio (z) = 0.02369 0.19223
#
# Static dielectric constant tensor:
#      x y z
#    x 4.492250 0.000000 0.000000 
#    y 0.000000 4.409670 0.000000 
#    z 0.000000 0.000000 4.150790 
# 
# 
# High freq. dielectric constant tensor:
#      x y z
#    x 1.946160 0.000000 0.000000 
#    y 0.000000 1.921180 0.000000 
#    z 0.000000 0.000000 1.914650 
# 
# From -- ./inp_files/4255.got.cif
#   From: 2010.03.12/outbox.cif.g09.slc.cpg/sg30_3_cif.got.tgz:4255.got - 2010.04.14 01:38:02.
