data_PCOD8169452
_publ_section_title
;
Structure prediction by ZEFSAII (Michael W. Deem and Ramdas Pophale) SiO2 
 PCOD8169452
Probable space group: P N C 2
;
_chemical_formula_sum "Si O2"
_cell_formula_units_Z 32
_cell_length_a 5.201186
_cell_length_b 30.980026
_cell_length_c 8.818765
_cell_angle_alpha 90.000000
_cell_angle_beta 90.000000
_cell_angle_gamma 90.000000
_cell_volume 1420.992981
_symmetry_space_group_name_H-M "P N C 2"
_symmetry_group_IT_number 30
_symmetry_cell_setting 'orthorhombic'
loop_
_space_group_symop_operation_xyz
x,y,z
-x,-y,z
-x,1/2+y,1/2+z
x,1/2-y,1/2+z
loop_
_atom_site_type_symbol
_atom_site_label
_atom_site_fract_x
_atom_site_fract_y
_atom_site_fract_z
Si Si1 0.000372 0.951313 0.248190
Si Si2 0.469912 0.252140 0.642107
Si Si3 0.102968 0.136547 0.376816
Si Si4 0.192507 0.209443 0.878754
Si Si5 0.495228 0.048106 0.047486
Si Si6 0.513182 0.128564 0.868649
Si Si7 0.828362 0.178448 0.108668
Si Si8 0.620192 0.159406 0.558758
O O1 0.254428 0.942617 0.149866
O O2 0.966965 0.914585 0.377331
O O3 0.751732 0.944642 0.148224
O O4 0.000000 0.000000 0.318524
O O5 0.201096 0.241880 0.733356
O O6 0.422663 0.269867 0.475299
O O7 0.648479 0.290435 0.715021
O O8 0.609218 0.206398 0.634367
O O9 0.386882 0.146467 0.443577
O O10 0.060996 0.156788 0.206680
O O11 0.892163 0.159571 0.478139
O O12 0.261436 0.159092 0.845906
O O13 0.934127 0.210336 0.975480
O O14 0.500000 0.000000 0.980562
O O15 0.453956 0.078800 0.902600
O O16 0.649039 0.127921 0.704200
O O17 0.673970 0.141748 0.018801
#
# Coordination Sequence:
#
# PCOD8169452 Si02
#       8
#     4   4   4   4   4   4   4   4
#     4  10  21  39  68 101 131 164 220 277 327 391
#     4  10  24  42  56  97 123 171 222 273 329 390
#     4  12  25  44  67  99 129 180 219 275 330 407
#     4  10  23  38  65  85 126 165 216 272 327 379
#     4  10  20  38  68 100 128 165 217 275 322 390
#     4  10  23  43  61  98 127 172 216 272 330 399
#     4  11  24  40  73  88 125 175 232 271 323 394
#     4  11  28  42  64  93 142 173 216 272 342 390
#
# _framework density 22.519462999999998
#
# number of rings (size 3 to 8) (size 9 to 14) (size 15 to 20)
#    0.000    1.500    1.250    2.250   10.500    2.000 
#    0.000    1.250    0.000    0.000    0.000    0.000 
#    0.000    0.000    0.000    0.000    0.000    0.000 
#
# Total GULP energy -396422.010497 kJ/mol
# GULP energy per Si atom -12388.187828 kJ/mol
# Density = 2.246821 g / cm^3
# Si number density = 22.519463 Si / 1000 Ang^3
#
#
#
# Elastic Constant Matrix: (Units=GPa)
#
#
# Indices 1 2 3 4 5 6 
#
# 1 84.1993 9.0201 8.6633 0.0000 0.0000 0.0000
# 2 9.0201 107.4026 28.6989 0.0000 0.0000 0.0000
# 3 8.6633 28.6989 68.3281 0.0000 0.0000 0.0000
# 4 0.0000 0.0000 0.0000 28.5971 0.0000 0.0000
# 5 0.0000 0.0000 0.0000 0.0000 32.2563 0.0000
# 6 0.0000 0.0000 0.0000 0.0000 0.0000 22.3334
#
#
#
# Elastic Compliance Matrix: (Units=1/GPa)
#
#
# Indices 1 2 3 4 5 6 
#
# 1 0.012078 -0.000682 -0.001245 0.000000 0.000000 0.000000
# 2 -0.000682 0.010526 -0.004335 0.000000 0.000000 0.000000
# 3 -0.001245 -0.004335 0.016614 0.000000 0.000000 0.000000
# 4 0.000000 0.000000 0.000000 0.034969 0.000000 0.000000
# 5 0.000000 0.000000 0.000000 0.000000 0.031002 0.000000
# 6 0.000000 0.000000 0.000000 0.000000 0.000000 0.044776
#
#
# Mechanical properties :
#
#
# Convention : Reuss Voigt Hill
#
# Bulk Modulus (GPa) = 37.46038 39.18831 38.32435
# Shear Modulus (GPa) = 29.17402 30.87387 30.02394
#
# Velocity S-wave (km/s) = 3.60321 3.70670 3.65532
# Velocity P-wave (km/s) = 5.82938 5.97990 5.90512
#
# Compressibility (1/GPa) = 0.02669487
#
# Stress axis : x y z
#
# Youngs Moduli (GPa) = 82.79718 95.00007 60.19093
#
# Poissons Ratio (x) = 0.06476 0.07494
# Poissons Ratio (y) = 0.05644 0.26092
# Poissons Ratio (z) = 0.10308 0.41181
#
# Static dielectric constant tensor:
#      x y z
#    x 3.996790 0.000000 0.000000 
#    y 0.000000 4.434320 0.000000 
#    z 0.000000 0.000000 4.055080 
# 
# 
# High freq. dielectric constant tensor:
#      x y z
#    x 1.890150 0.000000 0.000000 
#    y 0.000000 1.891060 0.000000 
#    z 0.000000 0.000000 1.871440 
# 
# From -- ./inp_files/1488.got.cif
#   From: 2010.03.12/outbox.cif.g09.slc.cpg/sg30_1_cif.got.tgz:1488.got - 2010.04.14 01:38:02.
