data_PCOD8169111
_publ_section_title
;
Structure prediction by ZEFSAII (Michael W. Deem and Ramdas Pophale) SiO2 
 PCOD8169111
Probable space group: P C A 21
;
_chemical_formula_sum "Si O2"
_cell_formula_units_Z 24
_cell_length_a 11.191613
_cell_length_b 11.014603
_cell_length_c 8.904076
_cell_angle_alpha 90.000000
_cell_angle_beta 90.000000
_cell_angle_gamma 90.000000
_cell_volume 1097.615903
_symmetry_space_group_name_H-M "P C A 21"
_symmetry_group_IT_number 29
_symmetry_cell_setting 'orthorhombic'
loop_
_space_group_symop_operation_xyz
x,y,z
-x,-y,1/2+z
1/2-x,y,1/2+z
1/2+x,-y,z
loop_
_atom_site_type_symbol
_atom_site_label
_atom_site_fract_x
_atom_site_fract_y
_atom_site_fract_z
Si Si1 0.189315 0.831114 0.844280
Si Si2 0.911942 0.213726 0.665310
Si Si3 0.294988 0.254017 0.545008
Si Si4 0.483138 0.640002 0.215440
Si Si5 0.643975 0.895067 0.759325
Si Si6 0.067244 0.416187 0.533146
O O1 0.322491 0.782594 0.807140
O O2 0.094943 0.759573 0.742084
O O3 0.177745 0.972079 0.810235
O O4 0.167239 0.814302 0.019731
O O5 0.010063 0.107748 0.691208
O O6 0.982100 0.340303 0.646153
O O7 0.392858 0.320747 0.643807
O O8 0.351489 0.203505 0.392532
O O9 0.239612 0.140249 0.632907
O O10 0.194046 0.352742 0.508038
O O11 0.413442 0.548561 0.104797
O O12 0.504242 0.571124 0.372372
#
# Coordination Sequence:
#
# PCOD8169111 Si02
#       6
#     4   4   4   4   4   4
#     4  11  26  44  70 104 142 183 243 292 356 421
#     4  10  26  45  65 104 138 185 234 291 357 418
#     4  11  24  47  70 104 139 191 233 290 363 414
#     4  11  26  44  71 102 140 185 233 295 350 420
#     4  11  25  44  74  98 145 184 238 292 356 430
#     4  10  25  46  68 102 142 182 239 286 354 425
#
# _framework density 21.865570000000002
#
# number of rings (size 3 to 8) (size 9 to 14) (size 15 to 20)
#    0.000    1.333    1.667    1.000   14.000    0.000 
#    0.000    0.000    0.000    0.000    0.000    0.000 
#    0.000    0.000    0.000    0.000    0.000    0.000 
#
# Total GULP energy -297730.115853 kJ/mol
# GULP energy per Si atom -12405.421494 kJ/mol
# Density = 2.181580 g / cm^3
# Si number density = 21.865570 Si / 1000 Ang^3
#
#
#
# Elastic Constant Matrix: (Units=GPa)
#
#
# Indices 1 2 3 4 5 6 
#
# 1 82.7168 46.4606 48.2477 0.0000 0.0000 0.0000
# 2 46.4606 78.4110 20.8368 0.0000 0.0000 0.0000
# 3 48.2477 20.8368 78.9353 0.0000 0.0000 0.0000
# 4 0.0000 0.0000 0.0000 32.9504 0.0000 0.0000
# 5 0.0000 0.0000 0.0000 0.0000 44.0440 0.0000
# 6 0.0000 0.0000 0.0000 0.0000 0.0000 16.9237
#
#
#
# Elastic Compliance Matrix: (Units=1/GPa)
#
#
# Indices 1 2 3 4 5 6 
#
# 1 0.026577 -0.012293 -0.012999 0.000000 0.000000 0.000000
# 2 -0.012293 0.019401 0.002392 0.000000 0.000000 0.000000
# 3 -0.012999 0.002392 0.019983 0.000000 0.000000 0.000000
# 4 0.000000 0.000000 0.000000 0.030349 0.000000 0.000000
# 5 0.000000 0.000000 0.000000 0.000000 0.022705 0.000000
# 6 0.000000 0.000000 0.000000 0.000000 0.000000 0.059089
#
#
# Mechanical properties :
#
#
# Convention : Reuss Voigt Hill
#
# Bulk Modulus (GPa) = 49.60122 52.35037 50.97580
# Shear Modulus (GPa) = 21.68043 27.08483 24.38263
#
# Velocity S-wave (km/s) = 3.15228 3.52333 3.34296
# Velocity P-wave (km/s) = 5.99858 6.36755 6.18582
#
# Compressibility (1/GPa) = 0.02016079
#
# Stress axis : x y z
#
# Youngs Moduli (GPa) = 37.62721 51.54260 50.04318
#
# Poissons Ratio (x) = 0.63361 0.65053
# Poissons Ratio (y) = 0.46255 -0.11972
# Poissons Ratio (z) = 0.48913 -0.12331
#
# Static dielectric constant tensor:
#      x y z
#    x 3.970860 0.000000 0.000000 
#    y 0.000000 3.795230 0.000000 
#    z 0.000000 0.000000 4.092350 
# 
# 
# High freq. dielectric constant tensor:
#      x y z
#    x 1.866450 0.000000 0.000000 
#    y 0.000000 1.855970 0.000000 
#    z 0.000000 0.000000 1.872730 
# 
# From -- ./inp_files/1414.got.cif
#   From: 2010.03.12/outbox.cif.g09.slc.cpg/sg29_1_cif.got.tgz:1414.got - 2010.04.14 03:43:10.
