data_PCOD8169642
_publ_section_title
;
Structure prediction by ZEFSAII (Michael W. Deem and Ramdas Pophale) SiO2 
 PCOD8169642
Probable space group: P N C 2
;
_chemical_formula_sum "Si O2"
_cell_formula_units_Z 32
_cell_length_a 13.444981
_cell_length_b 11.349338
_cell_length_c 9.603324
_cell_angle_alpha 90.000000
_cell_angle_beta 90.000000
_cell_angle_gamma 90.000000
_cell_volume 1465.386899
_symmetry_space_group_name_H-M "P N C 2"
_symmetry_group_IT_number 30
_symmetry_cell_setting 'orthorhombic'
loop_
_space_group_symop_operation_xyz
x,y,z
-x,-y,z
-x,1/2+y,1/2+z
x,1/2-y,1/2+z
loop_
_atom_site_type_symbol
_atom_site_label
_atom_site_fract_x
_atom_site_fract_y
_atom_site_fract_z
Si Si1 0.276044 0.544929 0.321650
Si Si2 0.084898 0.098175 0.761107
Si Si3 0.413102 0.073806 0.613994
Si Si4 0.733242 0.543644 0.877759
Si Si5 0.659581 0.296425 0.844628
Si Si6 0.319958 0.102562 0.070207
Si Si7 0.523223 0.204615 0.093625
Si Si8 0.857231 0.771098 0.493319
O O1 0.185015 0.478122 0.249407
O O2 0.374325 0.499805 0.244990
O O3 0.269601 0.686077 0.304259
O O4 0.284914 0.512780 0.484668
O O5 0.081550 0.189315 0.630806
O O6 0.078952 0.177157 0.902089
O O7 0.000000 0.000000 0.759655
O O8 0.333449 0.100854 0.497031
O O9 0.457437 0.195541 0.670930
O O10 0.500000 0.000000 0.539234
O O11 0.733534 0.401322 0.894178
O O12 0.690985 0.580502 0.731399
O O13 0.839286 0.608589 0.902668
O O14 0.597940 0.345328 0.711121
O O15 0.585073 0.257716 0.965860
O O16 0.438447 0.115066 0.038707
O O17 0.249604 0.212321 0.028830
#
# Coordination Sequence:
#
# PCOD8169642 Si02
#       8
#     4   4   4   4   4   4   4   4
#     4  11  24  43  65  94 135 183 223 284 344 400
#     4  11  25  51  80 106 133 172 225 285 351 418
#     4  12  21  38  61  90 136 189 233 276 335 398
#     4  12  23  40  62  93 132 181 226 278 332 397
#     4  12  25  37  54  89 139 182 230 273 333 389
#     4  11  24  38  65  94 132 179 232 282 326 390
#     4  12  23  34  56  91 132 185 238 280 318 389
#     4  11  23  47  75 104 133 172 221 279 346 419
#
# _framework density 21.837236999999998
#
# number of rings (size 3 to 8) (size 9 to 14) (size 15 to 20)
#    0.000    0.500    6.250    2.250    1.750    1.000 
#    2.250    1.875    0.000    0.000    0.000    0.000 
#    0.000    0.000    0.000    0.000    0.000    0.000 
#
# Total GULP energy -396614.985619 kJ/mol
# GULP energy per Si atom -12394.218301 kJ/mol
# Density = 2.178753 g / cm^3
# Si number density = 21.837237 Si / 1000 Ang^3
#
#
#
# Elastic Constant Matrix: (Units=GPa)
#
#
# Indices 1 2 3 4 5 6 
#
# 1 55.8399 43.1907 28.1799 0.0000 0.0000 0.0000
# 2 43.1907 107.7439 32.1725 0.0000 0.0000 0.0000
# 3 28.1799 32.1725 104.8463 0.0000 0.0000 0.0000
# 4 0.0000 0.0000 0.0000 30.4869 0.0000 0.0000
# 5 0.0000 0.0000 0.0000 0.0000 14.2406 0.0000
# 6 0.0000 0.0000 0.0000 0.0000 0.0000 29.4027
#
#
#
# Elastic Compliance Matrix: (Units=1/GPa)
#
#
# Indices 1 2 3 4 5 6 
#
# 1 0.027721 -0.009784 -0.004448 0.000000 0.000000 0.000000
# 2 -0.009784 0.013671 -0.001565 0.000000 0.000000 0.000000
# 3 -0.004448 -0.001565 0.011214 0.000000 0.000000 0.000000
# 4 0.000000 0.000000 0.000000 0.032801 0.000000 0.000000
# 5 0.000000 0.000000 0.000000 0.000000 0.070222 0.000000
# 6 0.000000 0.000000 0.000000 0.000000 0.000000 0.034011
#
#
# Mechanical properties :
#
#
# Convention : Reuss Voigt Hill
#
# Bulk Modulus (GPa) = 47.59628 52.83515 50.21571
# Shear Modulus (GPa) = 21.90704 25.81851 23.86278
#
# Velocity S-wave (km/s) = 3.17076 3.44221 3.30927
# Velocity P-wave (km/s) = 5.93702 6.32819 6.13572
#
# Compressibility (1/GPa) = 0.02101005
#
# Stress axis : x y z
#
# Youngs Moduli (GPa) = 36.07376 73.14893 89.17693
#
# Poissons Ratio (x) = 0.71569 0.39669
# Poissons Ratio (y) = 0.35295 0.13958
# Poissons Ratio (z) = 0.16047 0.11449
#
# Static dielectric constant tensor:
#      x y z
#    x 3.758620 0.000000 0.000000 
#    y 0.000000 4.099900 0.000000 
#    z 0.000000 0.000000 3.902960 
# 
# 
# High freq. dielectric constant tensor:
#      x y z
#    x 1.809290 0.000000 0.000000 
#    y 0.000000 1.875940 0.000000 
#    z 0.000000 0.000000 1.867490 
# 
# From -- ./inp_files/2706.got.cif
#   From: 2010.03.12/outbox.cif.g09.slc.cpg/sg30_2_cif.got.tgz:2706.got - 2010.04.14 01:38:02.
