data_PCOD8169848
_publ_section_title
;
Structure prediction by ZEFSAII (Michael W. Deem and Ramdas Pophale) SiO2 
 PCOD8169848
Probable space group: P M N 21
;
_chemical_formula_sum "Si O2"
_cell_formula_units_Z 32
_cell_length_a 14.254189
_cell_length_b 8.724977
_cell_length_c 13.933886
_cell_angle_alpha 90.000000
_cell_angle_beta 90.000000
_cell_angle_gamma 90.000000
_cell_volume 1732.922166
_symmetry_space_group_name_H-M "P M N 21"
_symmetry_group_IT_number 31
_symmetry_cell_setting 'orthorhombic'
loop_
_space_group_symop_operation_xyz
x,y,z
1/2-x,-y,1/2+z
-x,y,z
1/2+x,-y,1/2+z
loop_
_atom_site_type_symbol
_atom_site_label
_atom_site_fract_x
_atom_site_fract_y
_atom_site_fract_z
Si Si1 0.767315 0.701165 0.245020
Si Si2 0.269383 0.175682 0.540679
Si Si3 0.105263 0.076033 0.750294
Si Si4 0.107369 0.689651 0.425709
Si Si5 0.263618 0.656395 0.749449
Si Si6 0.105417 0.786738 0.869181
Si Si7 0.109577 0.331109 0.426979
Si Si8 0.795966 0.871562 0.592306
O O1 0.801690 0.778512 0.147056
O O2 0.835780 0.744583 0.332307
O O3 0.767502 0.521334 0.224882
O O4 0.665381 0.770928 0.269934
O O5 0.349854 0.241050 0.472744
O O6 0.166878 0.242995 0.510280
O O7 0.267816 0.990579 0.532471
O O8 0.110688 0.966374 0.842977
O O9 0.139724 0.978543 0.659288
O O10 0.000000 0.131969 0.730719
O O11 0.121779 0.510689 0.445929
O O12 0.139562 0.775832 0.520888
O O13 0.000000 0.729924 0.404795
O O14 0.160892 0.685042 0.792656
O O15 0.345836 0.708916 0.822690
O O16 0.271535 0.757456 0.652729
O O17 0.000000 0.724419 0.870104
O O18 0.000000 0.281420 0.428677
#
# Coordination Sequence:
#
# PCOD8169848 Si02
#       8
#     4   4   4   4   4   4   4   4
#     4  10  20  33  51  75 104 134 167 208 251 296
#     4  10  20  33  51  75 102 134 167 204 250 299
#     4   9  18  32  50  73 100 131 168 210 253 296
#     4  10  20  34  53  76 102 134 172 212 251 294
#     4   9  19  35  54  76 102 131 164 206 254 300
#     4   9  18  34  53  72  98 131 167 206 248 296
#     4   9  19  36  56  77 101 131 168 209 253 300
#     4  10  19  33  51  74 103 134 166 207 251 299
#
# _framework density 18.465919
#
# number of rings (size 3 to 8) (size 9 to 14) (size 15 to 20)
#    0.000    2.500    0.000    1.875    0.000    5.000 
#    0.000    0.625    0.000    0.750    0.000    0.000 
#    0.000    0.000    0.000    0.000    0.000    0.000 
#
# Total GULP energy -396729.894688 kJ/mol
# GULP energy per Si atom -12397.809209 kJ/mol
# Density = 1.842389 g / cm^3
# Si number density = 18.465919 Si / 1000 Ang^3
#
#
#
# Elastic Constant Matrix: (Units=GPa)
#
#
# Indices 1 2 3 4 5 6 
#
# 1 85.5631 24.6486 40.2418 0.0000 0.0000 0.0000
# 2 24.6486 70.7672 32.2935 0.0000 0.0000 0.0000
# 3 40.2418 32.2935 86.5662 0.0000 0.0000 0.0000
# 4 0.0000 0.0000 0.0000 25.5758 0.0000 0.0000
# 5 0.0000 0.0000 0.0000 0.0000 19.4287 0.0000
# 6 0.0000 0.0000 0.0000 0.0000 0.0000 24.2913
#
#
#
# Elastic Compliance Matrix: (Units=1/GPa)
#
#
# Indices 1 2 3 4 5 6 
#
# 1 0.015320 -0.002514 -0.006184 0.000000 0.000000 0.000000
# 2 -0.002514 0.017443 -0.005338 0.000000 0.000000 0.000000
# 3 -0.006184 -0.005338 0.016418 0.000000 0.000000 0.000000
# 4 0.000000 0.000000 0.000000 0.039099 0.000000 0.000000
# 5 0.000000 0.000000 0.000000 0.000000 0.051470 0.000000
# 6 0.000000 0.000000 0.000000 0.000000 0.000000 0.041167
#
#
# Mechanical properties :
#
#
# Convention : Reuss Voigt Hill
#
# Bulk Modulus (GPa) = 47.37528 48.58494 47.98011
# Shear Modulus (GPa) = 23.14544 23.57334 23.35939
#
# Velocity S-wave (km/s) = 3.54420 3.57681 3.56054
# Velocity P-wave (km/s) = 6.51611 6.58983 6.55307
#
# Compressibility (1/GPa) = 0.02110805
#
# Stress axis : x y z
#
# Youngs Moduli (GPa) = 65.27460 57.33115 60.90906
#
# Poissons Ratio (x) = 0.14414 0.37665
# Poissons Ratio (y) = 0.16411 0.32514
# Poissons Ratio (z) = 0.40365 0.30605
#
# Static dielectric constant tensor:
#      x y z
#    x 3.346590 0.000000 0.000000 
#    y 0.000000 3.457740 0.000000 
#    z 0.000000 0.000000 3.432390 
# 
# 
# High freq. dielectric constant tensor:
#      x y z
#    x 1.703060 0.000000 0.000000 
#    y 0.000000 1.716730 0.000000 
#    z 0.000000 0.000000 1.721240 
# 
# From -- ./inp_files/4274.got.cif
#   From: 2010.03.12/outbox.cif.g09.slc.cpg/sg31_3_cif.got.tgz:4274.got - 2010.04.14 01:42:59.
