data_PCOD8169569
_publ_section_title
;
Structure prediction by ZEFSAII (Michael W. Deem and Ramdas Pophale) SiO2 
 PCOD8169569
Probable space group: P N C 2
;
_chemical_formula_sum "Si O2"
_cell_formula_units_Z 32
_cell_length_a 9.096283
_cell_length_b 11.528524
_cell_length_c 13.880161
_cell_angle_alpha 90.000000
_cell_angle_beta 90.000000
_cell_angle_gamma 90.000000
_cell_volume 1455.566914
_symmetry_space_group_name_H-M "P N C 2"
_symmetry_group_IT_number 30
_symmetry_cell_setting 'orthorhombic'
loop_
_space_group_symop_operation_xyz
x,y,z
-x,-y,z
-x,1/2+y,1/2+z
x,1/2-y,1/2+z
loop_
_atom_site_type_symbol
_atom_site_label
_atom_site_fract_x
_atom_site_fract_y
_atom_site_fract_z
Si Si1 0.884989 0.587600 0.612140
Si Si2 0.639881 0.701728 0.729760
Si Si3 0.330397 0.030427 0.741992
Si Si4 0.295380 0.335201 0.937801
Si Si5 0.983679 0.236669 0.482029
Si Si6 0.465957 0.780579 0.052108
Si Si7 0.238862 0.930846 0.946086
Si Si8 0.749309 0.431814 0.048471
O O1 0.759065 0.612984 0.688010
O O2 0.830074 0.528771 0.513125
O O3 0.000000 0.500000 0.663435
O O4 0.967253 0.706162 0.583198
O O5 0.696979 0.833221 0.731258
O O6 0.611095 0.661564 0.839004
O O7 0.490817 0.690576 0.665680
O O8 0.500000 0.000000 0.725051
O O9 0.277615 0.986860 0.844937
O O10 0.233759 0.968280 0.659830
O O11 0.127235 0.294613 0.918493
O O12 0.371260 0.240159 0.008007
O O13 0.302526 0.460783 0.984823
O O14 0.875222 0.325356 0.426522
O O15 0.903341 0.117046 0.509517
O O16 0.374866 0.664632 0.038144
O O17 0.386954 0.886265 0.998401
#
# Coordination Sequence:
#
# PCOD8169569 Si02
#       8
#     4   4   4   4   4   4   4   4
#     4  10  22  45  63  95 137 179 224 288 337 411
#     4  12  25  40  71  98 133 180 230 279 348 415
#     4  12  22  40  70 104 132 179 232 286 345 408
#     4  12  23  43  68  98 139 176 228 284 353 407
#     4  10  22  44  68  96 142 180 226 282 350 413
#     4  11  23  46  66 100 136 178 226 289 342 416
#     4  10  25  42  70  99 138 177 231 286 345 411
#     4  11  23  43  68  99 142 179 223 288 347 412
#
# _framework density 21.984559999999998
#
# number of rings (size 3 to 8) (size 9 to 14) (size 15 to 20)
#    0.000    1.000    3.750    2.250    1.750    2.000 
#    4.500    6.250    0.000    0.000    0.000    0.000 
#    0.000    0.000    0.000    0.000    0.000    0.000 
#
# Total GULP energy -396885.277326 kJ/mol
# GULP energy per Si atom -12402.664916 kJ/mol
# Density = 2.193452 g / cm^3
# Si number density = 21.984560 Si / 1000 Ang^3
#
#
#
# Elastic Constant Matrix: (Units=GPa)
#
#
# Indices 1 2 3 4 5 6 
#
# 1 98.4132 30.5093 29.3932 0.0000 0.0000 0.0000
# 2 30.5093 81.7542 38.4931 0.0000 0.0000 0.0000
# 3 29.3932 38.4931 120.3113 0.0000 0.0000 0.0000
# 4 0.0000 0.0000 0.0000 33.2940 0.0000 0.0000
# 5 0.0000 0.0000 0.0000 0.0000 20.5597 0.0000
# 6 0.0000 0.0000 0.0000 0.0000 0.0000 38.2359
#
#
#
# Elastic Compliance Matrix: (Units=1/GPa)
#
#
# Indices 1 2 3 4 5 6 
#
# 1 0.011790 -0.003583 -0.001734 0.000000 0.000000 0.000000
# 2 -0.003583 0.015490 -0.004081 0.000000 0.000000 0.000000
# 3 -0.001734 -0.004081 0.010041 0.000000 0.000000 0.000000
# 4 0.000000 0.000000 0.000000 0.030035 0.000000 0.000000
# 5 0.000000 0.000000 0.000000 0.000000 0.048639 0.000000
# 6 0.000000 0.000000 0.000000 0.000000 0.000000 0.026153
#
#
# Mechanical properties :
#
#
# Convention : Reuss Voigt Hill
#
# Bulk Modulus (GPa) = 53.97986 55.25220 54.61603
# Shear Modulus (GPa) = 29.91858 31.89011 30.90434
#
# Velocity S-wave (km/s) = 3.69303 3.81276 3.75337
# Velocity P-wave (km/s) = 6.54152 6.67606 6.60913
#
# Compressibility (1/GPa) = 0.01852543
#
# Stress axis : x y z
#
# Youngs Moduli (GPa) = 84.81747 64.55618 99.59210
#
# Poissons Ratio (x) = 0.23133 0.17268
# Poissons Ratio (y) = 0.30394 0.40640
# Poissons Ratio (z) = 0.14707 0.26343
#
# Static dielectric constant tensor:
#      x y z
#    x 4.187530 0.000000 0.000000 
#    y 0.000000 4.137110 0.000000 
#    z 0.000000 0.000000 3.832530 
# 
# 
# High freq. dielectric constant tensor:
#      x y z
#    x 1.866980 0.000000 0.000000 
#    y 0.000000 1.880360 0.000000 
#    z 0.000000 0.000000 1.850300 
# 
# From -- ./inp_files/5206.got.cif
#   From: 2010.03.12/outbox.cif.g09.slc.cpg/sg30_3_cif.got.tgz:5206.got - 2010.04.14 01:38:02.
