data_PCOD8169766
_publ_section_title
;
Structure prediction by ZEFSAII (Michael W. Deem and Ramdas Pophale) SiO2 
 PCOD8169766
Probable space group: P M N 21
;
_chemical_formula_sum "Si O2"
_cell_formula_units_Z 32
_cell_length_a 14.320700
_cell_length_b 11.674074
_cell_length_c 9.052097
_cell_angle_alpha 90.000000
_cell_angle_beta 90.000000
_cell_angle_gamma 90.000000
_cell_volume 1513.337828
_symmetry_space_group_name_H-M "P M N 21"
_symmetry_group_IT_number 31
_symmetry_cell_setting 'orthorhombic'
loop_
_space_group_symop_operation_xyz
x,y,z
1/2-x,-y,1/2+z
-x,y,z
1/2+x,-y,1/2+z
loop_
_atom_site_type_symbol
_atom_site_label
_atom_site_fract_x
_atom_site_fract_y
_atom_site_fract_z
Si Si1 0.105308 0.322340 0.042460
Si Si2 0.898256 0.816778 0.880558
Si Si3 0.356185 0.427134 0.482695
Si Si4 0.662829 0.638518 0.867327
Si Si5 0.608155 0.069385 0.070312
Si Si6 0.232675 0.780159 0.380685
Si Si7 0.716290 0.840946 0.060537
Si Si8 0.602580 0.406914 0.820266
O O1 0.158570 0.320447 0.198588
O O2 0.000000 0.275886 0.060964
O O3 0.099133 0.446771 0.961273
O O4 0.163573 0.231429 0.946580
O O5 0.908547 0.679540 0.904462
O O6 0.881278 0.845967 0.709000
O O7 0.000000 0.869621 0.928216
O O8 0.809543 0.871404 0.965612
O O9 0.256912 0.429346 0.404349
O O10 0.352301 0.408198 0.657817
O O11 0.588070 0.535771 0.885648
O O12 0.651841 0.747568 0.974642
O O13 0.500000 0.060177 0.019960
O O14 0.648768 0.944030 0.105194
O O15 0.675080 0.111264 0.938790
O O16 0.241458 0.787115 0.206368
O O17 0.170071 0.669052 0.422506
O O18 0.500000 0.349882 0.814365
#
# Coordination Sequence:
#
# PCOD8169766 Si02
#       8
#     4   4   4   4   4   4   4   4
#     4  11  24  40  63  97 137 176 216 268 335 411
#     4  10  20  39  65  94 127 171 222 270 330 400
#     4  10  18  35  64  94 129 165 208 262 326 394
#     4  10  20  39  65  93 132 175 211 264 336 402
#     4  11  26  45  65  94 132 175 229 286 333 397
#     4  12  23  41  68  94 135 169 221 278 345 393
#     4  11  24  43  68  94 128 178 224 278 337 397
#     4  11  21  36  62  98 132 167 213 270 334 406
#
# _framework density 21.145313999999999
#
# number of rings (size 3 to 8) (size 9 to 14) (size 15 to 20)
#    0.000    1.250    3.750    4.875    0.000    2.000 
#    2.250    0.625    0.000    0.000    0.000    0.000 
#    0.000    0.000    0.000    0.000    0.000    0.000 
#
# Total GULP energy -396438.073009 kJ/mol
# GULP energy per Si atom -12388.689782 kJ/mol
# Density = 2.109719 g / cm^3
# Si number density = 21.145314 Si / 1000 Ang^3
#
#
#
# Elastic Constant Matrix: (Units=GPa)
#
#
# Indices 1 2 3 4 5 6 
#
# 1 142.9292 29.8612 45.1123 0.0000 0.0000 0.0000
# 2 29.8612 95.4501 32.6745 0.0000 0.0000 0.0000
# 3 45.1123 32.6745 83.7761 0.0000 0.0000 0.0000
# 4 0.0000 0.0000 0.0000 26.7311 0.0000 0.0000
# 5 0.0000 0.0000 0.0000 0.0000 8.2239 0.0000
# 6 0.0000 0.0000 0.0000 0.0000 0.0000 -11.9426
#
#
#
# Elastic Compliance Matrix: (Units=1/GPa)
#
#
# Indices 1 2 3 4 5 6 
#
# 1 0.008560 -0.001270 -0.004114 0.000000 0.000000 0.000000
# 2 -0.001270 0.012279 -0.004106 0.000000 0.000000 0.000000
# 3 -0.004114 -0.004106 0.015753 0.000000 0.000000 0.000000
# 4 0.000000 0.000000 0.000000 0.037410 0.000000 0.000000
# 5 0.000000 0.000000 0.000000 0.000000 0.121596 0.000000
# 6 0.000000 0.000000 0.000000 0.000000 0.000000 -0.083734
#
#
# Mechanical properties :
#
#
# Convention : Reuss Voigt Hill
#
# Bulk Modulus (GPa) = 56.77349 59.71683 58.24516
# Shear Modulus (GPa) = 36.57230 18.90298 27.73764
#
# Velocity S-wave (km/s) = 4.16332 2.99315 3.62576
# Velocity P-wave (km/s) = 7.07238 6.34411 6.71812
#
# Compressibility (1/GPa) = 0.01761385
#
# Stress axis : x y z
#
# Youngs Moduli (GPa) = 116.81754 81.43802 63.47841
#
# Poissons Ratio (x) = 0.10340 0.26118
# Poissons Ratio (y) = 0.14831 0.26061
# Poissons Ratio (z) = 0.48064 0.33434
#
# Static dielectric constant tensor:
#      x y z
#    x 3.912740 0.000000 0.000000 
#    y 0.000000 3.794390 0.000000 
#    z 0.000000 0.000000 3.633840 
# 
# 
# High freq. dielectric constant tensor:
#      x y z
#    x 1.837860 0.000000 0.000000 
#    y 0.000000 1.820440 0.000000 
#    z 0.000000 0.000000 1.815360 
# 
# From -- ./inp_files/2583.got.cif
#   From: 2010.03.12/outbox.cif.g09.slc.cpg/sg31_2_cif.got.tgz:2583.got - 2010.04.14 01:42:59.
