data_PCOD8169195
_publ_section_title
;
Structure prediction by ZEFSAII (Michael W. Deem and Ramdas Pophale) SiO2 
 PCOD8169195
Probable space group: P C A 21
;
_chemical_formula_sum "Si O2"
_cell_formula_units_Z 16
_cell_length_a 9.089818
_cell_length_b 8.409135
_cell_length_c 8.342268
_cell_angle_alpha 90.000000
_cell_angle_beta 90.000000
_cell_angle_gamma 90.000000
_cell_volume 637.662166
_symmetry_space_group_name_H-M "P C A 21"
_symmetry_group_IT_number 29
_symmetry_cell_setting 'orthorhombic'
loop_
_space_group_symop_operation_xyz
x,y,z
-x,-y,1/2+z
1/2-x,y,1/2+z
1/2+x,-y,z
loop_
_atom_site_type_symbol
_atom_site_label
_atom_site_fract_x
_atom_site_fract_y
_atom_site_fract_z
Si Si1 0.567604 0.121490 0.981890
Si Si2 0.962920 0.538473 0.011778
Si Si3 0.205721 0.037525 0.284573
Si Si4 0.311891 0.379039 0.318740
O O1 0.565189 0.305513 0.030657
O O2 0.405188 0.065933 0.931726
O O3 0.682182 0.101554 0.835287
O O4 0.618421 0.008748 0.126253
O O5 0.848648 0.557990 0.865211
O O6 0.073394 0.392860 0.969006
O O7 0.875242 0.508493 0.176792
O O8 0.302649 0.197812 0.256472
#
# Coordination Sequence:
#
# PCOD8169195 Si02
#       4
#     4   4   4   4
#     4  11  24  42  69  98 134 180 232 288 348 412
#     4  11  25  44  68  98 136 184 231 285 346 412
#     4  11  23  44  70 102 138 180 233 291 348 412
#     4  11  24  44  69 100 140 182 232 288 346 414
#
# _framework density 25.091654999999999
#
# number of rings (size 3 to 8) (size 9 to 14) (size 15 to 20)
#    0.000    1.000    0.000    7.500    0.000    8.000 
#    0.000    0.000    0.000    0.000    0.000    0.000 
#    0.000    0.000    0.000    0.000    0.000    0.000 
#
# Total GULP energy -198508.956321 kJ/mol
# GULP energy per Si atom -12406.809770 kJ/mol
# Density = 2.503455 g / cm^3
# Si number density = 25.091655 Si / 1000 Ang^3
#
#
#
# Elastic Constant Matrix: (Units=GPa)
#
#
# Indices 1 2 3 4 5 6 
#
# 1 106.4505 55.7230 30.4858 0.0000 0.0000 0.0000
# 2 55.7230 76.1798 40.6042 0.0000 0.0000 0.0000
# 3 30.4858 40.6042 89.2657 0.0000 0.0000 0.0000
# 4 0.0000 0.0000 0.0000 38.0688 0.0000 0.0000
# 5 0.0000 0.0000 0.0000 0.0000 59.8390 0.0000
# 6 0.0000 0.0000 0.0000 0.0000 0.0000 49.9357
#
#
#
# Elastic Compliance Matrix: (Units=1/GPa)
#
#
# Indices 1 2 3 4 5 6 
#
# 1 0.015225 -0.011042 -0.000177 0.000000 0.000000 0.000000
# 2 -0.011042 0.025337 -0.007754 0.000000 0.000000 0.000000
# 3 -0.000177 -0.007754 0.014790 0.000000 0.000000 0.000000
# 4 0.000000 0.000000 0.000000 0.026268 0.000000 0.000000
# 5 0.000000 0.000000 0.000000 0.000000 0.016711 0.000000
# 6 0.000000 0.000000 0.000000 0.000000 0.000000 0.020026
#
#
# Mechanical properties :
#
#
# Convention : Reuss Voigt Hill
#
# Bulk Modulus (GPa) = 57.45211 58.39133 57.92172
# Shear Modulus (GPa) = 30.84431 39.24092 35.04261
#
# Velocity S-wave (km/s) = 3.50989 3.95891 3.74114
# Velocity P-wave (km/s) = 6.27474 6.64974 6.46496
#
# Compressibility (1/GPa) = 0.01740580
#
# Stress axis : x y z
#
# Youngs Moduli (GPa) = 65.68184 39.46842 67.61409
#
# Poissons Ratio (x) = 0.43582 0.01195
# Poissons Ratio (y) = 0.72528 0.52426
# Poissons Ratio (z) = 0.01161 0.30603
#
# Static dielectric constant tensor:
#      x y z
#    x 4.742700 0.000000 0.000000 
#    y 0.000000 4.198510 0.000000 
#    z 0.000000 0.000000 4.446090 
# 
# 
# High freq. dielectric constant tensor:
#      x y z
#    x 2.022240 0.000000 0.000000 
#    y 0.000000 1.969930 0.000000 
#    z 0.000000 0.000000 2.007960 
# 
# From -- ./inp_files/1028.got.cif
#   From: 2010.03.12/outbox.cif.g09.slc.cpg/sg29_1_cif.got.tgz:1028.got - 2010.04.14 03:43:10.
