data_PCOD8169759
_publ_section_title
;
Structure prediction by ZEFSAII (Michael W. Deem and Ramdas Pophale) SiO2 
 PCOD8169759
Probable space group: P M N 21
;
_chemical_formula_sum "Si O2"
_cell_formula_units_Z 32
_cell_length_a 15.559819
_cell_length_b 8.912087
_cell_length_c 11.593611
_cell_angle_alpha 90.000000
_cell_angle_beta 90.000000
_cell_angle_gamma 90.000000
_cell_volume 1607.691378
_symmetry_space_group_name_H-M "P M N 21"
_symmetry_group_IT_number 31
_symmetry_cell_setting 'orthorhombic'
loop_
_space_group_symop_operation_xyz
x,y,z
1/2-x,-y,1/2+z
-x,y,z
1/2+x,-y,1/2+z
loop_
_atom_site_type_symbol
_atom_site_label
_atom_site_fract_x
_atom_site_fract_y
_atom_site_fract_z
Si Si1 0.900437 0.800869 0.174390
Si Si2 0.169188 0.954606 0.949505
Si Si3 0.096676 0.105466 0.296588
Si Si4 0.749476 0.279552 0.269179
Si Si5 0.404130 0.935271 0.051059
Si Si6 0.265732 0.379657 0.811051
Si Si7 0.306142 0.201006 0.029296
Si Si8 0.600050 0.806245 0.283541
O O1 0.829569 0.673369 0.207005
O O2 0.000000 0.741936 0.178872
O O3 0.886443 0.931462 0.268704
O O4 0.883247 0.865267 0.046885
O O5 0.206765 0.832686 0.860696
O O6 0.105240 0.064045 0.880081
O O7 0.241972 0.057853 0.009199
O O8 0.158760 0.213749 0.225974
O O9 0.000000 0.149931 0.264948
O O10 0.120844 0.140610 0.429842
O O11 0.762334 0.442554 0.321933
O O12 0.700477 0.291448 0.148476
O O13 0.500000 0.894956 0.081483
O O14 0.396710 0.115368 0.039182
O O15 0.357522 0.867626 0.163557
O O16 0.166018 0.328510 0.808906
O O17 0.307379 0.321480 0.928958
O O18 0.500000 0.750726 0.279586
#
# Coordination Sequence:
#
# PCOD8169759 Si02
#       8
#     4   4   4   4   4   4   4   4
#     4  11  22  40  64  90 124 163 208 257 307 364
#     4  11  21  37  65  89 117 159 215 260 300 356
#     4  10  20  36  60  90 115 155 214 265 302 353
#     4  12  24  39  62  91 128 166 202 253 313 378
#     4  10  18  33  62  89 110 145 207 269 306 346
#     4  11  26  39  60  89 132 170 199 242 319 384
#     4  11  21  40  60  89 118 162 211 254 304 361
#     4  10  21  40  62  89 120 162 211 262 311 362
#
# _framework density 19.904318
#
# number of rings (size 3 to 8) (size 9 to 14) (size 15 to 20)
#    0.000    1.250    5.000    1.875    1.750    0.500 
#    0.000    1.875    0.000    0.000    0.000    0.000 
#    0.000    0.000    0.000    0.000    0.000    0.000 
#
# Total GULP energy -396462.692152 kJ/mol
# GULP energy per Si atom -12389.459130 kJ/mol
# Density = 1.985901 g / cm^3
# Si number density = 19.904318 Si / 1000 Ang^3
#
#
#
# Elastic Constant Matrix: (Units=GPa)
#
#
# Indices 1 2 3 4 5 6 
#
# 1 56.9593 11.2147 9.4349 0.0000 0.0000 0.0000
# 2 11.2147 77.9613 8.5895 0.0000 0.0000 0.0000
# 3 9.4349 8.5895 77.4244 0.0000 0.0000 0.0000
# 4 0.0000 0.0000 0.0000 22.2342 0.0000 0.0000
# 5 0.0000 0.0000 0.0000 0.0000 21.4808 0.0000
# 6 0.0000 0.0000 0.0000 0.0000 0.0000 16.2776
#
#
#
# Elastic Compliance Matrix: (Units=1/GPa)
#
#
# Indices 1 2 3 4 5 6 
#
# 1 0.018360 -0.002424 -0.001968 0.000000 0.000000 0.000000
# 2 -0.002424 0.013306 -0.001181 0.000000 0.000000 0.000000
# 3 -0.001968 -0.001181 0.013287 0.000000 0.000000 0.000000
# 4 0.000000 0.000000 0.000000 0.044976 0.000000 0.000000
# 5 0.000000 0.000000 0.000000 0.000000 0.046553 0.000000
# 6 0.000000 0.000000 0.000000 0.000000 0.000000 0.061434
#
#
# Mechanical properties :
#
#
# Convention : Reuss Voigt Hill
#
# Bulk Modulus (GPa) = 29.58096 30.09149 29.83622
# Shear Modulus (GPa) = 22.69323 24.20559 23.44941
#
# Velocity S-wave (km/s) = 3.38022 3.49104 3.43608
# Velocity P-wave (km/s) = 5.48893 5.60363 5.54658
#
# Compressibility (1/GPa) = 0.03380553
#
# Stress axis : x y z
#
# Youngs Moduli (GPa) = 54.46705 75.15588 75.26331
#
# Poissons Ratio (x) = 0.18219 0.14815
# Poissons Ratio (y) = 0.13204 0.08887
# Poissons Ratio (z) = 0.10721 0.08874
#
# Static dielectric constant tensor:
#      x y z
#    x 3.720260 0.000000 0.000000 
#    y 0.000000 3.248070 0.000000 
#    z 0.000000 0.000000 3.905770 
# 
# 
# High freq. dielectric constant tensor:
#      x y z
#    x 1.779360 0.000000 0.000000 
#    y 0.000000 1.741590 0.000000 
#    z 0.000000 0.000000 1.793530 
# 
# From -- ./inp_files/4261.got.cif
#   From: 2010.03.12/outbox.cif.g09.slc.cpg/sg31_3_cif.got.tgz:4261.got - 2010.04.14 01:42:59.
