data_PCOD8169970
_publ_section_title
;
Structure prediction by ZEFSAII (Michael W. Deem and Ramdas Pophale) SiO2 
 PCOD8169970
Probable space group: P M N 21
;
_chemical_formula_sum "Si O2"
_cell_formula_units_Z 24
_cell_length_a 8.289278
_cell_length_b 8.963645
_cell_length_c 15.534249
_cell_angle_alpha 90.000000
_cell_angle_beta 90.000000
_cell_angle_gamma 90.000000
_cell_volume 1154.228026
_symmetry_space_group_name_H-M "P M N 21"
_symmetry_group_IT_number 31
_symmetry_cell_setting 'orthorhombic'
loop_
_space_group_symop_operation_xyz
x,y,z
1/2-x,-y,1/2+z
-x,y,z
1/2+x,-y,1/2+z
loop_
_atom_site_type_symbol
_atom_site_label
_atom_site_fract_x
_atom_site_fract_y
_atom_site_fract_z
Si Si1 0.311521 0.418337 0.905920
Si Si2 0.187926 0.098694 0.581212
Si Si3 0.308928 0.927806 0.743738
Si Si4 0.691649 0.587445 0.740766
Si Si5 0.187018 0.575674 0.070751
Si Si6 0.808880 0.913412 0.418794
O O1 0.500000 0.399938 0.890170
O O2 0.234466 0.498080 0.822149
O O3 0.234453 0.253768 0.918064
O O4 0.283961 0.521237 0.988175
O O5 0.289063 0.249662 0.584915
O O6 0.000000 0.136265 0.568428
O O7 0.213685 0.010036 0.668802
O O8 0.256959 0.000520 0.502184
O O9 0.500000 0.942620 0.728712
O O10 0.249620 0.757474 0.744637
O O11 0.254165 0.000390 0.833412
O O12 0.500000 0.580700 0.744577
O O13 0.756073 0.511745 0.653593
O O14 0.000000 0.539658 0.057076
O O15 0.000000 0.905186 0.424714
#
# Coordination Sequence:
#
# PCOD8169970 Si02
#       6
#     4   4   4   4   4   4
#     4  10  19  36  59  82 107 142 183 226 272 328
#     4  11  22  37  56  82 112 147 186 227 272 324
#     4  10  19  36  59  82 107 142 183 226 272 328
#     4   9  19  35  58  82 109 145 184 221 274 338
#     4  11  22  37  56  82 112 147 186 227 272 324
#     4   9  19  35  58  82 109 145 184 221 274 338
#
# _framework density 20.793120999999999
#
# number of rings (size 3 to 8) (size 9 to 14) (size 15 to 20)
#    0.000    2.000    0.000    4.000    0.000    5.333 
#    0.000   10.000    0.000    0.000    0.000    0.000 
#    0.000    0.000    0.000    0.000    0.000    0.000 
#
# Total GULP energy -297686.456166 kJ/mol
# GULP energy per Si atom -12403.602340 kJ/mol
# Density = 2.074580 g / cm^3
# Si number density = 20.793121 Si / 1000 Ang^3
#
#
#
# Elastic Constant Matrix: (Units=GPa)
#
#
# Indices 1 2 3 4 5 6 
#
# 1 17.5624 3.7322 1.8661 0.0000 0.0000 0.0000
# 2 3.7322 151.6418 51.4333 0.0000 0.0000 0.0000
# 3 1.8661 51.4333 142.4301 0.0000 0.0000 0.0000
# 4 0.0000 0.0000 0.0000 49.2270 0.0000 0.0000
# 5 0.0000 0.0000 0.0000 0.0000 27.2411 0.0000
# 6 0.0000 0.0000 0.0000 0.0000 0.0000 18.5223
#
#
#
# Elastic Compliance Matrix: (Units=1/GPa)
#
#
# Indices 1 2 3 4 5 6 
#
# 1 0.057249 -0.001316 -0.000275 0.000000 0.000000 0.000000
# 2 -0.001316 0.007545 -0.002707 0.000000 0.000000 0.000000
# 3 -0.000275 -0.002707 0.008002 0.000000 0.000000 0.000000
# 4 0.000000 0.000000 0.000000 0.020314 0.000000 0.000000
# 5 0.000000 0.000000 0.000000 0.000000 0.036709 0.000000
# 6 0.000000 0.000000 0.000000 0.000000 0.000000 0.053989
#
#
# Mechanical properties :
#
#
# Convention : Reuss Voigt Hill
#
# Bulk Modulus (GPa) = 15.57637 47.29974 31.43806
# Shear Modulus (GPa) = 23.38585 35.97159 29.67872
#
# Velocity S-wave (km/s) = 3.35728 4.16381 3.78211
# Velocity P-wave (km/s) = 4.74719 6.77596 5.85019
#
# Compressibility (1/GPa) = 0.06419980
#
# Stress axis : x y z
#
# Youngs Moduli (GPa) = 17.46768 132.53528 124.96457
#
# Poissons Ratio (x) = 0.17438 0.03436
# Poissons Ratio (y) = 0.02298 0.33833
# Poissons Ratio (z) = 0.00480 0.35883
#
# Static dielectric constant tensor:
#      x y z
#    x 3.236320 0.000000 0.000000 
#    y 0.000000 4.014200 0.000000 
#    z 0.000000 0.000000 3.940380 
# 
# 
# High freq. dielectric constant tensor:
#      x y z
#    x 1.771150 0.000000 0.000000 
#    y 0.000000 1.833110 0.000000 
#    z 0.000000 0.000000 1.831390 
# 
# From -- ./inp_files/4743.got.cif
#   From: 2010.03.12/outbox.cif.g09.slc.cpg/sg31_3_cif.got.tgz:4743.got - 2010.04.14 01:42:59.
