data_PCOD8169936
_publ_section_title
;
Structure prediction by ZEFSAII (Michael W. Deem and Ramdas Pophale) SiO2 
 PCOD8169936
Probable space group: P M N 21
;
_chemical_formula_sum "Si O2"
_cell_formula_units_Z 32
_cell_length_a 8.726838
_cell_length_b 12.320677
_cell_length_c 14.646006
_cell_angle_alpha 90.000000
_cell_angle_beta 90.000000
_cell_angle_gamma 90.000000
_cell_volume 1574.746653
_symmetry_space_group_name_H-M "P M N 21"
_symmetry_group_IT_number 31
_symmetry_cell_setting 'orthorhombic'
loop_
_space_group_symop_operation_xyz
x,y,z
1/2-x,-y,1/2+z
-x,y,z
1/2+x,-y,1/2+z
loop_
_atom_site_type_symbol
_atom_site_label
_atom_site_fract_x
_atom_site_fract_y
_atom_site_fract_z
Si Si1 0.322955 0.687451 0.661650
Si Si2 0.818775 0.990761 0.752736
Si Si3 0.680517 0.589982 0.358702
Si Si4 0.679544 0.112369 0.070786
Si Si5 0.174064 0.471397 0.655377
Si Si6 0.681523 0.833195 0.387925
Si Si7 0.179889 0.767212 0.835915
Si Si8 0.175196 0.387375 0.463011
O O1 0.500000 0.718346 0.646870
O O2 0.215382 0.766974 0.604622
O O3 0.291029 0.566452 0.627669
O O4 0.272479 0.689692 0.766896
O O5 0.757302 0.971440 0.648995
O O6 0.768541 0.891275 0.819168
O O7 0.000000 0.990878 0.746555
O O8 0.758180 0.102814 0.797186
O O9 0.500000 0.579474 0.375971
O O10 0.720698 0.582297 0.251361
O O11 0.741571 0.709397 0.389415
O O12 0.762833 0.498428 0.418037
O O13 0.500000 0.098253 0.055530
O O14 0.762876 0.096133 0.974431
O O15 0.189284 0.386184 0.572807
O O16 0.000000 0.516216 0.661370
O O17 0.500000 0.833665 0.387872
O O18 0.229836 0.720156 0.933891
O O19 0.000000 0.751908 0.820536
O O20 0.000000 0.374834 0.432247
#
# Coordination Sequence:
#
# PCOD8169936 Si02
#       8
#     4   4   4   4   4   4   4   4
#     4  11  20  32  55  84 110 144 190 237 276 326
#     4   8  18  37  59  81 110 148 189 230 281 341
#     4  10  21  37  58  81 112 154 189 227 287 347
#     4  10  20  36  58  86 115 152 191 234 291 342
#     4  10  21  36  52  78 116 154 184 225 287 345
#     4  10  20  38  61  85 112 149 197 240 280 340
#     4  10  19  35  57  78 108 147 185 231 289 338
#     4  11  22  35  54  83 115 146 187 236 279 337
#
# _framework density 20.320729
#
# number of rings (size 3 to 8) (size 9 to 14) (size 15 to 20)
#    0.000    2.000    1.250    3.750    0.000    3.500 
#    2.250    3.750    0.000    0.000    0.000    0.000 
#    0.000    0.000    0.000    0.000    0.000    0.000 
#
# Total GULP energy -396650.302199 kJ/mol
# GULP energy per Si atom -12395.321944 kJ/mol
# Density = 2.027448 g / cm^3
# Si number density = 20.320729 Si / 1000 Ang^3
#
#
#
# Elastic Constant Matrix: (Units=GPa)
#
#
# Indices 1 2 3 4 5 6 
#
# 1 36.6980 10.7482 8.8153 0.0000 0.0000 0.0000
# 2 10.7482 54.5310 14.9906 0.0000 0.0000 0.0000
# 3 8.8153 14.9906 100.2913 0.0000 0.0000 0.0000
# 4 0.0000 0.0000 0.0000 25.9692 0.0000 0.0000
# 5 0.0000 0.0000 0.0000 0.0000 28.0804 0.0000
# 6 0.0000 0.0000 0.0000 0.0000 0.0000 15.4338
#
#
#
# Elastic Compliance Matrix: (Units=1/GPa)
#
#
# Indices 1 2 3 4 5 6 
#
# 1 0.029221 -0.005270 -0.001781 0.000000 0.000000 0.000000
# 2 -0.005270 0.020074 -0.002537 0.000000 0.000000 0.000000
# 3 -0.001781 -0.002537 0.010507 0.000000 0.000000 0.000000
# 4 0.000000 0.000000 0.000000 0.038507 0.000000 0.000000
# 5 0.000000 0.000000 0.000000 0.000000 0.035612 0.000000
# 6 0.000000 0.000000 0.000000 0.000000 0.000000 0.064793
#
#
# Mechanical properties :
#
#
# Convention : Reuss Voigt Hill
#
# Bulk Modulus (GPa) = 24.61484 28.95871 26.78678
# Shear Modulus (GPa) = 21.60462 24.36107 22.98285
#
# Velocity S-wave (km/s) = 3.26418 3.46617 3.36669
# Velocity P-wave (km/s) = 5.13283 5.50462 5.32197
#
# Compressibility (1/GPa) = 0.04062590
#
# Stress axis : x y z
#
# Youngs Moduli (GPa) = 34.22234 49.81459 95.17711
#
# Poissons Ratio (x) = 0.26252 0.16948
# Poissons Ratio (y) = 0.18035 0.24150
# Poissons Ratio (z) = 0.06094 0.12640
#
# Static dielectric constant tensor:
#      x y z
#    x 3.500930 0.000000 0.000000 
#    y 0.000000 3.711130 0.000000 
#    z 0.000000 0.000000 3.954280 
# 
# 
# High freq. dielectric constant tensor:
#      x y z
#    x 1.775710 0.000000 0.000000 
#    y 0.000000 1.776490 0.000000 
#    z 0.000000 0.000000 1.801250 
# 
# From -- ./inp_files/4971.got.cif
#   From: 2010.03.12/outbox.cif.g09.slc.cpg/sg31_3_cif.got.tgz:4971.got - 2010.04.14 01:42:59.
