data_PCOD8169045
_publ_section_title
;
Structure prediction by ZEFSAII (Michael W. Deem and Ramdas Pophale) SiO2 
 PCOD8169045
Probable space group: P C A 21
;
_chemical_formula_sum "Si O2"
_cell_formula_units_Z 28
_cell_length_a 14.931482
_cell_length_b 9.457278
_cell_length_c 8.885048
_cell_angle_alpha 90.000000
_cell_angle_beta 90.000000
_cell_angle_gamma 90.000000
_cell_volume 1254.668079
_symmetry_space_group_name_H-M "P C A 21"
_symmetry_group_IT_number 29
_symmetry_cell_setting 'orthorhombic'
loop_
_space_group_symop_operation_xyz
x,y,z
-x,-y,1/2+z
1/2-x,y,1/2+z
1/2+x,-y,z
loop_
_atom_site_type_symbol
_atom_site_label
_atom_site_fract_x
_atom_site_fract_y
_atom_site_fract_z
Si Si1 0.082108 0.549182 0.734260
Si Si2 0.764604 0.750000 0.585931
Si Si3 0.220622 0.052045 0.842560
Si Si4 0.917893 0.049182 0.937604
Si Si5 0.720621 0.552045 0.329303
Si Si6 0.433553 0.632673 0.889110
Si Si7 0.933552 0.132673 0.282754
O O1 0.178878 0.488572 0.781591
O O2 0.065755 0.575230 0.558624
O O3 0.063055 0.700295 0.810117
O O4 0.013304 0.434206 0.794675
O O5 0.822181 0.838973 0.465795
O O6 0.708890 0.866803 0.682570
O O7 0.708890 0.633198 0.489292
O O8 0.822181 0.661027 0.706067
O O9 0.321123 0.011430 0.890272
O O10 0.162501 0.911706 0.849659
O O11 0.936945 0.200296 0.861747
O O12 0.934245 0.075230 0.113240
O O13 0.986698 0.934207 0.877190
O O14 0.662500 0.411707 0.322204
#
# Coordination Sequence:
#
# PCOD8169045 Si02
#       7
#     4   4   4   4   4   4   4
#     4  11  27  45  68  98 135 176 223 274 333 395
#     4  10  24  38  78  98 132 172 226 270 336 392
#     4  11  23  46  68 100 136 176 220 274 334 394
#     4  11  27  45  68  98 135 176 223 274 333 395
#     4  11  23  46  68 100 136 176 220 274 334 394
#     4  11  27  45  68  98 135 176 223 274 333 395
#     4  11  27  45  68  98 135 176 223 274 333 395
#
# _framework density 22.316658
#
# number of rings (size 3 to 8) (size 9 to 14) (size 15 to 20)
#    0.000    1.143    2.857    0.857   12.000    1.143 
#    0.000    0.000    0.000    0.000    0.000    0.000 
#    0.000    0.000    0.000    0.000    0.000    0.000 
#
# Total GULP energy -346906.239058 kJ/mol
# GULP energy per Si atom -12389.508538 kJ/mol
# Density = 2.226586 g / cm^3
# Si number density = 22.316658 Si / 1000 Ang^3
#
#
#
# Elastic Constant Matrix: (Units=GPa)
#
#
# Indices 1 2 3 4 5 6 
#
# 1 92.8362 24.7992 31.1859 0.0000 0.0000 0.0000
# 2 24.7992 117.5063 24.8289 0.0000 0.0000 0.0000
# 3 31.1859 24.8289 68.9235 0.0000 0.0000 0.0000
# 4 0.0000 0.0000 0.0000 38.9263 0.0000 0.0000
# 5 0.0000 0.0000 0.0000 0.0000 18.8344 0.0000
# 6 0.0000 0.0000 0.0000 0.0000 0.0000 15.9604
#
#
#
# Elastic Compliance Matrix: (Units=1/GPa)
#
#
# Indices 1 2 3 4 5 6 
#
# 1 0.012982 -0.001622 -0.005290 0.000000 0.000000 0.000000
# 2 -0.001622 0.009414 -0.002657 0.000000 0.000000 0.000000
# 3 -0.005290 -0.002657 0.017859 0.000000 0.000000 0.000000
# 4 0.000000 0.000000 0.000000 0.025690 0.000000 0.000000
# 5 0.000000 0.000000 0.000000 0.000000 0.053094 0.000000
# 6 0.000000 0.000000 0.000000 0.000000 0.000000 0.062655
#
#
# Mechanical properties :
#
#
# Convention : Reuss Voigt Hill
#
# Bulk Modulus (GPa) = 47.35441 48.98822 48.17131
# Shear Modulus (GPa) = 24.05335 27.97438 26.01386
#
# Velocity S-wave (km/s) = 3.28658 3.54435 3.41790
# Velocity P-wave (km/s) = 5.97223 6.22487 6.09986
#
# Compressibility (1/GPa) = 0.02111736
#
# Stress axis : x y z
#
# Youngs Moduli (GPa) = 77.03063 106.22463 55.99261
#
# Poissons Ratio (x) = 0.17231 0.29618
# Poissons Ratio (y) = 0.12495 0.14879
# Poissons Ratio (z) = 0.40746 0.28228
#
# Static dielectric constant tensor:
#      x y z
#    x 3.706980 0.000000 0.000000 
#    y 0.000000 4.340730 0.000000 
#    z 0.000000 0.000000 4.292210 
# 
# 
# High freq. dielectric constant tensor:
#      x y z
#    x 1.859490 0.000000 0.000000 
#    y 0.000000 1.902380 0.000000 
#    z 0.000000 0.000000 1.893770 
# 
# From -- ./inp_files/1774.got.cif
#   From: 2010.03.12/outbox.cif.g09.slc.cpg/sg29_1_cif.got.tgz:1774.got - 2010.04.14 03:43:10.
