data_PCOD8169392
_publ_section_title
;
Structure prediction by ZEFSAII (Michael W. Deem and Ramdas Pophale) SiO2 
 PCOD8169392
Probable space group: P N C 2
;
_chemical_formula_sum "Si O2"
_cell_formula_units_Z 32
_cell_length_a 11.331954
_cell_length_b 8.652409
_cell_length_c 14.644376
_cell_angle_alpha 90.000000
_cell_angle_beta 90.000000
_cell_angle_gamma 90.000000
_cell_volume 1435.862040
_symmetry_space_group_name_H-M "P N C 2"
_symmetry_group_IT_number 30
_symmetry_cell_setting 'orthorhombic'
loop_
_space_group_symop_operation_xyz
x,y,z
-x,-y,z
-x,1/2+y,1/2+z
x,1/2-y,1/2+z
loop_
_atom_site_type_symbol
_atom_site_label
_atom_site_fract_x
_atom_site_fract_y
_atom_site_fract_z
Si Si1 0.944350 0.341877 0.207630
Si Si2 0.669914 0.876086 0.570920
Si Si3 0.786645 0.425323 0.379801
Si Si4 0.821583 0.672293 0.700151
Si Si5 0.544654 0.329720 0.316100
Si Si6 0.196008 0.872887 0.079914
Si Si7 0.420226 0.715036 0.113620
Si Si8 0.301438 0.272253 0.876589
O O1 0.873244 0.371237 0.300363
O O2 0.860880 0.276184 0.128011
O O3 0.000000 0.500000 0.169770
O O4 0.047096 0.220012 0.229237
O O5 0.757814 0.813650 0.648253
O O6 0.549889 0.774392 0.569998
O O7 0.729153 0.858715 0.471114
O O8 0.641734 0.051122 0.594923
O O9 0.663687 0.330857 0.375651
O O10 0.850367 0.390505 0.476307
O O11 0.761575 0.606739 0.371437
O O12 0.833164 0.526164 0.635131
O O13 0.749201 0.628563 0.791790
O O14 0.500000 0.500000 0.291005
O O15 0.571301 0.248179 0.220651
O O16 0.443563 0.237311 0.369989
O O17 0.337703 0.849849 0.073256
#
# Coordination Sequence:
#
# PCOD8169392 Si02
#       8
#     4   4   4   4   4   4   4   4
#     4  12  26  47  75  95 131 188 236 283 355 418
#     4  11  22  42  69 104 141 189 232 280 341 427
#     4  11  23  45  73 102 136 188 231 284 352 422
#     4  12  25  45  67 102 139 179 234 297 341 406
#     4  10  18  38  71  99 137 185 227 269 345 421
#     4  12  27  45  72 106 140 175 235 298 348 416
#     4  11  21  42  68 101 148 187 226 279 355 415
#     4  11  22  42  71 105 143 184 227 287 348 417
#
# _framework density 22.286263999999999
#
# number of rings (size 3 to 8) (size 9 to 14) (size 15 to 20)
#    0.000    0.750    6.250    2.625    0.000    3.500 
#    4.500    1.250    0.000    0.000    0.000    0.000 
#    0.000    0.000    0.000    0.000    0.000    0.000 
#
# Total GULP energy -396926.969766 kJ/mol
# GULP energy per Si atom -12403.967805 kJ/mol
# Density = 2.223554 g / cm^3
# Si number density = 22.286264 Si / 1000 Ang^3
#
#
#
# Elastic Constant Matrix: (Units=GPa)
#
#
# Indices 1 2 3 4 5 6 
#
# 1 110.4081 28.0353 39.1794 0.0000 0.0000 0.0000
# 2 28.0353 56.6777 32.8666 0.0000 0.0000 0.0000
# 3 39.1794 32.8666 176.0144 0.0000 0.0000 0.0000
# 4 0.0000 0.0000 0.0000 27.7116 0.0000 0.0000
# 5 0.0000 0.0000 0.0000 0.0000 12.7668 0.0000
# 6 0.0000 0.0000 0.0000 0.0000 0.0000 31.2939
#
#
#
# Elastic Compliance Matrix: (Units=1/GPa)
#
#
# Indices 1 2 3 4 5 6 
#
# 1 0.010730 -0.004399 -0.001567 0.000000 0.000000 0.000000
# 2 -0.004399 0.021589 -0.003052 0.000000 0.000000 0.000000
# 3 -0.001567 -0.003052 0.006600 0.000000 0.000000 0.000000
# 4 0.000000 0.000000 0.000000 0.036086 0.000000 0.000000
# 5 0.000000 0.000000 0.000000 0.000000 0.078328 0.000000
# 6 0.000000 0.000000 0.000000 0.000000 0.000000 0.031955
#
#
# Mechanical properties :
#
#
# Convention : Reuss Voigt Hill
#
# Bulk Modulus (GPa) = 47.88473 60.36253 54.12363
# Shear Modulus (GPa) = 23.77701 30.55571 27.16636
#
# Velocity S-wave (km/s) = 3.26987 3.70679 3.49517
# Velocity P-wave (km/s) = 5.98239 6.74272 6.37390
#
# Compressibility (1/GPa) = 0.02088349
#
# Stress axis : x y z
#
# Youngs Moduli (GPa) = 93.19301 46.31892 151.51302
#
# Poissons Ratio (x) = 0.20376 0.23744
# Poissons Ratio (y) = 0.40996 0.46244
# Poissons Ratio (z) = 0.14604 0.14137
#
# Static dielectric constant tensor:
#      x y z
#    x 4.251680 0.000000 0.000000 
#    y 0.000000 3.721710 0.000000 
#    z 0.000000 0.000000 4.004030 
# 
# 
# High freq. dielectric constant tensor:
#      x y z
#    x 1.883350 0.000000 0.000000 
#    y 0.000000 1.855440 0.000000 
#    z 0.000000 0.000000 1.887890 
# 
# From -- ./inp_files/5543.got.cif
#   From: 2010.03.12/outbox.cif.g09.slc.cpg/sg30_3_cif.got.tgz:5543.got - 2010.04.14 01:38:02.
