data_PCOD8169456
_publ_section_title
;
Structure prediction by ZEFSAII (Michael W. Deem and Ramdas Pophale) SiO2 
 PCOD8169456
Probable space group: P N C 2
;
_chemical_formula_sum "Si O2"
_cell_formula_units_Z 28
_cell_length_a 6.687844
_cell_length_b 19.999328
_cell_length_c 9.978135
_cell_angle_alpha 90.000000
_cell_angle_beta 90.000000
_cell_angle_gamma 90.000000
_cell_volume 1334.599362
_symmetry_space_group_name_H-M "P N C 2"
_symmetry_group_IT_number 30
_symmetry_cell_setting 'orthorhombic'
loop_
_space_group_symop_operation_xyz
x,y,z
-x,-y,z
-x,1/2+y,1/2+z
x,1/2-y,1/2+z
loop_
_atom_site_type_symbol
_atom_site_label
_atom_site_fract_x
_atom_site_fract_y
_atom_site_fract_z
Si Si1 0.435536 0.924433 0.683240
Si Si2 0.877432 0.129592 0.154906
Si Si3 0.726476 0.693202 0.745248
Si Si4 0.610750 0.364216 0.905282
Si Si5 0.420491 0.777163 0.028373
Si Si6 0.716782 0.665785 0.332008
Si Si7 0.080444 0.928415 0.886531
O O1 0.374917 0.916534 0.527354
O O2 0.622833 0.873880 0.704903
O O3 0.250896 0.906566 0.781407
O O4 0.500000 0.000000 0.713223
O O5 0.772507 0.110611 0.295606
O O6 0.780607 0.195167 0.091746
O O7 0.107900 0.147876 0.176600
O O8 0.848775 0.070724 0.043458
O O9 0.608724 0.639997 0.838314
O O10 0.579108 0.733658 0.646262
O O11 0.809514 0.758979 0.820427
O O12 0.655306 0.289684 0.956865
O O13 0.526427 0.830815 0.931285
O O14 0.901698 0.624483 0.387174
O O15 0.000000 0.000000 0.842526
#
# Coordination Sequence:
#
# PCOD8169456 Si02
#       7
#     4   4   4   4   4   4   4
#     4  12  25  47  66  89 132 178 221 273 321 389
#     4  11  24  41  67  99 132 171 215 271 331 387
#     4  10  22  39  66  99 131 168 205 270 335 390
#     4  10  25  42  62 100 132 170 215 266 336 390
#     4  10  20  39  65  96 132 165 211 261 331 391
#     4  11  22  39  65  96 128 166 217 267 325 384
#     4  12  26  43  67  97 123 176 232 268 318 394
#
# _framework density 20.980079
#
# number of rings (size 3 to 8) (size 9 to 14) (size 15 to 20)
#    0.000    1.143    5.714    0.000    4.000    1.143 
#    2.571    0.000    0.000    0.000    0.000    0.000 
#    0.000    0.000    0.000    0.000    0.000    0.000 
#
# Total GULP energy -346992.311065 kJ/mol
# GULP energy per Si atom -12392.582538 kJ/mol
# Density = 2.093233 g / cm^3
# Si number density = 20.980079 Si / 1000 Ang^3
#
#
#
# Elastic Constant Matrix: (Units=GPa)
#
#
# Indices 1 2 3 4 5 6 
#
# 1 70.5757 27.1071 36.6423 0.0000 0.0000 0.0000
# 2 27.1071 55.1169 17.8515 0.0000 0.0000 0.0000
# 3 36.6423 17.8515 128.4755 0.0000 0.0000 0.0000
# 4 0.0000 0.0000 0.0000 28.8558 0.0000 0.0000
# 5 0.0000 0.0000 0.0000 0.0000 27.3045 0.0000
# 6 0.0000 0.0000 0.0000 0.0000 0.0000 24.6872
#
#
#
# Elastic Compliance Matrix: (Units=1/GPa)
#
#
# Indices 1 2 3 4 5 6 
#
# 1 0.019640 -0.008215 -0.004460 0.000000 0.000000 0.000000
# 2 -0.008215 0.022434 -0.000774 0.000000 0.000000 0.000000
# 3 -0.004460 -0.000774 0.009163 0.000000 0.000000 0.000000
# 4 0.000000 0.000000 0.000000 0.034655 0.000000 0.000000
# 5 0.000000 0.000000 0.000000 0.000000 0.036624 0.000000
# 6 0.000000 0.000000 0.000000 0.000000 0.000000 0.040507
#
#
# Mechanical properties :
#
#
# Convention : Reuss Voigt Hill
#
# Bulk Modulus (GPa) = 41.08589 46.37446 43.73017
# Shear Modulus (GPa) = 25.24817 27.67397 26.46107
#
# Velocity S-wave (km/s) = 3.47282 3.63583 3.55526
# Velocity P-wave (km/s) = 5.97549 6.30695 6.14346
#
# Compressibility (1/GPa) = 0.02433926
#
# Stress axis : x y z
#
# Youngs Moduli (GPa) = 50.91675 44.57509 109.13194
#
# Poissons Ratio (x) = 0.36617 0.48673
# Poissons Ratio (y) = 0.41826 0.08450
# Poissons Ratio (z) = 0.22709 0.03452
#
# Static dielectric constant tensor:
#      x y z
#    x 3.723950 0.000000 0.000000 
#    y 0.000000 3.521730 0.000000 
#    z 0.000000 0.000000 4.089930 
# 
# 
# High freq. dielectric constant tensor:
#      x y z
#    x 1.820340 0.000000 0.000000 
#    y 0.000000 1.798640 0.000000 
#    z 0.000000 0.000000 1.835270 
# 
# From -- ./inp_files/3216.got.cif
#   From: 2010.03.12/outbox.cif.g09.slc.cpg/sg30_2_cif.got.tgz:3216.got - 2010.04.14 01:38:02.
