data_PCOD8169141
_publ_section_title
;
Structure prediction by ZEFSAII (Michael W. Deem and Ramdas Pophale) SiO2 
 PCOD8169141
Probable space group: P C A 21
;
_chemical_formula_sum "Si O2"
_cell_formula_units_Z 32
_cell_length_a 14.674023
_cell_length_b 8.902453
_cell_length_c 11.326026
_cell_angle_alpha 90.000000
_cell_angle_beta 90.000000
_cell_angle_gamma 90.000000
_cell_volume 1479.573142
_symmetry_space_group_name_H-M "P C A 21"
_symmetry_group_IT_number 29
_symmetry_cell_setting 'orthorhombic'
loop_
_space_group_symop_operation_xyz
x,y,z
-x,-y,1/2+z
1/2-x,y,1/2+z
1/2+x,-y,z
loop_
_atom_site_type_symbol
_atom_site_label
_atom_site_fract_x
_atom_site_fract_y
_atom_site_fract_z
Si Si1 0.547123 0.735383 0.655860
Si Si2 0.076922 0.602082 0.591497
Si Si3 0.443811 0.172307 0.706392
Si Si4 0.243422 0.780064 0.687480
Si Si5 0.899639 0.247133 0.849881
Si Si6 0.383587 0.085620 0.944309
Si Si7 0.613559 0.983963 0.781661
Si Si8 0.683941 0.991171 0.028998
O O1 0.576289 0.574614 0.609042
O O2 0.452864 0.726771 0.727426
O O3 0.548682 0.852365 0.545732
O O4 0.618425 0.805753 0.751377
O O5 0.171965 0.655933 0.647629
O O6 0.073977 0.634391 0.451275
O O7 0.990747 0.675656 0.658121
O O8 0.394476 0.197914 0.832651
O O9 0.364675 0.120080 0.619371
O O10 0.520369 0.045757 0.724551
O O11 0.296037 0.726253 0.805181
O O12 0.197534 0.938541 0.718402
O O13 0.306265 0.837965 0.579308
O O14 0.914621 0.082707 0.906504
O O15 0.278961 0.083046 0.986679
O O16 0.614842 0.010919 0.920447
#
# Coordination Sequence:
#
# PCOD8169141 Si02
#       8
#     4   4   4   4   4   4   4   4
#     4  12  27  45  69 103 148 189 235 292 376 439
#     4  11  27  50  64 104 154 189 234 294 371 445
#     4  11  25  40  71  98 140 189 233 299 356 419
#     4  11  21  44  72 105 138 182 238 299 356 417
#     4  12  24  47  75 103 139 194 243 301 354 427
#     4  12  24  43  71 105 137 180 251 301 344 419
#     4  11  21  39  69 104 132 177 241 293 348 419
#     4  12  21  40  73 104 136 174 243 303 349 401
#
# _framework density 21.627859000000001
#
# number of rings (size 3 to 8) (size 9 to 14) (size 15 to 20)
#    0.000    0.500    6.250    1.500    5.250    0.000 
#    4.500    0.000    0.000    0.000    0.000    0.000 
#    0.000    0.000    0.000    0.000    0.000    0.000 
#
# Total GULP energy -396600.581771 kJ/mol
# GULP energy per Si atom -12393.768180 kJ/mol
# Density = 2.157863 g / cm^3
# Si number density = 21.627859 Si / 1000 Ang^3
#
#
#
# Elastic Constant Matrix: (Units=GPa)
#
#
# Indices 1 2 3 4 5 6 
#
# 1 78.9983 47.2427 55.6125 0.0000 0.0000 0.0000
# 2 47.2427 102.9936 53.0400 0.0000 0.0000 0.0000
# 3 55.6125 53.0400 152.3109 0.0000 0.0000 0.0000
# 4 0.0000 0.0000 0.0000 30.3939 0.0000 0.0000
# 5 0.0000 0.0000 0.0000 0.0000 56.6394 0.0000
# 6 0.0000 0.0000 0.0000 0.0000 0.0000 11.5291
#
#
#
# Elastic Compliance Matrix: (Units=1/GPa)
#
#
# Indices 1 2 3 4 5 6 
#
# 1 0.020202 -0.006663 -0.005056 0.000000 0.000000 0.000000
# 2 -0.006663 0.014029 -0.002452 0.000000 0.000000 0.000000
# 3 -0.005056 -0.002452 0.009266 0.000000 0.000000 0.000000
# 4 0.000000 0.000000 0.000000 0.032901 0.000000 0.000000
# 5 0.000000 0.000000 0.000000 0.000000 0.017656 0.000000
# 6 0.000000 0.000000 0.000000 0.000000 0.000000 0.086737
#
#
# Mechanical properties :
#
#
# Convention : Reuss Voigt Hill
#
# Bulk Modulus (GPa) = 65.99076 71.78815 68.88945
# Shear Modulus (GPa) = 23.34427 31.60632 27.47530
#
# Velocity S-wave (km/s) = 3.28893 3.82693 3.56809
# Velocity P-wave (km/s) = 6.70827 7.26579 6.99259
#
# Compressibility (1/GPa) = 0.01515364
#
# Stress axis : x y z
#
# Youngs Moduli (GPa) = 49.49890 71.28313 107.92527
#
# Poissons Ratio (x) = 0.47496 0.54569
# Poissons Ratio (y) = 0.32981 0.26468
# Poissons Ratio (z) = 0.25027 0.17482
#
# Static dielectric constant tensor:
#      x y z
#    x 4.150290 0.000000 0.000000 
#    y 0.000000 3.586680 0.000000 
#    z 0.000000 0.000000 4.415590 
# 
# 
# High freq. dielectric constant tensor:
#      x y z
#    x 1.855750 0.000000 0.000000 
#    y 0.000000 1.807510 0.000000 
#    z 0.000000 0.000000 1.879080 
# 
# From -- ./inp_files/3481.got.cif
#   From: 2010.03.12/outbox.cif.g09.slc.cpg/sg29_2_cif.got.tgz:3481.got - 2010.04.14 03:43:10.
