data_PCOD8169423
_publ_section_title
;
Structure prediction by ZEFSAII (Michael W. Deem and Ramdas Pophale) SiO2 
 PCOD8169423
Probable space group: P N C 2
;
_chemical_formula_sum "Si O2"
_cell_formula_units_Z 28
_cell_length_a 8.854375
_cell_length_b 12.398510
_cell_length_c 13.789539
_cell_angle_alpha 90.000000
_cell_angle_beta 90.000000
_cell_angle_gamma 90.000000
_cell_volume 1513.830167
_symmetry_space_group_name_H-M "P N C 2"
_symmetry_group_IT_number 30
_symmetry_cell_setting 'orthorhombic'
loop_
_space_group_symop_operation_xyz
x,y,z
-x,-y,z
-x,1/2+y,1/2+z
x,1/2-y,1/2+z
loop_
_atom_site_type_symbol
_atom_site_label
_atom_site_fract_x
_atom_site_fract_y
_atom_site_fract_z
Si Si1 0.325692 0.690900 0.854970
Si Si2 0.791535 0.524434 0.772296
Si Si3 0.391839 0.723512 0.642905
Si Si4 0.122732 0.712488 0.508745
Si Si5 0.500000 0.000000 0.179827
Si Si6 0.901837 0.602462 0.961423
Si Si7 0.555545 0.615087 0.015316
Si Si8 0.000000 0.000000 0.094916
O O1 0.212515 0.593226 0.824936
O O2 0.389345 0.745709 0.757738
O O3 0.228185 0.779858 0.913110
O O4 0.466992 0.648267 0.917652
O O5 0.618996 0.557966 0.752521
O O6 0.883744 0.602760 0.843795
O O7 0.863715 0.530456 0.666008
O O8 0.226626 0.748874 0.599386
O O9 0.425746 0.596556 0.617844
O O10 0.522515 0.796971 0.598111
O O11 0.981422 0.791194 0.499532
O O12 0.052039 0.594839 0.523190
O O13 0.000000 0.500000 0.997264
O O14 0.733876 0.603115 0.003488
O O15 0.500000 0.500000 0.053166
#
# Coordination Sequence:
#
# PCOD8169423 Si02
#       8
#     4   4   4   4   2   4   4   2
#     4  10  19  42  64  87 117 163 204 258 298 343
#     4  11  19  37  65  89 113 155 213 253 289 343
#     4  10  22  39  63  88 119 159 202 259 296 356
#     4  11  23  36  60  89 129 157 195 248 312 361
#     4  10  20  36  66  92 108 154 208 254 294 336
#     4  12  21  36  61  95 119 154 199 258 304 350
#     4  11  22  38  63  91 120 156 210 252 298 362
#     4  12  22  36  58  94 124 164 196 250 308 372
#
# _framework density 18.496130000000001
#
# number of rings (size 3 to 8) (size 9 to 14) (size 15 to 20)
#    0.000    1.143    6.429    2.571    3.000    0.000 
#    0.000    0.000   17.286    0.000    0.000    0.000 
#    0.000    0.000    0.000    0.000    0.000    0.000 
#
# Total GULP energy -347017.781820 kJ/mol
# GULP energy per Si atom -12393.492208 kJ/mol
# Density = 1.845403 g / cm^3
# Si number density = 18.496130 Si / 1000 Ang^3
#
#
#
# Elastic Constant Matrix: (Units=GPa)
#
#
# Indices 1 2 3 4 5 6 
#
# 1 140.5456 52.6378 37.8075 0.0000 0.0000 0.0000
# 2 52.6378 95.4817 50.8805 0.0000 0.0000 0.0000
# 3 37.8075 50.8805 94.1217 0.0000 0.0000 0.0000
# 4 0.0000 0.0000 0.0000 35.8446 0.0000 0.0000
# 5 0.0000 0.0000 0.0000 0.0000 33.9043 0.0000
# 6 0.0000 0.0000 0.0000 0.0000 0.0000 34.7226
#
#
#
# Elastic Compliance Matrix: (Units=1/GPa)
#
#
# Indices 1 2 3 4 5 6 
#
# 1 0.009082 -0.004302 -0.001323 0.000000 0.000000 0.000000
# 2 -0.004302 0.016749 -0.007326 0.000000 0.000000 0.000000
# 3 -0.001323 -0.007326 0.015116 0.000000 0.000000 0.000000
# 4 0.000000 0.000000 0.000000 0.027898 0.000000 0.000000
# 5 0.000000 0.000000 0.000000 0.000000 0.029495 0.000000
# 6 0.000000 0.000000 0.000000 0.000000 0.000000 0.028800
#
#
# Mechanical properties :
#
#
# Convention : Reuss Voigt Hill
#
# Bulk Modulus (GPa) = 66.46400 68.08899 67.27649
# Shear Modulus (GPa) = 31.63431 33.48252 32.55842
#
# Velocity S-wave (km/s) = 4.14009 4.25931 4.20012
# Velocity P-wave (km/s) = 7.67240 7.81546 7.74426
#
# Compressibility (1/GPa) = 0.01504574
#
# Stress axis : x y z
#
# Youngs Moduli (GPa) = 110.10615 59.70579 66.15467
#
# Poissons Ratio (x) = 0.25686 0.08749
# Poissons Ratio (y) = 0.47369 0.48465
# Poissons Ratio (z) = 0.14562 0.43740
#
# Static dielectric constant tensor:
#      x y z
#    x 3.680320 0.000000 0.000000 
#    y 0.000000 3.350230 0.000000 
#    z 0.000000 0.000000 3.428400 
# 
# 
# High freq. dielectric constant tensor:
#      x y z
#    x 1.744620 0.000000 0.000000 
#    y 0.000000 1.692120 0.000000 
#    z 0.000000 0.000000 1.704290 
# 
# From -- ./inp_files/5154.got.cif
#   From: 2010.03.12/outbox.cif.g09.slc.cpg/sg30_3_cif.got.tgz:5154.got - 2010.04.14 01:38:02.
