data_PCOD8169264
_publ_section_title
;
Structure prediction by ZEFSAII (Michael W. Deem and Ramdas Pophale) SiO2 
 PCOD8169264
Probable space group: P C A 21
;
_chemical_formula_sum "Si O2"
_cell_formula_units_Z 28
_cell_length_a 10.808431
_cell_length_b 10.925170
_cell_length_c 9.451116
_cell_angle_alpha 90.000000
_cell_angle_beta 90.000000
_cell_angle_gamma 90.000000
_cell_volume 1116.025072
_symmetry_space_group_name_H-M "P C A 21"
_symmetry_group_IT_number 29
_symmetry_cell_setting 'orthorhombic'
loop_
_space_group_symop_operation_xyz
x,y,z
-x,-y,1/2+z
1/2-x,y,1/2+z
1/2+x,-y,z
loop_
_atom_site_type_symbol
_atom_site_label
_atom_site_fract_x
_atom_site_fract_y
_atom_site_fract_z
Si Si1 0.233058 0.199138 0.346710
Si Si2 0.358418 0.534604 0.539655
Si Si3 0.035308 0.532496 0.754559
Si Si4 0.369167 0.962889 0.721908
Si Si5 0.303317 0.745840 0.125977
Si Si6 0.818086 0.659057 0.089722
Si Si7 0.525634 0.878606 0.968851
O O1 0.132781 0.251480 0.462312
O O2 0.228888 0.267799 0.197553
O O3 0.363283 0.214002 0.431237
O O4 0.206478 0.058848 0.315746
O O5 0.469148 0.523889 0.424457
O O6 0.398690 0.467701 0.688216
O O7 0.304841 0.671992 0.544810
O O8 0.247829 0.445653 0.494925
O O9 0.125706 0.647353 0.724680
O O10 0.075353 0.403148 0.681903
O O11 0.272130 0.851640 0.706347
O O12 0.423757 0.016246 0.575114
O O13 0.488392 0.931048 0.815763
O O14 0.407280 0.805833 0.027631
#
# Coordination Sequence:
#
# PCOD8169264 Si02
#       7
#     4   4   4   4   4   4   4
#     4  12  25  48  74 108 150 198 252 318 379 464
#     4  11  26  47  73 111 147 200 250 320 383 458
#     4  11  26  44  75 106 148 198 252 313 397 444
#     4  12  28  48  75 111 153 207 259 319 388 461
#     4  11  27  49  75 112 155 202 264 326 373 480
#     4  11  25  45  73 102 147 189 251 312 377 454
#     4  12  27  47  75 106 152 198 256 310 389 449
#
# _framework density 25.089043
#
# number of rings (size 3 to 8) (size 9 to 14) (size 15 to 20)
#    0.000    0.571    2.857    3.429    6.000    2.286 
#    0.000    0.000    0.000    0.000    0.000    0.000 
#    0.000    0.000    0.000    0.000    0.000    0.000 
#
# Total GULP energy -346894.719503 kJ/mol
# GULP energy per Si atom -12389.097125 kJ/mol
# Density = 2.503194 g / cm^3
# Si number density = 25.089043 Si / 1000 Ang^3
#
#
#
# Elastic Constant Matrix: (Units=GPa)
#
#
# Indices 1 2 3 4 5 6 
#
# 1 77.9714 31.2341 7.4841 0.0000 0.0000 0.0000
# 2 31.2341 140.7834 36.5781 0.0000 0.0000 0.0000
# 3 7.4841 36.5781 92.8722 0.0000 0.0000 0.0000
# 4 0.0000 0.0000 0.0000 31.0163 0.0000 0.0000
# 5 0.0000 0.0000 0.0000 0.0000 38.9440 0.0000
# 6 0.0000 0.0000 0.0000 0.0000 0.0000 42.9944
#
#
#
# Elastic Compliance Matrix: (Units=1/GPa)
#
#
# Indices 1 2 3 4 5 6 
#
# 1 0.014077 -0.003151 0.000107 0.000000 0.000000 0.000000
# 2 -0.003151 0.008618 -0.003140 0.000000 0.000000 0.000000
# 3 0.000107 -0.003140 0.011996 0.000000 0.000000 0.000000
# 4 0.000000 0.000000 0.000000 0.032241 0.000000 0.000000
# 5 0.000000 0.000000 0.000000 0.000000 0.025678 0.000000
# 6 0.000000 0.000000 0.000000 0.000000 0.000000 0.023259
#
#
# Mechanical properties :
#
#
# Convention : Reuss Voigt Hill
#
# Bulk Modulus (GPa) = 44.79941 51.35772 48.07857
# Shear Modulus (GPa) = 36.85179 38.34632 37.59905
#
# Velocity S-wave (km/s) = 3.83670 3.91373 3.87541
# Velocity P-wave (km/s) = 6.12552 6.39825 6.26337
#
# Compressibility (1/GPa) = 0.02232172
#
# Stress axis : x y z
#
# Youngs Moduli (GPa) = 71.03709 116.03519 83.36293
#
# Poissons Ratio (x) = 0.36561 -0.00888
# Poissons Ratio (y) = 0.22383 0.26179
# Poissons Ratio (z) = -0.00757 0.36439
#
# Static dielectric constant tensor:
#      x y z
#    x 4.440470 0.000000 0.000000 
#    y 0.000000 4.716420 0.000000 
#    z 0.000000 0.000000 4.723090 
# 
# 
# High freq. dielectric constant tensor:
#      x y z
#    x 1.994710 0.000000 0.000000 
#    y 0.000000 2.013290 0.000000 
#    z 0.000000 0.000000 2.010010 
# 
# From -- ./inp_files/1489.got.cif
#   From: 2010.03.12/outbox.cif.g09.slc.cpg/sg29_1_cif.got.tgz:1489.got - 2010.04.14 03:43:10.
