data_PCOD8169410
_publ_section_title
;
Structure prediction by ZEFSAII (Michael W. Deem and Ramdas Pophale) SiO2 
 PCOD8169410
Probable space group: P N C 2
;
_chemical_formula_sum "Si O2"
_cell_formula_units_Z 30
_cell_length_a 11.667140
_cell_length_b 15.865576
_cell_length_c 8.234604
_cell_angle_alpha 90.000000
_cell_angle_beta 90.000000
_cell_angle_gamma 90.000000
_cell_volume 1524.273755
_symmetry_space_group_name_H-M "P N C 2"
_symmetry_group_IT_number 30
_symmetry_cell_setting 'orthorhombic'
loop_
_space_group_symop_operation_xyz
x,y,z
-x,-y,z
-x,1/2+y,1/2+z
x,1/2-y,1/2+z
loop_
_atom_site_type_symbol
_atom_site_label
_atom_site_fract_x
_atom_site_fract_y
_atom_site_fract_z
Si Si1 0.686809 0.856141 0.521640
Si Si2 0.798558 0.153585 0.906965
Si Si3 0.200132 0.289078 0.705068
Si Si4 0.000000 0.500000 0.195849
Si Si5 0.935492 0.846909 0.902478
Si Si6 0.764802 0.026738 0.638442
Si Si7 0.329908 0.716527 0.694638
Si Si8 0.426762 0.638195 0.988311
O O1 0.702532 0.767793 0.616288
O O2 0.739635 0.848381 0.340005
O O3 0.556597 0.889972 0.516467
O O4 0.750181 0.926314 0.629953
O O5 0.758359 0.067319 0.818416
O O6 0.763153 0.235095 0.802973
O O7 0.931629 0.164523 0.943703
O O8 0.734712 0.151968 0.077817
O O9 0.105371 0.229449 0.787922
O O10 0.137980 0.347523 0.569736
O O11 0.073273 0.435820 0.308637
O O12 0.100156 0.544533 0.086771
O O13 0.669709 0.068042 0.523469
O O14 0.415773 0.660930 0.800350
O O15 0.409002 0.780426 0.597734
#
# Coordination Sequence:
#
# PCOD8169410 Si02
#       8
#     4   4   4   2   4   4   4   4
#     4  11  21  40  57  85 116 154 201 239 291 347
#     4   9  18  33  60  84 121 151 185 242 290 351
#     4  10  22  36  61  86 115 155 202 237 292 355
#     4  10  20  40  60  84 122 150 194 246 296 358
#     4  10  19  37  58  85 120 153 191 240 292 352
#     4  10  21  38  58  83 117 157 189 241 299 344
#     4   9  18  35  55  93 111 146 199 232 294 342
#     4  10  20  36  62  81 122 153 195 243 288 343
#
# _framework density 19.681502999999999
#
# number of rings (size 3 to 8) (size 9 to 14) (size 15 to 20)
#    0.000    2.133    1.333    2.000    0.000    1.067 
#    7.200    0.000    0.000    0.000    0.000    0.000 
#    0.000    0.000    0.000    0.000    0.000    0.000 
#
# Total GULP energy -371748.034211 kJ/mol
# GULP energy per Si atom -12391.601140 kJ/mol
# Density = 1.963671 g / cm^3
# Si number density = 19.681503 Si / 1000 Ang^3
#
#
#
# Elastic Constant Matrix: (Units=GPa)
#
#
# Indices 1 2 3 4 5 6 
#
# 1 126.1307 42.4322 54.0381 0.0000 0.0000 0.0000
# 2 42.4322 74.6724 31.5675 0.0000 0.0000 0.0000
# 3 54.0381 31.5675 93.8980 0.0000 0.0000 0.0000
# 4 0.0000 0.0000 0.0000 25.4589 0.0000 0.0000
# 5 0.0000 0.0000 0.0000 0.0000 26.5760 0.0000
# 6 0.0000 0.0000 0.0000 0.0000 0.0000 33.1169
#
#
#
# Elastic Compliance Matrix: (Units=1/GPa)
#
#
# Indices 1 2 3 4 5 6 
#
# 1 0.011650 -0.004413 -0.005221 0.000000 0.000000 0.000000
# 2 -0.004413 0.017282 -0.003270 0.000000 0.000000 0.000000
# 3 -0.005221 -0.003270 0.014754 0.000000 0.000000 0.000000
# 4 0.000000 0.000000 0.000000 0.039279 0.000000 0.000000
# 5 0.000000 0.000000 0.000000 0.000000 0.037628 0.000000
# 6 0.000000 0.000000 0.000000 0.000000 0.000000 0.030196
#
#
# Mechanical properties :
#
#
# Convention : Reuss Voigt Hill
#
# Bulk Modulus (GPa) = 55.93654 61.19739 58.56696
# Shear Modulus (GPa) = 27.38895 28.14125 27.76510
#
# Velocity S-wave (km/s) = 3.73447 3.78541 3.76003
# Velocity P-wave (km/s) = 6.86131 7.08994 6.97656
#
# Compressibility (1/GPa) = 0.01787740
#
# Stress axis : x y z
#
# Youngs Moduli (GPa) = 85.84049 57.86396 67.77875
#
# Poissons Ratio (x) = 0.25534 0.35386
# Poissons Ratio (y) = 0.37879 0.22167
# Poissons Ratio (z) = 0.44815 0.18924
#
# Static dielectric constant tensor:
#      x y z
#    x 3.661300 0.000000 0.000000 
#    y 0.000000 3.472460 0.000000 
#    z 0.000000 0.000000 3.614740 
# 
# 
# High freq. dielectric constant tensor:
#      x y z
#    x 1.780140 0.000000 0.000000 
#    y 0.000000 1.754070 0.000000 
#    z 0.000000 0.000000 1.757140 
# 
# From -- ./inp_files/2455.got.cif
#   From: 2010.03.12/outbox.cif.g09.slc.cpg/sg30_2_cif.got.tgz:2455.got - 2010.04.14 01:38:02.
