data_PCOD8169278
_publ_section_title
;
Structure prediction by ZEFSAII (Michael W. Deem and Ramdas Pophale) SiO2 
 PCOD8169278
Probable space group: P C A 21
;
_chemical_formula_sum "Si O2"
_cell_formula_units_Z 28
_cell_length_a 9.447685
_cell_length_b 12.461137
_cell_length_c 9.932343
_cell_angle_alpha 90.000000
_cell_angle_beta 90.000000
_cell_angle_gamma 90.000000
_cell_volume 1169.323787
_symmetry_space_group_name_H-M "P C A 21"
_symmetry_group_IT_number 29
_symmetry_cell_setting 'orthorhombic'
loop_
_space_group_symop_operation_xyz
x,y,z
-x,-y,1/2+z
1/2-x,y,1/2+z
1/2+x,-y,z
loop_
_atom_site_type_symbol
_atom_site_label
_atom_site_fract_x
_atom_site_fract_y
_atom_site_fract_z
Si Si1 0.706081 0.593680 0.351930
Si Si2 0.572196 0.722017 0.139561
Si Si3 0.108731 0.897346 0.721147
Si Si4 0.409009 0.815265 0.730587
Si Si5 0.465411 0.990279 0.942844
Si Si6 0.839116 0.807200 0.017735
Si Si7 0.467048 0.613943 0.884759
O O1 0.650562 0.618075 0.201663
O O2 0.656022 0.695461 0.438527
O O3 0.633106 0.487538 0.408288
O O4 0.874239 0.578043 0.344976
O O5 0.473184 0.784718 0.245047
O O6 0.688739 0.809279 0.091983
O O7 0.471810 0.679992 0.021984
O O8 0.265864 0.866841 0.670763
O O9 0.104470 0.960955 0.864136
O O10 0.026112 0.964164 0.603051
O O11 0.531349 0.822236 0.620767
O O12 0.397468 0.689827 0.770872
O O13 0.435771 0.879170 0.868676
O O14 0.347106 0.085798 0.924171
#
# Coordination Sequence:
#
# PCOD8169278 Si02
#       7
#     4   4   4   4   4   4   4
#     4  11  26  46  78 106 149 198 244 322 377 457
#     4  11  25  48  72 107 147 200 241 312 384 454
#     4  12  29  45  77 108 157 198 257 312 378 459
#     4  12  28  48  72 113 153 197 254 317 374 465
#     4  12  27  46  74 114 152 201 251 315 380 453
#     4  11  26  47  73 105 152 195 250 303 387 450
#     4  11  27  48  74 109 146 191 259 307 388 452
#
# _framework density 23.945463
#
# number of rings (size 3 to 8) (size 9 to 14) (size 15 to 20)
#    0.000    0.571    5.714    0.000   10.000    1.143 
#    0.000    0.000    0.000    0.000    0.000    0.000 
#    0.000    0.000    0.000    0.000    0.000    0.000 
#
# Total GULP energy -346953.840148 kJ/mol
# GULP energy per Si atom -12391.208577 kJ/mol
# Density = 2.389096 g / cm^3
# Si number density = 23.945463 Si / 1000 Ang^3
#
#
#
# Elastic Constant Matrix: (Units=GPa)
#
#
# Indices 1 2 3 4 5 6 
#
# 1 70.1534 65.7336 25.2280 0.0000 0.0000 0.0000
# 2 65.7336 129.3622 15.7688 0.0000 0.0000 0.0000
# 3 25.2280 15.7688 74.3931 0.0000 0.0000 0.0000
# 4 0.0000 0.0000 0.0000 21.0146 0.0000 0.0000
# 5 0.0000 0.0000 0.0000 0.0000 32.5660 0.0000
# 6 0.0000 0.0000 0.0000 0.0000 0.0000 41.9348
#
#
#
# Elastic Compliance Matrix: (Units=1/GPa)
#
#
# Indices 1 2 3 4 5 6 
#
# 1 0.030616 -0.014671 -0.007273 0.000000 0.000000 0.000000
# 2 -0.014671 0.014965 0.001803 0.000000 0.000000 0.000000
# 3 -0.007273 0.001803 0.015526 0.000000 0.000000 0.000000
# 4 0.000000 0.000000 0.000000 0.047586 0.000000 0.000000
# 5 0.000000 0.000000 0.000000 0.000000 0.030707 0.000000
# 6 0.000000 0.000000 0.000000 0.000000 0.000000 0.023847
#
#
# Mechanical properties :
#
#
# Convention : Reuss Voigt Hill
#
# Bulk Modulus (GPa) = 48.01540 54.15215 51.08377
# Shear Modulus (GPa) = 23.75626 30.24828 27.00227
#
# Velocity S-wave (km/s) = 3.15318 3.55803 3.36170
# Velocity P-wave (km/s) = 5.77514 6.28835 6.03720
#
# Compressibility (1/GPa) = 0.02082665
#
# Stress axis : x y z
#
# Youngs Moduli (GPa) = 32.66223 66.82163 64.40690
#
# Poissons Ratio (x) = 0.98033 0.46842
# Poissons Ratio (y) = 0.47918 -0.11613
# Poissons Ratio (z) = 0.23755 -0.12048
#
# Static dielectric constant tensor:
#      x y z
#    x 4.285570 0.000000 0.000000 
#    y 0.000000 4.470180 0.000000 
#    z 0.000000 0.000000 4.271880 
# 
# 
# High freq. dielectric constant tensor:
#      x y z
#    x 1.940680 0.000000 0.000000 
#    y 0.000000 1.964140 0.000000 
#    z 0.000000 0.000000 1.947010 
# 
# From -- ./inp_files/2847.got.cif
#   From: 2010.03.12/outbox.cif.g09.slc.cpg/sg29_2_cif.got.tgz:2847.got - 2010.04.14 03:43:10.
