data_PCOD8169198
_publ_section_title
;
Structure prediction by ZEFSAII (Michael W. Deem and Ramdas Pophale) SiO2 
 PCOD8169198
Probable space group: P C A 21
;
_chemical_formula_sum "Si O2"
_cell_formula_units_Z 24
_cell_length_a 11.289186
_cell_length_b 8.283566
_cell_length_c 11.657637
_cell_angle_alpha 90.000000
_cell_angle_beta 90.000000
_cell_angle_gamma 90.000000
_cell_volume 1090.160629
_symmetry_space_group_name_H-M "P C A 21"
_symmetry_group_IT_number 29
_symmetry_cell_setting 'orthorhombic'
loop_
_space_group_symop_operation_xyz
x,y,z
-x,-y,1/2+z
1/2-x,y,1/2+z
1/2+x,-y,z
loop_
_atom_site_type_symbol
_atom_site_label
_atom_site_fract_x
_atom_site_fract_y
_atom_site_fract_z
Si Si1 0.304960 0.141351 0.991980
Si Si2 0.034738 0.664138 0.009556
Si Si3 0.061789 0.924345 0.656556
Si Si4 0.714181 0.158534 0.862529
Si Si5 0.051165 0.782744 0.251105
Si Si6 0.934447 0.704334 0.475581
O O1 0.200102 0.268619 0.017650
O O2 0.259986 0.020633 0.892760
O O3 0.422635 0.240093 0.955258
O O4 0.334503 0.037532 0.104925
O O5 0.029632 0.656705 0.148089
O O6 0.156945 0.752335 0.972229
O O7 0.032243 0.482100 0.966885
O O8 0.112801 0.835171 0.766605
O O9 0.022738 0.796438 0.561183
O O10 0.951843 0.038030 0.694311
O O11 0.825245 0.257921 0.813198
O O12 0.948302 0.773155 0.346728
#
# Coordination Sequence:
#
# PCOD8169198 Si02
#       6
#     4   4   4   4   4   4
#     4  11  23  46  72 101 140 190 248 290 354 441
#     4  11  29  45  70 112 147 190 241 303 379 426
#     4  11  23  44  73 105 136 190 252 291 357 437
#     4  12  22  45  75 101 141 191 246 296 351 439
#     4  11  25  45  71 102 142 188 243 290 365 435
#     4  12  26  47  71 107 148 185 238 310 368 426
#
# _framework density 22.015104999999998
#
# number of rings (size 3 to 8) (size 9 to 14) (size 15 to 20)
#    0.000    0.667    3.333    5.000    4.667    0.000 
#    3.000    0.000    0.000    0.000    0.000    0.000 
#    0.000    0.000    0.000    0.000    0.000    0.000 
#
# Total GULP energy -297646.128760 kJ/mol
# GULP energy per Si atom -12401.922032 kJ/mol
# Density = 2.196500 g / cm^3
# Si number density = 22.015105 Si / 1000 Ang^3
#
#
#
# Elastic Constant Matrix: (Units=GPa)
#
#
# Indices 1 2 3 4 5 6 
#
# 1 119.0025 39.9991 47.9909 0.0000 0.0000 0.0000
# 2 39.9991 118.4328 34.7695 0.0000 0.0000 0.0000
# 3 47.9909 34.7695 113.7626 0.0000 0.0000 0.0000
# 4 0.0000 0.0000 0.0000 25.6324 0.0000 0.0000
# 5 0.0000 0.0000 0.0000 0.0000 34.0366 0.0000
# 6 0.0000 0.0000 0.0000 0.0000 0.0000 31.0489
#
#
#
# Elastic Compliance Matrix: (Units=1/GPa)
#
#
# Indices 1 2 3 4 5 6 
#
# 1 0.010775 -0.002532 -0.003772 0.000000 0.000000 0.000000
# 2 -0.002532 0.009871 -0.001949 0.000000 0.000000 0.000000
# 3 -0.003772 -0.001949 0.010977 0.000000 0.000000 0.000000
# 4 0.000000 0.000000 0.000000 0.039013 0.000000 0.000000
# 5 0.000000 0.000000 0.000000 0.000000 0.029380 0.000000
# 6 0.000000 0.000000 0.000000 0.000000 0.000000 0.032207
#
#
# Mechanical properties :
#
#
# Convention : Reuss Voigt Hill
#
# Bulk Modulus (GPa) = 66.14513 66.30189 66.22351
# Shear Modulus (GPa) = 32.51655 33.37279 32.94467
#
# Velocity S-wave (km/s) = 3.84736 3.89769 3.87260
# Velocity P-wave (km/s) = 7.06023 7.10196 7.08112
#
# Compressibility (1/GPa) = 0.01511827
#
# Stress axis : x y z
#
# Youngs Moduli (GPa) = 92.80524 101.30848 91.09996
#
# Poissons Ratio (x) = 0.25650 0.34360
# Poissons Ratio (y) = 0.23497 0.17753
# Poissons Ratio (z) = 0.35004 0.19743
#
# Static dielectric constant tensor:
#      x y z
#    x 4.049400 0.000000 0.000000 
#    y 0.000000 3.684830 0.000000 
#    z 0.000000 0.000000 4.002710 
# 
# 
# High freq. dielectric constant tensor:
#      x y z
#    x 1.872910 0.000000 0.000000 
#    y 0.000000 1.844580 0.000000 
#    z 0.000000 0.000000 1.874430 
# 
# From -- ./inp_files/3073.got.cif
#   From: 2010.03.12/outbox.cif.g09.slc.cpg/sg29_2_cif.got.tgz:3073.got - 2010.04.14 03:43:10.
