data_PCOD8169718
_publ_section_title
;
Structure prediction by ZEFSAII (Michael W. Deem and Ramdas Pophale) SiO2 
 PCOD8169718
Probable space group: P M N 21
;
_chemical_formula_sum "Si O2"
_cell_formula_units_Z 32
_cell_length_a 9.117265
_cell_length_b 11.341417
_cell_length_c 16.720871
_cell_angle_alpha 90.000000
_cell_angle_beta 90.000000
_cell_angle_gamma 90.000000
_cell_volume 1728.983279
_symmetry_space_group_name_H-M "P M N 21"
_symmetry_group_IT_number 31
_symmetry_cell_setting 'orthorhombic'
loop_
_space_group_symop_operation_xyz
x,y,z
1/2-x,-y,1/2+z
-x,y,z
1/2+x,-y,1/2+z
loop_
_atom_site_type_symbol
_atom_site_label
_atom_site_fract_x
_atom_site_fract_y
_atom_site_fract_z
Si Si1 0.330563 0.567028 0.608780
Si Si2 0.669166 0.937882 0.364489
Si Si3 0.825796 0.691145 0.076908
Si Si4 0.325277 0.727285 0.754666
Si Si5 0.666115 0.790486 0.514946
Si Si6 0.335441 0.847445 0.199260
Si Si7 0.674886 0.199444 0.408421
Si Si8 0.662482 0.101267 0.149729
O O1 0.500000 0.545492 0.624274
O O2 0.260291 0.441749 0.584795
O O3 0.270121 0.625923 0.691682
O O4 0.304183 0.652485 0.532275
O O5 0.500000 0.963239 0.345153
O O6 0.690535 0.827842 0.423993
O O7 0.739920 0.889366 0.282700
O O8 0.731168 0.063477 0.397069
O O9 0.767613 0.754474 0.155980
O O10 0.000000 0.693704 0.078582
O O11 0.771019 0.752713 0.994847
O O12 0.500000 0.727185 0.764010
O O13 0.249356 0.715610 0.841521
O O14 0.271750 0.852059 0.718449
O O15 0.500000 0.822084 0.542669
O O16 0.782646 0.865311 0.562868
O O17 0.500000 0.794797 0.211530
O O18 0.342597 0.961634 0.144196
O O19 0.500000 0.209555 0.401004
O O20 0.500000 0.153277 0.166229
#
# Coordination Sequence:
#
# PCOD8169718 Si02
#       8
#     4   4   4   4   4   4   4   4
#     4   8  17  35  54  76 104 137 179 223 259 302
#     4   9  17  32  52  77 109 138 168 215 270 321
#     4  10  21  37  56  77 106 144 184 222 264 318
#     4  10  19  33  56  80 105 141 181 217 260 318
#     4   9  17  32  56  78 101 138 180 213 257 318
#     4  10  20  34  51  75 112 144 168 215 273 316
#     4  10  19  34  55  80 109 139 175 224 276 318
#     4  10  18  31  52  77 110 137 165 215 269 311
#
# _framework density 18.507988000000001
#
# number of rings (size 3 to 8) (size 9 to 14) (size 15 to 20)
#    0.000    2.500    1.250    2.250    0.000    2.500 
#    2.250    4.375    0.000    0.000    0.000    0.000 
#    0.000    0.000    0.000    0.000    0.000    0.000 
#
# Total GULP energy -396498.732158 kJ/mol
# GULP energy per Si atom -12390.585380 kJ/mol
# Density = 1.846586 g / cm^3
# Si number density = 18.507988 Si / 1000 Ang^3
#
#
#
# Elastic Constant Matrix: (Units=GPa)
#
#
# Indices 1 2 3 4 5 6 
#
# 1 38.2522 27.0047 25.8790 0.0000 0.0000 0.0000
# 2 27.0047 123.5703 78.9333 0.0000 0.0000 0.0000
# 3 25.8790 78.9333 120.5533 0.0000 0.0000 0.0000
# 4 0.0000 0.0000 0.0000 26.3393 0.0000 0.0000
# 5 0.0000 0.0000 0.0000 0.0000 28.2086 0.0000
# 6 0.0000 0.0000 0.0000 0.0000 0.0000 19.1567
#
#
#
# Elastic Compliance Matrix: (Units=1/GPa)
#
#
# Indices 1 2 3 4 5 6 
#
# 1 0.031960 -0.004473 -0.003932 0.000000 0.000000 0.000000
# 2 -0.004473 0.014536 -0.008558 0.000000 0.000000 0.000000
# 3 -0.003932 -0.008558 0.014742 0.000000 0.000000 0.000000
# 4 0.000000 0.000000 0.000000 0.037966 0.000000 0.000000
# 5 0.000000 0.000000 0.000000 0.000000 0.035450 0.000000
# 6 0.000000 0.000000 0.000000 0.000000 0.000000 0.052201
#
#
# Mechanical properties :
#
#
# Convention : Reuss Voigt Hill
#
# Bulk Modulus (GPa) = 36.61170 60.66777 48.63974
# Shear Modulus (GPa) = 21.74990 24.77819 23.26404
#
# Velocity S-wave (km/s) = 3.43178 3.66291 3.54923
# Velocity P-wave (km/s) = 5.96048 7.12317 6.56761
#
# Compressibility (1/GPa) = 0.02731367
#
# Stress axis : x y z
#
# Youngs Moduli (GPa) = 31.28897 68.79271 67.83113
#
# Poissons Ratio (x) = 0.30768 0.26674
# Poissons Ratio (y) = 0.13994 0.58048
# Poissons Ratio (z) = 0.12304 0.58871
#
# Static dielectric constant tensor:
#      x y z
#    x 3.221170 0.000000 0.000000 
#    y 0.000000 3.547100 0.000000 
#    z 0.000000 0.000000 3.499940 
# 
# 
# High freq. dielectric constant tensor:
#      x y z
#    x 1.689260 0.000000 0.000000 
#    y 0.000000 1.706390 0.000000 
#    z 0.000000 0.000000 1.721760 
# 
# From -- ./inp_files/5897.got.cif
#   From: 2010.03.12/outbox.cif.g09.slc.cpg/sg31_3_cif.got.tgz:5897.got - 2010.04.14 01:42:59.
