data_PCOD8169499
_publ_section_title
;
Structure prediction by ZEFSAII (Michael W. Deem and Ramdas Pophale) SiO2 
 PCOD8169499
Probable space group: P N C 2
;
_chemical_formula_sum "Si O2"
_cell_formula_units_Z 30
_cell_length_a 7.998983
_cell_length_b 12.531437
_cell_length_c 14.090571
_cell_angle_alpha 90.000000
_cell_angle_beta 90.000000
_cell_angle_gamma 90.000000
_cell_volume 1412.421245
_symmetry_space_group_name_H-M "P N C 2"
_symmetry_group_IT_number 30
_symmetry_cell_setting 'orthorhombic'
loop_
_space_group_symop_operation_xyz
x,y,z
-x,-y,z
-x,1/2+y,1/2+z
x,1/2-y,1/2+z
loop_
_atom_site_type_symbol
_atom_site_label
_atom_site_fract_x
_atom_site_fract_y
_atom_site_fract_z
Si Si1 0.060397 0.386579 0.770650
Si Si2 0.000000 0.500000 0.263033
Si Si3 0.422980 0.113274 0.342781
Si Si4 0.127154 0.307574 0.144491
Si Si5 0.046904 0.876509 0.466958
Si Si6 0.343804 0.922684 0.836550
Si Si7 0.502904 0.227314 0.686342
Si Si8 0.623507 0.260705 0.983392
O O1 0.228291 0.402876 0.830689
O O2 0.068999 0.307680 0.682530
O O3 0.000000 0.500000 0.729621
O O4 0.946639 0.340322 0.855969
O O5 0.019098 0.397227 0.196773
O O6 0.168207 0.513721 0.326314
O O7 0.498030 0.166629 0.248994
O O8 0.461406 0.188236 0.432850
O O9 0.500000 0.000000 0.361849
O O10 0.321740 0.325296 0.167086
O O11 0.084548 0.310637 0.032442
O O12 0.234705 0.850588 0.498218
O O13 0.000000 0.000000 0.477155
O O14 0.383581 0.861238 0.738091
O O15 0.317872 0.843006 0.925181
O O16 0.500000 0.000000 0.860481
O O17 0.577330 0.272505 0.589412
#
# Coordination Sequence:
#
# PCOD8169499 Si02
#       8
#     4   2   4   4   4   4   4   4
#     4  10  22  40  64  90 127 167 215 276 327 392
#     4  12  22  40  70 100 134 176 218 286 344 400
#     4  10  21  39  63  87 120 169 213 259 329 387
#     4  11  22  40  66  98 130 175 221 276 337 402
#     4  11  22  38  62  97 128 165 224 274 327 399
#     4  11  24  45  69  99 138 178 229 279 347 409
#     4  10  23  41  64  92 133 169 221 275 326 397
#     4  11  24  41  64  97 130 178 217 283 335 406
#
# _framework density 21.240122
#
# number of rings (size 3 to 8) (size 9 to 14) (size 15 to 20)
#    0.000    1.333    2.000    4.000    0.000    4.267 
#    2.400    1.333    1.467    0.000    1.733    0.000 
#    0.000    0.000    0.000    0.000    0.000    0.000 
#
# Total GULP energy -371967.096260 kJ/mol
# GULP energy per Si atom -12398.903209 kJ/mol
# Density = 2.119178 g / cm^3
# Si number density = 21.240122 Si / 1000 Ang^3
#
#
#
# Elastic Constant Matrix: (Units=GPa)
#
#
# Indices 1 2 3 4 5 6 
#
# 1 94.5427 27.9891 16.3055 0.0000 0.0000 0.0000
# 2 27.9891 86.0543 30.7386 0.0000 0.0000 0.0000
# 3 16.3055 30.7386 113.8272 0.0000 0.0000 0.0000
# 4 0.0000 0.0000 0.0000 5.8571 0.0000 0.0000
# 5 0.0000 0.0000 0.0000 0.0000 27.1549 0.0000
# 6 0.0000 0.0000 0.0000 0.0000 0.0000 30.1605
#
#
#
# Elastic Compliance Matrix: (Units=1/GPa)
#
#
# Indices 1 2 3 4 5 6 
#
# 1 0.011757 -0.003567 -0.000721 0.000000 0.000000 0.000000
# 2 -0.003567 0.013943 -0.003254 0.000000 0.000000 0.000000
# 3 -0.000721 -0.003254 0.009767 0.000000 0.000000 0.000000
# 4 0.000000 0.000000 0.000000 0.170732 0.000000 0.000000
# 5 0.000000 0.000000 0.000000 0.000000 0.036826 0.000000
# 6 0.000000 0.000000 0.000000 0.000000 0.000000 0.033156
#
#
# Mechanical properties :
#
#
# Convention : Reuss Voigt Hill
#
# Bulk Modulus (GPa) = 49.05840 49.38785 49.22312
# Shear Modulus (GPa) = 16.77514 27.26057 22.01786
#
# Velocity S-wave (km/s) = 2.81336 3.58641 3.22315
# Velocity P-wave (km/s) = 5.80521 6.36022 6.08904
#
# Compressibility (1/GPa) = 0.02038387
#
# Stress axis : x y z
#
# Youngs Moduli (GPa) = 85.05243 71.72036 102.38165
#
# Poissons Ratio (x) = 0.25579 0.07383
# Poissons Ratio (y) = 0.30334 0.33319
# Poissons Ratio (z) = 0.06133 0.23340
#
# Static dielectric constant tensor:
#      x y z
#    x 3.425120 0.000000 0.000000 
#    y 0.000000 4.152510 0.000000 
#    z 0.000000 0.000000 3.855030 
# 
# 
# High freq. dielectric constant tensor:
#      x y z
#    x 1.845090 0.000000 0.000000 
#    y 0.000000 1.826500 0.000000 
#    z 0.000000 0.000000 1.830510 
# 
# From -- ./inp_files/5196.got.cif
#   From: 2010.03.12/outbox.cif.g09.slc.cpg/sg30_3_cif.got.tgz:5196.got - 2010.04.14 01:38:02.
