data_PCOD8169577
_publ_section_title
;
Structure prediction by ZEFSAII (Michael W. Deem and Ramdas Pophale) SiO2 
 PCOD8169577
Probable space group: P N C 2
;
_chemical_formula_sum "Si O2"
_cell_formula_units_Z 30
_cell_length_a 18.462532
_cell_length_b 5.558708
_cell_length_c 13.139136
_cell_angle_alpha 90.000000
_cell_angle_beta 90.000000
_cell_angle_gamma 90.000000
_cell_volume 1348.440941
_symmetry_space_group_name_H-M "P N C 2"
_symmetry_group_IT_number 30
_symmetry_cell_setting 'orthorhombic'
loop_
_space_group_symop_operation_xyz
x,y,z
-x,-y,z
-x,1/2+y,1/2+z
x,1/2-y,1/2+z
loop_
_atom_site_type_symbol
_atom_site_label
_atom_site_fract_x
_atom_site_fract_y
_atom_site_fract_z
Si Si1 0.677901 0.935173 0.221060
Si Si2 0.929414 0.117468 0.871752
Si Si3 0.115815 0.160786 0.063710
Si Si4 0.579425 0.050509 0.039596
Si Si5 0.622211 0.542461 0.940754
Si Si6 0.824857 0.183033 0.209857
Si Si7 0.000000 0.000000 0.509869
Si Si8 0.744335 0.933934 0.588204
O O1 0.637743 0.085710 0.130865
O O2 0.626045 0.941393 0.318705
O O3 0.690678 0.663745 0.178052
O O4 0.756265 0.038415 0.254481
O O5 0.863208 0.161233 0.796021
O O6 0.947902 0.352767 0.935477
O O7 0.000000 0.000000 0.816832
O O8 0.902271 0.923080 0.951436
O O9 0.200106 0.225594 0.058745
O O10 0.111198 0.973028 0.157216
O O11 0.054175 0.359360 0.086351
O O12 0.500000 0.000000 0.086262
O O13 0.595351 0.807155 0.975232
O O14 0.576543 0.301741 0.973799
O O15 0.701131 0.494365 0.987586
O O16 0.792766 0.345447 0.121278
#
# Coordination Sequence:
#
# PCOD8169577 Si02
#       8
#     4   4   4   4   4   4   2   4
#     4  10  25  41  70 102 139 182 234 286 352 418
#     4  10  24  43  63  90 127 170 232 287 350 421
#     4  10  23  41  64  92 125 178 220 286 353 412
#     4  11  25  47  70 105 147 185 235 286 343 429
#     4  11  25  44  73 105 141 187 231 287 350 416
#     4  11  23  42  66  98 130 175 226 290 351 410
#     4  10  22  46  58  88 130 174 228 286 344 424
#     4  10  23  42  64 100 135 172 229 290 342 418
#
# _framework density 22.247917000000001
#
# number of rings (size 3 to 8) (size 9 to 14) (size 15 to 20)
#    0.000    1.600    1.333    1.200    7.467    4.267 
#   15.600    0.000    0.000    0.000    0.000    0.000 
#    0.000    0.000    0.000    0.000    0.000    0.000 
#
# Total GULP energy -371759.809783 kJ/mol
# GULP energy per Si atom -12391.993659 kJ/mol
# Density = 2.219728 g / cm^3
# Si number density = 22.247917 Si / 1000 Ang^3
#
#
#
# Elastic Constant Matrix: (Units=GPa)
#
#
# Indices 1 2 3 4 5 6 
#
# 1 90.5089 18.6935 31.7986 0.0000 0.0000 0.0000
# 2 18.6935 105.7556 22.9863 0.0000 0.0000 0.0000
# 3 31.7986 22.9863 87.8866 0.0000 0.0000 0.0000
# 4 0.0000 0.0000 0.0000 116.5222 0.0000 0.0000
# 5 0.0000 0.0000 0.0000 0.0000 26.9553 0.0000
# 6 0.0000 0.0000 0.0000 0.0000 0.0000 30.2805
#
#
#
# Elastic Compliance Matrix: (Units=1/GPa)
#
#
# Indices 1 2 3 4 5 6 
#
# 1 0.012833 -0.001335 -0.004294 0.000000 0.000000 0.000000
# 2 -0.001335 0.010165 -0.002175 0.000000 0.000000 0.000000
# 3 -0.004294 -0.002175 0.013501 0.000000 0.000000 0.000000
# 4 0.000000 0.000000 0.000000 0.008582 0.000000 0.000000
# 5 0.000000 0.000000 0.000000 0.000000 0.037099 0.000000
# 6 0.000000 0.000000 0.000000 0.000000 0.000000 0.033025
#
#
# Mechanical properties :
#
#
# Convention : Reuss Voigt Hill
#
# Bulk Modulus (GPa) = 47.87096 47.90087 47.88592
# Shear Modulus (GPa) = 36.29087 48.79644 42.54365
#
# Velocity S-wave (km/s) = 4.04320 4.68835 4.37768
# Velocity P-wave (km/s) = 6.58486 7.13336 6.86459
#
# Compressibility (1/GPa) = 0.02088949
#
# Stress axis : x y z
#
# Youngs Moduli (GPa) = 77.92421 98.38069 74.06920
#
# Poissons Ratio (x) = 0.13135 0.31805
# Poissons Ratio (y) = 0.10403 0.16113
# Poissons Ratio (z) = 0.33460 0.21402
#
# Static dielectric constant tensor:
#      x y z
#    x 3.842140 0.000000 0.000000 
#    y 0.000000 4.089480 0.000000 
#    z 0.000000 0.000000 3.699100 
# 
# 
# High freq. dielectric constant tensor:
#      x y z
#    x 1.882310 0.000000 0.000000 
#    y 0.000000 1.886380 0.000000 
#    z 0.000000 0.000000 1.856660 
# 
# From -- ./inp_files/4490.got.cif
#   From: 2010.03.12/outbox.cif.g09.slc.cpg/sg30_3_cif.got.tgz:4490.got - 2010.04.14 01:38:02.
