data_PCOD8169795
_publ_section_title
;
Structure prediction by ZEFSAII (Michael W. Deem and Ramdas Pophale) SiO2 
 PCOD8169795
Probable space group: P M N 21
;
_chemical_formula_sum "Si O2"
_cell_formula_units_Z 32
_cell_length_a 9.091416
_cell_length_b 14.643579
_cell_length_c 14.017743
_cell_angle_alpha 90.000000
_cell_angle_beta 90.000000
_cell_angle_gamma 90.000000
_cell_volume 1866.194299
_symmetry_space_group_name_H-M "P M N 21"
_symmetry_group_IT_number 31
_symmetry_cell_setting 'orthorhombic'
loop_
_space_group_symop_operation_xyz
x,y,z
1/2-x,-y,1/2+z
-x,y,z
1/2+x,-y,1/2+z
loop_
_atom_site_type_symbol
_atom_site_label
_atom_site_fract_x
_atom_site_fract_y
_atom_site_fract_z
Si Si1 0.167141 0.612922 0.267650
Si Si2 0.169548 0.126598 0.002556
Si Si3 0.667009 0.498104 0.941529
Si Si4 0.674147 0.146260 0.531750
Si Si5 0.327752 0.355455 0.556256
Si Si6 0.828223 0.323825 0.936348
Si Si7 0.175108 0.024047 0.385622
Si Si8 0.669715 0.994777 0.674640
O O1 0.174599 0.515629 0.325331
O O2 0.222638 0.603758 0.158974
O O3 0.266539 0.685258 0.327309
O O4 0.000000 0.650740 0.266105
O O5 0.196137 0.095906 0.111490
O O6 0.000000 0.108470 0.972635
O O7 0.209575 0.232942 0.994918
O O8 0.275994 0.069948 0.934372
O O9 0.500000 0.500600 0.977850
O O10 0.745578 0.591145 0.972064
O O11 0.748183 0.409643 0.988505
O O12 0.500000 0.133934 0.518483
O O13 0.719223 0.250076 0.551698
O O14 0.752887 0.112099 0.435718
O O15 0.733157 0.083838 0.619527
O O16 0.500000 0.368051 0.539543
O O17 0.000000 0.344140 0.932769
O O18 0.240630 0.020841 0.278123
O O19 0.000000 0.033873 0.390061
O O20 0.500000 0.013976 0.692332
#
# Coordination Sequence:
#
# PCOD8169795 Si02
#       8
#     4   4   4   4   4   4   4   4
#     4   8  18  33  51  76 102 129 166 208 254 301
#     4   9  18  33  51  71  99 133 168 207 253 305
#     4   9  19  34  51  74 105 132 162 215 262 299
#     4   9  19  35  53  74 102 137 173 209 252 307
#     4  10  19  34  57  77 100 139 177 209 253 314
#     4   9  17  31  52  75  98 129 167 208 254 305
#     4  10  19  31  51  75 101 132 169 214 256 299
#     4   8  16  31  50  70  97 135 172 202 244 304
#
# _framework density 17.147195
#
# number of rings (size 3 to 8) (size 9 to 14) (size 15 to 20)
#    0.750    2.250    0.000    1.500    1.750    2.000 
#    0.000    6.250    0.000    6.000    0.000    0.000 
#    0.000    0.000    0.000    0.000    0.000    0.000 
#
# Total GULP energy -396512.911825 kJ/mol
# GULP energy per Si atom -12391.028495 kJ/mol
# Density = 1.710817 g / cm^3
# Si number density = 17.147195 Si / 1000 Ang^3
#
#
#
# Elastic Constant Matrix: (Units=GPa)
#
#
# Indices 1 2 3 4 5 6 
#
# 1 60.7863 41.4749 35.7614 0.0000 0.0000 0.0000
# 2 41.4749 104.9775 54.7982 0.0000 0.0000 0.0000
# 3 35.7614 54.7982 116.8934 0.0000 0.0000 0.0000
# 4 0.0000 0.0000 0.0000 20.1163 0.0000 0.0000
# 5 0.0000 0.0000 0.0000 0.0000 22.6046 0.0000
# 6 0.0000 0.0000 0.0000 0.0000 0.0000 25.3657
#
#
#
# Elastic Compliance Matrix: (Units=1/GPa)
#
#
# Indices 1 2 3 4 5 6 
#
# 1 0.023728 -0.007395 -0.003792 0.000000 0.000000 0.000000
# 2 -0.007395 0.014917 -0.004730 0.000000 0.000000 0.000000
# 3 -0.003792 -0.004730 0.011933 0.000000 0.000000 0.000000
# 4 0.000000 0.000000 0.000000 0.049711 0.000000 0.000000
# 5 0.000000 0.000000 0.000000 0.000000 0.044239 0.000000
# 6 0.000000 0.000000 0.000000 0.000000 0.000000 0.039423
#
#
# Mechanical properties :
#
#
# Convention : Reuss Voigt Hill
#
# Bulk Modulus (GPa) = 53.35717 60.74735 57.05226
# Shear Modulus (GPa) = 22.51920 23.65884 23.08902
#
# Velocity S-wave (km/s) = 3.62786 3.71853 3.67348
# Velocity P-wave (km/s) = 6.98092 7.34442 7.16497
#
# Compressibility (1/GPa) = 0.01874162
#
# Stress axis : x y z
#
# Youngs Moduli (GPa) = 42.14469 67.03892 83.80381
#
# Poissons Ratio (x) = 0.49574 0.31783
# Poissons Ratio (y) = 0.31165 0.39643
# Poissons Ratio (z) = 0.15983 0.31713
#
# Static dielectric constant tensor:
#      x y z
#    x 3.084780 0.000000 0.000000 
#    y 0.000000 3.085720 0.000000 
#    z 0.000000 0.000000 3.235830 
# 
# 
# High freq. dielectric constant tensor:
#      x y z
#    x 1.654290 0.000000 0.000000 
#    y 0.000000 1.649620 0.000000 
#    z 0.000000 0.000000 1.650580 
# 
# From -- ./inp_files/5132.got.cif
#   From: 2010.03.12/outbox.cif.g09.slc.cpg/sg31_3_cif.got.tgz:5132.got - 2010.04.14 01:42:59.
