data_PCOD8169521
_publ_section_title
;
Structure prediction by ZEFSAII (Michael W. Deem and Ramdas Pophale) SiO2 
 PCOD8169521
Probable space group: P N C 2
;
_chemical_formula_sum "Si O2"
_cell_formula_units_Z 16
_cell_length_a 10.751437
_cell_length_b 6.895174
_cell_length_c 9.377720
_cell_angle_alpha 90.000000
_cell_angle_beta 90.000000
_cell_angle_gamma 90.000000
_cell_volume 695.198787
_symmetry_space_group_name_H-M "P N C 2"
_symmetry_group_IT_number 30
_symmetry_cell_setting 'orthorhombic'
loop_
_space_group_symop_operation_xyz
x,y,z
-x,-y,z
-x,1/2+y,1/2+z
x,1/2-y,1/2+z
loop_
_atom_site_type_symbol
_atom_site_label
_atom_site_fract_x
_atom_site_fract_y
_atom_site_fract_z
Si Si1 0.256877 0.788976 0.693310
Si Si2 0.317826 0.330064 0.344584
Si Si3 0.519487 0.725942 0.088639
Si Si4 0.145892 0.515666 0.914240
O O1 0.389932 0.693401 0.651535
O O2 0.174612 0.622839 0.765448
O O3 0.194224 0.868595 0.550865
O O4 0.268435 0.954293 0.814812
O O5 0.368376 0.241430 0.198137
O O6 0.437664 0.340738 0.448582
O O7 0.208451 0.196947 0.409544
O O8 0.500000 0.500000 0.051402
O O9 0.000000 0.500000 0.931230
#
# Coordination Sequence:
#
# PCOD8169521 Si02
#       4
#     4   4   4   4
#     4  11  27  48  73 110 141 191 245 304 365 431
#     4  11  23  46  71 107 144 186 232 304 364 427
#     4  10  21  42  71 106 145 175 240 296 366 422
#     4  12  29  48  72 105 148 196 247 291 361 447
#
# _framework density 23.014999
#
# number of rings (size 3 to 8) (size 9 to 14) (size 15 to 20)
#    0.000    1.000    5.000    1.500    7.000    0.000 
#    0.000    0.000    0.000    0.000    0.000    0.000 
#    0.000    0.000    0.000    0.000    0.000    0.000 
#
# Total GULP energy -198421.302227 kJ/mol
# GULP energy per Si atom -12401.331389 kJ/mol
# Density = 2.296262 g / cm^3
# Si number density = 23.014999 Si / 1000 Ang^3
#
#
#
# Elastic Constant Matrix: (Units=GPa)
#
#
# Indices 1 2 3 4 5 6 
#
# 1 138.0962 26.4224 19.5474 0.0000 0.0000 0.0000
# 2 26.4224 58.4100 22.5018 0.0000 0.0000 0.0000
# 3 19.5474 22.5018 87.0185 0.0000 0.0000 0.0000
# 4 0.0000 0.0000 0.0000 33.2164 0.0000 0.0000
# 5 0.0000 0.0000 0.0000 0.0000 29.0886 0.0000
# 6 0.0000 0.0000 0.0000 0.0000 0.0000 20.5801
#
#
#
# Elastic Compliance Matrix: (Units=1/GPa)
#
#
# Indices 1 2 3 4 5 6 
#
# 1 0.007998 -0.003250 -0.000956 0.000000 0.000000 0.000000
# 2 -0.003250 0.020335 -0.004528 0.000000 0.000000 0.000000
# 3 -0.000956 -0.004528 0.012878 0.000000 0.000000 0.000000
# 4 0.000000 0.000000 0.000000 0.030106 0.000000 0.000000
# 5 0.000000 0.000000 0.000000 0.000000 0.034378 0.000000
# 6 0.000000 0.000000 0.000000 0.000000 0.000000 0.048591
#
#
# Mechanical properties :
#
#
# Convention : Reuss Voigt Hill
#
# Bulk Modulus (GPa) = 42.11939 46.71868 44.41904
# Shear Modulus (GPa) = 27.82913 30.91391 29.37152
#
# Velocity S-wave (km/s) = 3.48109 3.66896 3.57626
# Velocity P-wave (km/s) = 5.87349 6.18802 6.03281
#
# Compressibility (1/GPa) = 0.02374203
#
# Stress axis : x y z
#
# Youngs Moduli (GPa) = 125.02355 49.17654 77.65415
#
# Poissons Ratio (x) = 0.15981 0.07427
# Poissons Ratio (y) = 0.40630 0.35164
# Poissons Ratio (z) = 0.11957 0.22269
#
# Static dielectric constant tensor:
#      x y z
#    x 4.181960 0.000000 0.000000 
#    y 0.000000 4.072300 0.000000 
#    z 0.000000 0.000000 4.240750 
# 
# 
# High freq. dielectric constant tensor:
#      x y z
#    x 1.896870 0.000000 0.000000 
#    y 0.000000 1.910500 0.000000 
#    z 0.000000 0.000000 1.926560 
# 
# From -- ./inp_files/2210.got.cif
#   From: 2010.03.12/outbox.cif.g09.slc.cpg/sg30_2_cif.got.tgz:2210.got - 2010.04.14 01:38:02.
