data_PCOD8169207
_publ_section_title
;
Structure prediction by ZEFSAII (Michael W. Deem and Ramdas Pophale) SiO2 
 PCOD8169207
Probable space group: P C A 21
;
_chemical_formula_sum "Si O2"
_cell_formula_units_Z 28
_cell_length_a 10.698600
_cell_length_b 5.477210
_cell_length_c 19.432208
_cell_angle_alpha 90.000000
_cell_angle_beta 90.000000
_cell_angle_gamma 90.000000
_cell_volume 1138.697831
_symmetry_space_group_name_H-M "P C A 21"
_symmetry_group_IT_number 29
_symmetry_cell_setting 'orthorhombic'
loop_
_space_group_symop_operation_xyz
x,y,z
-x,-y,1/2+z
1/2-x,y,1/2+z
1/2+x,-y,z
loop_
_atom_site_type_symbol
_atom_site_label
_atom_site_fract_x
_atom_site_fract_y
_atom_site_fract_z
Si Si1 0.451420 0.368832 0.450510
Si Si2 0.364610 0.066456 0.759956
Si Si3 0.681656 0.195303 0.387544
Si Si4 0.473345 0.584271 0.190676
Si Si5 0.831808 0.573924 0.313363
Si Si6 0.792488 0.291081 0.647400
Si Si7 0.856089 0.110559 0.503889
O O1 0.592229 0.399449 0.422003
O O2 0.365912 0.293877 0.384698
O O3 0.417516 0.625051 0.486312
O O4 0.445668 0.129567 0.500525
O O5 0.486559 0.142996 0.715533
O O6 0.276688 0.302042 0.768829
O O7 0.399361 0.982683 0.837844
O O8 0.290965 0.862028 0.717348
O O9 0.786511 0.306150 0.337094
O O10 0.744531 0.053594 0.451004
O O11 0.451736 0.438362 0.262597
O O12 0.345221 0.581716 0.145826
O O13 0.587941 0.472711 0.146847
O O14 0.802653 0.119827 0.580793
#
# Coordination Sequence:
#
# PCOD8169207 Si02
#       7
#     4   4   4   4   4   4   4
#     4  11  26  46  76 106 152 199 257 320 391 468
#     4  12  24  45  77 110 153 201 262 328 396 470
#     4  11  25  45  73 112 147 204 257 329 392 465
#     4  12  27  49  75 115 156 205 267 327 400 476
#     4  11  23  46  71 113 151 194 259 328 395 467
#     4  12  30  48  78 109 159 212 262 326 399 482
#     4  11  29  49  72 111 152 209 258 320 389 476
#
# _framework density 24.589490999999999
#
# number of rings (size 3 to 8) (size 9 to 14) (size 15 to 20)
#    0.000    0.571    4.286    1.714   14.000    0.000 
#    0.000    0.000    0.000    0.000    0.000    0.000 
#    0.000    0.000    0.000    0.000    0.000    0.000 
#
# Total GULP energy -346980.192778 kJ/mol
# GULP energy per Si atom -12392.149742 kJ/mol
# Density = 2.453352 g / cm^3
# Si number density = 24.589491 Si / 1000 Ang^3
#
#
#
# Elastic Constant Matrix: (Units=GPa)
#
#
# Indices 1 2 3 4 5 6 
#
# 1 101.2006 15.4112 9.6868 0.0000 0.0000 0.0000
# 2 15.4112 87.3856 19.7795 0.0000 0.0000 0.0000
# 3 9.6868 19.7795 104.0187 0.0000 0.0000 0.0000
# 4 0.0000 0.0000 0.0000 35.0535 0.0000 0.0000
# 5 0.0000 0.0000 0.0000 0.0000 22.3404 0.0000
# 6 0.0000 0.0000 0.0000 0.0000 0.0000 30.7470
#
#
#
# Elastic Compliance Matrix: (Units=1/GPa)
#
#
# Indices 1 2 3 4 5 6 
#
# 1 0.010194 -0.001654 -0.000635 0.000000 0.000000 0.000000
# 2 -0.001654 0.012227 -0.002171 0.000000 0.000000 0.000000
# 3 -0.000635 -0.002171 0.010086 0.000000 0.000000 0.000000
# 4 0.000000 0.000000 0.000000 0.028528 0.000000 0.000000
# 5 0.000000 0.000000 0.000000 0.000000 0.044762 0.000000
# 6 0.000000 0.000000 0.000000 0.000000 0.000000 0.032523
#
#
# Mechanical properties :
#
#
# Convention : Reuss Voigt Hill
#
# Bulk Modulus (GPa) = 42.39692 42.48443 42.44068
# Shear Modulus (GPa) = 32.23700 34.14334 33.19017
#
# Velocity S-wave (km/s) = 3.62471 3.73035 3.67791
# Velocity P-wave (km/s) = 5.89893 5.98907 5.94417
#
# Compressibility (1/GPa) = 0.02358662
#
# Stress axis : x y z
#
# Youngs Moduli (GPa) = 98.09678 81.78868 99.15154
#
# Poissons Ratio (x) = 0.13529 0.06294
# Poissons Ratio (y) = 0.16226 0.21525
# Poissons Ratio (z) = 0.06227 0.17755
#
# Static dielectric constant tensor:
#      x y z
#    x 4.378920 0.000000 0.000000 
#    y 0.000000 4.163140 0.000000 
#    z 0.000000 0.000000 4.440710 
# 
# 
# High freq. dielectric constant tensor:
#      x y z
#    x 1.972500 0.000000 0.000000 
#    y 0.000000 1.964430 0.000000 
#    z 0.000000 0.000000 1.984910 
# 
# From -- ./inp_files/5103.got.cif
#   From: 2010.03.12/outbox.cif.g09.slc.cpg/sg29_3_cif.got.tgz:5103.got - 2010.04.14 03:43:10.
