data_PCOD8169113
_publ_section_title
;
Structure prediction by ZEFSAII (Michael W. Deem and Ramdas Pophale) SiO2 
 PCOD8169113
Probable space group: P C A 21
;
_chemical_formula_sum "Si O2"
_cell_formula_units_Z 28
_cell_length_a 8.874367
_cell_length_b 5.108174
_cell_length_c 25.624134
_cell_angle_alpha 90.000000
_cell_angle_beta 90.000000
_cell_angle_gamma 90.000000
_cell_volume 1161.588394
_symmetry_space_group_name_H-M "P C A 21"
_symmetry_group_IT_number 29
_symmetry_cell_setting 'orthorhombic'
loop_
_space_group_symop_operation_xyz
x,y,z
-x,-y,1/2+z
1/2-x,y,1/2+z
1/2+x,-y,z
loop_
_atom_site_type_symbol
_atom_site_label
_atom_site_fract_x
_atom_site_fract_y
_atom_site_fract_z
Si Si1 0.882164 0.730694 0.776240
Si Si2 0.085639 0.314024 0.156437
Si Si3 0.282718 0.775086 0.314247
Si Si4 0.993726 0.505594 0.493226
Si Si5 0.255098 0.810758 0.117810
Si Si6 0.259439 0.154940 0.023020
Si Si7 0.259726 0.806223 0.934485
O O1 0.785290 0.510506 0.805031
O O2 0.908198 0.630511 0.717761
O O3 0.039973 0.768782 0.804909
O O4 0.792938 0.005962 0.777284
O O5 0.914849 0.256399 0.142012
O O6 0.143575 0.567764 0.125122
O O7 0.193303 0.070983 0.144953
O O8 0.252238 0.855581 0.373548
O O9 0.900078 0.698954 0.531874
O O10 0.886442 0.326218 0.458977
O O11 0.098194 0.344010 0.534343
O O12 0.089489 0.653396 0.449407
O O13 0.268514 0.885274 0.056241
O O14 0.270446 0.091502 0.961354
#
# Coordination Sequence:
#
# PCOD8169113 Si02
#       7
#     4   4   4   4   4   4   4
#     4  12  26  50  76 112 154 199 258 324 385 455
#     4  12  27  52  78 111 152 200 260 326 386 453
#     4  12  28  45  81 114 154 204 256 312 394 456
#     4  10  25  46  70 101 162 200 247 311 376 447
#     4  12  30  49  82 112 151 203 260 315 394 458
#     4  11  27  45  74 108 155 202 256 310 381 462
#     4  11  25  43  73 106 154 196 253 306 378 461
#
# _framework density 24.104927
#
# number of rings (size 3 to 8) (size 9 to 14) (size 15 to 20)
#    0.000    0.571    0.000    6.000   16.000    0.000 
#    0.000    0.000    0.000    0.000    0.000    0.000 
#    0.000    0.000    0.000    0.000    0.000    0.000 
#
# Total GULP energy -347366.049655 kJ/mol
# GULP energy per Si atom -12405.930345 kJ/mol
# Density = 2.405006 g / cm^3
# Si number density = 24.104927 Si / 1000 Ang^3
#
#
#
# Elastic Constant Matrix: (Units=GPa)
#
#
# Indices 1 2 3 4 5 6 
#
# 1 -0.2635 55.9913 31.7936 0.0000 0.0000 0.0000
# 2 55.9913 137.5085 14.6530 0.0000 0.0000 0.0000
# 3 31.7936 14.6530 82.0494 0.0000 0.0000 0.0000
# 4 0.0000 0.0000 0.0000 32.8390 0.0000 0.0000
# 5 0.0000 0.0000 0.0000 0.0000 8.7924 0.0000
# 6 0.0000 0.0000 0.0000 0.0000 0.0000 29.9150
#
#
#
# Elastic Compliance Matrix: (Units=1/GPa)
#
#
# Indices 1 2 3 4 5 6 
#
# 1 -0.031898 0.011898 0.010236 0.000000 0.000000 0.000000
# 2 0.011898 0.002976 -0.005142 0.000000 0.000000 0.000000
# 3 0.010236 -0.005142 0.009140 0.000000 0.000000 0.000000
# 4 0.000000 0.000000 0.000000 0.030452 0.000000 0.000000
# 5 0.000000 0.000000 0.000000 0.000000 0.113735 0.000000
# 6 0.000000 0.000000 0.000000 0.000000 0.000000 0.033428
#
#
# Mechanical properties :
#
#
# Convention : Reuss Voigt Hill
#
# Bulk Modulus (GPa) = 70.42055 47.13002 58.77529
# Shear Modulus (GPa) = 38.88581 22.09971 30.49276
#
# Velocity S-wave (km/s) = 4.02081 3.03118 3.56054
# Velocity P-wave (km/s) = 7.12976 5.64315 6.42957
#
# Compressibility (1/GPa) = 0.01420040
#
# Stress axis : x y z
#
# Youngs Moduli (GPa) = -31.34969 336.06650 109.41150
#
# Poissons Ratio (x) = -3.99844 -1.11989
# Poissons Ratio (y) = 0.37299 0.56256
# Poissons Ratio (z) = 0.32088 1.72795
#
# Static dielectric constant tensor:
#      x y z
#    x 4.594520 0.000000 0.000000 
#    y 0.000000 4.574400 0.000000 
#    z 0.000000 0.000000 4.861930 
# 
# 
# High freq. dielectric constant tensor:
#      x y z
#    x 1.980940 0.000000 0.000000 
#    y 0.000000 1.974080 0.000000 
#    z 0.000000 0.000000 1.956950 
# 
# From -- ./inp_files/5770.got.cif
#   From: 2010.03.12/outbox.cif.g09.slc.cpg/sg29_3_cif.got.tgz:5770.got - 2010.04.14 03:43:10.
