data_PCOD8169468
_publ_section_title
;
Structure prediction by ZEFSAII (Michael W. Deem and Ramdas Pophale) SiO2 
 PCOD8169468
Probable space group: P N C 2
;
_chemical_formula_sum "Si O2"
_cell_formula_units_Z 24
_cell_length_a 7.797083
_cell_length_b 13.642054
_cell_length_c 9.153852
_cell_angle_alpha 90.000000
_cell_angle_beta 90.000000
_cell_angle_gamma 90.000000
_cell_volume 973.679010
_symmetry_space_group_name_H-M "P N C 2"
_symmetry_group_IT_number 30
_symmetry_cell_setting 'orthorhombic'
loop_
_space_group_symop_operation_xyz
x,y,z
-x,-y,z
-x,1/2+y,1/2+z
x,1/2-y,1/2+z
loop_
_atom_site_type_symbol
_atom_site_label
_atom_site_fract_x
_atom_site_fract_y
_atom_site_fract_z
Si Si1 0.297763 0.475284 0.897980
Si Si2 0.785565 0.148033 0.582504
Si Si3 0.735699 0.747196 0.963990
Si Si4 0.091512 0.827310 0.900312
Si Si5 0.665074 0.058143 0.103109
Si Si6 0.491296 0.250504 0.210777
O O1 0.500000 0.500000 0.916088
O O2 0.229561 0.366624 0.931902
O O3 0.246125 0.492235 0.728525
O O4 0.190393 0.542291 0.010225
O O5 0.903981 0.162575 0.724973
O O6 0.822686 0.227120 0.455869
O O7 0.590253 0.157931 0.640334
O O8 0.559364 0.776081 0.877433
O O9 0.889977 0.822229 0.934700
O O10 0.692345 0.763507 0.133093
O O11 0.193593 0.917121 0.978401
O O12 0.606123 0.153739 0.195280
O O13 0.500000 0.000000 0.034971
#
# Coordination Sequence:
#
# PCOD8169468 Si02
#       6
#     4   4   4   4   4   4
#     4  11  21  43  75 105 128 180 247 295 342 426
#     4  11  22  43  68 100 138 190 237 282 354 440
#     4  12  24  42  67 106 138 176 235 300 367 411
#     4  11  25  41  67 100 147 184 230 298 369 412
#     4  10  20  43  73 100 131 188 248 280 340 432
#     4  11  20  39  70  94 135 184 236 283 345 440
#
# _framework density 24.648779000000001
#
# number of rings (size 3 to 8) (size 9 to 14) (size 15 to 20)
#    0.000    1.000    5.000    5.000    0.000    1.333 
#    3.000    0.833    0.000    0.000    0.000    0.000 
#    0.000    0.000    0.000    0.000    0.000    0.000 
#
# Total GULP energy -297467.974754 kJ/mol
# GULP energy per Si atom -12394.498948 kJ/mol
# Density = 2.459268 g / cm^3
# Si number density = 24.648779 Si / 1000 Ang^3
#
#
#
# Elastic Constant Matrix: (Units=GPa)
#
#
# Indices 1 2 3 4 5 6 
#
# 1 63.2442 -11.4438 -18.7140 0.0000 0.0000 0.0000
# 2 -11.4438 61.5742 13.8663 0.0000 0.0000 0.0000
# 3 -18.7140 13.8663 38.2242 0.0000 0.0000 0.0000
# 4 0.0000 0.0000 0.0000 37.4010 0.0000 0.0000
# 5 0.0000 0.0000 0.0000 0.0000 33.9215 0.0000
# 6 0.0000 0.0000 0.0000 0.0000 0.0000 31.4085
#
#
#
# Elastic Compliance Matrix: (Units=1/GPa)
#
#
# Indices 1 2 3 4 5 6 
#
# 1 0.018622 0.001533 0.008561 0.000000 0.000000 0.000000
# 2 0.001533 0.017812 -0.005711 0.000000 0.000000 0.000000
# 3 0.008561 -0.005711 0.032424 0.000000 0.000000 0.000000
# 4 0.000000 0.000000 0.000000 0.026737 0.000000 0.000000
# 5 0.000000 0.000000 0.000000 0.000000 0.029480 0.000000
# 6 0.000000 0.000000 0.000000 0.000000 0.000000 0.031838
#
#
# Mechanical properties :
#
#
# Convention : Reuss Voigt Hill
#
# Bulk Modulus (GPa) = 12.88240 14.49551 13.68895
# Shear Modulus (GPa) = 28.73197 32.50183 30.61690
#
# Velocity S-wave (km/s) = 3.41787 3.63519 3.52820
# Velocity P-wave (km/s) = 4.56219 4.84903 4.70779
#
# Compressibility (1/GPa) = 0.07762527
#
# Stress axis : x y z
#
# Youngs Moduli (GPa) = 53.69881 56.14334 30.84090
#
# Poissons Ratio (x) = -0.08607 -0.26403
# Poissons Ratio (y) = -0.08233 0.17613
# Poissons Ratio (z) = -0.45972 0.32062
#
# Static dielectric constant tensor:
#      x y z
#    x 4.254380 0.000000 0.000000 
#    y 0.000000 4.356440 0.000000 
#    z 0.000000 0.000000 4.680500 
# 
# 
# High freq. dielectric constant tensor:
#      x y z
#    x 1.966170 0.000000 0.000000 
#    y 0.000000 1.966910 0.000000 
#    z 0.000000 0.000000 1.992480 
# 
# From -- ./inp_files/1840.got.cif
#   From: 2010.03.12/outbox.cif.g09.slc.cpg/sg30_1_cif.got.tgz:1840.got - 2010.04.14 01:38:02.
