data_PCOD8169653
_publ_section_title
;
Structure prediction by ZEFSAII (Michael W. Deem and Ramdas Pophale) SiO2 
 PCOD8169653
Probable space group: P N C 2
;
_chemical_formula_sum "Si O2"
_cell_formula_units_Z 16
_cell_length_a 10.715261
_cell_length_b 7.364147
_cell_length_c 8.958021
_cell_angle_alpha 90.000000
_cell_angle_beta 90.000000
_cell_angle_gamma 90.000000
_cell_volume 706.866304
_symmetry_space_group_name_H-M "P N C 2"
_symmetry_group_IT_number 30
_symmetry_cell_setting 'orthorhombic'
loop_
_space_group_symop_operation_xyz
x,y,z
-x,-y,z
-x,1/2+y,1/2+z
x,1/2-y,1/2+z
loop_
_atom_site_type_symbol
_atom_site_label
_atom_site_fract_x
_atom_site_fract_y
_atom_site_fract_z
Si Si1 0.252989 0.873825 0.427200
Si Si2 0.322730 0.267414 0.758217
Si Si3 0.492438 0.203327 0.004473
Si Si4 0.142033 0.954733 0.736427
O O1 0.378565 0.812988 0.516982
O O2 0.158222 0.929675 0.558390
O O3 0.189903 0.715248 0.331601
O O4 0.279864 0.031185 0.305899
O O5 0.366115 0.226824 0.587784
O O6 0.213672 0.129999 0.798596
O O7 0.454943 0.213898 0.832442
O O8 0.500000 0.000000 0.066998
O O9 0.000000 0.000000 0.772159
#
# Coordination Sequence:
#
# PCOD8169653 Si02
#       4
#     4   4   4   4
#     4  12  27  50  76 111 148 196 247 311 372 434
#     4  12  26  45  74 112 144 193 241 306 370 435
#     4  12  23  43  74 109 153 184 242 307 378 430
#     4  12  30  50  75 108 151 201 252 295 364 450
#
# _framework density 22.635114000000002
#
# number of rings (size 3 to 8) (size 9 to 14) (size 15 to 20)
#    0.000    0.000    5.000    5.250    3.500    0.000 
#    0.000    0.000    0.000    0.000    0.000    0.000 
#    0.000    0.000    0.000    0.000    0.000    0.000 
#
# Total GULP energy -198314.972133 kJ/mol
# GULP energy per Si atom -12394.685758 kJ/mol
# Density = 2.258360 g / cm^3
# Si number density = 22.635114 Si / 1000 Ang^3
#
#
#
# Elastic Constant Matrix: (Units=GPa)
#
#
# Indices 1 2 3 4 5 6 
#
# 1 136.5670 61.3484 26.8467 0.0000 0.0000 0.0000
# 2 61.3484 145.0985 34.2307 0.0000 0.0000 0.0000
# 3 26.8467 34.2307 71.0570 0.0000 0.0000 0.0000
# 4 0.0000 0.0000 0.0000 32.0678 0.0000 0.0000
# 5 0.0000 0.0000 0.0000 0.0000 36.1791 0.0000
# 6 0.0000 0.0000 0.0000 0.0000 0.0000 18.1364
#
#
#
# Elastic Compliance Matrix: (Units=1/GPa)
#
#
# Indices 1 2 3 4 5 6 
#
# 1 0.009242 -0.003479 -0.001816 0.000000 0.000000 0.000000
# 2 -0.003479 0.009085 -0.003062 0.000000 0.000000 0.000000
# 3 -0.001816 -0.003062 0.016234 0.000000 0.000000 0.000000
# 4 0.000000 0.000000 0.000000 0.031184 0.000000 0.000000
# 5 0.000000 0.000000 0.000000 0.000000 0.027640 0.000000
# 6 0.000000 0.000000 0.000000 0.000000 0.000000 0.055138
#
#
# Mechanical properties :
#
#
# Convention : Reuss Voigt Hill
#
# Bulk Modulus (GPa) = 56.03041 66.39715 61.21378
# Shear Modulus (GPa) = 29.20764 32.62975 30.91870
#
# Velocity S-wave (km/s) = 3.59607 3.80090 3.69990
# Velocity P-wave (km/s) = 6.48458 6.97566 6.73460
#
# Compressibility (1/GPa) = 0.01784745
#
# Stress axis : x y z
#
# Youngs Moduli (GPa) = 108.19754 110.06712 61.59752
#
# Poissons Ratio (x) = 0.38296 0.11185
# Poissons Ratio (y) = 0.37646 0.18862
# Poissons Ratio (z) = 0.19647 0.33705
#
# Static dielectric constant tensor:
#      x y z
#    x 3.892880 0.000000 0.000000 
#    y 0.000000 4.163930 0.000000 
#    z 0.000000 0.000000 3.965470 
# 
# 
# High freq. dielectric constant tensor:
#      x y z
#    x 1.885660 0.000000 0.000000 
#    y 0.000000 1.909650 0.000000 
#    z 0.000000 0.000000 1.906780 
# 
# From -- ./inp_files/1556.got.cif
#   From: 2010.03.12/outbox.cif.g09.slc.cpg/sg30_1_cif.got.tgz:1556.got - 2010.04.14 01:38:02.
