data_PCOD8169707
_publ_section_title
;
Structure prediction by ZEFSAII (Michael W. Deem and Ramdas Pophale) SiO2 
 PCOD8169707
Probable space group: P M N 21
;
_chemical_formula_sum "Si O2"
_cell_formula_units_Z 32
_cell_length_a 9.184411
_cell_length_b 12.072952
_cell_length_c 14.560735
_cell_angle_alpha 90.000000
_cell_angle_beta 90.000000
_cell_angle_gamma 90.000000
_cell_volume 1614.537297
_symmetry_space_group_name_H-M "P M N 21"
_symmetry_group_IT_number 31
_symmetry_cell_setting 'orthorhombic'
loop_
_space_group_symop_operation_xyz
x,y,z
1/2-x,-y,1/2+z
-x,y,z
1/2+x,-y,1/2+z
loop_
_atom_site_type_symbol
_atom_site_label
_atom_site_fract_x
_atom_site_fract_y
_atom_site_fract_z
Si Si1 0.671007 0.579361 0.208720
Si Si2 0.673285 0.826866 0.239937
Si Si3 0.828968 0.773535 0.692732
Si Si4 0.670887 0.001842 0.095782
Si Si5 0.336373 0.678044 0.531291
Si Si6 0.664347 0.523250 0.001584
Si Si7 0.164142 0.092229 0.930613
Si Si8 0.332359 0.619394 0.811749
O O1 0.500000 0.564390 0.229992
O O2 0.729157 0.700624 0.240266
O O3 0.702382 0.575627 0.099870
O O4 0.759204 0.486452 0.262999
O O5 0.500000 0.826344 0.245862
O O6 0.731168 0.897539 0.327967
O O7 0.722529 0.890077 0.146865
O O8 0.782913 0.896579 0.662283
O O9 0.773976 0.686847 0.616490
O O10 0.747339 0.735013 0.785228
O O11 0.000000 0.761213 0.706573
O O12 0.500000 0.004828 0.077988
O O13 0.745013 0.010198 0.995911
O O14 0.500000 0.656698 0.566899
O O15 0.277359 0.573698 0.474417
O O16 0.331464 0.783769 0.467484
O O17 0.500000 0.475777 0.000944
O O18 0.682128 0.614422 0.921889
O O19 0.000000 0.045613 0.928295
O O20 0.500000 0.623768 0.780740
#
# Coordination Sequence:
#
# PCOD8169707 Si02
#       8
#     4   4   4   4   4   4   4   4
#     4  10  20  37  59  80 107 147 185 220 270 331
#     4   9  18  36  59  80 107 144 185 222 266 327
#     4  10  19  33  53  75 103 139 180 223 269 317
#     4   9  19  36  57  80 106 140 183 226 268 319
#     4  10  18  30  53  80 106 137 178 224 267 317
#     4  10  21  34  50  77 112 145 176 217 271 325
#     4   9  18  33  55  82 107 138 181 228 273 316
#     4  11  22  35  52  80 114 144 178 224 272 322
#
# _framework density 19.81992
#
# number of rings (size 3 to 8) (size 9 to 14) (size 15 to 20)
#    0.000    2.250    1.250    1.875    0.000    3.000 
#    2.250    1.875    0.000    0.000    0.000    0.000 
#    0.000    0.000    0.000    0.000    0.000    0.000 
#
# Total GULP energy -396690.270389 kJ/mol
# GULP energy per Si atom -12396.570950 kJ/mol
# Density = 1.977481 g / cm^3
# Si number density = 19.819920 Si / 1000 Ang^3
#
#
#
# Elastic Constant Matrix: (Units=GPa)
#
#
# Indices 1 2 3 4 5 6 
#
# 1 60.7393 17.8866 22.5466 0.0000 0.0000 0.0000
# 2 17.8866 44.6021 5.6458 0.0000 0.0000 0.0000
# 3 22.5466 5.6458 88.6505 0.0000 0.0000 0.0000
# 4 0.0000 0.0000 0.0000 22.8910 0.0000 0.0000
# 5 0.0000 0.0000 0.0000 0.0000 26.9841 0.0000
# 6 0.0000 0.0000 0.0000 0.0000 0.0000 18.3850
#
#
#
# Elastic Compliance Matrix: (Units=1/GPa)
#
#
# Indices 1 2 3 4 5 6 
#
# 1 0.020455 -0.007606 -0.004718 0.000000 0.000000 0.000000
# 2 -0.007606 0.025431 0.000315 0.000000 0.000000 0.000000
# 3 -0.004718 0.000315 0.012460 0.000000 0.000000 0.000000
# 4 0.000000 0.000000 0.000000 0.043685 0.000000 0.000000
# 5 0.000000 0.000000 0.000000 0.000000 0.037059 0.000000
# 6 0.000000 0.000000 0.000000 0.000000 0.000000 0.054392
#
#
# Mechanical properties :
#
#
# Convention : Reuss Voigt Hill
#
# Bulk Modulus (GPa) = 29.13077 31.79443 30.46260
# Shear Modulus (GPa) = 21.83958 23.51291 22.67624
#
# Velocity S-wave (km/s) = 3.32309 3.44805 3.38614
# Velocity P-wave (km/s) = 5.42711 5.65053 5.53995
#
# Compressibility (1/GPa) = 0.03432796
#
# Stress axis : x y z
#
# Youngs Moduli (GPa) = 48.88816 39.32256 80.25601
#
# Poissons Ratio (x) = 0.29908 0.37864
# Poissons Ratio (y) = 0.37183 -0.02526
# Poissons Ratio (z) = 0.23065 -0.01238
#
# Static dielectric constant tensor:
#      x y z
#    x 3.519320 0.000000 0.000000 
#    y 0.000000 3.542770 0.000000 
#    z 0.000000 0.000000 3.798800 
# 
# 
# High freq. dielectric constant tensor:
#      x y z
#    x 1.755870 0.000000 0.000000 
#    y 0.000000 1.758050 0.000000 
#    z 0.000000 0.000000 1.777830 
# 
# From -- ./inp_files/4970.got.cif
#   From: 2010.03.12/outbox.cif.g09.slc.cpg/sg31_3_cif.got.tgz:4970.got - 2010.04.14 01:42:59.
