data_PCOD8169362
_publ_section_title
;
Structure prediction by ZEFSAII (Michael W. Deem and Ramdas Pophale) SiO2 
 PCOD8169362
Probable space group: P N C 2
;
_chemical_formula_sum "Si O2"
_cell_formula_units_Z 24
_cell_length_a 29.645042
_cell_length_b 7.516683
_cell_length_c 5.219707
_cell_angle_alpha 90.000000
_cell_angle_beta 90.000000
_cell_angle_gamma 90.000000
_cell_volume 1163.119751
_symmetry_space_group_name_H-M "P N C 2"
_symmetry_group_IT_number 30
_symmetry_cell_setting 'orthorhombic'
loop_
_space_group_symop_operation_xyz
x,y,z
-x,-y,z
-x,1/2+y,1/2+z
x,1/2-y,1/2+z
loop_
_atom_site_type_symbol
_atom_site_label
_atom_site_fract_x
_atom_site_fract_y
_atom_site_fract_z
Si Si1 0.636309 0.359479 0.231000
Si Si2 0.138494 0.366494 0.646957
Si Si3 0.539211 0.363163 0.142424
Si Si4 0.265569 0.956536 0.697745
Si Si5 0.961967 0.640367 0.698770
Si Si6 0.226777 0.946198 0.197389
O O1 0.638214 0.303195 0.528480
O O2 0.588404 0.458333 0.179088
O O3 0.680397 0.476093 0.175198
O O4 0.146524 0.277289 0.370732
O O5 0.172582 0.534136 0.677880
O O6 0.087840 0.445048 0.664891
O O7 0.500000 0.500000 0.200658
O O8 0.534972 0.206724 0.352351
O O9 0.243808 0.050181 0.450950
O O10 0.245369 0.754867 0.715228
O O11 0.249221 0.050107 0.957836
O O12 0.967726 0.796938 0.491187
O O13 0.000000 0.500000 0.632262
#
# Coordination Sequence:
#
# PCOD8169362 Si02
#       6
#     4   4   4   4   4   4
#     4  10  16  30  51  78  99 139 175 215 280 320
#     4  10  21  37  54  73 107 152 179 205 275 337
#     4  10  21  35  58  84 110 147 188 231 284 340
#     4  10  17  30  50  80 104 124 169 231 263 292
#     4  10  21  40  61  84 113 151 191 236 282 338
#     4  10  18  30  50  75 105 128 171 220 257 306
#
# _framework density 20.634160999999999
#
# number of rings (size 3 to 8) (size 9 to 14) (size 15 to 20)
#    0.000    2.000    3.333    2.000    0.000    0.000 
#    6.000    0.000    0.000    6.000    0.000    0.000 
#    0.000    0.000    0.000    0.000    0.000    0.000 
#
# Total GULP energy -297327.266509 kJ/mol
# GULP energy per Si atom -12388.636105 kJ/mol
# Density = 2.058720 g / cm^3
# Si number density = 20.634161 Si / 1000 Ang^3
#
#
#
# Elastic Constant Matrix: (Units=GPa)
#
#
# Indices 1 2 3 4 5 6 
#
# 1 191.3869 34.5180 21.0234 0.0000 0.0000 0.0000
# 2 34.5180 17.6857 -3.8968 0.0000 0.0000 0.0000
# 3 21.0234 -3.8968 144.7087 0.0000 0.0000 0.0000
# 4 0.0000 0.0000 0.0000 7.1035 0.0000 0.0000
# 5 0.0000 0.0000 0.0000 0.0000 31.6098 0.0000
# 6 0.0000 0.0000 0.0000 0.0000 0.0000 33.5341
#
#
#
# Elastic Compliance Matrix: (Units=1/GPa)
#
#
# Indices 1 2 3 4 5 6 
#
# 1 0.008452 -0.016866 -0.001682 0.000000 0.000000 0.000000
# 2 -0.016866 0.090538 0.004888 0.000000 0.000000 0.000000
# 3 -0.001682 0.004888 0.007286 0.000000 0.000000 0.000000
# 4 0.000000 0.000000 0.000000 0.140777 0.000000 0.000000
# 5 0.000000 0.000000 0.000000 0.000000 0.031636 0.000000
# 6 0.000000 0.000000 0.000000 0.000000 0.000000 0.029820
#
#
# Mechanical properties :
#
#
# Convention : Reuss Voigt Hill
#
# Bulk Modulus (GPa) = 12.66515 50.78562 31.72539
# Shear Modulus (GPa) = 13.80652 34.59191 24.19922
#
# Velocity S-wave (km/s) = 2.58952 4.09888 3.42829
# Velocity P-wave (km/s) = 3.88486 6.86053 5.57490
#
# Compressibility (1/GPa) = 0.07895680
#
# Stress axis : x y z
#
# Youngs Moduli (GPa) = 118.31893 11.04505 137.24113
#
# Poissons Ratio (x) = 0.18629 0.23085
# Poissons Ratio (y) = 1.99559 -0.67089
# Poissons Ratio (z) = 0.19902 -0.05399
#
# Static dielectric constant tensor:
#      x y z
#    x 4.188500 0.000000 0.000000 
#    y 0.000000 2.932550 0.000000 
#    z 0.000000 0.000000 5.237210 
# 
# 
# High freq. dielectric constant tensor:
#      x y z
#    x 1.830950 0.000000 0.000000 
#    y 0.000000 1.722320 0.000000 
#    z 0.000000 0.000000 1.849010 
# 
# From -- ./inp_files/1052.got.cif
#   From: 2010.03.12/outbox.cif.g09.slc.cpg/sg30_1_cif.got.tgz:1052.got - 2010.04.14 01:38:02.
