data_PCOD8169288
_publ_section_title
;
Structure prediction by ZEFSAII (Michael W. Deem and Ramdas Pophale) SiO2 
 PCOD8169288
Probable space group: P C A 21
;
_chemical_formula_sum "Si O2"
_cell_formula_units_Z 28
_cell_length_a 11.307179
_cell_length_b 11.957603
_cell_length_c 9.169964
_cell_angle_alpha 90.000000
_cell_angle_beta 90.000000
_cell_angle_gamma 90.000000
_cell_volume 1239.841099
_symmetry_space_group_name_H-M "P C A 21"
_symmetry_group_IT_number 29
_symmetry_cell_setting 'orthorhombic'
loop_
_space_group_symop_operation_xyz
x,y,z
-x,-y,1/2+z
1/2-x,y,1/2+z
1/2+x,-y,z
loop_
_atom_site_type_symbol
_atom_site_label
_atom_site_fract_x
_atom_site_fract_y
_atom_site_fract_z
Si Si1 0.320507 0.556036 0.812950
Si Si2 0.658684 0.897568 0.772691
Si Si3 0.137568 0.182546 0.079014
Si Si4 0.486792 0.303874 0.192942
Si Si5 0.873634 0.140757 0.175550
Si Si6 0.318694 0.745480 0.464167
Si Si7 0.738795 0.591624 0.564848
O O1 0.443782 0.623956 0.814719
O O2 0.220537 0.638442 0.871141
O O3 0.297375 0.514674 0.647128
O O4 0.322866 0.447367 0.915115
O O5 0.782518 0.846586 0.718162
O O6 0.543409 0.819504 0.750421
O O7 0.635814 0.007007 0.675374
O O8 0.667364 0.905770 0.948854
O O9 0.167521 0.310025 0.029000
O O10 0.001596 0.179598 0.123652
O O11 0.364892 0.365990 0.167336
O O12 0.564812 0.290564 0.049251
O O13 0.852975 0.163162 0.345573
O O14 0.777931 0.202904 0.074349
#
# Coordination Sequence:
#
# PCOD8169288 Si02
#       7
#     4   4   4   4   4   4   4
#     4  12  24  46  70 103 142 190 238 301 370 436
#     4  11  27  47  75 106 145 195 249 302 381 434
#     4  11  27  49  72 113 147 188 257 311 362 465
#     4  11  26  44  69 102 149 177 253 298 351 455
#     4  12  28  46  79 100 155 195 246 309 382 432
#     4  12  26  48  67 113 139 192 252 301 362 456
#     4  11  26  44  74 105 141 195 239 302 382 432
#
# _framework density 22.583539999999999
#
# number of rings (size 3 to 8) (size 9 to 14) (size 15 to 20)
#    0.000    0.571    2.857    3.429   12.000    2.286 
#    0.000    0.000    0.000    0.000    0.000    0.000 
#    0.000    0.000    0.000    0.000    0.000    0.000 
#
# Total GULP energy -347215.018600 kJ/mol
# GULP energy per Si atom -12400.536379 kJ/mol
# Density = 2.253214 g / cm^3
# Si number density = 22.583540 Si / 1000 Ang^3
#
#
#
# Elastic Constant Matrix: (Units=GPa)
#
#
# Indices 1 2 3 4 5 6 
#
# 1 83.4581 23.5020 22.1347 0.0000 0.0000 0.0000
# 2 23.5020 102.5117 18.3427 0.0000 0.0000 0.0000
# 3 22.1347 18.3427 98.4937 0.0000 0.0000 0.0000
# 4 0.0000 0.0000 0.0000 43.9406 0.0000 0.0000
# 5 0.0000 0.0000 0.0000 0.0000 24.3491 0.0000
# 6 0.0000 0.0000 0.0000 0.0000 0.0000 27.1674
#
#
#
# Elastic Compliance Matrix: (Units=1/GPa)
#
#
# Indices 1 2 3 4 5 6 
#
# 1 0.013388 -0.002618 -0.002521 0.000000 0.000000 0.000000
# 2 -0.002618 0.010603 -0.001386 0.000000 0.000000 0.000000
# 3 -0.002521 -0.001386 0.010978 0.000000 0.000000 0.000000
# 4 0.000000 0.000000 0.000000 0.022758 0.000000 0.000000
# 5 0.000000 0.000000 0.000000 0.000000 0.041069 0.000000
# 6 0.000000 0.000000 0.000000 0.000000 0.000000 0.036809
#
#
# Mechanical properties :
#
#
# Convention : Reuss Voigt Hill
#
# Bulk Modulus (GPa) = 45.62519 45.82471 45.72495
# Shear Modulus (GPa) = 32.05906 33.79037 32.92472
#
# Velocity S-wave (km/s) = 3.77181 3.87232 3.82240
# Velocity P-wave (km/s) = 6.26223 6.35047 6.30650
#
# Compressibility (1/GPa) = 0.02191772
#
# Stress axis : x y z
#
# Youngs Moduli (GPa) = 74.69370 94.31027 91.09394
#
# Poissons Ratio (x) = 0.24693 0.22966
# Poissons Ratio (y) = 0.19557 0.12628
# Poissons Ratio (z) = 0.18831 0.13074
#
# Static dielectric constant tensor:
#      x y z
#    x 4.034240 0.000000 0.000000 
#    y 0.000000 4.228920 0.000000 
#    z 0.000000 0.000000 4.230400 
# 
# 
# High freq. dielectric constant tensor:
#      x y z
#    x 1.890530 0.000000 0.000000 
#    y 0.000000 1.900280 0.000000 
#    z 0.000000 0.000000 1.902300 
# 
# From -- ./inp_files/1452.got.cif
#   From: 2010.03.12/outbox.cif.g09.slc.cpg/sg29_1_cif.got.tgz:1452.got - 2010.04.14 03:43:10.
