data_PCOD8169966
_publ_section_title
;
Structure prediction by ZEFSAII (Michael W. Deem and Ramdas Pophale) SiO2 
 PCOD8169966
Probable space group: P M N 21
;
_chemical_formula_sum "Si O2"
_cell_formula_units_Z 32
_cell_length_a 8.464173
_cell_length_b 21.587183
_cell_length_c 9.758583
_cell_angle_alpha 90.000000
_cell_angle_beta 90.000000
_cell_angle_gamma 90.000000
_cell_volume 1783.065368
_symmetry_space_group_name_H-M "P M N 21"
_symmetry_group_IT_number 31
_symmetry_cell_setting 'orthorhombic'
loop_
_space_group_symop_operation_xyz
x,y,z
1/2-x,-y,1/2+z
-x,y,z
1/2+x,-y,1/2+z
loop_
_atom_site_type_symbol
_atom_site_label
_atom_site_fract_x
_atom_site_fract_y
_atom_site_fract_z
Si Si1 0.814222 0.594947 0.816370
Si Si2 0.178699 0.855267 0.237617
Si Si3 0.817630 0.989117 0.282184
Si Si4 0.317414 0.938596 0.033042
Si Si5 0.312669 0.632844 0.099880
Si Si6 0.313764 0.631236 0.533223
Si Si7 0.812857 0.723971 0.321484
Si Si8 0.685790 0.458980 0.810432
O O1 0.771765 0.633397 0.680129
O O2 0.717256 0.531424 0.815635
O O3 0.000000 0.581572 0.823258
O O4 0.758910 0.634187 0.947663
O O5 0.196260 0.916557 0.333871
O O6 0.250816 0.872809 0.087052
O O7 0.254287 0.794421 0.307049
O O8 0.000000 0.837368 0.206871
O O9 0.718871 0.993766 0.141839
O O10 0.000000 0.004114 0.251208
O O11 0.742746 0.037408 0.390117
O O12 0.500000 0.931473 0.009221
O O13 0.500000 0.641575 0.094859
O O14 0.232839 0.688707 0.182666
O O15 0.270995 0.568487 0.175890
O O16 0.500000 0.625423 0.554442
O O17 0.273150 0.694210 0.452387
O O18 0.252988 0.572211 0.447844
O O19 0.000000 0.720505 0.345822
O O20 0.500000 0.445599 0.800635
#
# Coordination Sequence:
#
# PCOD8169966 Si02
#       8
#     4   4   4   4   4   4   4   4
#     4  12  23  37  54  75 104 135 169 212 263 315
#     4   8  17  32  52  74 104 134 169 208 246 293
#     4   8  16  30  46  73 106 133 163 204 246 292
#     4   9  16  27  49  75 102 133 167 202 247 292
#     4  11  22  36  54  78 105 134 168 216 261 304
#     4  11  22  36  54  78 105 134 169 215 260 305
#     4  10  19  36  58  76  97 136 179 213 249 306
#     4  11  21  36  55  79 105 135 172 208 254 315
#
# _framework density 17.946621
#
# number of rings (size 3 to 8) (size 9 to 14) (size 15 to 20)
#    0.750    1.250    0.000    7.125    0.000    2.000 
#    0.000    0.000    2.750    0.000    0.000    0.000 
#    0.000    0.000    0.000    0.000    0.000    0.000 
#
# Total GULP energy -396530.119227 kJ/mol
# GULP energy per Si atom -12391.566226 kJ/mol
# Density = 1.790577 g / cm^3
# Si number density = 17.946621 Si / 1000 Ang^3
#
#
#
# Elastic Constant Matrix: (Units=GPa)
#
#
# Indices 1 2 3 4 5 6 
#
# 1 62.0736 6.6613 8.7717 0.0000 0.0000 0.0000
# 2 6.6613 32.5972 -1.3600 0.0000 0.0000 0.0000
# 3 8.7717 -1.3600 84.4816 0.0000 0.0000 0.0000
# 4 0.0000 0.0000 0.0000 14.5541 0.0000 0.0000
# 5 0.0000 0.0000 0.0000 0.0000 27.1363 0.0000
# 6 0.0000 0.0000 0.0000 0.0000 0.0000 23.2846
#
#
#
# Elastic Compliance Matrix: (Units=1/GPa)
#
#
# Indices 1 2 3 4 5 6 
#
# 1 0.016739 -0.003495 -0.001794 0.000000 0.000000 0.000000
# 2 -0.003495 0.031428 0.000869 0.000000 0.000000 0.000000
# 3 -0.001794 0.000869 0.012037 0.000000 0.000000 0.000000
# 4 0.000000 0.000000 0.000000 0.068709 0.000000 0.000000
# 5 0.000000 0.000000 0.000000 0.000000 0.036851 0.000000
# 6 0.000000 0.000000 0.000000 0.000000 0.000000 0.042947
#
#
# Mechanical properties :
#
#
# Convention : Reuss Voigt Hill
#
# Bulk Modulus (GPa) = 19.46956 23.03315 21.25135
# Shear Modulus (GPa) = 21.30622 24.00028 22.65325
#
# Velocity S-wave (km/s) = 3.44931 3.66090 3.55668
# Velocity P-wave (km/s) = 5.17067 5.54362 5.36039
#
# Compressibility (1/GPa) = 0.05136224
#
# Stress axis : x y z
#
# Youngs Moduli (GPa) = 59.74228 31.81870 83.07591
#
# Poissons Ratio (x) = 0.11122 0.14906
# Poissons Ratio (y) = 0.20882 -0.07218
# Poissons Ratio (z) = 0.10719 -0.02765
#
# Static dielectric constant tensor:
#      x y z
#    x 3.320160 0.000000 0.000000 
#    y 0.000000 3.395880 0.000000 
#    z 0.000000 0.000000 3.395950 
# 
# 
# High freq. dielectric constant tensor:
#      x y z
#    x 1.705620 0.000000 0.000000 
#    y 0.000000 1.670750 0.000000 
#    z 0.000000 0.000000 1.685930 
# 
# From -- ./inp_files/1882.got.cif
#   From: 2010.03.12/outbox.cif.g09.slc.cpg/sg31_1_cif.got.tgz:1882.got - 2010.04.14 01:42:59.
