data_PCOD8169805
_publ_section_title
;
Structure prediction by ZEFSAII (Michael W. Deem and Ramdas Pophale) SiO2 
 PCOD8169805
Probable space group: P M N 21
;
_chemical_formula_sum "Si O2"
_cell_formula_units_Z 32
_cell_length_a 9.067872
_cell_length_b 9.259035
_cell_length_c 20.036509
_cell_angle_alpha 90.000000
_cell_angle_beta 90.000000
_cell_angle_gamma 90.000000
_cell_volume 1682.260171
_symmetry_space_group_name_H-M "P M N 21"
_symmetry_group_IT_number 31
_symmetry_cell_setting 'orthorhombic'
loop_
_space_group_symop_operation_xyz
x,y,z
1/2-x,-y,1/2+z
-x,y,z
1/2+x,-y,1/2+z
loop_
_atom_site_type_symbol
_atom_site_label
_atom_site_fract_x
_atom_site_fract_y
_atom_site_fract_z
Si Si1 0.165338 0.387910 0.629860
Si Si2 0.334757 0.947074 0.165582
Si Si3 0.668249 0.306885 0.505426
Si Si4 0.824975 0.792517 0.429690
Si Si5 0.673651 0.984093 0.536827
Si Si6 0.670956 0.506168 0.384756
Si Si7 0.834357 0.547563 0.254841
Si Si8 0.663545 0.115993 0.788421
O O1 0.166355 0.222001 0.651127
O O2 0.237076 0.402839 0.556878
O O3 0.255995 0.481805 0.683844
O O4 0.000000 0.449506 0.626725
O O5 0.500000 0.009972 0.161419
O O6 0.230313 0.028185 0.112842
O O7 0.273204 0.973098 0.240496
O O8 0.500000 0.320119 0.529646
O O9 0.716572 0.139789 0.506361
O O10 0.690118 0.365141 0.430789
O O11 0.751796 0.636962 0.421534
O O12 0.786502 0.894068 0.365721
O O13 0.000000 0.772307 0.436383
O O14 0.758671 0.863718 0.495302
O O15 0.500000 0.954294 0.534739
O O16 0.500000 0.546564 0.373902
O O17 0.743799 0.468402 0.313571
O O18 0.837342 0.716558 0.269388
O O19 0.000000 0.484654 0.252402
O O20 0.500000 0.051452 0.778809
#
# Coordination Sequence:
#
# PCOD8169805 Si02
#       8
#     4   4   4   4   4   4   4   4
#     4   9  16  26  44  69  94 122 158 199 239 280
#     4   9  16  26  43  68  94 119 153 197 238 278
#     4   9  19  33  49  71  99 129 160 197 240 285
#     4  10  20  33  49  72 100 128 160 198 240 286
#     4  10  19  32  50  71  97 129 161 195 238 285
#     4  10  19  32  50  72  98 128 162 199 240 287
#     4   9  16  27  44  67  95 124 156 198 242 281
#     4   8  15  27  43  64  91 121 152 191 237 280
#
# _framework density 19.022029
#
# number of rings (size 3 to 8) (size 9 to 14) (size 15 to 20)
#    0.000    2.750    0.000    3.000    0.000    8.000 
#    0.000    0.000    0.000    1.500    0.000    3.500 
#    0.000    0.000    0.000    0.000    0.000    0.000 
#
# Total GULP energy -396749.225315 kJ/mol
# GULP energy per Si atom -12398.413291 kJ/mol
# Density = 1.897873 g / cm^3
# Si number density = 19.022029 Si / 1000 Ang^3
#
#
#
# Elastic Constant Matrix: (Units=GPa)
#
#
# Indices 1 2 3 4 5 6 
#
# 1 101.9984 3.4596 9.4513 0.0000 0.0000 0.0000
# 2 3.4596 12.6871 -10.7712 0.0000 0.0000 0.0000
# 3 9.4513 -10.7712 28.0092 0.0000 0.0000 0.0000
# 4 0.0000 0.0000 0.0000 20.0023 0.0000 0.0000
# 5 0.0000 0.0000 0.0000 0.0000 40.8210 0.0000
# 6 0.0000 0.0000 0.0000 0.0000 0.0000 12.7355
#
#
#
# Elastic Compliance Matrix: (Units=1/GPa)
#
#
# Indices 1 2 3 4 5 6 
#
# 1 0.010762 -0.008935 -0.007067 0.000000 0.000000 0.000000
# 2 -0.008935 0.124446 0.050872 0.000000 0.000000 0.000000
# 3 -0.007067 0.050872 0.057651 0.000000 0.000000 0.000000
# 4 0.000000 0.000000 0.000000 0.049994 0.000000 0.000000
# 5 0.000000 0.000000 0.000000 0.000000 0.024497 0.000000
# 6 0.000000 0.000000 0.000000 0.000000 0.000000 0.078521
#
#
# Mechanical properties :
#
#
# Convention : Reuss Voigt Hill
#
# Bulk Modulus (GPa) = 3.80810 16.33047 10.06929
# Shear Modulus (GPa) = 13.74892 24.08208 18.91550
#
# Velocity S-wave (km/s) = 2.69139 3.56196 3.15683
# Velocity P-wave (km/s) = 3.41532 5.05178 4.31189
#
# Compressibility (1/GPa) = 0.26259816
#
# Stress axis : x y z
#
# Youngs Moduli (GPa) = 92.91948 8.03558 17.34590
#
# Poissons Ratio (x) = 0.07180 0.12259
# Poissons Ratio (y) = 0.83022 -0.88242
# Poissons Ratio (z) = 0.65671 -0.40879
#
# Static dielectric constant tensor:
#      x y z
#    x 3.680080 0.000000 0.000000 
#    y 0.000000 2.866080 0.000000 
#    z 0.000000 0.000000 3.660910 
# 
# 
# High freq. dielectric constant tensor:
#      x y z
#    x 1.753880 0.000000 0.000000 
#    y 0.000000 1.673310 0.000000 
#    z 0.000000 0.000000 1.749230 
# 
# From -- ./inp_files/5849.got.cif
#   From: 2010.03.12/outbox.cif.g09.slc.cpg/sg31_3_cif.got.tgz:5849.got - 2010.04.14 01:42:59.
