data_PCOD8169099
_publ_section_title
;
Structure prediction by ZEFSAII (Michael W. Deem and Ramdas Pophale) SiO2 
 PCOD8169099
Probable space group: P C A 21
;
_chemical_formula_sum "Si O2"
_cell_formula_units_Z 32
_cell_length_a 11.441837
_cell_length_b 12.710236
_cell_length_c 8.890138
_cell_angle_alpha 90.000000
_cell_angle_beta 90.000000
_cell_angle_gamma 90.000000
_cell_volume 1292.878977
_symmetry_space_group_name_H-M "P C A 21"
_symmetry_group_IT_number 29
_symmetry_cell_setting 'orthorhombic'
loop_
_space_group_symop_operation_xyz
x,y,z
-x,-y,1/2+z
1/2-x,y,1/2+z
1/2+x,-y,z
loop_
_atom_site_type_symbol
_atom_site_label
_atom_site_fract_x
_atom_site_fract_y
_atom_site_fract_z
Si Si1 0.393410 0.944854 0.563400
Si Si2 0.744953 0.406843 0.154578
Si Si3 0.583291 0.330918 0.401450
Si Si4 0.692881 0.079838 0.745458
Si Si5 0.139269 0.132056 0.573057
Si Si6 0.772379 0.747556 0.800143
Si Si7 0.018956 0.178916 0.113633
Si Si8 0.852331 0.544594 0.403660
O O1 0.309644 0.947818 0.419270
O O2 0.325652 0.888437 0.702441
O O3 0.503540 0.871162 0.529237
O O4 0.424447 0.064347 0.603675
O O5 0.653726 0.329268 0.243293
O O6 0.831371 0.458156 0.275834
O O7 0.823577 0.344343 0.036118
O O8 0.671977 0.497026 0.068285
O O9 0.512106 0.224294 0.446955
O O10 0.488028 0.423900 0.395448
O O11 0.600044 0.171414 0.710505
O O12 0.674526 0.980550 0.636070
O O13 0.212095 0.161124 0.424537
O O14 0.161207 0.221295 0.698206
O O15 0.742645 0.637714 0.878714
O O16 0.889803 0.742613 0.696719
#
# Coordination Sequence:
#
# PCOD8169099 Si02
#       8
#     4   4   4   4   4   4   4   4
#     4  11  25  45  67  98 141 202 247 294 364 427
#     4  10  24  47  70 105 143 183 228 291 391 449
#     4  11  24  45  72 103 143 183 235 302 358 453
#     4  11  24  43  69  94 148 190 247 293 358 422
#     4  11  24  41  65 100 139 189 239 315 350 423
#     4  12  23  45  70 110 141 180 258 306 359 429
#     4  11  25  43  70 103 143 190 245 305 356 419
#     4  11  23  43  77 105 138 185 233 300 364 448
#
# _framework density 24.750962999999999
#
# number of rings (size 3 to 8) (size 9 to 14) (size 15 to 20)
#    0.000    1.000    2.500    3.750    1.750    3.000 
#    2.250    2.500    0.000    0.000    0.000    0.000 
#    0.000    0.000    0.000    0.000    0.000    0.000 
#
# Total GULP energy -396741.817098 kJ/mol
# GULP energy per Si atom -12398.181784 kJ/mol
# Density = 2.469463 g / cm^3
# Si number density = 24.750963 Si / 1000 Ang^3
#
#
#
# Elastic Constant Matrix: (Units=GPa)
#
#
# Indices 1 2 3 4 5 6 
#
# 1 112.7827 27.5989 58.6490 0.0000 0.0000 0.0000
# 2 27.5989 57.4265 23.7074 0.0000 0.0000 0.0000
# 3 58.6490 23.7074 134.2583 0.0000 0.0000 0.0000
# 4 0.0000 0.0000 0.0000 28.9148 0.0000 0.0000
# 5 0.0000 0.0000 0.0000 0.0000 45.9138 0.0000
# 6 0.0000 0.0000 0.0000 0.0000 0.0000 31.9518
#
#
#
# Elastic Compliance Matrix: (Units=1/GPa)
#
#
# Indices 1 2 3 4 5 6 
#
# 1 0.012258 -0.003970 -0.004654 0.000000 0.000000 0.000000
# 2 -0.003970 0.020069 -0.001809 0.000000 0.000000 0.000000
# 3 -0.004654 -0.001809 0.009801 0.000000 0.000000 0.000000
# 4 0.000000 0.000000 0.000000 0.034584 0.000000 0.000000
# 5 0.000000 0.000000 0.000000 0.000000 0.021780 0.000000
# 6 0.000000 0.000000 0.000000 0.000000 0.000000 0.031297
#
#
# Mechanical properties :
#
#
# Convention : Reuss Voigt Hill
#
# Bulk Modulus (GPa) = 47.03453 58.26424 52.64939
# Shear Modulus (GPa) = 31.69725 34.32357 33.01041
#
# Velocity S-wave (km/s) = 3.58250 3.72796 3.65595
# Velocity P-wave (km/s) = 6.01305 6.49011 6.25613
#
# Compressibility (1/GPa) = 0.02126097
#
# Stress axis : x y z
#
# Youngs Moduli (GPa) = 81.57838 49.82923 102.03247
#
# Poissons Ratio (x) = 0.19782 0.47484
# Poissons Ratio (y) = 0.32386 0.18463
# Poissons Ratio (z) = 0.37965 0.09017
#
# Static dielectric constant tensor:
#      x y z
#    x 5.030470 0.000000 0.000000 
#    y 0.000000 4.154290 0.000000 
#    z 0.000000 0.000000 4.535480 
# 
# 
# High freq. dielectric constant tensor:
#      x y z
#    x 2.000800 0.000000 0.000000 
#    y 0.000000 1.963280 0.000000 
#    z 0.000000 0.000000 1.995980 
# 
# From -- ./inp_files/1526.got.cif
#   From: 2010.03.12/outbox.cif.g09.slc.cpg/sg29_1_cif.got.tgz:1526.got - 2010.04.14 03:43:10.
