data_PCOD8169451
_publ_section_title
;
Structure prediction by ZEFSAII (Michael W. Deem and Ramdas Pophale) SiO2 
 PCOD8169451
Probable space group: P N C 2
;
_chemical_formula_sum "Si O2"
_cell_formula_units_Z 22
_cell_length_a 7.483284
_cell_length_b 14.560750
_cell_length_c 8.926475
_cell_angle_alpha 90.000000
_cell_angle_beta 90.000000
_cell_angle_gamma 90.000000
_cell_volume 972.648600
_symmetry_space_group_name_H-M "P N C 2"
_symmetry_group_IT_number 30
_symmetry_cell_setting 'orthorhombic'
loop_
_space_group_symop_operation_xyz
x,y,z
-x,-y,z
-x,1/2+y,1/2+z
x,1/2-y,1/2+z
loop_
_atom_site_type_symbol
_atom_site_label
_atom_site_fract_x
_atom_site_fract_y
_atom_site_fract_z
Si Si1 0.801406 0.469483 0.626900
Si Si2 0.000000 0.000000 0.627639
Si Si3 0.147838 0.814814 0.904576
Si Si4 0.739517 0.108708 0.430630
Si Si5 0.775811 0.606730 0.364116
Si Si6 0.559451 0.100613 0.717630
O O1 0.795708 0.367543 0.555168
O O2 0.697975 0.454712 0.784373
O O3 0.724603 0.547758 0.514514
O O4 0.000000 0.500000 0.666321
O O5 0.157011 0.038984 0.732801
O O6 0.912972 0.074581 0.519060
O O7 0.216949 0.712742 0.889560
O O8 0.242604 0.869937 0.769379
O O9 0.932183 0.819103 0.891735
O O10 0.562409 0.106493 0.536556
O O11 0.599434 0.659959 0.298974
O O12 0.500000 0.000000 0.773993
#
# Coordination Sequence:
#
# PCOD8169451 Si02
#       6
#     4   2   4   4   4   4
#     4  10  20  38  66 100 131 175 231 279 345 413
#     4  12  20  42  70  94 138 192 230 272 360 428
#     4  11  23  44  69  97 141 183 228 292 348 419
#     4  12  24  40  69 108 140 172 240 304 342 399
#     4  11  21  45  71  92 132 198 229 262 361 440
#     4  12  22  44  71  96 135 192 230 275 357 434
#
# _framework density 22.618652000000001
#
# number of rings (size 3 to 8) (size 9 to 14) (size 15 to 20)
#    0.000    0.727    9.091    1.091    0.000    0.000 
#    6.545    0.000    0.000    0.000    0.000    0.000 
#    0.000    0.000    0.000    0.000    0.000    0.000 
#
# Total GULP energy -272548.080311 kJ/mol
# GULP energy per Si atom -12388.549105 kJ/mol
# Density = 2.256717 g / cm^3
# Si number density = 22.618652 Si / 1000 Ang^3
#
#
#
# Elastic Constant Matrix: (Units=GPa)
#
#
# Indices 1 2 3 4 5 6 
#
# 1 96.1421 10.4217 55.9322 0.0000 0.0000 0.0000
# 2 10.4217 71.9696 25.7152 0.0000 0.0000 0.0000
# 3 55.9322 25.7152 167.9954 0.0000 0.0000 0.0000
# 4 0.0000 0.0000 0.0000 19.9801 0.0000 0.0000
# 5 0.0000 0.0000 0.0000 0.0000 41.5782 0.0000
# 6 0.0000 0.0000 0.0000 0.0000 0.0000 16.2380
#
#
#
# Elastic Compliance Matrix: (Units=1/GPa)
#
#
# Indices 1 2 3 4 5 6 
#
# 1 0.012908 -0.000353 -0.004244 0.000000 0.000000 0.000000
# 2 -0.000353 0.014708 -0.002134 0.000000 0.000000 0.000000
# 3 -0.004244 -0.002134 0.007692 0.000000 0.000000 0.000000
# 4 0.000000 0.000000 0.000000 0.050050 0.000000 0.000000
# 5 0.000000 0.000000 0.000000 0.000000 0.024051 0.000000
# 6 0.000000 0.000000 0.000000 0.000000 0.000000 0.061584
#
#
# Mechanical properties :
#
#
# Convention : Reuss Voigt Hill
#
# Bulk Modulus (GPa) = 45.77139 57.80504 51.78822
# Shear Modulus (GPa) = 26.07737 31.82847 28.95292
#
# Velocity S-wave (km/s) = 3.39914 3.75531 3.58165
# Velocity P-wave (km/s) = 5.97374 6.66445 6.32853
#
# Compressibility (1/GPa) = 0.02184771
#
# Stress axis : x y z
#
# Youngs Moduli (GPa) = 77.46930 67.98871 130.00409
#
# Poissons Ratio (x) = 0.02400 0.55169
# Poissons Ratio (y) = 0.02734 0.27742
# Poissons Ratio (z) = 0.32875 0.14508
#
# Static dielectric constant tensor:
#      x y z
#    x 4.380760 0.000000 0.000000 
#    y 0.000000 3.670620 0.000000 
#    z 0.000000 0.000000 4.330940 
# 
# 
# High freq. dielectric constant tensor:
#      x y z
#    x 1.885090 0.000000 0.000000 
#    y 0.000000 1.860330 0.000000 
#    z 0.000000 0.000000 1.905450 
# 
# From -- ./inp_files/1845.got.cif
#   From: 2010.03.12/outbox.cif.g09.slc.cpg/sg30_1_cif.got.tgz:1845.got - 2010.04.14 01:38:02.
