data_PCOD8169393
_publ_section_title
;
Structure prediction by ZEFSAII (Michael W. Deem and Ramdas Pophale) SiO2 
 PCOD8169393
Probable space group: P N C 2
;
_chemical_formula_sum "Si O2"
_cell_formula_units_Z 30
_cell_length_a 9.095697
_cell_length_b 10.991588
_cell_length_c 14.664983
_cell_angle_alpha 90.000000
_cell_angle_beta 90.000000
_cell_angle_gamma 90.000000
_cell_volume 1466.148599
_symmetry_space_group_name_H-M "P N C 2"
_symmetry_group_IT_number 30
_symmetry_cell_setting 'orthorhombic'
loop_
_space_group_symop_operation_xyz
x,y,z
-x,-y,z
-x,1/2+y,1/2+z
x,1/2-y,1/2+z
loop_
_atom_site_type_symbol
_atom_site_label
_atom_site_fract_x
_atom_site_fract_y
_atom_site_fract_z
Si Si1 0.773790 0.988516 0.033990
Si Si2 0.500000 0.500000 0.414097
Si Si3 0.143592 0.754659 0.556241
Si Si4 0.674063 0.773481 0.157444
Si Si5 0.458884 0.862396 0.523605
Si Si6 0.599130 0.755473 0.355737
Si Si7 0.916648 0.800885 0.912611
Si Si8 0.962895 0.638662 0.210477
O O1 0.742387 0.896637 0.117094
O O2 0.839884 0.111405 0.072425
O O3 0.886848 0.927776 0.963625
O O4 0.631897 0.035655 0.980126
O O5 0.544704 0.614941 0.351871
O O6 0.288193 0.834377 0.538884
O O7 0.028887 0.780195 0.473082
O O8 0.080839 0.788548 0.653561
O O9 0.555583 0.726522 0.085651
O O10 0.594917 0.805877 0.252910
O O11 0.798067 0.671615 0.177408
O O12 0.492202 0.836694 0.417367
O O13 0.500000 0.000000 0.549011
O O14 0.761540 0.768411 0.400111
O O15 0.989674 0.827680 0.815512
O O16 0.000000 0.500000 0.192556
#
# Coordination Sequence:
#
# PCOD8169393 Si02
#       8
#     4   2   4   4   4   4   4   4
#     4  11  19  40  69  92 128 163 216 272 322 381
#     4  10  18  40  68  90 118 172 218 260 312 374
#     4  12  23  39  68  96 126 167 222 271 318 391
#     4  11  23  42  67  90 131 171 210 267 333 384
#     4  12  25  44  61  93 133 172 211 265 329 393
#     4  10  22  43  65  95 127 171 216 265 332 387
#     4  10  22  41  69  91 127 168 215 270 318 384
#     4  11  23  41  63  96 128 168 214 263 323 386
#
# _framework density 20.461773999999998
#
# number of rings (size 3 to 8) (size 9 to 14) (size 15 to 20)
#    0.000    1.067    5.333    2.000    0.933    1.067 
#    8.400    0.000    0.000    0.000    0.000    0.000 
#    0.000    0.000    0.000    0.000    0.000    0.000 
#
# Total GULP energy -372018.821292 kJ/mol
# GULP energy per Si atom -12400.627376 kJ/mol
# Density = 2.041520 g / cm^3
# Si number density = 20.461774 Si / 1000 Ang^3
#
#
#
# Elastic Constant Matrix: (Units=GPa)
#
#
# Indices 1 2 3 4 5 6 
#
# 1 104.0044 19.4974 60.2243 0.0000 0.0000 0.0000
# 2 19.4974 58.6297 45.7680 0.0000 0.0000 0.0000
# 3 60.2243 45.7680 158.9276 0.0000 0.0000 0.0000
# 4 0.0000 0.0000 0.0000 14.5993 0.0000 0.0000
# 5 0.0000 0.0000 0.0000 0.0000 31.2360 0.0000
# 6 0.0000 0.0000 0.0000 0.0000 0.0000 30.3549
#
#
#
# Elastic Compliance Matrix: (Units=1/GPa)
#
#
# Indices 1 2 3 4 5 6 
#
# 1 0.012333 -0.000585 -0.004505 0.000000 0.000000 0.000000
# 2 -0.000585 0.022030 -0.006123 0.000000 0.000000 0.000000
# 3 -0.004505 -0.006123 0.009763 0.000000 0.000000 0.000000
# 4 0.000000 0.000000 0.000000 0.068497 0.000000 0.000000
# 5 0.000000 0.000000 0.000000 0.000000 0.032014 0.000000
# 6 0.000000 0.000000 0.000000 0.000000 0.000000 0.032944
#
#
# Mechanical properties :
#
#
# Convention : Reuss Voigt Hill
#
# Bulk Modulus (GPa) = 46.08073 63.61567 54.84820
# Shear Modulus (GPa) = 24.12667 28.30951 26.21809
#
# Velocity S-wave (km/s) = 3.43754 3.72362 3.58344
# Velocity P-wave (km/s) = 6.19071 7.04589 6.63210
#
# Compressibility (1/GPa) = 0.02170105
#
# Stress axis : x y z
#
# Youngs Moduli (GPa) = 81.08079 45.39232 102.43122
#
# Poissons Ratio (x) = 0.02653 0.46148
# Poissons Ratio (y) = 0.04739 0.62716
# Poissons Ratio (z) = 0.36529 0.27793
#
# Static dielectric constant tensor:
#      x y z
#    x 3.949670 0.000000 0.000000 
#    y 0.000000 3.568730 0.000000 
#    z 0.000000 0.000000 3.858530 
# 
# 
# High freq. dielectric constant tensor:
#      x y z
#    x 1.812610 0.000000 0.000000 
#    y 0.000000 1.785860 0.000000 
#    z 0.000000 0.000000 1.805320 
# 
# From -- ./inp_files/5158.got.cif
#   From: 2010.03.12/outbox.cif.g09.slc.cpg/sg30_3_cif.got.tgz:5158.got - 2010.04.14 01:38:02.
