data_PCOD8169445
_publ_section_title
;
Structure prediction by ZEFSAII (Michael W. Deem and Ramdas Pophale) SiO2 
 PCOD8169445
Probable space group: P N C 2
;
_chemical_formula_sum "Si O2"
_cell_formula_units_Z 18
_cell_length_a 6.180138
_cell_length_b 11.082687
_cell_length_c 13.138707
_cell_angle_alpha 90.000000
_cell_angle_beta 90.000000
_cell_angle_gamma 90.000000
_cell_volume 899.903350
_symmetry_space_group_name_H-M "P N C 2"
_symmetry_group_IT_number 30
_symmetry_cell_setting 'orthorhombic'
loop_
_space_group_symop_operation_xyz
x,y,z
-x,-y,z
-x,1/2+y,1/2+z
x,1/2-y,1/2+z
loop_
_atom_site_type_symbol
_atom_site_label
_atom_site_fract_x
_atom_site_fract_y
_atom_site_fract_z
Si Si1 0.000000 0.000000 0.206550
Si Si2 0.309984 0.301795 0.678754
Si Si3 0.605417 0.128013 0.561164
Si Si4 0.937818 0.367992 0.234869
Si Si5 0.686164 0.169838 0.327339
O O1 0.163090 0.084176 0.138950
O O2 0.869272 0.087077 0.279749
O O3 0.448605 0.240836 0.588560
O O4 0.462426 0.351958 0.768445
O O5 0.162521 0.201313 0.730031
O O6 0.828746 0.135159 0.623106
O O7 0.658042 0.136070 0.443516
O O8 0.500000 0.000000 0.588581
O O9 0.769069 0.308176 0.314703
O O10 0.000000 0.500000 0.273837
#
# Coordination Sequence:
#
# PCOD8169445 Si02
#       5
#     2   4   4   4   4
#     4  10  20  38  60  88 126 162 196 252 326 368
#     4  10  21  38  62  86 126 162 201 256 311 366
#     4  11  21  36  64  94 116 160 218 260 303 372
#     4  10  21  39  64  89 125 163 201 252 314 366
#     4  10  23  37  65  92 123 158 205 260 308 370
#
# _framework density 20.002147999999998
#
# number of rings (size 3 to 8) (size 9 to 14) (size 15 to 20)
#    0.000    1.778    2.222    2.000    1.556    3.556 
#    0.000    0.000   58.667    0.000    0.000    0.000 
#    0.000    0.000    0.000    0.000    0.000    0.000 
#
# Total GULP energy -223159.703642 kJ/mol
# GULP energy per Si atom -12397.761313 kJ/mol
# Density = 1.995662 g / cm^3
# Si number density = 20.002148 Si / 1000 Ang^3
#
#
#
# Elastic Constant Matrix: (Units=GPa)
#
#
# Indices 1 2 3 4 5 6 
#
# 1 106.7611 43.0936 18.0547 0.0000 0.0000 0.0000
# 2 43.0936 124.8070 11.8175 0.0000 0.0000 0.0000
# 3 18.0547 11.8175 54.1082 0.0000 0.0000 0.0000
# 4 0.0000 0.0000 0.0000 19.5825 0.0000 0.0000
# 5 0.0000 0.0000 0.0000 0.0000 7.8516 0.0000
# 6 0.0000 0.0000 0.0000 0.0000 0.0000 46.9864
#
#
#
# Elastic Compliance Matrix: (Units=1/GPa)
#
#
# Indices 1 2 3 4 5 6 
#
# 1 0.011338 -0.003632 -0.002990 0.000000 0.000000 0.000000
# 2 -0.003632 0.009345 -0.000829 0.000000 0.000000 0.000000
# 3 -0.002990 -0.000829 0.019660 0.000000 0.000000 0.000000
# 4 0.000000 0.000000 0.000000 0.051066 0.000000 0.000000
# 5 0.000000 0.000000 0.000000 0.000000 0.127362 0.000000
# 6 0.000000 0.000000 0.000000 0.000000 0.000000 0.021283
#
#
# Mechanical properties :
#
#
# Convention : Reuss Voigt Hill
#
# Bulk Modulus (GPa) = 39.30600 47.95643 43.63122
# Shear Modulus (GPa) = 18.97988 29.06483 24.02236
#
# Velocity S-wave (km/s) = 3.08375 3.81607 3.46929
# Velocity P-wave (km/s) = 5.68972 6.59122 6.15699
#
# Compressibility (1/GPa) = 0.02544141
#
# Stress axis : x y z
#
# Youngs Moduli (GPa) = 88.19640 107.01060 50.86392
#
# Poissons Ratio (x) = 0.38864 0.15209
# Poissons Ratio (y) = 0.32031 0.04217
# Poissons Ratio (z) = 0.26372 0.08872
#
# Static dielectric constant tensor:
#      x y z
#    x 4.034760 0.000000 0.000000 
#    y 0.000000 4.341900 0.000000 
#    z 0.000000 0.000000 3.177660 
# 
# 
# High freq. dielectric constant tensor:
#      x y z
#    x 1.806160 0.000000 0.000000 
#    y 0.000000 1.801530 0.000000 
#    z 0.000000 0.000000 1.733690 
# 
# From -- ./inp_files/2980.got.cif
#   From: 2010.03.12/outbox.cif.g09.slc.cpg/sg30_2_cif.got.tgz:2980.got - 2010.04.14 01:38:02.
