data_PCOD8169500
_publ_section_title
;
Structure prediction by ZEFSAII (Michael W. Deem and Ramdas Pophale) SiO2 
 PCOD8169500
Probable space group: P N C 2
;
_chemical_formula_sum "Si O2"
_cell_formula_units_Z 24
_cell_length_a 8.463371
_cell_length_b 14.669178
_cell_length_c 8.469267
_cell_angle_alpha 90.000000
_cell_angle_beta 90.000000
_cell_angle_gamma 90.000000
_cell_volume 1051.465390
_symmetry_space_group_name_H-M "P N C 2"
_symmetry_group_IT_number 30
_symmetry_cell_setting 'orthorhombic'
loop_
_space_group_symop_operation_xyz
x,y,z
-x,-y,z
-x,1/2+y,1/2+z
x,1/2-y,1/2+z
loop_
_atom_site_type_symbol
_atom_site_label
_atom_site_fract_x
_atom_site_fract_y
_atom_site_fract_z
Si Si1 0.739026 0.008063 0.550740
Si Si2 0.500000 0.000000 0.798305
Si Si3 0.049944 0.845662 0.984782
Si Si4 0.925067 0.154933 0.343963
Si Si5 0.698734 0.846838 0.351800
Si Si6 0.000000 0.000000 0.769747
Si Si7 0.674853 0.655739 0.494521
O O1 0.822646 0.083159 0.441626
O O2 0.623196 0.051642 0.681641
O O3 0.638815 0.934747 0.448781
O O4 0.872675 0.952598 0.652473
O O5 0.582281 0.922848 0.903435
O O6 0.102784 0.929653 0.875239
O O7 0.861621 0.854073 0.977982
O O8 0.118829 0.754476 0.907759
O O9 0.120942 0.855626 0.159872
O O10 0.111962 0.142217 0.358488
O O11 0.630253 0.755441 0.429844
O O12 0.627626 0.851069 0.177204
#
# Coordination Sequence:
#
# PCOD8169500 Si02
#       7
#     4   2   4   4   4   2   4
#     4  12  24  41  68 102 138 180 228 285 346 411
#     4  12  26  44  64 102 148 190 226 274 356 430
#     4  10  22  38  66  99 135 179 231 297 344 393
#     4  10  21  39  65 101 135 173 239 293 340 399
#     4  10  21  40  70  98 128 180 239 287 337 409
#     4  12  22  38  66  98 132 176 236 280 338 398
#     4  10  22  41  66  96 138 182 233 280 346 419
#
# _framework density 22.825286999999999
#
# number of rings (size 3 to 8) (size 9 to 14) (size 15 to 20)
#    0.000    1.333    3.333    2.000    9.333    0.667 
#    0.000    6.667    0.000    0.000    0.000    0.000 
#    0.000    0.000    0.000    0.000    0.000    0.000 
#
# Total GULP energy -297447.595424 kJ/mol
# GULP energy per Si atom -12393.649809 kJ/mol
# Density = 2.277334 g / cm^3
# Si number density = 22.825287 Si / 1000 Ang^3
#
#
#
# Elastic Constant Matrix: (Units=GPa)
#
#
# Indices 1 2 3 4 5 6 
#
# 1 49.2471 34.7433 51.6220 0.0000 0.0000 0.0000
# 2 34.7433 181.4301 105.9712 0.0000 0.0000 0.0000
# 3 51.6220 105.9712 224.7291 0.0000 0.0000 0.0000
# 4 0.0000 0.0000 0.0000 41.3089 0.0000 0.0000
# 5 0.0000 0.0000 0.0000 0.0000 35.3133 0.0000
# 6 0.0000 0.0000 0.0000 0.0000 0.0000 30.3739
#
#
#
# Elastic Compliance Matrix: (Units=1/GPa)
#
#
# Indices 1 2 3 4 5 6 
#
# 1 0.027348 -0.002164 -0.005262 0.000000 0.000000 0.000000
# 2 -0.002164 0.007778 -0.003171 0.000000 0.000000 0.000000
# 3 -0.005262 -0.003171 0.007154 0.000000 0.000000 0.000000
# 4 0.000000 0.000000 0.000000 0.024208 0.000000 0.000000
# 5 0.000000 0.000000 0.000000 0.000000 0.028318 0.000000
# 6 0.000000 0.000000 0.000000 0.000000 0.000000 0.032923
#
#
# Mechanical properties :
#
#
# Convention : Reuss Voigt Hill
#
# Bulk Modulus (GPa) = 47.42237 93.34215 70.38226
# Shear Modulus (GPa) = 32.06168 38.93721 35.49944
#
# Velocity S-wave (km/s) = 3.75194 4.13471 3.94797
# Velocity P-wave (km/s) = 6.29212 7.98608 7.18916
#
# Compressibility (1/GPa) = 0.02108709
#
# Stress axis : x y z
#
# Youngs Moduli (GPa) = 36.56626 128.56598 139.78953
#
# Poissons Ratio (x) = 0.27818 0.73552
# Poissons Ratio (y) = 0.07912 0.44324
# Poissons Ratio (z) = 0.19240 0.40765
#
# Static dielectric constant tensor:
#      x y z
#    x 3.846060 0.000000 0.000000 
#    y 0.000000 4.027920 0.000000 
#    z 0.000000 0.000000 4.582930 
# 
# 
# High freq. dielectric constant tensor:
#      x y z
#    x 1.868590 0.000000 0.000000 
#    y 0.000000 1.895030 0.000000 
#    z 0.000000 0.000000 1.932290 
# 
# From -- ./inp_files/1867.got.cif
#   From: 2010.03.12/outbox.cif.g09.slc.cpg/sg30_1_cif.got.tgz:1867.got - 2010.04.14 01:38:02.
