data_PCOD8169923
_publ_section_title
;
Structure prediction by ZEFSAII (Michael W. Deem and Ramdas Pophale) SiO2 
 PCOD8169923
Probable space group: P M N 21
;
_chemical_formula_sum "Si O2"
_cell_formula_units_Z 32
_cell_length_a 8.973818
_cell_length_b 16.234462
_cell_length_c 11.011590
_cell_angle_alpha 90.000000
_cell_angle_beta 90.000000
_cell_angle_gamma 90.000000
_cell_volume 1604.224671
_symmetry_space_group_name_H-M "P M N 21"
_symmetry_group_IT_number 31
_symmetry_cell_setting 'orthorhombic'
loop_
_space_group_symop_operation_xyz
x,y,z
1/2-x,-y,1/2+z
-x,y,z
1/2+x,-y,1/2+z
loop_
_atom_site_type_symbol
_atom_site_label
_atom_site_fract_x
_atom_site_fract_y
_atom_site_fract_z
Si Si1 0.175770 0.160454 0.916320
Si Si2 0.166949 0.165427 0.570621
Si Si3 0.675014 0.461347 0.673790
Si Si4 0.827840 0.023016 0.729936
Si Si5 0.675797 0.152424 0.170334
Si Si6 0.172960 0.722205 0.245324
Si Si7 0.824101 0.443366 0.418296
Si Si8 0.666625 0.735832 0.841724
O O1 0.232309 0.084070 0.833714
O O2 0.223144 0.246686 0.855039
O O3 0.000000 0.159920 0.941745
O O4 0.269917 0.152028 0.035136
O O5 0.201186 0.069388 0.599981
O O6 0.293374 0.222314 0.628621
O O7 0.170386 0.184344 0.428755
O O8 0.000000 0.186187 0.623876
O O9 0.500000 0.473252 0.653218
O O10 0.719046 0.369988 0.713049
O O11 0.750820 0.481632 0.541842
O O12 0.729485 0.516631 0.789377
O O13 0.000000 0.008939 0.753383
O O14 0.755557 0.931762 0.730296
O O15 0.500000 0.151828 0.174311
O O16 0.730169 0.237384 0.230777
O O17 0.000000 0.728778 0.281359
O O18 0.777631 0.346967 0.408656
O O19 0.000000 0.456077 0.433851
O O20 0.500000 0.719862 0.792388
#
# Coordination Sequence:
#
# PCOD8169923 Si02
#       8
#     4   4   4   4   4   4   4   4
#     4  10  21  39  58  79 112 151 194 236 284 350
#     4   9  17  34  59  82 108 145 189 231 272 335
#     4  10  22  39  61  92 125 155 197 253 304 360
#     4   8  18  35  55  80 110 145 186 234 285 339
#     4  11  23  37  55  82 117 151 189 241 298 346
#     4  10  19  34  58  86 113 142 183 235 291 341
#     4  10  22  41  63  89 122 160 206 248 299 368
#     4  10  21  37  59  84 113 153 196 236 283 349
#
# _framework density 19.947330999999998
#
# number of rings (size 3 to 8) (size 9 to 14) (size 15 to 20)
#    0.000    2.250    1.250    1.875    1.750    3.000 
#    0.000    8.125    0.000    0.000    0.000    0.000 
#    0.000    0.000    0.000    0.000    0.000    0.000 
#
# Total GULP energy -396477.371009 kJ/mol
# GULP energy per Si atom -12389.917844 kJ/mol
# Density = 1.990193 g / cm^3
# Si number density = 19.947331 Si / 1000 Ang^3
#
#
#
# Elastic Constant Matrix: (Units=GPa)
#
#
# Indices 1 2 3 4 5 6 
#
# 1 34.5428 34.0201 23.0256 0.0000 0.0000 0.0000
# 2 34.0201 74.9379 51.0621 0.0000 0.0000 0.0000
# 3 23.0256 51.0621 113.5576 0.0000 0.0000 0.0000
# 4 0.0000 0.0000 0.0000 22.3414 0.0000 0.0000
# 5 0.0000 0.0000 0.0000 0.0000 32.6914 0.0000
# 6 0.0000 0.0000 0.0000 0.0000 0.0000 21.8548
#
#
#
# Elastic Compliance Matrix: (Units=1/GPa)
#
#
# Indices 1 2 3 4 5 6 
#
# 1 0.052361 -0.023841 0.000103 0.000000 0.000000 0.000000
# 2 -0.023841 0.030095 -0.008698 0.000000 0.000000 0.000000
# 3 0.000103 -0.008698 0.012696 0.000000 0.000000 0.000000
# 4 0.000000 0.000000 0.000000 0.044760 0.000000 0.000000
# 5 0.000000 0.000000 0.000000 0.000000 0.030589 0.000000
# 6 0.000000 0.000000 0.000000 0.000000 0.000000 0.045757
#
#
# Mechanical properties :
#
#
# Convention : Reuss Voigt Hill
#
# Bulk Modulus (GPa) = 33.02491 48.80597 40.91544
# Shear Modulus (GPa) = 17.16899 23.03956 20.10427
#
# Velocity S-wave (km/s) = 2.93698 3.40225 3.17814
# Velocity P-wave (km/s) = 5.30029 6.32094 5.83298
#
# Compressibility (1/GPa) = 0.03028017
#
# Stress axis : x y z
#
# Youngs Moduli (GPa) = 19.09812 33.22863 78.76298
#
# Poissons Ratio (x) = 0.79221 -0.00814
# Poissons Ratio (y) = 0.45532 0.68509
# Poissons Ratio (z) = -0.00197 0.28903
#
# Static dielectric constant tensor:
#      x y z
#    x 3.466860 0.000000 0.000000 
#    y 0.000000 3.915570 0.000000 
#    z 0.000000 0.000000 3.649630 
# 
# 
# High freq. dielectric constant tensor:
#      x y z
#    x 1.760560 0.000000 0.000000 
#    y 0.000000 1.776580 0.000000 
#    z 0.000000 0.000000 1.777430 
# 
# From -- ./inp_files/3593.got.cif
#   From: 2010.03.12/outbox.cif.g09.slc.cpg/sg31_2_cif.got.tgz:3593.got - 2010.04.14 01:42:59.
