data_PCOD8169503
_publ_section_title
;
Structure prediction by ZEFSAII (Michael W. Deem and Ramdas Pophale) SiO2 
 PCOD8169503
Probable space group: P N C 2
;
_chemical_formula_sum "Si O2"
_cell_formula_units_Z 18
_cell_length_a 8.856854
_cell_length_b 6.145713
_cell_length_c 16.158704
_cell_angle_alpha 90.000000
_cell_angle_beta 90.000000
_cell_angle_gamma 90.000000
_cell_volume 879.545450
_symmetry_space_group_name_H-M "P N C 2"
_symmetry_group_IT_number 30
_symmetry_cell_setting 'orthorhombic'
loop_
_space_group_symop_operation_xyz
x,y,z
-x,-y,z
-x,1/2+y,1/2+z
x,1/2-y,1/2+z
loop_
_atom_site_type_symbol
_atom_site_label
_atom_site_fract_x
_atom_site_fract_y
_atom_site_fract_z
Si Si1 0.000000 0.500000 0.439150
Si Si2 0.104419 0.803054 0.298641
Si Si3 0.350044 0.620842 0.916345
Si Si4 0.224877 0.270904 0.038444
Si Si5 0.000000 0.000000 0.662722
Si Si6 0.500000 0.500000 0.510819
O O1 0.959194 0.295472 0.383454
O O2 0.860050 0.572613 0.494484
O O3 0.272442 0.868574 0.325671
O O4 0.109502 0.641834 0.221025
O O5 0.000000 0.000000 0.270413
O O6 0.500000 0.500000 0.893260
O O7 0.389038 0.856850 0.953460
O O8 0.250067 0.480754 0.980744
O O9 0.117924 0.351467 0.112655
O O10 0.388708 0.162113 0.064284
#
# Coordination Sequence:
#
# PCOD8169503 Si02
#       6
#     2   4   4   4   2   2
#     4  11  20  36  72  91 120 160 230 271 310 380
#     4  11  22  41  63  96 126 169 215 270 328 389
#     4  10  21  39  70  94 122 164 226 273 318 389
#     4  11  22  41  65 101 122 174 222 277 325 395
#     4  11  28  36  66  93 140 170 216 271 342 396
#     4  10  22  38  74  90 128 164 224 276 332 380
#
# _framework density 20.465114
#
# number of rings (size 3 to 8) (size 9 to 14) (size 15 to 20)
#    0.000    1.333    4.444    1.333    1.556    0.000 
#    0.000    0.000   31.778    0.000    0.000    0.000 
#    0.000    0.000    0.000    0.000    0.000    0.000 
#
# Total GULP energy -223045.577559 kJ/mol
# GULP energy per Si atom -12391.420976 kJ/mol
# Density = 2.041853 g / cm^3
# Si number density = 20.465114 Si / 1000 Ang^3
#
#
#
# Elastic Constant Matrix: (Units=GPa)
#
#
# Indices 1 2 3 4 5 6 
#
# 1 113.6940 43.9443 58.5884 0.0000 0.0000 0.0000
# 2 43.9443 103.8282 37.2458 0.0000 0.0000 0.0000
# 3 58.5884 37.2458 96.8937 0.0000 0.0000 0.0000
# 4 0.0000 0.0000 0.0000 843.3206 0.0000 0.0000
# 5 0.0000 0.0000 0.0000 0.0000 20.6372 0.0000
# 6 0.0000 0.0000 0.0000 0.0000 0.0000 44.7744
#
#
#
# Elastic Compliance Matrix: (Units=1/GPa)
#
#
# Indices 1 2 3 4 5 6 
#
# 1 0.013672 -0.003272 -0.007009 0.000000 0.000000 0.000000
# 2 -0.003272 0.011955 -0.002617 0.000000 0.000000 0.000000
# 3 -0.007009 -0.002617 0.015565 0.000000 0.000000 0.000000
# 4 0.000000 0.000000 0.000000 0.001186 0.000000 0.000000
# 5 0.000000 0.000000 0.000000 0.000000 0.048456 0.000000
# 6 0.000000 0.000000 0.000000 0.000000 0.000000 0.022334
#
#
# Mechanical properties :
#
#
# Convention : Reuss Voigt Hill
#
# Bulk Modulus (GPa) = 64.95526 65.99700 65.47613
# Shear Modulus (GPa) = 34.69883 193.38892 114.04387
#
# Velocity S-wave (km/s) = 4.12213 9.73150 7.47308
# Velocity P-wave (km/s) = 7.37999 12.59317 10.32115
#
# Compressibility (1/GPa) = 0.01539521
#
# Stress axis : x y z
#
# Youngs Moduli (GPa) = 73.14028 83.64714 64.24736
#
# Poissons Ratio (x) = 0.27371 0.45033
# Poissons Ratio (y) = 0.23933 0.16813
# Poissons Ratio (z) = 0.51267 0.21889
#
# Static dielectric constant tensor:
#      x y z
#    x 3.911070 0.000000 0.000000 
#    y 0.000000 3.128060 0.000000 
#    z 0.000000 0.000000 3.414960 
# 
# 
# High freq. dielectric constant tensor:
#      x y z
#    x 1.814430 0.000000 0.000000 
#    y 0.000000 1.823180 0.000000 
#    z 0.000000 0.000000 1.761290 
# 
# From -- ./inp_files/6150.got.cif
#   From: 2010.03.12/outbox.cif.g09.slc.cpg/sg30_4_cif.got.tgz:6150.got - 2010.04.14 01:38:02.
