data_PCOD8169976
_publ_section_title
;
Structure prediction by ZEFSAII (Michael W. Deem and Ramdas Pophale) SiO2 
 PCOD8169976
Probable space group: P M N 21
;
_chemical_formula_sum "Si O2"
_cell_formula_units_Z 24
_cell_length_a 8.369537
_cell_length_b 26.449299
_cell_length_c 5.057886
_cell_angle_alpha 90.000000
_cell_angle_beta 90.000000
_cell_angle_gamma 90.000000
_cell_volume 1119.656063
_symmetry_space_group_name_H-M "P M N 21"
_symmetry_group_IT_number 31
_symmetry_cell_setting 'orthorhombic'
loop_
_space_group_symop_operation_xyz
x,y,z
1/2-x,-y,1/2+z
-x,y,z
1/2+x,-y,1/2+z
loop_
_atom_site_type_symbol
_atom_site_label
_atom_site_fract_x
_atom_site_fract_y
_atom_site_fract_z
Si Si1 0.311035 0.134775 0.472250
Si Si2 0.316983 0.974272 0.006868
Si Si3 0.185976 0.526748 0.854200
Si Si4 0.688341 0.196600 0.966606
Si Si5 0.311669 0.309504 0.893930
Si Si6 0.187255 0.363445 0.394462
O O1 0.500000 0.125023 0.473222
O O2 0.224091 0.082221 0.417197
O O3 0.245134 0.159105 0.741905
O O4 0.260418 0.174114 0.246345
O O5 0.500000 0.979147 0.091006
O O6 0.212676 0.988687 0.260980
O O7 0.282438 0.512112 0.591542
O O8 0.000000 0.526974 0.783590
O O9 0.242953 0.581378 0.949575
O O10 0.500000 0.199808 0.930581
O O11 0.757311 0.253040 0.937743
O O12 0.500000 0.312397 0.946139
O O13 0.223357 0.346894 0.095397
O O14 0.273166 0.325062 0.594707
O O15 0.000000 0.363814 0.449177
#
# Coordination Sequence:
#
# PCOD8169976 Si02
#       6
#     4   4   4   4   4   4
#     4  10  19  36  60  88 119 157 200 249 302 361
#     4  12  25  42  63  91 123 161 204 253 306 365
#     4  12  25  44  67  94 125 163 206 255 308 367
#     4   9  19  35  60  88 118 156 202 247 298 360
#     4  11  22  41  66  93 122 163 212 255 298 361
#     4  12  25  42  62  92 129 166 204 253 310 364
#
# _framework density 21.435155000000002
#
# number of rings (size 3 to 8) (size 9 to 14) (size 15 to 20)
#    0.000    1.000    0.000    8.000    0.000    4.000 
#    0.000    5.000    0.000    0.000    0.000    0.000 
#    0.000    0.000    0.000    0.000    0.000    0.000 
#
# Total GULP energy -297800.002444 kJ/mol
# GULP energy per Si atom -12408.333435 kJ/mol
# Density = 2.138637 g / cm^3
# Si number density = 21.435155 Si / 1000 Ang^3
#
#
#
# Elastic Constant Matrix: (Units=GPa)
#
#
# Indices 1 2 3 4 5 6 
#
# 1 74.5485 34.5689 13.2461 0.0000 0.0000 0.0000
# 2 34.5689 104.4397 10.2889 0.0000 0.0000 0.0000
# 3 13.2461 10.2889 93.8009 0.0000 0.0000 0.0000
# 4 0.0000 0.0000 0.0000 41.0480 0.0000 0.0000
# 5 0.0000 0.0000 0.0000 0.0000 21.8963 0.0000
# 6 0.0000 0.0000 0.0000 0.0000 0.0000 10.6444
#
#
#
# Elastic Compliance Matrix: (Units=1/GPa)
#
#
# Indices 1 2 3 4 5 6 
#
# 1 0.016113 -0.005165 -0.001709 0.000000 0.000000 0.000000
# 2 -0.005165 0.011335 -0.000514 0.000000 0.000000 0.000000
# 3 -0.001709 -0.000514 0.010959 0.000000 0.000000 0.000000
# 4 0.000000 0.000000 0.000000 0.024362 0.000000 0.000000
# 5 0.000000 0.000000 0.000000 0.000000 0.045670 0.000000
# 6 0.000000 0.000000 0.000000 0.000000 0.000000 0.093946
#
#
# Mechanical properties :
#
#
# Convention : Reuss Voigt Hill
#
# Bulk Modulus (GPa) = 42.31726 43.22189 42.76958
# Shear Modulus (GPa) = 22.21862 29.03007 25.62435
#
# Velocity S-wave (km/s) = 3.22304 3.68410 3.46126
# Velocity P-wave (km/s) = 5.79961 6.18907 5.99750
#
# Compressibility (1/GPa) = 0.02363102
#
# Stress axis : x y z
#
# Youngs Moduli (GPa) = 62.06276 88.22166 91.25278
#
# Poissons Ratio (x) = 0.45565 0.15594
# Poissons Ratio (y) = 0.32055 0.04690
# Poissons Ratio (z) = 0.10605 0.04534
#
# Static dielectric constant tensor:
#      x y z
#    x 4.026220 0.000000 0.000000 
#    y 0.000000 4.005740 0.000000 
#    z 0.000000 0.000000 3.880070 
# 
# 
# High freq. dielectric constant tensor:
#      x y z
#    x 1.826380 0.000000 0.000000 
#    y 0.000000 1.856690 0.000000 
#    z 0.000000 0.000000 1.854480 
# 
# From -- ./inp_files/140.got.cif
#   From: 2010.03.12/outbox.cif.g09.slc.cpg/sg31_1_cif.got.tgz:140.got - 2010.04.14 01:42:59.
