data_PCOD8169598
_publ_section_title
;
Structure prediction by ZEFSAII (Michael W. Deem and Ramdas Pophale) SiO2 
 PCOD8169598
Probable space group: P N C 2
;
_chemical_formula_sum "Si O2"
_cell_formula_units_Z 16
_cell_length_a 5.800290
_cell_length_b 5.117913
_cell_length_c 21.689678
_cell_angle_alpha 90.000000
_cell_angle_beta 90.000000
_cell_angle_gamma 90.000000
_cell_volume 643.866325
_symmetry_space_group_name_H-M "P N C 2"
_symmetry_group_IT_number 30
_symmetry_cell_setting 'orthorhombic'
loop_
_space_group_symop_operation_xyz
x,y,z
-x,-y,z
-x,1/2+y,1/2+z
x,1/2-y,1/2+z
loop_
_atom_site_type_symbol
_atom_site_label
_atom_site_fract_x
_atom_site_fract_y
_atom_site_fract_z
Si Si1 0.842444 0.245012 0.893900
Si Si2 0.133489 0.248507 0.222943
Si Si3 0.500000 0.500000 0.987068
Si Si4 0.361014 0.261456 0.104198
Si Si5 0.500000 0.000000 0.797013
O O1 0.690131 0.155273 0.836391
O O2 0.000000 0.500000 0.878518
O O3 0.661586 0.310948 0.947908
O O4 0.000000 0.000000 0.915250
O O5 0.136873 0.233439 0.147592
O O6 0.384249 0.273790 0.254676
O O7 0.000000 0.500000 0.246276
O O8 0.000000 0.000000 0.249556
O O9 0.325446 0.330164 0.031463
O O10 0.500000 0.500000 0.135703
O O11 0.500000 0.000000 0.111317
#
# Coordination Sequence:
#
# PCOD8169598 Si02
#       5
#     4   4   2   4   2
#     4  12  29  50  78 117 148 208 265 305 385 459
#     4  12  28  49  79 115 148 202 256 308 390 462
#     4  10  27  50  80 106 165 196 246 334 370 454
#     4  10  23  48  75 107 150 198 237 314 389 434
#     4  12  29  54  76 110 167 198 250 340 370 452
#
# _framework density 24.849879000000001
#
# number of rings (size 3 to 8) (size 9 to 14) (size 15 to 20)
#    0.750    0.000    1.250    3.750    5.250   11.000 
#    0.000    0.000    0.000    0.000    0.000    0.000 
#    0.000    0.000    0.000    0.000    0.000    0.000 
#
# Total GULP energy -198224.828292 kJ/mol
# GULP energy per Si atom -12389.051768 kJ/mol
# Density = 2.479332 g / cm^3
# Si number density = 24.849879 Si / 1000 Ang^3
#
#
#
# Elastic Constant Matrix: (Units=GPa)
#
#
# Indices 1 2 3 4 5 6 
#
# 1 117.5773 69.0044 73.4602 0.0000 0.0000 0.0000
# 2 69.0044 208.7927 51.3812 0.0000 0.0000 0.0000
# 3 73.4602 51.3812 157.1737 0.0000 0.0000 0.0000
# 4 0.0000 0.0000 0.0000 43.9803 0.0000 0.0000
# 5 0.0000 0.0000 0.0000 0.0000 39.8622 0.0000
# 6 0.0000 0.0000 0.0000 0.0000 0.0000 57.8006
#
#
#
# Elastic Compliance Matrix: (Units=1/GPa)
#
#
# Indices 1 2 3 4 5 6 
#
# 1 0.013755 -0.003223 -0.005375 0.000000 0.000000 0.000000
# 2 -0.003223 0.005964 -0.000443 0.000000 0.000000 0.000000
# 3 -0.005375 -0.000443 0.009020 0.000000 0.000000 0.000000
# 4 0.000000 0.000000 0.000000 0.022737 0.000000 0.000000
# 5 0.000000 0.000000 0.000000 0.000000 0.025086 0.000000
# 6 0.000000 0.000000 0.000000 0.000000 0.000000 0.017301
#
#
# Mechanical properties :
#
#
# Convention : Reuss Voigt Hill
#
# Bulk Modulus (GPa) = 93.85004 96.80391 95.32697
# Shear Modulus (GPa) = 43.29094 47.64180 45.46637
#
# Velocity S-wave (km/s) = 4.17837 4.38332 4.28207
# Velocity P-wave (km/s) = 7.81839 8.04102 7.93049
#
# Compressibility (1/GPa) = 0.01065530
#
# Stress axis : x y z
#
# Youngs Moduli (GPa) = 72.70102 167.68067 110.87082
#
# Poissons Ratio (x) = 0.54046 0.59595
# Poissons Ratio (y) = 0.23433 0.04913
# Poissons Ratio (z) = 0.39078 0.07431
#
# Static dielectric constant tensor:
#      x y z
#    x 4.383600 0.000000 0.000000 
#    y 0.000000 4.506790 0.000000 
#    z 0.000000 0.000000 4.669760 
# 
# 
# High freq. dielectric constant tensor:
#      x y z
#    x 1.973160 0.000000 0.000000 
#    y 0.000000 2.006490 0.000000 
#    z 0.000000 0.000000 2.002890 
# 
# From -- ./inp_files/7152.got.cif
#   From: 2010.03.12/outbox.cif.g09.slc.cpg/sg30_4_cif.got.tgz:7152.got - 2010.04.14 01:38:02.
