data_PCOD8169072
_publ_section_title
;
Structure prediction by ZEFSAII (Michael W. Deem and Ramdas Pophale) SiO2 
 PCOD8169072
Probable space group: P C A 21
;
_chemical_formula_sum "Si O2"
_cell_formula_units_Z 32
_cell_length_a 15.404020
_cell_length_b 10.869775
_cell_length_c 8.392913
_cell_angle_alpha 90.000000
_cell_angle_beta 90.000000
_cell_angle_gamma 90.000000
_cell_volume 1405.294510
_symmetry_space_group_name_H-M "P C A 21"
_symmetry_group_IT_number 29
_symmetry_cell_setting 'orthorhombic'
loop_
_space_group_symop_operation_xyz
x,y,z
-x,-y,1/2+z
1/2-x,y,1/2+z
1/2+x,-y,z
loop_
_atom_site_type_symbol
_atom_site_label
_atom_site_fract_x
_atom_site_fract_y
_atom_site_fract_z
Si Si1 0.479840 0.598736 0.166760
Si Si2 0.234524 0.927669 0.928420
Si Si3 0.995868 0.933474 0.433883
Si Si4 0.866248 0.178400 0.129580
Si Si5 0.133810 0.252468 0.039023
Si Si6 0.697348 0.794930 0.394571
Si Si7 0.038477 0.348858 0.511406
Si Si8 0.572863 0.140521 0.103726
O O1 0.392468 0.681832 0.167881
O O2 0.557021 0.645153 0.046513
O O3 0.521796 0.595190 0.339242
O O4 0.444389 0.464334 0.125209
O O5 0.183779 0.893304 0.768814
O O6 0.276425 0.064059 0.935635
O O7 0.312084 0.830690 0.963945
O O8 0.172578 0.897840 0.081166
O O9 0.043606 0.890527 0.595987
O O10 0.048432 0.909836 0.275467
O O11 0.902558 0.865969 0.441737
O O12 0.980959 0.078471 0.456925
O O13 0.168052 0.214742 0.212985
O O14 0.218096 0.291121 0.934005
O O15 0.620014 0.745350 0.509591
O O16 0.952024 0.283218 0.583192
#
# Coordination Sequence:
#
# PCOD8169072 Si02
#       8
#     4   4   4   4   4   4   4   4
#     4  10  25  49  69 100 144 194 258 295 356 450
#     4  12  23  42  71 109 147 180 241 315 382 452
#     4  11  25  41  67 103 146 189 241 300 381 450
#     4  11  24  43  67 100 143 190 238 309 367 443
#     4  10  24  43  69 102 144 187 245 304 368 441
#     4  11  24  42  69 110 143 186 242 311 387 440
#     4  11  26  48  74 101 145 200 249 302 366 446
#     4  12  25  42  72 105 144 190 238 304 379 442
#
# _framework density 22.771027
#
# number of rings (size 3 to 8) (size 9 to 14) (size 15 to 20)
#    0.000    1.000    2.500    3.000   10.500    0.000 
#    2.250    1.250    0.000    0.000    0.000    0.000 
#    0.000    0.000    0.000    0.000    0.000    0.000 
#
# Total GULP energy -396569.039184 kJ/mol
# GULP energy per Si atom -12392.782475 kJ/mol
# Density = 2.271920 g / cm^3
# Si number density = 22.771027 Si / 1000 Ang^3
#
#
#
# Elastic Constant Matrix: (Units=GPa)
#
#
# Indices 1 2 3 4 5 6 
#
# 1 117.9032 50.6936 35.8642 0.0000 0.0000 0.0000
# 2 50.6936 127.0585 20.4910 0.0000 0.0000 0.0000
# 3 35.8642 20.4910 65.5656 0.0000 0.0000 0.0000
# 4 0.0000 0.0000 0.0000 33.5130 0.0000 0.0000
# 5 0.0000 0.0000 0.0000 0.0000 49.8040 0.0000
# 6 0.0000 0.0000 0.0000 0.0000 0.0000 36.7917
#
#
#
# Elastic Compliance Matrix: (Units=1/GPa)
#
#
# Indices 1 2 3 4 5 6 
#
# 1 0.011715 -0.003834 -0.005210 0.000000 0.000000 0.000000
# 2 -0.003834 0.009543 -0.000885 0.000000 0.000000 0.000000
# 3 -0.005210 -0.000885 0.018378 0.000000 0.000000 0.000000
# 4 0.000000 0.000000 0.000000 0.029839 0.000000 0.000000
# 5 0.000000 0.000000 0.000000 0.000000 0.020079 0.000000
# 6 0.000000 0.000000 0.000000 0.000000 0.000000 0.027180
#
#
# Mechanical properties :
#
#
# Convention : Reuss Voigt Hill
#
# Bulk Modulus (GPa) = 50.56093 58.29164 54.42629
# Shear Modulus (GPa) = 34.92018 37.58697 36.25357
#
# Velocity S-wave (km/s) = 3.92029 4.06723 3.99443
# Velocity P-wave (km/s) = 6.53787 6.90732 6.72513
#
# Compressibility (1/GPa) = 0.01977812
#
# Stress axis : x y z
#
# Youngs Moduli (GPa) = 85.36383 104.79181 54.41208
#
# Poissons Ratio (x) = 0.40174 0.28347
# Poissons Ratio (y) = 0.32726 0.04817
# Poissons Ratio (z) = 0.44472 0.09278
#
# Static dielectric constant tensor:
#      x y z
#    x 4.621030 0.000000 0.000000 
#    y 0.000000 3.862470 0.000000 
#    z 0.000000 0.000000 4.024080 
# 
# 
# High freq. dielectric constant tensor:
#      x y z
#    x 1.918490 0.000000 0.000000 
#    y 0.000000 1.867580 0.000000 
#    z 0.000000 0.000000 1.907380 
# 
# From -- ./inp_files/1846.got.cif
#   From: 2010.03.12/outbox.cif.g09.slc.cpg/sg29_1_cif.got.tgz:1846.got - 2010.04.14 03:43:10.
