data_PCOD8169187
_publ_section_title
;
Structure prediction by ZEFSAII (Michael W. Deem and Ramdas Pophale) SiO2 
 PCOD8169187
Probable space group: P C A 21
;
_chemical_formula_sum "Si O2"
_cell_formula_units_Z 28
_cell_length_a 24.233258
_cell_length_b 5.125515
_cell_length_c 8.644285
_cell_angle_alpha 90.000000
_cell_angle_beta 90.000000
_cell_angle_gamma 90.000000
_cell_volume 1073.688724
_symmetry_space_group_name_H-M "P C A 21"
_symmetry_group_IT_number 29
_symmetry_cell_setting 'orthorhombic'
loop_
_space_group_symop_operation_xyz
x,y,z
-x,-y,1/2+z
1/2-x,y,1/2+z
1/2+x,-y,z
loop_
_atom_site_type_symbol
_atom_site_label
_atom_site_fract_x
_atom_site_fract_y
_atom_site_fract_z
Si Si1 0.375907 0.972520 0.924370
Si Si2 0.858455 0.544701 0.106456
Si Si3 0.745352 0.075669 0.389282
Si Si4 0.657361 0.714318 0.930021
Si Si5 0.241095 0.559645 0.133368
Si Si6 0.460167 0.245996 0.518517
Si Si7 0.971097 0.224576 0.714381
O O1 0.315288 0.037153 0.851887
O O2 0.414959 0.897217 0.783697
O O3 0.376094 0.735797 0.045249
O O4 0.394501 0.232529 0.019153
O O5 0.867101 0.532837 0.292147
O O6 0.793445 0.607684 0.074216
O O7 0.753770 0.140291 0.570338
O O8 0.746846 0.373661 0.315636
O O9 0.797143 0.895818 0.342691
O O10 0.603212 0.853057 0.999382
O O11 0.684011 0.564018 0.076362
O O12 0.486714 0.292817 0.350699
O O13 0.461590 0.513345 0.616372
O O14 0.493178 0.009960 0.603388
#
# Coordination Sequence:
#
# PCOD8169187 Si02
#       7
#     4   4   4   4   4   4   4
#     4  11  25  45  76 102 156 196 253 306 401 455
#     4  11  24  43  69 112 143 208 239 326 371 470
#     4  11  24  41  67 104 150 197 247 317 378 478
#     4  12  26  43  74 110 154 202 267 315 403 460
#     4  11  23  42  65 105 152 201 251 306 388 466
#     4  12  31  51  88 114 158 206 271 339 394 475
#     4  12  29  57  81 121 153 210 268 333 403 466
#
# _framework density 26.078320999999999
#
# number of rings (size 3 to 8) (size 9 to 14) (size 15 to 20)
#    0.000    0.571    2.857    4.286    8.000    1.143 
#    0.000    0.000    0.000    0.000    0.000    0.000 
#    0.000    0.000    0.000    0.000    0.000    0.000 
#
# Total GULP energy -346995.820567 kJ/mol
# GULP energy per Si atom -12392.707877 kJ/mol
# Density = 2.601897 g / cm^3
# Si number density = 26.078321 Si / 1000 Ang^3
#
#
#
# Elastic Constant Matrix: (Units=GPa)
#
#
# Indices 1 2 3 4 5 6 
#
# 1 84.3830 10.4191 8.8610 0.0000 0.0000 0.0000
# 2 10.4191 126.5815 40.4946 0.0000 0.0000 0.0000
# 3 8.8610 40.4946 90.0503 0.0000 0.0000 0.0000
# 4 0.0000 0.0000 0.0000 52.6052 0.0000 0.0000
# 5 0.0000 0.0000 0.0000 0.0000 28.1900 0.0000
# 6 0.0000 0.0000 0.0000 0.0000 0.0000 29.0697
#
#
#
# Elastic Compliance Matrix: (Units=1/GPa)
#
#
# Indices 1 2 3 4 5 6 
#
# 1 0.012029 -0.000714 -0.000863 0.000000 0.000000 0.000000
# 2 -0.000714 0.009270 -0.004098 0.000000 0.000000 0.000000
# 3 -0.000863 -0.004098 0.013033 0.000000 0.000000 0.000000
# 4 0.000000 0.000000 0.000000 0.019010 0.000000 0.000000
# 5 0.000000 0.000000 0.000000 0.000000 0.035474 0.000000
# 6 0.000000 0.000000 0.000000 0.000000 0.000000 0.034400
#
#
# Mechanical properties :
#
#
# Convention : Reuss Voigt Hill
#
# Bulk Modulus (GPa) = 43.51225 46.72936 45.12081
# Shear Modulus (GPa) = 35.15530 38.05566 36.60548
#
# Velocity S-wave (km/s) = 3.67559 3.82420 3.75063
# Velocity P-wave (km/s) = 5.89361 6.12022 6.00799
#
# Compressibility (1/GPa) = 0.02298203
#
# Stress axis : x y z
#
# Youngs Moduli (GPa) = 83.12909 107.87577 76.72987
#
# Poissons Ratio (x) = 0.07705 0.06618
# Poissons Ratio (y) = 0.05937 0.31446
# Poissons Ratio (z) = 0.07170 0.44211
#
# Static dielectric constant tensor:
#      x y z
#    x 4.665490 0.000000 0.000000 
#    y 0.000000 4.514780 0.000000 
#    z 0.000000 0.000000 4.787600 
# 
# 
# High freq. dielectric constant tensor:
#      x y z
#    x 2.032050 0.000000 0.000000 
#    y 0.000000 2.041810 0.000000 
#    z 0.000000 0.000000 2.067720 
# 
# From -- ./inp_files/2430.got.cif
#   From: 2010.03.12/outbox.cif.g09.slc.cpg/sg29_2_cif.got.tgz:2430.got - 2010.04.14 03:43:10.
