data_PCOD8169789
_publ_section_title
;
Structure prediction by ZEFSAII (Michael W. Deem and Ramdas Pophale) SiO2 
 PCOD8169789
Probable space group: P M N 21
;
_chemical_formula_sum "Si O2"
_cell_formula_units_Z 32
_cell_length_a 9.067952
_cell_length_b 20.715161
_cell_length_c 9.483863
_cell_angle_alpha 90.000000
_cell_angle_beta 90.000000
_cell_angle_gamma 90.000000
_cell_volume 1781.487573
_symmetry_space_group_name_H-M "P M N 21"
_symmetry_group_IT_number 31
_symmetry_cell_setting 'orthorhombic'
loop_
_space_group_symop_operation_xyz
x,y,z
1/2-x,-y,1/2+z
-x,y,z
1/2+x,-y,1/2+z
loop_
_atom_site_type_symbol
_atom_site_label
_atom_site_fract_x
_atom_site_fract_y
_atom_site_fract_z
Si Si1 0.663230 0.195343 0.375000
Si Si2 0.165766 0.810730 0.210597
Si Si3 0.327880 0.442873 0.715181
Si Si4 0.671764 0.445181 0.385167
Si Si5 0.328018 0.054254 0.397337
Si Si6 0.827259 0.060854 0.688269
Si Si7 0.834066 0.313919 0.716032
Si Si8 0.835346 0.317176 0.380839
O O1 0.500000 0.211589 0.317918
O O2 0.662182 0.195425 0.543375
O O3 0.713150 0.123624 0.326532
O O4 0.772922 0.250199 0.316234
O O5 0.249009 0.876253 0.253877
O O6 0.251621 0.749385 0.275876
O O7 0.000000 0.812082 0.272160
O O8 0.500000 0.437720 0.748171
O O9 0.298282 0.454935 0.550459
O O10 0.259263 0.500869 0.801816
O O11 0.252371 0.377070 0.768211
O O12 0.500000 0.449280 0.348122
O O13 0.731861 0.376021 0.333210
O O14 0.500000 0.054851 0.441148
O O15 0.231782 0.042087 0.535230
O O16 0.289478 0.999073 0.287384
O O17 0.000000 0.075201 0.678604
O O18 0.836945 0.311922 0.548164
O O19 0.000000 0.315725 0.776734
O O20 0.000000 0.328099 0.321719
#
# Coordination Sequence:
#
# PCOD8169789 Si02
#       8
#     4   4   4   4   4   4   4   4
#     4   8  14  26  43  63  90 121 152 191 237 280
#     4   9  16  27  44  67  95 124 156 198 242 281
#     4  10  20  33  50  73 100 129 161 198 240 285
#     4  10  20  33  50  72  98 129 161 195 238 285
#     4   9  19  33  48  70  99 128 159 197 240 286
#     4  10  19  31  49  72  97 127 162 199 240 287
#     4   9  16  27  45  69  95 123 158 199 239 280
#     4   9  16  26  43  68  94 119 153 197 238 278
#
# _framework density 17.962515
#
# number of rings (size 3 to 8) (size 9 to 14) (size 15 to 20)
#    0.000    2.750    0.000    3.000    0.000    8.500 
#    0.000    0.000    0.000    1.500    0.000    3.500 
#    0.000    0.000    0.000    0.000    0.000    0.000 
#
# Total GULP energy -396745.703577 kJ/mol
# GULP energy per Si atom -12398.303237 kJ/mol
# Density = 1.792163 g / cm^3
# Si number density = 17.962515 Si / 1000 Ang^3
#
#
#
# Elastic Constant Matrix: (Units=GPa)
#
#
# Indices 1 2 3 4 5 6 
#
# 1 142.6584 91.1038 33.9388 0.0000 0.0000 0.0000
# 2 91.1038 181.3780 41.0059 0.0000 0.0000 0.0000
# 3 33.9388 41.0059 25.4646 0.0000 0.0000 0.0000
# 4 0.0000 0.0000 0.0000 22.6873 0.0000 0.0000
# 5 0.0000 0.0000 0.0000 0.0000 15.8412 0.0000
# 6 0.0000 0.0000 0.0000 0.0000 0.0000 39.4997
#
#
#
# Elastic Compliance Matrix: (Units=1/GPa)
#
#
# Indices 1 2 3 4 5 6 
#
# 1 0.011641 -0.003679 -0.009591 0.000000 0.000000 0.000000
# 2 -0.003679 0.009832 -0.010930 0.000000 0.000000 0.000000
# 3 -0.009591 -0.010930 0.069653 0.000000 0.000000 0.000000
# 4 0.000000 0.000000 0.000000 0.044078 0.000000 0.000000
# 5 0.000000 0.000000 0.000000 0.000000 0.063127 0.000000
# 6 0.000000 0.000000 0.000000 0.000000 0.000000 0.025317
#
#
# Mechanical properties :
#
#
# Convention : Reuss Voigt Hill
#
# Bulk Modulus (GPa) = 23.40429 75.73312 49.56871
# Shear Modulus (GPa) = 17.46499 27.83580 22.65039
#
# Velocity S-wave (km/s) = 3.12156 3.94084 3.55488
# Velocity P-wave (km/s) = 5.10392 7.93475 6.67122
#
# Compressibility (1/GPa) = 0.04272720
#
# Stress axis : x y z
#
# Youngs Moduli (GPa) = 85.90584 101.70721 14.35695
#
# Poissons Ratio (x) = 0.37415 0.13769
# Poissons Ratio (y) = 0.31602 0.15692
# Poissons Ratio (z) = 0.82388 1.11165
#
# Static dielectric constant tensor:
#      x y z
#    x 3.556860 0.000000 0.000000 
#    y 0.000000 3.662060 0.000000 
#    z 0.000000 0.000000 2.730580 
# 
# 
# High freq. dielectric constant tensor:
#      x y z
#    x 1.711630 0.000000 0.000000 
#    y 0.000000 1.716340 0.000000 
#    z 0.000000 0.000000 1.625940 
# 
# From -- ./inp_files/3763.got.cif
#   From: 2010.03.12/outbox.cif.g09.slc.cpg/sg31_2_cif.got.tgz:3763.got - 2010.04.14 01:42:59.
