data_PCOD8169900
_publ_section_title
;
Structure prediction by ZEFSAII (Michael W. Deem and Ramdas Pophale) SiO2 
 PCOD8169900
Probable space group: P M N 21
;
_chemical_formula_sum "Si O2"
_cell_formula_units_Z 32
_cell_length_a 8.805754
_cell_length_b 14.568162
_cell_length_c 12.517226
_cell_angle_alpha 90.000000
_cell_angle_beta 90.000000
_cell_angle_gamma 90.000000
_cell_volume 1605.755449
_symmetry_space_group_name_H-M "P M N 21"
_symmetry_group_IT_number 31
_symmetry_cell_setting 'orthorhombic'
loop_
_space_group_symop_operation_xyz
x,y,z
1/2-x,-y,1/2+z
-x,y,z
1/2+x,-y,1/2+z
loop_
_atom_site_type_symbol
_atom_site_label
_atom_site_fract_x
_atom_site_fract_y
_atom_site_fract_z
Si Si1 0.828308 0.940294 0.576320
Si Si2 0.825044 0.357039 0.804466
Si Si3 0.677664 0.665373 0.063786
Si Si4 0.324558 0.440177 0.365039
Si Si5 0.321451 0.868496 0.998787
Si Si6 0.822648 0.328967 0.186226
Si Si7 0.819715 0.752386 0.483317
Si Si8 0.327944 0.160723 0.284765
O O1 0.753994 0.855029 0.509507
O O2 0.813836 0.921434 0.701317
O O3 0.000000 0.944047 0.536230
O O4 0.761243 0.042496 0.563559
O O5 0.768330 0.366941 0.681628
O O6 0.802323 0.450491 0.871080
O O7 0.731767 0.277709 0.865413
O O8 0.000000 0.326345 0.802546
O O9 0.500000 0.648031 0.046636
O O10 0.719146 0.773300 0.057127
O O11 0.760541 0.607186 0.971869
O O12 0.500000 0.412757 0.355687
O O13 0.241453 0.413220 0.254969
O O14 0.500000 0.871486 0.972803
O O15 0.219703 0.881180 0.895442
O O16 0.790462 0.240431 0.258392
O O17 0.000000 0.342828 0.167402
O O18 0.743323 0.319689 0.071008
O O19 0.000000 0.751154 0.493355
O O20 0.500000 0.200226 0.286251
#
# Coordination Sequence:
#
# PCOD8169900 Si02
#       8
#     4   4   4   4   4   4   4   4
#     4   8  18  35  55  82 116 155 199 242 298 353
#     4  10  24  42  59  87 124 161 200 247 302 363
#     4  10  22  40  61  87 120 158 202 248 301 362
#     4  11  23  39  60  87 119 154 197 251 302 358
#     4  10  19  35  59  84 115 157 199 247 299 358
#     4  11  21  36  60  86 114 152 198 248 301 359
#     4  10  21  39  61  86 120 160 201 251 301 352
#     4  10  19  34  55  83 116 151 196 250 298 351
#
# _framework density 19.928315999999999
#
# number of rings (size 3 to 8) (size 9 to 14) (size 15 to 20)
#    0.000    2.000    1.250    3.000    1.750    2.500 
#    0.000    5.000    0.000    0.000    0.000    0.000 
#    0.000    0.000    0.000    0.000    0.000    0.000 
#
# Total GULP energy -396640.210614 kJ/mol
# GULP energy per Si atom -12395.006582 kJ/mol
# Density = 1.988296 g / cm^3
# Si number density = 19.928316 Si / 1000 Ang^3
#
#
#
# Elastic Constant Matrix: (Units=GPa)
#
#
# Indices 1 2 3 4 5 6 
#
# 1 79.0326 34.0401 39.2373 0.0000 0.0000 0.0000
# 2 34.0401 103.3949 48.9121 0.0000 0.0000 0.0000
# 3 39.2373 48.9121 108.0710 0.0000 0.0000 0.0000
# 4 0.0000 0.0000 0.0000 24.1966 0.0000 0.0000
# 5 0.0000 0.0000 0.0000 0.0000 34.8725 0.0000
# 6 0.0000 0.0000 0.0000 0.0000 0.0000 22.0311
#
#
#
# Elastic Compliance Matrix: (Units=1/GPa)
#
#
# Indices 1 2 3 4 5 6 
#
# 1 0.016254 -0.003257 -0.004427 0.000000 0.000000 0.000000
# 2 -0.003257 0.012959 -0.004683 0.000000 0.000000 0.000000
# 3 -0.004427 -0.004683 0.012980 0.000000 0.000000 0.000000
# 4 0.000000 0.000000 0.000000 0.041328 0.000000 0.000000
# 5 0.000000 0.000000 0.000000 0.000000 0.028676 0.000000
# 6 0.000000 0.000000 0.000000 0.000000 0.000000 0.045390
#
#
# Mechanical properties :
#
#
# Convention : Reuss Voigt Hill
#
# Bulk Modulus (GPa) = 57.27625 59.43084 58.35355
# Shear Modulus (GPa) = 26.57589 27.44064 27.00826
#
# Velocity S-wave (km/s) = 3.65578 3.71478 3.68539
# Velocity P-wave (km/s) = 6.82811 6.94885 6.88874
#
# Compressibility (1/GPa) = 0.01745924
#
# Stress axis : x y z
#
# Youngs Moduli (GPa) = 61.52432 77.16591 77.04189
#
# Poissons Ratio (x) = 0.25131 0.34108
# Poissons Ratio (y) = 0.20037 0.36077
# Poissons Ratio (z) = 0.27238 0.36135
#
# Static dielectric constant tensor:
#      x y z
#    x 3.473710 0.000000 0.000000 
#    y 0.000000 3.771540 0.000000 
#    z 0.000000 0.000000 3.649010 
# 
# 
# High freq. dielectric constant tensor:
#      x y z
#    x 1.762890 0.000000 0.000000 
#    y 0.000000 1.779200 0.000000 
#    z 0.000000 0.000000 1.779320 
# 
# From -- ./inp_files/3701.got.cif
#   From: 2010.03.12/outbox.cif.g09.slc.cpg/sg31_2_cif.got.tgz:3701.got - 2010.04.14 01:42:59.
