data_PCOD8169993
_publ_section_title
;
Structure prediction by ZEFSAII (Michael W. Deem and Ramdas Pophale) SiO2 
 PCOD8169993
Probable space group: P M N 21
;
_chemical_formula_sum "Si O2"
_cell_formula_units_Z 32
_cell_length_a 8.441957
_cell_length_b 14.456366
_cell_length_c 12.433965
_cell_angle_alpha 90.000000
_cell_angle_beta 90.000000
_cell_angle_gamma 90.000000
_cell_volume 1517.441339
_symmetry_space_group_name_H-M "P M N 21"
_symmetry_group_IT_number 31
_symmetry_cell_setting 'orthorhombic'
loop_
_space_group_symop_operation_xyz
x,y,z
1/2-x,-y,1/2+z
-x,y,z
1/2+x,-y,1/2+z
loop_
_atom_site_type_symbol
_atom_site_label
_atom_site_fract_x
_atom_site_fract_y
_atom_site_fract_z
Si Si1 0.814962 0.147573 0.003440
Si Si2 0.817955 0.454141 0.735306
Si Si3 0.811735 0.945970 0.941695
Si Si4 0.185549 0.830689 0.737452
Si Si5 0.183438 0.363299 0.303530
Si Si6 0.813316 0.723340 0.330981
Si Si7 0.324940 0.179418 0.622729
Si Si8 0.323088 0.373895 0.529478
O O1 0.772871 0.140585 0.128338
O O2 0.000000 0.166000 0.991021
O O3 0.723888 0.232287 0.946495
O O4 0.763665 0.053414 0.942439
O O5 0.714192 0.547400 0.730318
O O6 0.760840 0.379184 0.824369
O O7 0.795809 0.411401 0.618430
O O8 0.000000 0.478598 0.757337
O O9 0.747457 0.896501 0.833396
O O10 0.000000 0.932081 0.946711
O O11 0.738004 0.900123 0.051628
O O12 0.217518 0.723815 0.762381
O O13 0.000000 0.846039 0.721253
O O14 0.245189 0.399025 0.417410
O O15 0.000000 0.335698 0.305069
O O16 0.740987 0.789099 0.234828
O O17 0.000000 0.711705 0.312346
O O18 0.500000 0.144378 0.654472
O O19 0.334904 0.263947 0.539568
O O20 0.500000 0.417092 0.538943
#
# Coordination Sequence:
#
# PCOD8169993 Si02
#       8
#     4   4   4   4   4   4   4   4
#     4  11  24  40  61  92 131 170 210 263 322 379
#     4  11  23  40  63  93 126 165 213 263 318 380
#     4   9  19  37  62  90 122 162 205 256 316 376
#     4  11  23  43  66  91 125 167 214 262 319 381
#     4  12  24  40  63  94 127 164 210 261 318 380
#     4  10  21  39  63  90 124 166 213 259 315 379
#     4   8  15  32  60  87 113 152 199 251 305 361
#     4  10  19  37  62  89 122 160 204 255 313 372
#
# _framework density 21.088131000000001
#
# number of rings (size 3 to 8) (size 9 to 14) (size 15 to 20)
#    0.000    1.750    1.250    4.500    1.750    1.000 
#    0.000    6.875    0.000    0.000    0.000    0.000 
#    0.000    0.000    0.000    0.000    0.000    0.000 
#
# Total GULP energy -396724.925186 kJ/mol
# GULP energy per Si atom -12397.653912 kJ/mol
# Density = 2.104013 g / cm^3
# Si number density = 21.088131 Si / 1000 Ang^3
#
#
#
# Elastic Constant Matrix: (Units=GPa)
#
#
# Indices 1 2 3 4 5 6 
#
# 1 60.3552 10.7108 8.5938 0.0000 0.0000 0.0000
# 2 10.7108 105.1814 34.9915 0.0000 0.0000 0.0000
# 3 8.5938 34.9915 89.1209 0.0000 0.0000 0.0000
# 4 0.0000 0.0000 0.0000 26.9328 0.0000 0.0000
# 5 0.0000 0.0000 0.0000 0.0000 29.5415 0.0000
# 6 0.0000 0.0000 0.0000 0.0000 0.0000 24.1539
#
#
#
# Elastic Compliance Matrix: (Units=1/GPa)
#
#
# Indices 1 2 3 4 5 6 
#
# 1 0.016967 -0.001361 -0.001102 0.000000 0.000000 0.000000
# 2 -0.001361 0.011045 -0.004205 0.000000 0.000000 0.000000
# 3 -0.001102 -0.004205 0.012978 0.000000 0.000000 0.000000
# 4 0.000000 0.000000 0.000000 0.037129 0.000000 0.000000
# 5 0.000000 0.000000 0.000000 0.000000 0.033851 0.000000
# 6 0.000000 0.000000 0.000000 0.000000 0.000000 0.041401
#
#
# Mechanical properties :
#
#
# Convention : Reuss Voigt Hill
#
# Bulk Modulus (GPa) = 36.16163 40.36108 38.26136
# Shear Modulus (GPa) = 28.42108 29.48307 28.95207
#
# Velocity S-wave (km/s) = 3.67513 3.74316 3.70930
# Velocity P-wave (km/s) = 5.93244 6.15325 6.04385
#
# Compressibility (1/GPa) = 0.02765362
#
# Stress axis : x y z
#
# Youngs Moduli (GPa) = 58.93787 90.53847 77.05293
#
# Poissons Ratio (x) = 0.12325 0.08488
# Poissons Ratio (y) = 0.08023 0.32403
# Poissons Ratio (z) = 0.06493 0.38075
#
# Static dielectric constant tensor:
#      x y z
#    x 3.511300 0.000000 0.000000 
#    y 0.000000 3.821380 0.000000 
#    z 0.000000 0.000000 3.810640 
# 
# 
# High freq. dielectric constant tensor:
#      x y z
#    x 1.805100 0.000000 0.000000 
#    y 0.000000 1.826050 0.000000 
#    z 0.000000 0.000000 1.829290 
# 
# From -- ./inp_files/3691.got.cif
#   From: 2010.03.12/outbox.cif.g09.slc.cpg/sg31_2_cif.got.tgz:3691.got - 2010.04.14 01:42:59.
