data_PCOD8169067
_publ_section_title
;
Structure prediction by ZEFSAII (Michael W. Deem and Ramdas Pophale) SiO2 
 PCOD8169067
Probable space group: P C A 21
;
_chemical_formula_sum "Si O2"
_cell_formula_units_Z 20
_cell_length_a 18.165836
_cell_length_b 5.292099
_cell_length_c 8.706886
_cell_angle_alpha 90.000000
_cell_angle_beta 90.000000
_cell_angle_gamma 90.000000
_cell_volume 837.039990
_symmetry_space_group_name_H-M "P C A 21"
_symmetry_group_IT_number 29
_symmetry_cell_setting 'orthorhombic'
loop_
_space_group_symop_operation_xyz
x,y,z
-x,-y,1/2+z
1/2-x,y,1/2+z
1/2+x,-y,z
loop_
_atom_site_type_symbol
_atom_site_label
_atom_site_fract_x
_atom_site_fract_y
_atom_site_fract_z
Si Si1 0.451311 0.753227 0.356230
Si Si2 0.677254 0.352002 0.317653
Si Si3 0.736917 0.665074 0.579865
Si Si4 0.986053 0.259874 0.708402
Si Si5 0.802095 0.993172 0.349800
O O1 0.463830 0.491900 0.266397
O O2 0.486104 0.738206 0.524710
O O3 0.363135 0.789530 0.365292
O O4 0.484067 0.991668 0.265589
O O5 0.679650 0.553796 0.455879
O O6 0.722949 0.443794 0.170797
O O7 0.594260 0.295123 0.277646
O O8 0.718871 0.097645 0.366039
O O9 0.805521 0.806126 0.495810
O O10 0.688498 0.844170 0.689946
#
# Coordination Sequence:
#
# PCOD8169067 Si02
#       5
#     4   4   4   4   4
#     4  12  30  50  77 111 155 200 253 312 382 453
#     4  11  25  46  74 107 146 192 252 306 373 439
#     4  10  24  42  76 106 142 190 254 306 370 442
#     4  12  30  50  77 111 155 200 253 312 382 453
#     4  11  25  46  74 107 146 192 252 306 373 439
#
# _framework density 23.893723000000001
#
# number of rings (size 3 to 8) (size 9 to 14) (size 15 to 20)
#    0.000    0.800    0.000    4.800   19.600    3.200 
#    0.000    0.000    0.000    0.000    0.000    0.000 
#    0.000    0.000    0.000    0.000    0.000    0.000 
#
# Total GULP energy -248089.230271 kJ/mol
# GULP energy per Si atom -12404.461514 kJ/mol
# Density = 2.383934 g / cm^3
# Si number density = 23.893723 Si / 1000 Ang^3
#
#
#
# Elastic Constant Matrix: (Units=GPa)
#
#
# Indices 1 2 3 4 5 6 
#
# 1 45.0170 -5.1343 -3.0747 0.0000 0.0000 0.0000
# 2 -5.1343 86.3573 30.6262 0.0000 0.0000 0.0000
# 3 -3.0747 30.6262 137.6958 0.0000 0.0000 0.0000
# 4 0.0000 0.0000 0.0000 27.5887 0.0000 0.0000
# 5 0.0000 0.0000 0.0000 0.0000 24.8558 0.0000
# 6 0.0000 0.0000 0.0000 0.0000 0.0000 44.4129
#
#
#
# Elastic Compliance Matrix: (Units=1/GPa)
#
#
# Indices 1 2 3 4 5 6 
#
# 1 0.022372 0.001252 0.000221 0.000000 0.000000 0.000000
# 2 0.001252 0.012641 -0.002784 0.000000 0.000000 0.000000
# 3 0.000221 -0.002784 0.007886 0.000000 0.000000 0.000000
# 4 0.000000 0.000000 0.000000 0.036247 0.000000 0.000000
# 5 0.000000 0.000000 0.000000 0.000000 0.040232 0.000000
# 6 0.000000 0.000000 0.000000 0.000000 0.000000 0.022516
#
#
# Mechanical properties :
#
#
# Convention : Reuss Voigt Hill
#
# Bulk Modulus (GPa) = 24.82760 34.87829 29.85294
# Shear Modulus (GPa) = 31.65714 35.81500 33.73607
#
# Velocity S-wave (km/s) = 3.64389 3.87580 3.76163
# Velocity P-wave (km/s) = 5.30257 5.88711 5.60247
#
# Compressibility (1/GPa) = 0.04027775
#
# Stress axis : x y z
#
# Youngs Moduli (GPa) = 44.69932 79.10482 126.79923
#
# Poissons Ratio (x) = -0.09901 -0.02804
# Poissons Ratio (y) = -0.05595 0.35298
# Poissons Ratio (z) = -0.00989 0.22021
#
# Static dielectric constant tensor:
#      x y z
#    x 4.191460 0.000000 0.000000 
#    y 0.000000 4.453750 0.000000 
#    z 0.000000 0.000000 4.605050 
# 
# 
# High freq. dielectric constant tensor:
#      x y z
#    x 1.936880 0.000000 0.000000 
#    y 0.000000 1.963810 0.000000 
#    z 0.000000 0.000000 1.971210 
# 
# From -- ./inp_files/1943.got.cif
#   From: 2010.03.12/outbox.cif.g09.slc.cpg/sg29_1_cif.got.tgz:1943.got - 2010.04.14 03:43:10.
