data_PCOD8169117
_publ_section_title
;
Structure prediction by ZEFSAII (Michael W. Deem and Ramdas Pophale) SiO2 
 PCOD8169117
Probable space group: P C A 21
;
_chemical_formula_sum "Si O2"
_cell_formula_units_Z 28
_cell_length_a 9.018149
_cell_length_b 10.842936
_cell_length_c 12.543765
_cell_angle_alpha 90.000000
_cell_angle_beta 90.000000
_cell_angle_gamma 90.000000
_cell_volume 1226.569638
_symmetry_space_group_name_H-M "P C A 21"
_symmetry_group_IT_number 29
_symmetry_cell_setting 'orthorhombic'
loop_
_space_group_symop_operation_xyz
x,y,z
-x,-y,1/2+z
1/2-x,y,1/2+z
1/2+x,-y,z
loop_
_atom_site_type_symbol
_atom_site_label
_atom_site_fract_x
_atom_site_fract_y
_atom_site_fract_z
Si Si1 0.155715 0.169087 0.086250
Si Si2 0.456829 0.701336 0.945725
Si Si3 0.160655 0.406653 0.217518
Si Si4 0.406794 0.528562 0.356652
Si Si5 0.805942 0.364513 0.569648
Si Si6 0.624353 0.165769 0.239722
Si Si7 0.612335 0.007855 0.660943
O O1 0.195484 0.267522 0.179241
O O2 0.292798 0.074461 0.075714
O O3 0.002966 0.094037 0.101308
O O4 0.118080 0.240898 0.976308
O O5 0.473809 0.564464 0.903414
O O6 0.367534 0.774439 0.855521
O O7 0.360698 0.688448 0.054971
O O8 0.268698 0.449951 0.312193
O O9 0.182288 0.498991 0.118144
O O10 0.990356 0.403355 0.259113
O O11 0.367331 0.627992 0.448141
O O12 0.891699 0.268573 0.646037
O O13 0.477938 0.082318 0.238485
O O14 0.772743 0.085707 0.230806
#
# Coordination Sequence:
#
# PCOD8169117 Si02
#       7
#     4   4   4   4   4   4   4
#     4  11  24  45  72  98 139 179 238 284 346 409
#     4  12  24  43  71 106 139 185 231 285 359 422
#     4  12  26  43  73 103 145 177 228 293 351 425
#     4  12  25  42  68 111 138 184 224 275 371 423
#     4  12  24  43  72 102 146 177 227 294 355 419
#     4  11  24  47  71  99 146 182 240 293 345 410
#     4  10  25  47  69  97 135 194 232 294 339 400
#
# _framework density 22.827891999999999
#
# number of rings (size 3 to 8) (size 9 to 14) (size 15 to 20)
#    0.000    0.571    5.714    1.714    2.000    2.286 
#    0.000    0.000    0.000    0.000    0.000    0.000 
#    0.000    0.000    0.000    0.000    0.000    0.000 
#
# Total GULP energy -347102.660694 kJ/mol
# GULP energy per Si atom -12396.523596 kJ/mol
# Density = 2.277593 g / cm^3
# Si number density = 22.827892 Si / 1000 Ang^3
#
#
#
# Elastic Constant Matrix: (Units=GPa)
#
#
# Indices 1 2 3 4 5 6 
#
# 1 93.2374 36.8734 25.8695 0.0000 0.0000 0.0000
# 2 36.8734 112.1370 33.6350 0.0000 0.0000 0.0000
# 3 25.8695 33.6350 103.6514 0.0000 0.0000 0.0000
# 4 0.0000 0.0000 0.0000 24.3057 0.0000 0.0000
# 5 0.0000 0.0000 0.0000 0.0000 26.5285 0.0000
# 6 0.0000 0.0000 0.0000 0.0000 0.0000 40.5856
#
#
#
# Elastic Compliance Matrix: (Units=1/GPa)
#
#
# Indices 1 2 3 4 5 6 
#
# 1 0.012695 -0.003572 -0.002009 0.000000 0.000000 0.000000
# 2 -0.003572 0.010884 -0.002640 0.000000 0.000000 0.000000
# 3 -0.002009 -0.002640 0.011006 0.000000 0.000000 0.000000
# 4 0.000000 0.000000 0.000000 0.041143 0.000000 0.000000
# 5 0.000000 0.000000 0.000000 0.000000 0.037695 0.000000
# 6 0.000000 0.000000 0.000000 0.000000 0.000000 0.024639
#
#
# Mechanical properties :
#
#
# Convention : Reuss Voigt Hill
#
# Bulk Modulus (GPa) = 55.12033 55.75352 55.43693
# Shear Modulus (GPa) = 31.14219 32.46048 31.80134
#
# Velocity S-wave (km/s) = 3.69754 3.77499 3.73646
# Velocity P-wave (km/s) = 6.51364 6.59372 6.55380
#
# Compressibility (1/GPa) = 0.01814213
#
# Stress axis : x y z
#
# Youngs Moduli (GPa) = 78.76844 91.87658 90.85884
#
# Poissons Ratio (x) = 0.32817 0.18258
# Poissons Ratio (y) = 0.28135 0.23991
# Poissons Ratio (z) = 0.15828 0.24260
#
# Static dielectric constant tensor:
#      x y z
#    x 4.206130 0.000000 0.000000 
#    y 0.000000 4.336480 0.000000 
#    z 0.000000 0.000000 3.973920 
# 
# 
# High freq. dielectric constant tensor:
#      x y z
#    x 1.908930 0.000000 0.000000 
#    y 0.000000 1.912870 0.000000 
#    z 0.000000 0.000000 1.886550 
# 
# From -- ./inp_files/2861.got.cif
#   From: 2010.03.12/outbox.cif.g09.slc.cpg/sg29_2_cif.got.tgz:2861.got - 2010.04.14 03:43:10.
