data_PCOD8169275
_publ_section_title
;
Structure prediction by ZEFSAII (Michael W. Deem and Ramdas Pophale) SiO2 
 PCOD8169275
Probable space group: P C A 21
;
_chemical_formula_sum "Si O2"
_cell_formula_units_Z 20
_cell_length_a 7.567666
_cell_length_b 11.747080
_cell_length_c 8.897430
_cell_angle_alpha 90.000000
_cell_angle_beta 90.000000
_cell_angle_gamma 90.000000
_cell_volume 790.963536
_symmetry_space_group_name_H-M "P C A 21"
_symmetry_group_IT_number 29
_symmetry_cell_setting 'orthorhombic'
loop_
_space_group_symop_operation_xyz
x,y,z
-x,-y,1/2+z
1/2-x,y,1/2+z
1/2+x,-y,z
loop_
_atom_site_type_symbol
_atom_site_label
_atom_site_fract_x
_atom_site_fract_y
_atom_site_fract_z
Si Si1 0.672632 0.411220 0.407300
Si Si2 0.682669 0.895548 0.884725
Si Si3 0.019442 0.051728 0.585631
Si Si4 0.550416 0.296902 0.106776
Si Si5 0.805809 0.649470 0.465154
O O1 0.617747 0.368894 0.244995
O O2 0.845021 0.344508 0.462618
O O3 0.715218 0.544018 0.379730
O O4 0.501982 0.392741 0.519891
O O5 0.639539 0.967911 0.734523
O O6 0.884102 0.918112 0.927785
O O7 0.650615 0.760279 0.859415
O O8 0.584583 0.938309 0.038671
O O9 0.899537 0.162960 0.622775
O O10 0.335296 0.310634 0.091289
#
# Coordination Sequence:
#
# PCOD8169275 Si02
#       5
#     4   4   4   4   4
#     4  12  26  47  78 108 160 200 258 317 396 462
#     4  11  25  47  75 110 154 197 259 320 390 460
#     4  11  25  48  73 110 151 203 258 321 389 464
#     4  11  28  47  73 115 150 209 259 318 391 462
#     4  11  26  47  75 115 157 203 258 326 384 468
#
# _framework density 25.285613999999999
#
# number of rings (size 3 to 8) (size 9 to 14) (size 15 to 20)
#    0.000    0.800    4.000    1.200    5.600    3.200 
#    3.600    0.000    0.000    0.000    0.000    0.000 
#    0.000    0.000    0.000    0.000    0.000    0.000 
#
# Total GULP energy -247770.002378 kJ/mol
# GULP energy per Si atom -12388.500119 kJ/mol
# Density = 2.522806 g / cm^3
# Si number density = 25.285614 Si / 1000 Ang^3
#
#
#
# Elastic Constant Matrix: (Units=GPa)
#
#
# Indices 1 2 3 4 5 6 
#
# 1 103.4501 43.6546 15.7592 0.0000 0.0000 0.0000
# 2 43.6546 148.5640 38.5444 0.0000 0.0000 0.0000
# 3 15.7592 38.5444 95.6794 0.0000 0.0000 0.0000
# 4 0.0000 0.0000 0.0000 30.7901 0.0000 0.0000
# 5 0.0000 0.0000 0.0000 0.0000 40.2490 0.0000
# 6 0.0000 0.0000 0.0000 0.0000 0.0000 43.2295
#
#
#
# Elastic Compliance Matrix: (Units=1/GPa)
#
#
# Indices 1 2 3 4 5 6 
#
# 1 0.011063 -0.003102 -0.000572 0.000000 0.000000 0.000000
# 2 -0.003102 0.008387 -0.002868 0.000000 0.000000 0.000000
# 3 -0.000572 -0.002868 0.011701 0.000000 0.000000 0.000000
# 4 0.000000 0.000000 0.000000 0.032478 0.000000 0.000000
# 5 0.000000 0.000000 0.000000 0.000000 0.024845 0.000000
# 6 0.000000 0.000000 0.000000 0.000000 0.000000 0.023132
#
#
# Mechanical properties :
#
#
# Convention : Reuss Voigt Hill
#
# Bulk Modulus (GPa) = 55.35241 60.40109 57.87675
# Shear Modulus (GPa) = 38.25185 39.50275 38.87730
#
# Velocity S-wave (km/s) = 3.89368 3.95683 3.92538
# Velocity P-wave (km/s) = 6.49251 6.69438 6.59422
#
# Compressibility (1/GPa) = 0.01806606
#
# Stress axis : x y z
#
# Youngs Moduli (GPa) = 90.39313 119.23698 85.46235
#
# Poissons Ratio (x) = 0.36990 0.04892
# Poissons Ratio (y) = 0.28042 0.24507
# Poissons Ratio (z) = 0.05174 0.34192
#
# Static dielectric constant tensor:
#      x y z
#    x 5.249630 0.000000 0.000000 
#    y 0.000000 4.767410 0.000000 
#    z 0.000000 0.000000 4.120650 
# 
# 
# High freq. dielectric constant tensor:
#      x y z
#    x 2.011280 0.000000 0.000000 
#    y 0.000000 2.022210 0.000000 
#    z 0.000000 0.000000 1.991860 
# 
# From -- ./inp_files/1094.got.cif
#   From: 2010.03.12/outbox.cif.g09.slc.cpg/sg29_1_cif.got.tgz:1094.got - 2010.04.14 03:43:10.
