data_PCOD8169066
_publ_section_title
;
Structure prediction by ZEFSAII (Michael W. Deem and Ramdas Pophale) SiO2 
 PCOD8169066
Probable space group: P C A 21
;
_chemical_formula_sum "Si O2"
_cell_formula_units_Z 28
_cell_length_a 19.264243
_cell_length_b 5.520564
_cell_length_c 11.318564
_cell_angle_alpha 90.000000
_cell_angle_beta 90.000000
_cell_angle_gamma 90.000000
_cell_volume 1203.723468
_symmetry_space_group_name_H-M "P C A 21"
_symmetry_group_IT_number 29
_symmetry_cell_setting 'orthorhombic'
loop_
_space_group_symop_operation_xyz
x,y,z
-x,-y,1/2+z
1/2-x,y,1/2+z
1/2+x,-y,z
loop_
_atom_site_type_symbol
_atom_site_label
_atom_site_fract_x
_atom_site_fract_y
_atom_site_fract_z
Si Si1 0.739112 0.902753 0.690130
Si Si2 0.884439 0.699505 0.672639
Si Si3 0.991543 0.077088 0.627580
Si Si4 0.174197 0.607292 0.743617
Si Si5 0.939676 0.355502 0.845083
Si Si6 0.429699 0.582890 0.456908
Si Si7 0.630947 0.101347 0.543188
O O1 0.821475 0.890627 0.671367
O O2 0.715683 0.646979 0.750056
O O3 0.721706 0.147613 0.766843
O O4 0.701009 0.939995 0.561447
O O5 0.885475 0.556877 0.797712
O O6 0.879200 0.535152 0.555327
O O7 0.958791 0.827180 0.669357
O O8 0.980621 0.271480 0.729819
O O9 0.953543 0.155522 0.505687
O O10 0.073091 0.053864 0.611175
O O11 0.140827 0.641333 0.612629
O O12 0.112755 0.612173 0.837904
O O13 0.891416 0.151722 0.908330
O O14 0.998101 0.436924 0.938396
#
# Coordination Sequence:
#
# PCOD8169066 Si02
#       7
#     4   4   4   4   4   4   4
#     4  10  26  48  73 104 153 193 246 302 375 453
#     4  11  26  47  69 108 150 191 257 310 379 452
#     4  11  25  43  70 105 147 188 250 318 371 451
#     4  10  25  47  74 105 147 196 247 295 382 451
#     4  11  25  42  71 111 145 193 252 317 380 447
#     4  11  25  43  75 107 146 193 251 312 384 441
#     4  10  24  42  76 104 148 192 249 306 379 449
#
# _framework density 23.261154999999999
#
# number of rings (size 3 to 8) (size 9 to 14) (size 15 to 20)
#    0.857    0.571    1.429    1.714   14.000    0.000 
#    7.714    0.000    0.000    0.000    0.000    0.000 
#    0.000    0.000    0.000    0.000    0.000    0.000 
#
# Total GULP energy -346942.807179 kJ/mol
# GULP energy per Si atom -12390.814542 kJ/mol
# Density = 2.320821 g / cm^3
# Si number density = 23.261155 Si / 1000 Ang^3
#
#
#
# Elastic Constant Matrix: (Units=GPa)
#
#
# Indices 1 2 3 4 5 6 
#
# 1 106.1674 24.6331 29.9749 0.0000 0.0000 0.0000
# 2 24.6331 108.4699 16.0468 0.0000 0.0000 0.0000
# 3 29.9749 16.0468 79.2816 0.0000 0.0000 0.0000
# 4 0.0000 0.0000 0.0000 26.5387 0.0000 0.0000
# 5 0.0000 0.0000 0.0000 0.0000 25.9154 0.0000
# 6 0.0000 0.0000 0.0000 0.0000 0.0000 38.5353
#
#
#
# Elastic Compliance Matrix: (Units=1/GPa)
#
#
# Indices 1 2 3 4 5 6 
#
# 1 0.010922 -0.001927 -0.003739 0.000000 0.000000 0.000000
# 2 -0.001927 0.009844 -0.001264 0.000000 0.000000 0.000000
# 3 -0.003739 -0.001264 0.014283 0.000000 0.000000 0.000000
# 4 0.000000 0.000000 0.000000 0.037681 0.000000 0.000000
# 5 0.000000 0.000000 0.000000 0.000000 0.038587 0.000000
# 6 0.000000 0.000000 0.000000 0.000000 0.000000 0.025950
#
#
# Mechanical properties :
#
#
# Convention : Reuss Voigt Hill
#
# Bulk Modulus (GPa) = 47.19647 48.35873 47.77760
# Shear Modulus (GPa) = 31.60758 33.08216 32.34487
#
# Velocity S-wave (km/s) = 3.69021 3.77531 3.73300
# Velocity P-wave (km/s) = 6.20409 6.31178 6.25816
#
# Compressibility (1/GPa) = 0.02118803
#
# Stress axis : x y z
#
# Youngs Moduli (GPa) = 91.55854 101.58723 70.01410
#
# Poissons Ratio (x) = 0.19577 0.26181
# Poissons Ratio (y) = 0.17645 0.08848
# Poissons Ratio (z) = 0.34237 0.12838
#
# Static dielectric constant tensor:
#      x y z
#    x 4.012140 0.000000 0.000000 
#    y 0.000000 4.155380 0.000000 
#    z 0.000000 0.000000 4.064620 
# 
# 
# High freq. dielectric constant tensor:
#      x y z
#    x 1.916320 0.000000 0.000000 
#    y 0.000000 1.921730 0.000000 
#    z 0.000000 0.000000 1.907290 
# 
# From -- ./inp_files/3752.got.cif
#   From: 2010.03.12/outbox.cif.g09.slc.cpg/sg29_2_cif.got.tgz:3752.got - 2010.04.14 03:43:10.
