data_PCOD8169522
_publ_section_title
;
Structure prediction by ZEFSAII (Michael W. Deem and Ramdas Pophale) SiO2 
 PCOD8169522
Probable space group: P N C 2
;
_chemical_formula_sum "Si O2"
_cell_formula_units_Z 26
_cell_length_a 15.176310
_cell_length_b 8.635273
_cell_length_c 10.238056
_cell_angle_alpha 90.000000
_cell_angle_beta 90.000000
_cell_angle_gamma 90.000000
_cell_volume 1341.713415
_symmetry_space_group_name_H-M "P N C 2"
_symmetry_group_IT_number 30
_symmetry_cell_setting 'orthorhombic'
loop_
_space_group_symop_operation_xyz
x,y,z
-x,-y,z
-x,1/2+y,1/2+z
x,1/2-y,1/2+z
loop_
_atom_site_type_symbol
_atom_site_label
_atom_site_fract_x
_atom_site_fract_y
_atom_site_fract_z
Si Si1 0.921529 0.884193 0.434850
Si Si2 0.500000 0.500000 0.578144
Si Si3 0.330536 0.900153 0.196013
Si Si4 0.081393 0.395586 0.232469
Si Si5 0.727004 0.566541 0.943393
Si Si6 0.266102 0.561022 0.214900
Si Si7 0.333523 0.093380 0.959896
O O1 0.916298 0.742017 0.336039
O O2 0.931354 0.827532 0.585573
O O3 0.829614 0.976972 0.423579
O O4 0.000000 0.000000 0.395131
O O5 0.564464 0.386577 0.662579
O O6 0.561808 0.612165 0.489529
O O7 0.274276 0.743788 0.189953
O O8 0.328621 0.971408 0.339682
O O9 0.286906 0.016328 0.088099
O O10 0.166724 0.505657 0.242156
O O11 0.000000 0.500000 0.273469
O O12 0.694576 0.524141 0.087978
O O13 0.713446 0.748492 0.922011
O O14 0.326321 0.522095 0.338185
#
# Coordination Sequence:
#
# PCOD8169522 Si02
#       7
#     4   2   4   4   4   4   4
#     4  10  23  41  62  93 130 166 217 265 316 392
#     4   8  24  42  62  92 134 158 230 264 338 394
#     4  10  23  42  62  93 127 168 214 273 332 390
#     4  10  23  41  61  96 130 168 216 265 325 384
#     4  11  22  40  66  91 125 170 215 264 334 387
#     4  11  22  40  65  93 127 167 217 270 327 396
#     4  10  21  43  63  90 128 170 212 269 328 394
#
# _framework density 19.378207
#
# number of rings (size 3 to 8) (size 9 to 14) (size 15 to 20)
#    0.923    0.923    1.538    1.846    4.308    1.846 
#    2.769    0.000    0.000    0.000    0.000    0.000 
#    0.000    0.000    0.000    0.000    0.000    0.000 
#
# Total GULP energy -322244.330115 kJ/mol
# GULP energy per Si atom -12394.012697 kJ/mol
# Density = 1.933410 g / cm^3
# Si number density = 19.378207 Si / 1000 Ang^3
#
#
#
# Elastic Constant Matrix: (Units=GPa)
#
#
# Indices 1 2 3 4 5 6 
#
# 1 116.1048 43.8454 46.6013 0.0000 0.0000 0.0000
# 2 43.8454 97.6767 28.7227 0.0000 0.0000 0.0000
# 3 46.6013 28.7227 109.6363 0.0000 0.0000 0.0000
# 4 0.0000 0.0000 0.0000 36.5416 0.0000 0.0000
# 5 0.0000 0.0000 0.0000 0.0000 30.4153 0.0000
# 6 0.0000 0.0000 0.0000 0.0000 0.0000 28.5170
#
#
#
# Elastic Compliance Matrix: (Units=1/GPa)
#
#
# Indices 1 2 3 4 5 6 
#
# 1 0.011738 -0.004119 -0.003910 0.000000 0.000000 0.000000
# 2 -0.004119 0.012538 -0.001534 0.000000 0.000000 0.000000
# 3 -0.003910 -0.001534 0.011185 0.000000 0.000000 0.000000
# 4 0.000000 0.000000 0.000000 0.027366 0.000000 0.000000
# 5 0.000000 0.000000 0.000000 0.000000 0.032878 0.000000
# 6 0.000000 0.000000 0.000000 0.000000 0.000000 0.035067
#
#
# Mechanical properties :
#
#
# Convention : Reuss Voigt Hill
#
# Bulk Modulus (GPa) = 61.21997 62.41740 61.81869
# Shear Modulus (GPa) = 32.18693 32.71136 32.44915
#
# Velocity S-wave (km/s) = 4.07994 4.11304 4.09653
# Velocity P-wave (km/s) = 7.33862 7.40515 7.37196
#
# Compressibility (1/GPa) = 0.01633454
#
# Stress axis : x y z
#
# Youngs Moduli (GPa) = 85.19468 79.75818 89.40630
#
# Poissons Ratio (x) = 0.32853 0.34958
# Poissons Ratio (y) = 0.35093 0.13714
# Poissons Ratio (z) = 0.33312 0.12234
#
# Static dielectric constant tensor:
#      x y z
#    x 3.510160 0.000000 0.000000 
#    y 0.000000 3.407760 0.000000 
#    z 0.000000 0.000000 3.701240 
# 
# 
# High freq. dielectric constant tensor:
#      x y z
#    x 1.749920 0.000000 0.000000 
#    y 0.000000 1.737810 0.000000 
#    z 0.000000 0.000000 1.771050 
# 
# From -- ./inp_files/2765.got.cif
#   From: 2010.03.12/outbox.cif.g09.slc.cpg/sg30_2_cif.got.tgz:2765.got - 2010.04.14 01:38:02.
