data_PCOD8169258
_publ_section_title
;
Structure prediction by ZEFSAII (Michael W. Deem and Ramdas Pophale) SiO2 
 PCOD8169258
Probable space group: P C A 21
;
_chemical_formula_sum "Si O2"
_cell_formula_units_Z 24
_cell_length_a 11.743935
_cell_length_b 10.397351
_cell_length_c 9.040426
_cell_angle_alpha 90.000000
_cell_angle_beta 90.000000
_cell_angle_gamma 90.000000
_cell_volume 1103.888578
_symmetry_space_group_name_H-M "P C A 21"
_symmetry_group_IT_number 29
_symmetry_cell_setting 'orthorhombic'
loop_
_space_group_symop_operation_xyz
x,y,z
-x,-y,1/2+z
1/2-x,y,1/2+z
1/2+x,-y,z
loop_
_atom_site_type_symbol
_atom_site_label
_atom_site_fract_x
_atom_site_fract_y
_atom_site_fract_z
Si Si1 0.383821 0.656739 0.899330
Si Si2 0.500556 0.862146 0.350660
Si Si3 0.778384 0.213356 0.172681
Si Si4 0.373882 0.010338 0.588409
Si Si5 0.364234 0.286744 0.481791
Si Si6 0.848196 0.629497 0.812952
O O1 0.326104 0.724923 0.760240
O O2 0.509638 0.712297 0.916416
O O3 0.392354 0.505493 0.872846
O O4 0.311904 0.685464 0.046493
O O5 0.384956 0.814372 0.275745
O O6 0.473705 0.939561 0.498581
O O7 0.573558 0.736509 0.391416
O O8 0.573350 0.955215 0.246305
O O9 0.736830 0.079023 0.103081
O O10 0.330153 0.138120 0.505693
O O11 0.282294 0.350405 0.361086
O O12 0.357815 0.364462 0.635696
#
# Coordination Sequence:
#
# PCOD8169258 Si02
#       6
#     4   4   4   4   4   4
#     4  12  26  49  73 104 146 188 248 295 360 433
#     4  11  26  45  70 108 138 191 232 300 355 430
#     4  12  25  46  72 108 140 191 234 304 358 427
#     4  11  25  43  73 101 148 174 243 289 368 423
#     4  11  27  46  71 108 138 194 235 299 358 429
#     4  11  27  45  73  99 148 182 244 289 361 420
#
# _framework density 21.741323999999999
#
# number of rings (size 3 to 8) (size 9 to 14) (size 15 to 20)
#    0.000    0.667    5.000    2.000    9.333    4.000 
#    0.000    0.000    0.000    0.000    0.000    0.000 
#    0.000    0.000    0.000    0.000    0.000    0.000 
#
# Total GULP energy -297782.635388 kJ/mol
# GULP energy per Si atom -12407.609808 kJ/mol
# Density = 2.169184 g / cm^3
# Si number density = 21.741324 Si / 1000 Ang^3
#
#
#
# Elastic Constant Matrix: (Units=GPa)
#
#
# Indices 1 2 3 4 5 6 
#
# 1 100.3569 31.7251 33.6090 0.0000 0.0000 0.0000
# 2 31.7251 134.9628 37.6175 0.0000 0.0000 0.0000
# 3 33.6090 37.6175 51.6277 0.0000 0.0000 0.0000
# 4 0.0000 0.0000 0.0000 35.2471 0.0000 0.0000
# 5 0.0000 0.0000 0.0000 0.0000 40.7248 0.0000
# 6 0.0000 0.0000 0.0000 0.0000 0.0000 34.0832
#
#
#
# Elastic Compliance Matrix: (Units=1/GPa)
#
#
# Indices 1 2 3 4 5 6 
#
# 1 0.012822 -0.000863 -0.007718 0.000000 0.000000 0.000000
# 2 -0.000863 0.009356 -0.006255 0.000000 0.000000 0.000000
# 3 -0.007718 -0.006255 0.028952 0.000000 0.000000 0.000000
# 4 0.000000 0.000000 0.000000 0.028371 0.000000 0.000000
# 5 0.000000 0.000000 0.000000 0.000000 0.024555 0.000000
# 6 0.000000 0.000000 0.000000 0.000000 0.000000 0.029340
#
#
# Mechanical properties :
#
#
# Convention : Reuss Voigt Hill
#
# Bulk Modulus (GPa) = 46.60518 54.76117 50.68317
# Shear Modulus (GPa) = 29.37366 34.27741 31.82554
#
# Velocity S-wave (km/s) = 3.67965 3.97495 3.83015
# Velocity P-wave (km/s) = 6.28776 6.80509 6.55153
#
# Compressibility (1/GPa) = 0.02145684
#
# Stress axis : x y z
#
# Youngs Moduli (GPa) = 77.99101 106.88626 34.54023
#
# Poissons Ratio (x) = 0.09221 0.26659
# Poissons Ratio (y) = 0.06728 0.21606
# Poissons Ratio (z) = 0.60196 0.66860
#
# Static dielectric constant tensor:
#      x y z
#    x 3.957960 0.000000 0.000000 
#    y 0.000000 4.064160 0.000000 
#    z 0.000000 0.000000 3.994630 
# 
# 
# High freq. dielectric constant tensor:
#      x y z
#    x 1.864030 0.000000 0.000000 
#    y 0.000000 1.866190 0.000000 
#    z 0.000000 0.000000 1.856730 
# 
# From -- ./inp_files/1399.got.cif
#   From: 2010.03.12/outbox.cif.g09.slc.cpg/sg29_1_cif.got.tgz:1399.got - 2010.04.14 03:43:10.
