data_PCOD8169955
_publ_section_title
;
Structure prediction by ZEFSAII (Michael W. Deem and Ramdas Pophale) SiO2 
 PCOD8169955
Probable space group: P M N 21
;
_chemical_formula_sum "Si O2"
_cell_formula_units_Z 32
_cell_length_a 8.629459
_cell_length_b 19.090934
_cell_length_c 10.138084
_cell_angle_alpha 90.000000
_cell_angle_beta 90.000000
_cell_angle_gamma 90.000000
_cell_volume 1670.192892
_symmetry_space_group_name_H-M "P M N 21"
_symmetry_group_IT_number 31
_symmetry_cell_setting 'orthorhombic'
loop_
_space_group_symop_operation_xyz
x,y,z
1/2-x,-y,1/2+z
-x,y,z
1/2+x,-y,1/2+z
loop_
_atom_site_type_symbol
_atom_site_label
_atom_site_fract_x
_atom_site_fract_y
_atom_site_fract_z
Si Si1 0.182725 0.849872 0.953350
Si Si2 0.182250 0.703019 0.527313
Si Si3 0.317359 0.289555 0.322796
Si Si4 0.818985 0.158832 0.951742
Si Si5 0.316590 0.444766 0.324564
Si Si6 0.681229 0.925597 0.710047
Si Si7 0.818814 0.074475 0.695298
Si Si8 0.316907 0.556170 0.537419
O O1 0.247213 0.772401 0.915215
O O2 0.217621 0.903755 0.835569
O O3 0.000000 0.850975 0.982935
O O4 0.278079 0.870656 0.081655
O O5 0.243816 0.721090 0.674037
O O6 0.231107 0.767205 0.433874
O O7 0.261441 0.630968 0.481690
O O8 0.000000 0.691059 0.522508
O O9 0.500000 0.282263 0.321097
O O10 0.265840 0.366630 0.372121
O O11 0.768293 0.122078 0.087156
O O12 0.000000 0.174479 0.947492
O O13 0.768868 0.108316 0.833555
O O14 0.500000 0.448637 0.308728
O O15 0.254131 0.498528 0.433767
O O16 0.247481 0.462236 0.181562
O O17 0.500000 0.917786 0.741693
O O18 0.718554 0.005224 0.672826
O O19 0.000000 0.056032 0.691839
O O20 0.500000 0.554466 0.544516
#
# Coordination Sequence:
#
# PCOD8169955 Si02
#       8
#     4   4   4   4   4   4   4   4
#     4  11  21  37  59  84 115 150 190 234 285 339
#     4  10  19  35  60  85 111 148 193 234 279 339
#     4   8  16  33  57  81 107 144 187 231 271 325
#     4  10  22  39  58  82 115 148 188 237 285 333
#     4   9  19  37  58  83 116 151 190 231 276 332
#     4  11  22  38  62  87 110 146 192 235 286 348
#     4  11  24  40  56  82 119 153 188 237 288 339
#     4  10  20  35  58  86 119 152 186 233 282 329
#
# _framework density 19.159465000000001
#
# number of rings (size 3 to 8) (size 9 to 14) (size 15 to 20)
#    0.000    2.000    1.250    3.375    0.000    3.500 
#    2.250    0.625    0.000    0.000    0.000    0.000 
#    0.000    0.000    0.000    0.000    0.000    0.000 
#
# Total GULP energy -396850.058301 kJ/mol
# GULP energy per Si atom -12401.564322 kJ/mol
# Density = 1.911586 g / cm^3
# Si number density = 19.159465 Si / 1000 Ang^3
#
#
#
# Elastic Constant Matrix: (Units=GPa)
#
#
# Indices 1 2 3 4 5 6 
#
# 1 34.9465 28.9063 30.1858 0.0000 0.0000 0.0000
# 2 28.9063 139.1440 43.4814 0.0000 0.0000 0.0000
# 3 30.1858 43.4814 75.3343 0.0000 0.0000 0.0000
# 4 0.0000 0.0000 0.0000 32.9245 0.0000 0.0000
# 5 0.0000 0.0000 0.0000 0.0000 27.7192 0.0000
# 6 0.0000 0.0000 0.0000 0.0000 0.0000 30.2819
#
#
#
# Elastic Compliance Matrix: (Units=1/GPa)
#
#
# Indices 1 2 3 4 5 6 
#
# 1 0.046094 -0.004641 -0.015791 0.000000 0.000000 0.000000
# 2 -0.004641 0.009236 -0.003471 0.000000 0.000000 0.000000
# 3 -0.015791 -0.003471 0.021605 0.000000 0.000000 0.000000
# 4 0.000000 0.000000 0.000000 0.030372 0.000000 0.000000
# 5 0.000000 0.000000 0.000000 0.000000 0.036076 0.000000
# 6 0.000000 0.000000 0.000000 0.000000 0.000000 0.033023
#
#
# Mechanical properties :
#
#
# Convention : Reuss Voigt Hill
#
# Bulk Modulus (GPa) = 34.33053 50.50796 42.41925
# Shear Modulus (GPa) = 21.37479 27.97522 24.67501
#
# Velocity S-wave (km/s) = 3.34372 3.82530 3.59259
# Velocity P-wave (km/s) = 5.73276 6.77715 6.27671
#
# Compressibility (1/GPa) = 0.02912859
#
# Stress axis : x y z
#
# Youngs Moduli (GPa) = 21.69493 108.27650 46.28637
#
# Poissons Ratio (x) = 0.50254 0.73089
# Poissons Ratio (y) = 0.10069 0.16065
# Poissons Ratio (z) = 0.34257 0.37582
#
# Static dielectric constant tensor:
#      x y z
#    x 3.328540 0.000000 0.000000 
#    y 0.000000 3.773430 0.000000 
#    z 0.000000 0.000000 3.486230 
# 
# 
# High freq. dielectric constant tensor:
#      x y z
#    x 1.738350 0.000000 0.000000 
#    y 0.000000 1.759090 0.000000 
#    z 0.000000 0.000000 1.733200 
# 
# From -- ./inp_files/3776.got.cif
#   From: 2010.03.12/outbox.cif.g09.slc.cpg/sg31_2_cif.got.tgz:3776.got - 2010.04.14 01:42:59.
