data_PCOD8169373
_publ_section_title
;
Structure prediction by ZEFSAII (Michael W. Deem and Ramdas Pophale) SiO2 
 PCOD8169373
Probable space group: P N C 2
;
_chemical_formula_sum "Si O2"
_cell_formula_units_Z 28
_cell_length_a 16.644264
_cell_length_b 9.118938
_cell_length_c 8.999405
_cell_angle_alpha 90.000000
_cell_angle_beta 90.000000
_cell_angle_gamma 90.000000
_cell_volume 1365.911795
_symmetry_space_group_name_H-M "P N C 2"
_symmetry_group_IT_number 30
_symmetry_cell_setting 'orthorhombic'
loop_
_space_group_symop_operation_xyz
x,y,z
-x,-y,z
-x,1/2+y,1/2+z
x,1/2-y,1/2+z
loop_
_atom_site_type_symbol
_atom_site_label
_atom_site_fract_x
_atom_site_fract_y
_atom_site_fract_z
Si Si1 0.776145 0.077448 0.716880
Si Si2 0.500000 0.500000 0.892818
Si Si3 0.500000 0.500000 0.400108
Si Si4 0.768439 0.384606 0.566782
Si Si5 0.610848 0.993140 0.647392
Si Si6 0.407346 0.840108 0.143685
Si Si7 0.921265 0.585747 0.593418
Si Si8 0.071851 0.396670 0.246108
O O1 0.790807 0.222746 0.621145
O O2 0.705780 0.969455 0.655245
O O3 0.851088 0.977903 0.686924
O O4 0.762610 0.119146 0.888614
O O5 0.546078 0.382709 0.793051
O O6 0.432033 0.426209 0.000763
O O7 0.432627 0.426190 0.293036
O O8 0.538614 0.374724 0.501077
O O9 0.679557 0.423106 0.632346
O O10 0.837516 0.497357 0.623168
O O11 0.603014 0.168506 0.649259
O O12 0.930157 0.621343 0.421594
O O13 0.925333 0.735661 0.681241
O O14 0.000000 0.500000 0.649761
O O15 0.000000 0.500000 0.189215
#
# Coordination Sequence:
#
# PCOD8169373 Si02
#       8
#     4   2   2   4   4   4   4   4
#     4  10  21  37  62  90 119 157 200 247 297 354
#     4  10  22  34  56  84 110 146 202 238 298 348
#     4  10  18  34  56  76 114 146 186 250 290 340
#     4  10  21  37  62  90 119 157 200 247 297 354
#     4  10  20  36  56  81 111 151 196 245 293 358
#     4  10  20  36  56  81 111 151 196 245 293 358
#     4  10  22  41  63  92 127 158 198 242 292 352
#     4  10  22  41  63  92 127 158 198 242 292 352
#
# _framework density 20.499127000000001
#
# number of rings (size 3 to 8) (size 9 to 14) (size 15 to 20)
#    0.000    2.000    1.429    1.714    6.000    1.714 
#    0.000    8.571    0.000    0.000    0.000    0.000 
#    0.000    0.000    0.000    0.000    0.000    0.000 
#
# Total GULP energy -347010.757198 kJ/mol
# GULP energy per Si atom -12393.241328 kJ/mol
# Density = 2.045247 g / cm^3
# Si number density = 20.499127 Si / 1000 Ang^3
#
#
#
# Elastic Constant Matrix: (Units=GPa)
#
#
# Indices 1 2 3 4 5 6 
#
# 1 192.7240 75.0117 62.4831 0.0000 0.0000 0.0000
# 2 75.0117 83.3846 33.6330 0.0000 0.0000 0.0000
# 3 62.4831 33.6330 97.1114 0.0000 0.0000 0.0000
# 4 0.0000 0.0000 0.0000 35.1540 0.0000 0.0000
# 5 0.0000 0.0000 0.0000 0.0000 25.4100 0.0000
# 6 0.0000 0.0000 0.0000 0.0000 0.0000 31.8574
#
#
#
# Elastic Compliance Matrix: (Units=1/GPa)
#
#
# Indices 1 2 3 4 5 6 
#
# 1 0.008864 -0.006595 -0.003419 0.000000 0.000000 0.000000
# 2 -0.006595 0.018847 -0.002284 0.000000 0.000000 0.000000
# 3 -0.003419 -0.002284 0.013288 0.000000 0.000000 0.000000
# 4 0.000000 0.000000 0.000000 0.028446 0.000000 0.000000
# 5 0.000000 0.000000 0.000000 0.000000 0.039355 0.000000
# 6 0.000000 0.000000 0.000000 0.000000 0.000000 0.031390
#
#
# Mechanical properties :
#
#
# Convention : Reuss Voigt Hill
#
# Bulk Modulus (GPa) = 60.96482 79.49729 70.23105
# Shear Modulus (GPa) = 29.36788 31.95709 30.66248
#
# Velocity S-wave (km/s) = 3.78913 3.95264 3.87175
# Velocity P-wave (km/s) = 6.99629 7.72633 7.37035
#
# Compressibility (1/GPa) = 0.01640290
#
# Stress axis : x y z
#
# Youngs Moduli (GPa) = 112.81298 53.06003 75.25306
#
# Poissons Ratio (x) = 0.34993 0.25731
# Poissons Ratio (y) = 0.74400 0.17187
# Poissons Ratio (z) = 0.38574 0.12118
#
# Static dielectric constant tensor:
#      x y z
#    x 4.431530 0.000000 0.000000 
#    y 0.000000 2.998270 0.000000 
#    z 0.000000 0.000000 3.875850 
# 
# 
# High freq. dielectric constant tensor:
#      x y z
#    x 1.822370 0.000000 0.000000 
#    y 0.000000 1.777960 0.000000 
#    z 0.000000 0.000000 1.808720 
# 
# From -- ./inp_files/2783.got.cif
#   From: 2010.03.12/outbox.cif.g09.slc.cpg/sg30_2_cif.got.tgz:2783.got - 2010.04.14 01:38:02.
