data_PCOD8169145
_publ_section_title
;
Structure prediction by ZEFSAII (Michael W. Deem and Ramdas Pophale) SiO2 
 PCOD8169145
Probable space group: P C A 21
;
_chemical_formula_sum "Si O2"
_cell_formula_units_Z 24
_cell_length_a 13.122520
_cell_length_b 10.788684
_cell_length_c 5.353447
_cell_angle_alpha 90.000000
_cell_angle_beta 90.000000
_cell_angle_gamma 90.000000
_cell_volume 757.912768
_symmetry_space_group_name_H-M "P C A 21"
_symmetry_group_IT_number 29
_symmetry_cell_setting 'orthorhombic'
loop_
_space_group_symop_operation_xyz
x,y,z
-x,-y,1/2+z
1/2-x,y,1/2+z
1/2+x,-y,z
loop_
_atom_site_type_symbol
_atom_site_label
_atom_site_fract_x
_atom_site_fract_y
_atom_site_fract_z
Si Si1 0.801411 0.515887 0.256530
Si Si2 0.839806 0.980042 0.734171
Si Si3 0.022650 0.654354 0.802056
Si Si4 0.202329 0.784237 0.009102
Si Si5 0.842465 0.759124 0.050982
Si Si6 0.500092 0.155021 0.419474
O O1 0.747449 0.460818 0.503277
O O2 0.921630 0.479554 0.286427
O O3 0.783451 0.668859 0.251030
O O4 0.942924 0.914872 0.644813
O O5 0.781128 0.060843 0.513983
O O6 0.778349 0.865023 0.883681
O O7 0.886179 0.097808 0.888107
O O8 0.023002 0.707362 0.520756
O O9 0.082897 0.746213 0.999612
O O10 0.904459 0.652179 0.892743
O O11 0.256478 0.725241 0.251038
O O12 0.924849 0.847614 0.183040
#
# Coordination Sequence:
#
# PCOD8169145 Si02
#       6
#     4   4   4   4   4   4
#     4  12  32  54  77 111 161 204 250 325 406 463
#     4  11  22  42  70 110 154 194 246 323 376 467
#     4  11  26  47  79 109 147 200 278 325 367 459
#     4  12  26  42  69 110 153 203 248 311 394 450
#     4  11  27  45  82 108 153 203 272 311 390 464
#     4  11  21  42  75 110 142 192 252 323 373 441
#
# _framework density 31.665911999999999
#
# number of rings (size 3 to 8) (size 9 to 14) (size 15 to 20)
#    0.000    0.667    3.333    3.000   11.667    1.333 
#    0.000    0.000    0.000    0.000    0.000    0.000 
#    0.000    0.000    0.000    0.000    0.000    0.000 
#
# Total GULP energy -297539.986793 kJ/mol
# GULP energy per Si atom -12397.499450 kJ/mol
# Density = 3.159384 g / cm^3
# Si number density = 31.665912 Si / 1000 Ang^3
#
#
#
# Elastic Constant Matrix: (Units=GPa)
#
#
# Indices 1 2 3 4 5 6 
#
# 1 92.8889 9.5363 12.5635 0.0000 0.0000 0.0000
# 2 9.5363 142.4939 42.4347 0.0000 0.0000 0.0000
# 3 12.5635 42.4347 139.6796 0.0000 0.0000 0.0000
# 4 0.0000 0.0000 0.0000 60.8622 0.0000 0.0000
# 5 0.0000 0.0000 0.0000 0.0000 -45.0571 0.0000
# 6 0.0000 0.0000 0.0000 0.0000 0.0000 102.5931
#
#
#
# Elastic Compliance Matrix: (Units=1/GPa)
#
#
# Indices 1 2 3 4 5 6 
#
# 1 0.010928 -0.000482 -0.000836 0.000000 0.000000 0.000000
# 2 -0.000482 0.007737 -0.002307 0.000000 0.000000 0.000000
# 3 -0.000836 -0.002307 0.007935 0.000000 0.000000 0.000000
# 4 0.000000 0.000000 0.000000 0.016431 0.000000 0.000000
# 5 0.000000 0.000000 0.000000 0.000000 -0.022194 0.000000
# 6 0.000000 0.000000 0.000000 0.000000 0.000000 0.009747
#
#
# Mechanical properties :
#
#
# Convention : Reuss Voigt Hill
#
# Bulk Modulus (GPa) = 51.68220 56.01460 53.84840
# Shear Modulus (GPa) = 112.90260 44.38151 78.64205
#
# Velocity S-wave (km/s) = 5.97760 3.74780 4.98887
# Velocity P-wave (km/s) = 7.99992 6.03785 7.08711
#
# Compressibility (1/GPa) = 0.01934902
#
# Stress axis : x y z
#
# Youngs Moduli (GPa) = 91.50651 129.24567 126.01761
#
# Poissons Ratio (x) = 0.06233 0.10540
# Poissons Ratio (y) = 0.04413 0.29075
# Poissons Ratio (z) = 0.07654 0.29819
#
# Static dielectric constant tensor:
#      x y z
#    x 5.724290 0.000000 0.000000 
#    y 0.000000 5.817630 0.000000 
#    z 0.000000 0.000000 6.015830 
# 
# 
# High freq. dielectric constant tensor:
#      x y z
#    x 2.317550 0.000000 0.000000 
#    y 0.000000 2.334850 0.000000 
#    z 0.000000 0.000000 2.316800 
# 
# From -- ./inp_files/193.got.cif
#   From: 2010.03.12/outbox.cif.g09.slc.cpg/sg29_1_cif.got.tgz:193.got - 2010.04.14 03:43:10.
