data_PCOD8169217
_publ_section_title
;
Structure prediction by ZEFSAII (Michael W. Deem and Ramdas Pophale) SiO2 
 PCOD8169217
Probable space group: P C A 21
;
_chemical_formula_sum "Si O2"
_cell_formula_units_Z 24
_cell_length_a 8.850755
_cell_length_b 12.877900
_cell_length_c 8.950284
_cell_angle_alpha 90.000000
_cell_angle_beta 90.000000
_cell_angle_gamma 90.000000
_cell_volume 1020.145654
_symmetry_space_group_name_H-M "P C A 21"
_symmetry_group_IT_number 29
_symmetry_cell_setting 'orthorhombic'
loop_
_space_group_symop_operation_xyz
x,y,z
-x,-y,1/2+z
1/2-x,y,1/2+z
1/2+x,-y,z
loop_
_atom_site_type_symbol
_atom_site_label
_atom_site_fract_x
_atom_site_fract_y
_atom_site_fract_z
Si Si1 0.143906 0.606180 0.829680
Si Si2 0.149888 0.066652 0.804144
Si Si3 0.633613 0.724552 0.670244
Si Si4 0.199838 0.736325 0.096533
Si Si5 0.626186 0.059653 0.514405
Si Si6 0.306451 0.406664 0.884559
O O1 0.207228 0.640693 0.668995
O O2 0.240025 0.520052 0.922632
O O3 0.969428 0.574028 0.809384
O O4 0.155214 0.709482 0.928198
O O5 0.219874 0.172551 0.731106
O O6 0.081651 0.006832 0.660452
O O7 0.023364 0.094180 0.927145
O O8 0.277363 0.003973 0.892806
O O9 0.456245 0.750764 0.687196
O O10 0.683454 0.684012 0.507734
O O11 0.678543 0.627429 0.769402
O O12 0.289977 0.842699 0.086961
#
# Coordination Sequence:
#
# PCOD8169217 Si02
#       6
#     4   4   4   4   4   4
#     4  11  24  42  66  96 131 174 221 279 343 414
#     4  12  25  44  69 101 140 185 237 297 360 426
#     4  11  24  43  66  96 133 175 225 281 344 416
#     4  11  24  44  67  95 133 177 225 279 343 411
#     4  12  26  45  70 102 141 187 240 298 360 428
#     4  11  25  42  66  98 132 172 224 278 344 419
#
# _framework density 23.526053000000001
#
# number of rings (size 3 to 8) (size 9 to 14) (size 15 to 20)
#    0.000    0.667    0.000    8.000    0.000   12.000 
#    0.000    0.000    0.000    0.000    0.000    0.000 
#    0.000    0.000    0.000    0.000    0.000    0.000 
#
# Total GULP energy -297443.395573 kJ/mol
# GULP energy per Si atom -12393.474816 kJ/mol
# Density = 2.347251 g / cm^3
# Si number density = 23.526053 Si / 1000 Ang^3
#
#
#
# Elastic Constant Matrix: (Units=GPa)
#
#
# Indices 1 2 3 4 5 6 
#
# 1 78.2438 37.5043 33.0910 0.0000 0.0000 0.0000
# 2 37.5043 110.3762 25.2045 0.0000 0.0000 0.0000
# 3 33.0910 25.2045 99.4867 0.0000 0.0000 0.0000
# 4 0.0000 0.0000 0.0000 55.8080 0.0000 0.0000
# 5 0.0000 0.0000 0.0000 0.0000 22.1416 0.0000
# 6 0.0000 0.0000 0.0000 0.0000 0.0000 37.6389
#
#
#
# Elastic Compliance Matrix: (Units=1/GPa)
#
#
# Indices 1 2 3 4 5 6 
#
# 1 0.016926 -0.004740 -0.004429 0.000000 0.000000 0.000000
# 2 -0.004740 0.010944 -0.001196 0.000000 0.000000 0.000000
# 3 -0.004429 -0.001196 0.011828 0.000000 0.000000 0.000000
# 4 0.000000 0.000000 0.000000 0.017919 0.000000 0.000000
# 5 0.000000 0.000000 0.000000 0.000000 0.045164 0.000000
# 6 0.000000 0.000000 0.000000 0.000000 0.000000 0.026568
#
#
# Mechanical properties :
#
#
# Convention : Reuss Voigt Hill
#
# Bulk Modulus (GPa) = 52.72170 53.30069 53.01120
# Shear Modulus (GPa) = 31.96947 35.93816 33.95382
#
# Velocity S-wave (km/s) = 3.69032 3.91268 3.80313
# Velocity P-wave (km/s) = 6.37311 6.56638 6.47046
#
# Compressibility (1/GPa) = 0.01896752
#
# Stress axis : x y z
#
# Youngs Moduli (GPa) = 59.08234 91.37833 84.54708
#
# Poissons Ratio (x) = 0.43311 0.37445
# Poissons Ratio (y) = 0.28003 0.10112
# Poissons Ratio (z) = 0.26167 0.10929
#
# Static dielectric constant tensor:
#      x y z
#    x 4.207010 0.000000 0.000000 
#    y 0.000000 4.178610 0.000000 
#    z 0.000000 0.000000 4.361790 
# 
# 
# High freq. dielectric constant tensor:
#      x y z
#    x 1.926710 0.000000 0.000000 
#    y 0.000000 1.944600 0.000000 
#    z 0.000000 0.000000 1.940500 
# 
# From -- ./inp_files/1126.got.cif
#   From: 2010.03.12/outbox.cif.g09.slc.cpg/sg29_1_cif.got.tgz:1126.got - 2010.04.14 03:43:10.
