data_PCOD8169021
_publ_section_title
;
Structure prediction by ZEFSAII (Michael W. Deem and Ramdas Pophale) SiO2 
 PCOD8169021
Probable space group: P C A 21
;
_chemical_formula_sum "Si O2"
_cell_formula_units_Z 32
_cell_length_a 9.569580
_cell_length_b 11.677420
_cell_length_c 13.339998
_cell_angle_alpha 90.000000
_cell_angle_beta 90.000000
_cell_angle_gamma 90.000000
_cell_volume 1490.718162
_symmetry_space_group_name_H-M "P C A 21"
_symmetry_group_IT_number 29
_symmetry_cell_setting 'orthorhombic'
loop_
_space_group_symop_operation_xyz
x,y,z
-x,-y,1/2+z
1/2-x,y,1/2+z
1/2+x,-y,z
loop_
_atom_site_type_symbol
_atom_site_label
_atom_site_fract_x
_atom_site_fract_y
_atom_site_fract_z
Si Si1 0.412703 0.261649 0.836160
Si Si2 0.011577 0.575261 0.506380
Si Si3 0.015857 0.984060 0.141271
Si Si4 0.123584 0.790544 0.580672
Si Si5 0.734816 0.953413 0.767103
Si Si6 0.868321 0.113886 0.446573
Si Si7 0.111652 0.593464 0.708108
Si Si8 0.747717 0.529597 0.389570
O O1 0.327651 0.154361 0.795600
O O2 0.545095 0.219387 0.901071
O O3 0.472193 0.350712 0.755249
O O4 0.300595 0.338271 0.895541
O O5 0.867444 0.519224 0.472925
O O6 0.008957 0.713874 0.519768
O O7 0.057809 0.517349 0.612857
O O8 0.123168 0.553569 0.418919
O O9 0.164742 0.968039 0.197013
O O10 0.960976 0.114666 0.143203
O O11 0.898166 0.911784 0.201359
O O12 0.028467 0.946562 0.026020
O O13 0.232594 0.840662 0.502388
O O14 0.197894 0.703622 0.661856
O O15 0.680067 0.023196 0.863027
O O16 0.199112 0.512474 0.780894
#
# Coordination Sequence:
#
# PCOD8169021 Si02
#       8
#     4   4   4   4   4   4   4   4
#     4  12  26  46  71 103 151 187 237 302 364 429
#     4  10  26  42  73  98 138 182 242 293 359 426
#     4  12  25  45  71 107 146 194 244 298 366 438
#     4  10  23  44  70  98 147 185 232 296 364 416
#     4  12  25  46  72 105 147 193 242 302 362 438
#     4  12  26  45  72 108 147 191 241 305 359 442
#     4  10  24  46  68 101 144 180 236 304 348 432
#     4  12  25  48  71 106 138 192 240 298 362 431
#
# _framework density 21.466163000000002
#
# number of rings (size 3 to 8) (size 9 to 14) (size 15 to 20)
#    0.750    0.000    5.000    1.500    3.500    1.000 
#    2.250    0.000    0.000    0.000    0.000    0.000 
#    0.000    0.000    0.000    0.000    0.000    0.000 
#
# Total GULP energy -396543.449670 kJ/mol
# GULP energy per Si atom -12391.982802 kJ/mol
# Density = 2.141731 g / cm^3
# Si number density = 21.466163 Si / 1000 Ang^3
#
#
#
# Elastic Constant Matrix: (Units=GPa)
#
#
# Indices 1 2 3 4 5 6 
#
# 1 102.9612 15.4068 49.6710 0.0000 0.0000 0.0000
# 2 15.4068 63.2416 28.3041 0.0000 0.0000 0.0000
# 3 49.6710 28.3041 122.0550 0.0000 0.0000 0.0000
# 4 0.0000 0.0000 0.0000 25.0490 0.0000 0.0000
# 5 0.0000 0.0000 0.0000 0.0000 47.6593 0.0000
# 6 0.0000 0.0000 0.0000 0.0000 0.0000 37.3801
#
#
#
# Elastic Compliance Matrix: (Units=1/GPa)
#
#
# Indices 1 2 3 4 5 6 
#
# 1 0.012124 -0.000832 -0.004741 0.000000 0.000000 0.000000
# 2 -0.000832 0.017701 -0.003766 0.000000 0.000000 0.000000
# 3 -0.004741 -0.003766 0.010996 0.000000 0.000000 0.000000
# 4 0.000000 0.000000 0.000000 0.039922 0.000000 0.000000
# 5 0.000000 0.000000 0.000000 0.000000 0.020982 0.000000
# 6 0.000000 0.000000 0.000000 0.000000 0.000000 0.026752
#
#
# Mechanical properties :
#
#
# Convention : Reuss Voigt Hill
#
# Bulk Modulus (GPa) = 45.16227 52.78019 48.97123
# Shear Modulus (GPa) = 32.35501 35.00940 33.68220
#
# Velocity S-wave (km/s) = 3.88655 4.04283 3.96546
# Velocity P-wave (km/s) = 6.42066 6.81423 6.62037
#
# Compressibility (1/GPa) = 0.02214238
#
# Stress axis : x y z
#
# Youngs Moduli (GPa) = 82.48049 56.49525 90.94369
#
# Poissons Ratio (x) = 0.04699 0.43117
# Poissons Ratio (y) = 0.06860 0.34251
# Poissons Ratio (z) = 0.39105 0.21277
#
# Static dielectric constant tensor:
#      x y z
#    x 4.021660 0.000000 0.000000 
#    y 0.000000 3.799820 0.000000 
#    z 0.000000 0.000000 4.141200 
# 
# 
# High freq. dielectric constant tensor:
#      x y z
#    x 1.841860 0.000000 0.000000 
#    y 0.000000 1.828770 0.000000 
#    z 0.000000 0.000000 1.856450 
# 
# From -- ./inp_files/4307.got.cif
#   From: 2010.03.12/outbox.cif.g09.slc.cpg/sg29_3_cif.got.tgz:4307.got - 2010.04.14 03:43:10.
