data_PCOD8169009
_publ_section_title
;
Structure prediction by ZEFSAII (Michael W. Deem and Ramdas Pophale) SiO2 
 PCOD8169009
Probable space group: P C A 21
;
_chemical_formula_sum "Si O2"
_cell_formula_units_Z 24
_cell_length_a 13.700161
_cell_length_b 12.421371
_cell_length_c 5.365690
_cell_angle_alpha 90.000000
_cell_angle_beta 90.000000
_cell_angle_gamma 90.000000
_cell_volume 913.105129
_symmetry_space_group_name_H-M "P C A 21"
_symmetry_group_IT_number 29
_symmetry_cell_setting 'orthorhombic'
loop_
_space_group_symop_operation_xyz
x,y,z
-x,-y,1/2+z
1/2-x,y,1/2+z
1/2+x,-y,z
loop_
_atom_site_type_symbol
_atom_site_label
_atom_site_fract_x
_atom_site_fract_y
_atom_site_fract_z
Si Si1 0.500598 0.065266 0.773840
Si Si2 0.292214 0.140851 0.848587
Si Si3 0.789986 0.125715 0.145746
Si Si4 0.291186 0.632130 0.094969
Si Si5 0.999254 0.565813 0.503937
Si Si6 0.788267 0.619754 0.386262
O O1 0.407922 0.142742 0.806324
O O2 0.595815 0.133019 0.704782
O O3 0.478247 0.987785 0.541532
O O4 0.235003 0.084268 0.614524
O O5 0.258517 0.263783 0.846711
O O6 0.730027 0.068331 0.375258
O O7 0.748799 0.246927 0.120271
O O8 0.272018 0.576389 0.368202
O O9 0.405284 0.639571 0.027830
O O10 0.902744 0.634529 0.441469
O O11 0.019128 0.487921 0.271355
O O12 0.729378 0.560793 0.615835
#
# Coordination Sequence:
#
# PCOD8169009 Si02
#       6
#     4   4   4   4   4   4
#     4  12  26  42  68 104 139 178 223 289 346 398
#     4  10  23  43  66  99 132 182 229 278 337 417
#     4  10  23  44  68  94 129 179 227 274 329 411
#     4  10  23  44  68  94 129 179 227 274 329 411
#     4  12  26  42  68 104 139 178 223 289 346 398
#     4  10  23  43  66  99 132 182 229 278 337 417
#
# _framework density 26.283937000000002
#
# number of rings (size 3 to 8) (size 9 to 14) (size 15 to 20)
#    0.000    1.333    0.000    4.000    4.667    8.000 
#   12.000    0.000    0.000    0.000    0.000    0.000 
#    0.000    0.000    0.000    0.000    0.000    0.000 
#
# Total GULP energy -297649.510781 kJ/mol
# GULP energy per Si atom -12402.062949 kJ/mol
# Density = 2.622411 g / cm^3
# Si number density = 26.283937 Si / 1000 Ang^3
#
#
#
# Elastic Constant Matrix: (Units=GPa)
#
#
# Indices 1 2 3 4 5 6 
#
# 1 225.5220 20.8715 74.9613 0.0000 0.0000 0.0000
# 2 20.8715 41.7166 52.3501 0.0000 0.0000 0.0000
# 3 74.9613 52.3501 241.3712 0.0000 0.0000 0.0000
# 4 0.0000 0.0000 0.0000 34.9498 0.0000 0.0000
# 5 0.0000 0.0000 0.0000 0.0000 55.8019 0.0000
# 6 0.0000 0.0000 0.0000 0.0000 0.0000 34.2684
#
#
#
# Elastic Compliance Matrix: (Units=1/GPa)
#
#
# Indices 1 2 3 4 5 6 
#
# 1 0.004962 -0.000754 -0.001377 0.000000 0.000000 0.000000
# 2 -0.000754 0.033050 -0.006934 0.000000 0.000000 0.000000
# 3 -0.001377 -0.006934 0.006075 0.000000 0.000000 0.000000
# 4 0.000000 0.000000 0.000000 0.028612 0.000000 0.000000
# 5 0.000000 0.000000 0.000000 0.000000 0.017921 0.000000
# 6 0.000000 0.000000 0.000000 0.000000 0.000000 0.029181
#
#
# Mechanical properties :
#
#
# Convention : Reuss Voigt Hill
#
# Bulk Modulus (GPa) = 38.52710 89.44174 63.98442
# Shear Modulus (GPa) = 34.11032 49.03247 41.57140
#
# Velocity S-wave (km/s) = 3.60636 4.32382 3.98128
# Velocity P-wave (km/s) = 5.65959 7.68311 6.74763
#
# Compressibility (1/GPa) = 0.02595576
#
# Stress axis : x y z
#
# Youngs Moduli (GPa) = 201.54069 30.25729 164.61841
#
# Poissons Ratio (x) = 0.02281 0.22675
# Poissons Ratio (y) = 0.15194 1.14145
# Poissons Ratio (z) = 0.27761 0.20980
#
# Static dielectric constant tensor:
#      x y z
#    x 4.674200 0.000000 0.000000 
#    y 0.000000 4.681600 0.000000 
#    z 0.000000 0.000000 7.683580 
# 
# 
# High freq. dielectric constant tensor:
#      x y z
#    x 2.044110 0.000000 0.000000 
#    y 0.000000 2.074680 0.000000 
#    z 0.000000 0.000000 2.112370 
# 
# From -- ./inp_files/35.got.cif
#   From: 2010.03.12/outbox.cif.g09.slc.cpg/sg29_1_cif.got.tgz:35.got - 2010.04.14 03:43:10.
