data_PCOD8169985
_publ_section_title
;
Structure prediction by ZEFSAII (Michael W. Deem and Ramdas Pophale) SiO2 
 PCOD8169985
Probable space group: P M N 21
;
_chemical_formula_sum "Si O2"
_cell_formula_units_Z 32
_cell_length_a 13.904736
_cell_length_b 9.553967
_cell_length_c 11.846234
_cell_angle_alpha 90.000000
_cell_angle_beta 90.000000
_cell_angle_gamma 90.000000
_cell_volume 1573.717563
_symmetry_space_group_name_H-M "P M N 21"
_symmetry_group_IT_number 31
_symmetry_cell_setting 'orthorhombic'
loop_
_space_group_symop_operation_xyz
x,y,z
1/2-x,-y,1/2+z
-x,y,z
1/2+x,-y,1/2+z
loop_
_atom_site_type_symbol
_atom_site_label
_atom_site_fract_x
_atom_site_fract_y
_atom_site_fract_z
Si Si1 0.386800 0.791806 0.213320
Si Si2 0.712688 0.009811 0.359394
Si Si3 0.891836 0.659764 0.573715
Si Si4 0.111470 0.361598 0.495524
Si Si5 0.891954 0.702024 0.832446
Si Si6 0.612463 0.846222 0.799817
Si Si7 0.612634 0.586743 0.412820
Si Si8 0.295178 0.807204 0.556737
O O1 0.500000 0.829647 0.215128
O O2 0.360052 0.667110 0.298181
O O3 0.327479 0.929815 0.249340
O O4 0.347610 0.745857 0.090087
O O5 0.676075 0.168208 0.354626
O O6 0.829351 0.024508 0.357318
O O7 0.676433 0.933541 0.472869
O O8 0.850377 0.520904 0.509383
O O9 0.891411 0.636424 0.707566
O O10 0.820469 0.789872 0.551013
O O11 0.000000 0.698370 0.532025
O O12 0.127733 0.297795 0.370801
O O13 0.000000 0.374116 0.526361
O O14 0.852422 0.574659 0.909641
O O15 0.000000 0.746742 0.865679
O O16 0.500000 0.885069 0.791272
O O17 0.661642 0.832675 0.678759
O O18 0.500000 0.590349 0.431229
O O19 0.660137 0.660236 0.519357
#
# Coordination Sequence:
#
# PCOD8169985 Si02
#       8
#     4   4   4   4   4   4   4   4
#     4   9  17  35  63  93 119 149 199 259 309 364
#     4  11  24  38  58  92 124 166 212 252 309 375
#     4  10  20  37  64  95 121 149 205 273 317 360
#     4   9  19  37  64  91 120 157 199 256 319 373
#     4  10  19  36  63  95 121 147 202 272 318 355
#     4  11  25  42  60  86 129 173 208 252 318 386
#     4   9  18  35  62  92 119 153 200 256 313 366
#     4  11  24  40  61  88 125 170 208 252 312 383
#
# _framework density 20.334016999999999
#
# number of rings (size 3 to 8) (size 9 to 14) (size 15 to 20)
#    0.000    2.000    2.500    0.750    3.500    2.000 
#    0.000    0.000    0.000    0.000    0.000    0.000 
#    0.000    0.000    0.000    0.000    0.000    0.000 
#
# Total GULP energy -396639.040467 kJ/mol
# GULP energy per Si atom -12394.970015 kJ/mol
# Density = 2.028774 g / cm^3
# Si number density = 20.334017 Si / 1000 Ang^3
#
#
#
# Elastic Constant Matrix: (Units=GPa)
#
#
# Indices 1 2 3 4 5 6 
#
# 1 53.9580 59.2862 16.1538 0.0000 0.0000 0.0000
# 2 59.2862 93.1799 34.5853 0.0000 0.0000 0.0000
# 3 16.1538 34.5853 90.4716 0.0000 0.0000 0.0000
# 4 0.0000 0.0000 0.0000 23.9302 0.0000 0.0000
# 5 0.0000 0.0000 0.0000 0.0000 21.4151 0.0000
# 6 0.0000 0.0000 0.0000 0.0000 0.0000 23.4798
#
#
#
# Elastic Compliance Matrix: (Units=1/GPa)
#
#
# Indices 1 2 3 4 5 6 
#
# 1 0.063308 -0.042051 0.004771 0.000000 0.000000 0.000000
# 2 -0.042051 0.040438 -0.007950 0.000000 0.000000 0.000000
# 3 0.004771 -0.007950 0.013240 0.000000 0.000000 0.000000
# 4 0.000000 0.000000 0.000000 0.041788 0.000000 0.000000
# 5 0.000000 0.000000 0.000000 0.000000 0.046696 0.000000
# 6 0.000000 0.000000 0.000000 0.000000 0.000000 0.042590
#
#
# Mechanical properties :
#
#
# Convention : Reuss Voigt Hill
#
# Bulk Modulus (GPa) = 37.69795 50.85113 44.27454
# Shear Modulus (GPa) = 14.39424 22.27064 18.33244
#
# Velocity S-wave (km/s) = 2.66351 3.31303 3.00586
# Velocity P-wave (km/s) = 5.29515 6.30056 5.81961
#
# Compressibility (1/GPa) = 0.02652664
#
# Stress axis : x y z
#
# Youngs Moduli (GPa) = 15.79589 24.72934 75.52615
#
# Poissons Ratio (x) = 1.03989 -0.36037
# Poissons Ratio (y) = 0.66423 0.60045
# Poissons Ratio (z) = -0.07537 0.19660
#
# Static dielectric constant tensor:
#      x y z
#    x 3.827950 0.000000 0.000000 
#    y 0.000000 3.775530 0.000000 
#    z 0.000000 0.000000 3.569030 
# 
# 
# High freq. dielectric constant tensor:
#      x y z
#    x 1.793860 0.000000 0.000000 
#    y 0.000000 1.790870 0.000000 
#    z 0.000000 0.000000 1.782500 
# 
# From -- ./inp_files/4259.got.cif
#   From: 2010.03.12/outbox.cif.g09.slc.cpg/sg31_3_cif.got.tgz:4259.got - 2010.04.14 01:42:59.
