data_PCOD8169932
_publ_section_title
;
Structure prediction by ZEFSAII (Michael W. Deem and Ramdas Pophale) SiO2 
 PCOD8169932
Probable space group: P M N 21
;
_chemical_formula_sum "Si O2"
_cell_formula_units_Z 20
_cell_length_a 17.019509
_cell_length_b 12.046654
_cell_length_c 5.125852
_cell_angle_alpha 90.000000
_cell_angle_beta 90.000000
_cell_angle_gamma 90.000000
_cell_volume 1050.943882
_symmetry_space_group_name_H-M "P M N 21"
_symmetry_group_IT_number 31
_symmetry_cell_setting 'orthorhombic'
loop_
_space_group_symop_operation_xyz
x,y,z
1/2-x,-y,1/2+z
-x,y,z
1/2+x,-y,1/2+z
loop_
_atom_site_type_symbol
_atom_site_label
_atom_site_fract_x
_atom_site_fract_y
_atom_site_fract_z
Si Si1 0.645944 0.007669 0.420540
Si Si2 0.685463 0.883933 0.920817
Si Si3 0.239067 0.353995 0.365732
Si Si4 0.000000 0.687169 0.428356
Si Si5 0.000000 0.833816 0.928073
Si Si6 0.832243 0.591242 0.365900
O O1 0.636680 0.941709 0.690157
O O2 0.724332 0.079890 0.410336
O O3 0.575861 0.092178 0.381930
O O4 0.644724 0.917442 0.190431
O O5 0.682105 0.751429 0.891811
O O6 0.182509 0.460074 0.378705
O O7 0.302955 0.356339 0.595837
O O8 0.285852 0.346174 0.095139
O O9 0.924710 0.609366 0.390012
O O10 0.000000 0.734932 0.719718
O O11 0.000000 0.786721 0.220594
#
# Coordination Sequence:
#
# PCOD8169932 Si02
#       6
#     4   4   4   2   2   4
#     4  10  21  34  53  80 106 138 182 216 261 322
#     4  10  19  35  56  77 105 142 180 219 259 314
#     4  10  20  37  58  80 110 145 183 227 268 317
#     4  12  22  36  58  82 112 142 176 226 280 322
#     4  12  24  38  56  82 114 142 174 230 280 320
#     4  10  21  35  56  85 110 141 186 224 270 328
#
# _framework density 19.030511000000001
#
# number of rings (size 3 to 8) (size 9 to 14) (size 15 to 20)
#    0.000    1.600    0.000    6.000    0.000    3.200 
#    0.000    2.000    0.000    0.000    0.000    0.000 
#    0.000    0.000    0.000    0.000    0.000    0.000 
#
# Total GULP energy -248132.268975 kJ/mol
# GULP energy per Si atom -12406.613449 kJ/mol
# Density = 1.898720 g / cm^3
# Si number density = 19.030511 Si / 1000 Ang^3
#
#
#
# Elastic Constant Matrix: (Units=GPa)
#
#
# Indices 1 2 3 4 5 6 
#
# 1 92.7915 25.8690 13.1977 0.0000 0.0000 0.0000
# 2 25.8690 85.6127 14.9938 0.0000 0.0000 0.0000
# 3 13.1977 14.9938 80.9981 0.0000 0.0000 0.0000
# 4 0.0000 0.0000 0.0000 26.9307 0.0000 0.0000
# 5 0.0000 0.0000 0.0000 0.0000 20.1106 0.0000
# 6 0.0000 0.0000 0.0000 0.0000 0.0000 -427.6703
#
#
#
# Elastic Compliance Matrix: (Units=1/GPa)
#
#
# Indices 1 2 3 4 5 6 
#
# 1 0.011902 -0.003366 -0.001316 0.000000 0.000000 0.000000
# 2 -0.003366 0.013024 -0.001862 0.000000 0.000000 0.000000
# 3 -0.001316 -0.001862 0.012905 0.000000 0.000000 0.000000
# 4 0.000000 0.000000 0.000000 0.037132 0.000000 0.000000
# 5 0.000000 0.000000 0.000000 0.000000 0.049725 0.000000
# 6 0.000000 0.000000 0.000000 0.000000 0.000000 -0.002338
#
#
# Mechanical properties :
#
#
# Convention : Reuss Voigt Hill
#
# Bulk Modulus (GPa) = 40.41697 40.83592 40.62645
# Shear Modulus (GPa) = 34.79782 -62.43634 -13.81926
#
# Velocity S-wave (km/s) = 4.28077 -5.73409 -2.69766
# Velocity P-wave (km/s) = 6.76146 4.72599 3.41924
#
# Compressibility (1/GPa) = 0.02474208
#
# Stress axis : x y z
#
# Youngs Moduli (GPa) = 84.01635 76.78285 77.48811
#
# Poissons Ratio (x) = 0.25845 0.10200
# Poissons Ratio (y) = 0.28279 0.14432
# Poissons Ratio (z) = 0.11059 0.14300
#
# Static dielectric constant tensor:
#      x y z
#    x 3.288600 0.000000 0.000000 
#    y 0.000000 3.486710 0.000000 
#    z 0.000000 0.000000 3.834400 
# 
# 
# High freq. dielectric constant tensor:
#      x y z
#    x 1.720530 0.000000 0.000000 
#    y 0.000000 1.743300 0.000000 
#    z 0.000000 0.000000 1.763650 
# 
# From -- ./inp_files/543.got.cif
#   From: 2010.03.12/outbox.cif.g09.slc.cpg/sg31_1_cif.got.tgz:543.got - 2010.04.14 01:42:59.
