data_PCOD8169107
_publ_section_title
;
Structure prediction by ZEFSAII (Michael W. Deem and Ramdas Pophale) SiO2 
 PCOD8169107
Probable space group: P C A 21
;
_chemical_formula_sum "Si O2"
_cell_formula_units_Z 32
_cell_length_a 15.351627
_cell_length_b 10.819590
_cell_length_c 7.753383
_cell_angle_alpha 90.000000
_cell_angle_beta 90.000000
_cell_angle_gamma 90.000000
_cell_volume 1287.823813
_symmetry_space_group_name_H-M "P C A 21"
_symmetry_group_IT_number 29
_symmetry_cell_setting 'orthorhombic'
loop_
_space_group_symop_operation_xyz
x,y,z
-x,-y,1/2+z
1/2-x,y,1/2+z
1/2+x,-y,z
loop_
_atom_site_type_symbol
_atom_site_label
_atom_site_fract_x
_atom_site_fract_y
_atom_site_fract_z
Si Si1 0.656651 0.407322 0.972390
Si Si2 0.326937 0.954916 0.714959
Si Si3 0.787986 0.278178 0.158159
Si Si4 0.509398 0.967984 0.654686
Si Si5 0.014143 0.283125 0.475880
Si Si6 0.824533 0.912576 0.376281
Si Si7 0.113236 0.339916 0.805111
Si Si8 0.481221 0.754352 0.082842
O O1 0.684262 0.289418 0.855421
O O2 0.564175 0.368124 0.050801
O O3 0.654274 0.530533 0.858777
O O4 0.734441 0.404983 0.112199
O O5 0.276846 0.837338 0.637749
O O6 0.426513 0.929345 0.780610
O O7 0.269625 0.024344 0.855552
O O8 0.349222 0.055677 0.569114
O O9 0.877564 0.265552 0.050524
O O10 0.505242 0.864522 0.502580
O O11 0.601832 0.966391 0.749619
O O12 0.497349 0.101678 0.570863
O O13 0.017663 0.303099 0.266982
O O14 0.092569 0.334205 0.598575
O O15 0.815532 0.765524 0.348309
O O16 0.028205 0.312721 0.922857
#
# Coordination Sequence:
#
# PCOD8169107 Si02
#       8
#     4   4   4   4   4   4   4   4
#     4  11  26  48  70 105 148 199 261 308 379 465
#     4  12  23  43  73 104 154 188 245 319 386 460
#     4  11  25  45  72 110 145 197 253 318 381 454
#     4  11  22  44  74 114 153 191 249 317 392 467
#     4  10  25  44  73 110 147 195 256 314 372 457
#     4  11  26  43  68 112 148 193 247 309 394 460
#     4  11  27  49  73 107 151 203 263 308 387 456
#     4  11  24  46  79 110 150 200 254 319 395 467
#
# _framework density 24.848119000000001
#
# number of rings (size 3 to 8) (size 9 to 14) (size 15 to 20)
#    0.000    1.000    3.750    1.500    7.000    6.000 
#    2.250    0.000    0.000    0.000    0.000    0.000 
#    0.000    0.000    0.000    0.000    0.000    0.000 
#
# Total GULP energy -396468.544534 kJ/mol
# GULP energy per Si atom -12389.642017 kJ/mol
# Density = 2.479156 g / cm^3
# Si number density = 24.848119 Si / 1000 Ang^3
#
#
#
# Elastic Constant Matrix: (Units=GPa)
#
#
# Indices 1 2 3 4 5 6 
#
# 1 70.5434 17.5856 -0.3918 0.0000 0.0000 0.0000
# 2 17.5856 100.8740 14.9289 0.0000 0.0000 0.0000
# 3 -0.3918 14.9289 52.5661 0.0000 0.0000 0.0000
# 4 0.0000 0.0000 0.0000 32.1077 0.0000 0.0000
# 5 0.0000 0.0000 0.0000 0.0000 32.9786 0.0000
# 6 0.0000 0.0000 0.0000 0.0000 0.0000 34.9743
#
#
#
# Elastic Compliance Matrix: (Units=1/GPa)
#
#
# Indices 1 2 3 4 5 6 
#
# 1 0.014859 -0.002721 0.000884 0.000000 0.000000 0.000000
# 2 -0.002721 0.010847 -0.003101 0.000000 0.000000 0.000000
# 3 0.000884 -0.003101 0.019911 0.000000 0.000000 0.000000
# 4 0.000000 0.000000 0.000000 0.031145 0.000000 0.000000
# 5 0.000000 0.000000 0.000000 0.000000 0.030323 0.000000
# 6 0.000000 0.000000 0.000000 0.000000 0.000000 0.028592
#
#
# Mechanical properties :
#
#
# Convention : Reuss Voigt Hill
#
# Bulk Modulus (GPa) = 27.98005 32.02545 30.00275
# Shear Modulus (GPa) = 31.75273 32.80282 32.27777
#
# Velocity S-wave (km/s) = 3.57861 3.63730 3.60808
# Velocity P-wave (km/s) = 5.32543 5.52779 5.42755
#
# Compressibility (1/GPa) = 0.03573975
#
# Stress axis : x y z
#
# Youngs Moduli (GPa) = 67.29957 92.19447 50.22377
#
# Poissons Ratio (x) = 0.25088 -0.04438
# Poissons Ratio (y) = 0.18313 0.15573
# Poissons Ratio (z) = -0.05946 0.28587
#
# Static dielectric constant tensor:
#      x y z
#    x 5.029880 0.000000 0.000000 
#    y 0.000000 4.391280 0.000000 
#    z 0.000000 0.000000 4.304180 
# 
# 
# High freq. dielectric constant tensor:
#      x y z
#    x 1.995950 0.000000 0.000000 
#    y 0.000000 1.976320 0.000000 
#    z 0.000000 0.000000 1.987670 
# 
# From -- ./inp_files/1881.got.cif
#   From: 2010.03.12/outbox.cif.g09.slc.cpg/sg29_1_cif.got.tgz:1881.got - 2010.04.14 03:43:10.
