data_PCOD8169615
_publ_section_title
;
Structure prediction by ZEFSAII (Michael W. Deem and Ramdas Pophale) SiO2 
 PCOD8169615
Probable space group: P N C 2
;
_chemical_formula_sum "Si O2"
_cell_formula_units_Z 22
_cell_length_a 11.196504
_cell_length_b 7.082775
_cell_length_c 12.852504
_cell_angle_alpha 90.000000
_cell_angle_beta 90.000000
_cell_angle_gamma 90.000000
_cell_volume 1019.233367
_symmetry_space_group_name_H-M "P N C 2"
_symmetry_group_IT_number 30
_symmetry_cell_setting 'orthorhombic'
loop_
_space_group_symop_operation_xyz
x,y,z
-x,-y,z
-x,1/2+y,1/2+z
x,1/2-y,1/2+z
loop_
_atom_site_type_symbol
_atom_site_label
_atom_site_fract_x
_atom_site_fract_y
_atom_site_fract_z
Si Si1 0.500000 0.500000 0.861390
Si Si2 0.807502 0.967846 0.632703
Si Si3 0.420538 0.685504 0.204386
Si Si4 0.000000 0.000000 0.463771
Si Si5 0.911573 0.843616 0.842633
Si Si6 0.684242 0.737345 0.469030
Si Si7 0.500000 0.000000 0.051272
O O1 0.566930 0.332834 0.799008
O O2 0.394035 0.413026 0.929472
O O3 0.895058 0.876789 0.719007
O O4 0.735193 0.794464 0.581976
O O5 0.887507 0.052452 0.538022
O O6 0.717647 0.125085 0.681834
O O7 0.500000 0.500000 0.224490
O O8 0.473882 0.803680 0.109150
O O9 0.976886 0.843145 0.378033
O O10 0.779779 0.837029 0.887857
O O11 0.000000 0.000000 0.889422
O O12 0.611829 0.543897 0.479166
#
# Coordination Sequence:
#
# PCOD8169615 Si02
#       7
#     2   4   4   2   4   4   2
#     4  11  26  44  69 114 146 190 237 298 369 448
#     4  11  23  48  70 101 143 186 244 298 351 443
#     4  11  23  43  71 103 148 190 235 291 372 444
#     4  10  26  50  70 102 144 186 246 308 360 424
#     4  11  26  48  72 103 140 193 247 301 364 434
#     4  11  25  44  72 107 143 184 245 298 370 444
#     4  11  24  42  69 106 142 188 229 302 373 442
#
# _framework density 21.584851
#
# number of rings (size 3 to 8) (size 9 to 14) (size 15 to 20)
#    0.000    1.091    2.727    2.182    8.909    2.909 
#    6.545    0.000    0.000    0.000    0.000    0.000 
#    0.000    0.000    0.000    0.000    0.000    0.000 
#
# Total GULP energy -272580.340858 kJ/mol
# GULP energy per Si atom -12390.015494 kJ/mol
# Density = 2.153572 g / cm^3
# Si number density = 21.584851 Si / 1000 Ang^3
#
#
#
# Elastic Constant Matrix: (Units=GPa)
#
#
# Indices 1 2 3 4 5 6 
#
# 1 129.3223 58.8676 47.2595 0.0000 0.0000 0.0000
# 2 58.8676 92.1064 63.0017 0.0000 0.0000 0.0000
# 3 47.2595 63.0017 100.4143 0.0000 0.0000 0.0000
# 4 0.0000 0.0000 0.0000 10.8731 0.0000 0.0000
# 5 0.0000 0.0000 0.0000 0.0000 53.0549 0.0000
# 6 0.0000 0.0000 0.0000 0.0000 0.0000 49.9711
#
#
#
# Elastic Compliance Matrix: (Units=1/GPa)
#
#
# Indices 1 2 3 4 5 6 
#
# 1 0.011008 -0.006117 -0.001343 0.000000 0.000000 0.000000
# 2 -0.006117 0.022418 -0.011187 0.000000 0.000000 0.000000
# 3 -0.001343 -0.011187 0.017610 0.000000 0.000000 0.000000
# 4 0.000000 0.000000 0.000000 0.091970 0.000000 0.000000
# 5 0.000000 0.000000 0.000000 0.000000 0.018848 0.000000
# 6 0.000000 0.000000 0.000000 0.000000 0.000000 0.020012
#
#
# Mechanical properties :
#
#
# Convention : Reuss Voigt Hill
#
# Bulk Modulus (GPa) = 72.76662 73.34452 73.05557
# Shear Modulus (GPa) = 22.34741 32.96077 27.65409
#
# Velocity S-wave (km/s) = 3.22114 3.91197 3.58324
# Velocity P-wave (km/s) = 6.90068 7.37957 7.14414
#
# Compressibility (1/GPa) = 0.01374256
#
# Stress axis : x y z
#
# Youngs Moduli (GPa) = 90.84520 44.60657 56.78715
#
# Poissons Ratio (x) = 0.27284 0.07627
# Poissons Ratio (y) = 0.55567 0.63527
# Poissons Ratio (z) = 0.12201 0.49900
#
# Static dielectric constant tensor:
#      x y z
#    x 4.108490 0.000000 0.000000 
#    y 0.000000 3.874610 0.000000 
#    z 0.000000 0.000000 3.940850 
# 
# 
# High freq. dielectric constant tensor:
#      x y z
#    x 1.864350 0.000000 0.000000 
#    y 0.000000 1.845140 0.000000 
#    z 0.000000 0.000000 1.854860 
# 
# From -- ./inp_files/5406.got.cif
#   From: 2010.03.12/outbox.cif.g09.slc.cpg/sg30_3_cif.got.tgz:5406.got - 2010.04.14 01:38:02.
