data_PCOD8169869
_publ_section_title
;
Structure prediction by ZEFSAII (Michael W. Deem and Ramdas Pophale) SiO2 
 PCOD8169869
Probable space group: P M N 21
;
_chemical_formula_sum "Si O2"
_cell_formula_units_Z 32
_cell_length_a 8.964861
_cell_length_b 11.448679
_cell_length_c 16.491838
_cell_angle_alpha 90.000000
_cell_angle_beta 90.000000
_cell_angle_gamma 90.000000
_cell_volume 1692.653248
_symmetry_space_group_name_H-M "P M N 21"
_symmetry_group_IT_number 31
_symmetry_cell_setting 'orthorhombic'
loop_
_space_group_symop_operation_xyz
x,y,z
1/2-x,-y,1/2+z
-x,y,z
1/2+x,-y,1/2+z
loop_
_atom_site_type_symbol
_atom_site_label
_atom_site_fract_x
_atom_site_fract_y
_atom_site_fract_z
Si Si1 0.173249 0.314527 0.506660
Si Si2 0.328050 0.433814 0.040500
Si Si3 0.171709 0.091430 0.078854
Si Si4 0.327861 0.878452 0.129333
Si Si5 0.822834 0.727889 0.685924
Si Si6 0.166592 0.786740 0.445341
Si Si7 0.823442 0.195247 0.342625
Si Si8 0.330214 0.065513 0.791754
O O1 0.249970 0.442407 0.518823
O O2 0.198680 0.249809 0.592378
O O3 0.237938 0.241873 0.429638
O O4 0.000000 0.331415 0.487709
O O5 0.500000 0.457686 0.058959
O O6 0.263889 0.372315 0.122905
O O7 0.306825 0.351053 0.961289
O O8 0.269161 0.148209 0.150563
O O9 0.204026 0.146477 0.992301
O O10 0.000000 0.103957 0.101704
O O11 0.224076 0.958618 0.073162
O O12 0.500000 0.914845 0.121059
O O13 0.278351 0.890412 0.221836
O O14 0.750175 0.719595 0.774936
O O15 0.000000 0.725911 0.693641
O O16 0.179477 0.825521 0.353114
O O17 0.000000 0.818844 0.478941
O O18 0.000000 0.207490 0.336196
O O19 0.777887 0.058201 0.331023
O O20 0.500000 0.051744 0.759588
#
# Coordination Sequence:
#
# PCOD8169869 Si02
#       8
#     4   4   4   4   4   4   4   4
#     4   9  19  36  56  79 108 147 190 226 270 325
#     4   8  16  34  57  78 104 142 187 225 261 321
#     4  11  20  32  53  80 110 140 175 224 278 323
#     4  11  21  34  54  78 108 147 184 222 271 332
#     4  10  19  33  56  82 108 143 183 223 270 327
#     4   9  18  34  57  81 106 142 182 220 269 325
#     4  10  19  33  55  80 109 143 181 230 279 325
#     4  10  20  34  52  80 115 144 176 226 278 328
#
# _framework density 18.905231000000001
#
# number of rings (size 3 to 8) (size 9 to 14) (size 15 to 20)
#    0.000    2.250    1.250    3.375    0.000    2.500 
#    2.250    2.500    0.000   10.500    0.000    0.000 
#    0.000    0.000    0.000    0.000    0.000    0.000 
#
# Total GULP energy -396531.870792 kJ/mol
# GULP energy per Si atom -12391.620962 kJ/mol
# Density = 1.886220 g / cm^3
# Si number density = 18.905231 Si / 1000 Ang^3
#
#
#
# Elastic Constant Matrix: (Units=GPa)
#
#
# Indices 1 2 3 4 5 6 
#
# 1 49.0638 29.6177 34.8401 0.0000 0.0000 0.0000
# 2 29.6177 130.3215 68.2316 0.0000 0.0000 0.0000
# 3 34.8401 68.2316 107.4966 0.0000 0.0000 0.0000
# 4 0.0000 0.0000 0.0000 25.6213 0.0000 0.0000
# 5 0.0000 0.0000 0.0000 0.0000 28.0947 0.0000
# 6 0.0000 0.0000 0.0000 0.0000 0.0000 13.5997
#
#
#
# Elastic Compliance Matrix: (Units=1/GPa)
#
#
# Indices 1 2 3 4 5 6 
#
# 1 0.026936 -0.002323 -0.007256 0.000000 0.000000 0.000000
# 2 -0.002323 0.011693 -0.006669 0.000000 0.000000 0.000000
# 3 -0.007256 -0.006669 0.015887 0.000000 0.000000 0.000000
# 4 0.000000 0.000000 0.000000 0.039030 0.000000 0.000000
# 5 0.000000 0.000000 0.000000 0.000000 0.035594 0.000000
# 6 0.000000 0.000000 0.000000 0.000000 0.000000 0.073531
#
#
# Mechanical properties :
#
#
# Convention : Reuss Voigt Hill
#
# Bulk Modulus (GPa) = 45.41099 61.36230 53.38664
# Shear Modulus (GPa) = 20.61798 23.74265 22.18031
#
# Velocity S-wave (km/s) = 3.30600 3.54768 3.42897
# Velocity P-wave (km/s) = 6.21654 7.02209 6.63155
#
# Compressibility (1/GPa) = 0.02202110
#
# Stress axis : x y z
#
# Youngs Moduli (GPa) = 37.12495 85.52208 62.94344
#
# Poissons Ratio (x) = 0.19865 0.45670
# Poissons Ratio (y) = 0.08623 0.41977
# Poissons Ratio (z) = 0.26937 0.57035
#
# Static dielectric constant tensor:
#      x y z
#    x 3.251220 0.000000 0.000000 
#    y 0.000000 3.654970 0.000000 
#    z 0.000000 0.000000 3.500220 
# 
# 
# High freq. dielectric constant tensor:
#      x y z
#    x 1.706070 0.000000 0.000000 
#    y 0.000000 1.726950 0.000000 
#    z 0.000000 0.000000 1.733470 
# 
# From -- ./inp_files/5912.got.cif
#   From: 2010.03.12/outbox.cif.g09.slc.cpg/sg31_3_cif.got.tgz:5912.got - 2010.04.14 01:42:59.
