data_PCOD8169774
_publ_section_title
;
Structure prediction by ZEFSAII (Michael W. Deem and Ramdas Pophale) SiO2 
 PCOD8169774
Probable space group: P M N 21
;
_chemical_formula_sum "Si O2"
_cell_formula_units_Z 24
_cell_length_a 9.421684
_cell_length_b 9.080136
_cell_length_c 16.676471
_cell_angle_alpha 90.000000
_cell_angle_beta 90.000000
_cell_angle_gamma 90.000000
_cell_volume 1426.674964
_symmetry_space_group_name_H-M "P M N 21"
_symmetry_group_IT_number 31
_symmetry_cell_setting 'orthorhombic'
loop_
_space_group_symop_operation_xyz
x,y,z
1/2-x,-y,1/2+z
-x,y,z
1/2+x,-y,1/2+z
loop_
_atom_site_type_symbol
_atom_site_label
_atom_site_fract_x
_atom_site_fract_y
_atom_site_fract_z
Si Si1 0.834957 0.650290 0.538420
Si Si2 0.655145 0.418210 0.461672
Si Si3 0.157931 0.392107 0.802503
Si Si4 0.667840 0.139822 0.363687
Si Si5 0.167679 0.672099 0.715963
Si Si6 0.167661 0.841253 0.385123
O O1 0.762809 0.491565 0.524232
O O2 0.786497 0.712979 0.625312
O O3 0.795113 0.770088 0.471408
O O4 0.000000 0.615762 0.538113
O O5 0.500000 0.410777 0.502446
O O6 0.646220 0.518749 0.384032
O O7 0.702820 0.255233 0.434760
O O8 0.221291 0.505984 0.736554
O O9 0.266177 0.256368 0.813219
O O10 0.000000 0.332792 0.779080
O O11 0.500000 0.102601 0.360977
O O12 0.723817 0.205111 0.278388
O O13 0.759766 0.998640 0.383986
O O14 0.000000 0.667037 0.727677
O O15 0.000000 0.854841 0.371463
#
# Coordination Sequence:
#
# PCOD8169774 Si02
#       6
#     4   4   4   4   4   4
#     4   9  17  30  48  69  92 116 146 189 234 270
#     4   8  15  28  46  67  87 112 149 185 218 261
#     4   8  14  28  49  66  82 111 151 186 215 259
#     4   9  17  31  50  67  88 122 159 189 215 258
#     4   8  15  30  51  70  85 111 156 197 224 258
#     4  10  19  29  44  69  98 122 145 180 228 276
#
# _framework density 16.822330999999998
#
# number of rings (size 3 to 8) (size 9 to 14) (size 15 to 20)
#    0.000    3.333    0.000    2.500    0.000    1.333 
#    0.000    5.833    0.000    8.000    0.000    0.000 
#    0.000    0.000    0.000    0.000    0.000    0.000 
#
# Total GULP energy -297398.570790 kJ/mol
# GULP energy per Si atom -12391.607116 kJ/mol
# Density = 1.678404 g / cm^3
# Si number density = 16.822331 Si / 1000 Ang^3
#
#
#
# Elastic Constant Matrix: (Units=GPa)
#
#
# Indices 1 2 3 4 5 6 
#
# 1 68.6718 61.9564 36.3434 0.0000 0.0000 0.0000
# 2 61.9564 127.9837 45.1928 0.0000 0.0000 0.0000
# 3 36.3434 45.1928 84.8771 0.0000 0.0000 0.0000
# 4 0.0000 0.0000 0.0000 17.7797 0.0000 0.0000
# 5 0.0000 0.0000 0.0000 0.0000 17.0528 0.0000
# 6 0.0000 0.0000 0.0000 0.0000 0.0000 25.7021
#
#
#
# Elastic Compliance Matrix: (Units=1/GPa)
#
#
# Indices 1 2 3 4 5 6 
#
# 1 0.028056 -0.011502 -0.005889 0.000000 0.000000 0.000000
# 2 -0.011502 0.014338 -0.002709 0.000000 0.000000 0.000000
# 3 -0.005889 -0.002709 0.015746 0.000000 0.000000 0.000000
# 4 0.000000 0.000000 0.000000 0.056244 0.000000 0.000000
# 5 0.000000 0.000000 0.000000 0.000000 0.058641 0.000000
# 6 0.000000 0.000000 0.000000 0.000000 0.000000 0.038907
#
#
# Mechanical properties :
#
#
# Convention : Reuss Voigt Hill
#
# Bulk Modulus (GPa) = 55.74355 63.16865 59.45610
# Shear Modulus (GPa) = 19.37128 21.30960 20.34044
#
# Velocity S-wave (km/s) = 3.39709 3.56300 3.48103
# Velocity P-wave (km/s) = 6.97105 7.38638 7.18172
#
# Compressibility (1/GPa) = 0.01793930
#
# Stress axis : x y z
#
# Youngs Moduli (GPa) = 35.64265 69.74235 63.50874
#
# Poissons Ratio (x) = 0.80221 0.37400
# Poissons Ratio (y) = 0.40998 0.17206
# Poissons Ratio (z) = 0.20990 0.18895
#
# Static dielectric constant tensor:
#      x y z
#    x 3.242470 0.000000 0.000000 
#    y 0.000000 3.173170 0.000000 
#    z 0.000000 0.000000 3.280350 
# 
# 
# High freq. dielectric constant tensor:
#      x y z
#    x 1.632840 0.000000 0.000000 
#    y 0.000000 1.640810 0.000000 
#    z 0.000000 0.000000 1.630110 
# 
# From -- ./inp_files/4740.got.cif
#   From: 2010.03.12/outbox.cif.g09.slc.cpg/sg31_3_cif.got.tgz:4740.got - 2010.04.14 01:42:59.
