data_PCOD8169550
_publ_section_title
;
Structure prediction by ZEFSAII (Michael W. Deem and Ramdas Pophale) SiO2 
 PCOD8169550
Probable space group: P N C 2
;
_chemical_formula_sum "Si O2"
_cell_formula_units_Z 28
_cell_length_a 10.649122
_cell_length_b 13.850452
_cell_length_c 9.488143
_cell_angle_alpha 90.000000
_cell_angle_beta 90.000000
_cell_angle_gamma 90.000000
_cell_volume 1399.455104
_symmetry_space_group_name_H-M "P N C 2"
_symmetry_group_IT_number 30
_symmetry_cell_setting 'orthorhombic'
loop_
_space_group_symop_operation_xyz
x,y,z
-x,-y,z
-x,1/2+y,1/2+z
x,1/2-y,1/2+z
loop_
_atom_site_type_symbol
_atom_site_label
_atom_site_fract_x
_atom_site_fract_y
_atom_site_fract_z
Si Si1 0.620400 0.138046 0.371210
Si Si2 0.341990 0.426160 0.942062
Si Si3 0.000000 0.500000 0.948756
Si Si4 0.000000 0.500000 0.397931
Si Si5 0.267585 0.773879 0.642038
Si Si6 0.795034 0.482181 0.175867
Si Si7 0.114797 0.177980 0.324009
Si Si8 0.005492 0.691437 0.548288
O O1 0.477098 0.118592 0.414506
O O2 0.675211 0.209379 0.488510
O O3 0.646189 0.195488 0.225339
O O4 0.680592 0.030379 0.365185
O O5 0.254565 0.343179 0.876825
O O6 0.311446 0.444265 0.111054
O O7 0.031246 0.415634 0.843665
O O8 0.113965 0.536910 0.044015
O O9 0.876916 0.527646 0.303002
O O10 0.960035 0.415670 0.502030
O O11 0.263377 0.878462 0.721800
O O12 0.126342 0.736581 0.623796
O O13 0.044491 0.261185 0.407231
O O14 0.110253 0.201305 0.158187
#
# Coordination Sequence:
#
# PCOD8169550 Si02
#       8
#     4   4   2   2   4   4   4   4
#     4  10  22  41  65  87 120 166 220 251 304 375
#     4   9  22  41  64  86 120 172 213 250 315 376
#     4   9  17  34  58  84 120 162 190 240 326 364
#     4  11  23  36  56  96 130 160 196 266 320 376
#     4  11  21  38  63  90 119 161 206 259 299 384
#     4   9  18  36  61  87 122 158 203 252 308 374
#     4  11  23  38  59  90 127 161 198 263 312 384
#     4  12  25  36  60  96 129 158 209 251 333 376
#
# _framework density 20.007787
#
# number of rings (size 3 to 8) (size 9 to 14) (size 15 to 20)
#    0.000    1.714    1.429    3.000   10.000    1.143 
#    0.000    0.000    0.000    1.714    0.000    0.000 
#    0.000    0.000    0.000    0.000    0.000    0.000 
#
# Total GULP energy -346919.580806 kJ/mol
# GULP energy per Si atom -12389.985029 kJ/mol
# Density = 1.996225 g / cm^3
# Si number density = 20.007787 Si / 1000 Ang^3
#
#
#
# Elastic Constant Matrix: (Units=GPa)
#
#
# Indices 1 2 3 4 5 6 
#
# 1 87.3585 34.3993 26.1473 0.0000 0.0000 0.0000
# 2 34.3993 71.2275 22.2775 0.0000 0.0000 0.0000
# 3 26.1473 22.2775 78.1993 0.0000 0.0000 0.0000
# 4 0.0000 0.0000 0.0000 24.9155 0.0000 0.0000
# 5 0.0000 0.0000 0.0000 0.0000 -7.7518 0.0000
# 6 0.0000 0.0000 0.0000 0.0000 0.0000 33.3290
#
#
#
# Elastic Compliance Matrix: (Units=1/GPa)
#
#
# Indices 1 2 3 4 5 6 
#
# 1 0.014832 -0.006161 -0.003204 0.000000 0.000000 0.000000
# 2 -0.006161 0.017972 -0.003060 0.000000 0.000000 0.000000
# 3 -0.003204 -0.003060 0.014731 0.000000 0.000000 0.000000
# 4 0.000000 0.000000 0.000000 0.040136 0.000000 0.000000
# 5 0.000000 0.000000 0.000000 0.000000 -0.129002 0.000000
# 6 0.000000 0.000000 0.000000 0.000000 0.000000 0.030004
#
#
# Mechanical properties :
#
#
# Convention : Reuss Voigt Hill
#
# Bulk Modulus (GPa) = 44.08221 44.71486 44.39853
# Shear Modulus (GPa) = 237.13952 20.36262 128.75107
#
# Velocity S-wave (km/s) = 10.89867 3.19366 8.03058
# Velocity P-wave (km/s) = 13.43335 5.99971 10.40316
#
# Compressibility (1/GPa) = 0.02268489
#
# Stress axis : x y z
#
# Youngs Moduli (GPa) = 67.42092 55.64212 67.88442
#
# Poissons Ratio (x) = 0.34281 0.21752
# Poissons Ratio (y) = 0.41538 0.20772
# Poissons Ratio (z) = 0.21603 0.17026
#
# Static dielectric constant tensor:
#      x y z
#    x 3.730790 0.000000 0.000000 
#    y 0.000000 4.085250 0.000000 
#    z 0.000000 0.000000 3.656930 
# 
# 
# High freq. dielectric constant tensor:
#      x y z
#    x 1.769880 0.000000 0.000000 
#    y 0.000000 1.786090 0.000000 
#    z 0.000000 0.000000 1.767980 
# 
# From -- ./inp_files/2437.got.cif
#   From: 2010.03.12/outbox.cif.g09.slc.cpg/sg30_2_cif.got.tgz:2437.got - 2010.04.14 01:38:02.
