data_PCOD8169671
_publ_section_title
;
Structure prediction by ZEFSAII (Michael W. Deem and Ramdas Pophale) SiO2 
 PCOD8169671
Probable space group: P M N 21
;
_chemical_formula_sum "Si O2"
_cell_formula_units_Z 32
_cell_length_a 22.323559
_cell_length_b 8.928637
_cell_length_c 8.979111
_cell_angle_alpha 90.000000
_cell_angle_beta 90.000000
_cell_angle_gamma 90.000000
_cell_volume 1789.707020
_symmetry_space_group_name_H-M "P M N 21"
_symmetry_group_IT_number 31
_symmetry_cell_setting 'orthorhombic'
loop_
_space_group_symop_operation_xyz
x,y,z
1/2-x,-y,1/2+z
-x,y,z
1/2+x,-y,1/2+z
loop_
_atom_site_type_symbol
_atom_site_label
_atom_site_fract_x
_atom_site_fract_y
_atom_site_fract_z
Si Si1 0.659040 0.724082 0.154910
Si Si2 0.069491 0.274342 0.073969
Si Si3 0.342535 0.946885 0.408902
Si Si4 0.247945 0.212863 0.082734
Si Si5 0.257618 0.534797 0.349008
Si Si6 0.431850 0.516585 0.300996
Si Si7 0.339064 0.684343 0.816890
Si Si8 0.842697 0.734043 0.801880
O O1 0.656704 0.881907 0.241159
O O2 0.717192 0.628350 0.207960
O O3 0.599940 0.627850 0.186976
O O4 0.658092 0.756506 0.980278
O O5 0.096293 0.318823 0.235550
O O6 0.000000 0.228311 0.091486
O O7 0.106072 0.134192 0.005787
O O8 0.076727 0.419199 0.968001
O O9 0.275297 0.920921 0.476832
O O10 0.353760 0.124099 0.408797
O O11 0.205428 0.208301 0.226567
O O12 0.316311 0.204674 0.142248
O O13 0.236939 0.369748 0.998823
O O14 0.188736 0.484742 0.322967
O O15 0.296557 0.384370 0.373998
O O16 0.500000 0.507784 0.252343
O O17 0.405933 0.348974 0.283773
#
# Coordination Sequence:
#
# PCOD8169671 Si02
#       8
#     4   4   4   4   4   4   4   4
#     4   9  18  30  48  72  98 128 160 199 246 296
#     4   9  19  35  52  70  97 132 168 206 246 291
#     4   9  19  34  49  71 102 132 165 199 241 297
#     4   9  19  33  47  70 104 132 157 195 245 302
#     4   9  17  31  48  70 100 130 158 193 243 298
#     4   9  18  33  50  70  95 125 165 207 245 291
#     4  10  16  27  50  74  93 124 165 200 237 287
#     4  10  18  29  52  77  95 125 168 205 239 282
#
# _framework density 17.880022
#
# number of rings (size 3 to 8) (size 9 to 14) (size 15 to 20)
#    0.000    2.750    0.000    4.500    0.000    4.000 
#    0.000    1.250    0.000   12.000    0.000    0.000 
#    0.000    0.000    0.000    0.000    0.000    0.000 
#
# Total GULP energy -396541.076831 kJ/mol
# GULP energy per Si atom -12391.908651 kJ/mol
# Density = 1.783933 g / cm^3
# Si number density = 17.880022 Si / 1000 Ang^3
#
#
#
# Elastic Constant Matrix: (Units=GPa)
#
#
# Indices 1 2 3 4 5 6 
#
# 1 70.0949 19.2429 30.9928 0.0000 0.0000 0.0000
# 2 19.2429 90.0588 22.0055 0.0000 0.0000 0.0000
# 3 30.9928 22.0055 110.2173 0.0000 0.0000 0.0000
# 4 0.0000 0.0000 0.0000 13.4821 0.0000 0.0000
# 5 0.0000 0.0000 0.0000 0.0000 23.9172 0.0000
# 6 0.0000 0.0000 0.0000 0.0000 0.0000 11.0619
#
#
#
# Elastic Compliance Matrix: (Units=1/GPa)
#
#
# Indices 1 2 3 4 5 6 
#
# 1 0.016838 -0.002566 -0.004222 0.000000 0.000000 0.000000
# 2 -0.002566 0.012064 -0.001687 0.000000 0.000000 0.000000
# 3 -0.004222 -0.001687 0.010597 0.000000 0.000000 0.000000
# 4 0.000000 0.000000 0.000000 0.074172 0.000000 0.000000
# 5 0.000000 0.000000 0.000000 0.000000 0.041811 0.000000
# 6 0.000000 0.000000 0.000000 0.000000 0.000000 0.090401
#
#
# Mechanical properties :
#
#
# Convention : Reuss Voigt Hill
#
# Bulk Modulus (GPa) = 44.34954 46.09483 45.22219
# Shear Modulus (GPa) = 18.49452 22.90089 20.69771
#
# Velocity S-wave (km/s) = 3.21965 3.58272 3.40603
# Velocity P-wave (km/s) = 6.21927 6.55367 6.38866
#
# Compressibility (1/GPa) = 0.02254815
#
# Stress axis : x y z
#
# Youngs Moduli (GPa) = 59.39029 82.88860 94.36478
#
# Poissons Ratio (x) = 0.21269 0.39845
# Poissons Ratio (y) = 0.15240 0.15921
# Poissons Ratio (z) = 0.25077 0.13985
#
# Static dielectric constant tensor:
#      x y z
#    x 3.419850 0.000000 0.000000 
#    y 0.000000 3.111570 0.000000 
#    z 0.000000 0.000000 3.318690 
# 
# 
# High freq. dielectric constant tensor:
#      x y z
#    x 1.677000 0.000000 0.000000 
#    y 0.000000 1.674180 0.000000 
#    z 0.000000 0.000000 1.686350 
# 
# From -- ./inp_files/3099.got.cif
#   From: 2010.03.12/outbox.cif.g09.slc.cpg/sg31_2_cif.got.tgz:3099.got - 2010.04.14 01:42:59.
