data_PCOD8169328
_publ_section_title
;
Structure prediction by ZEFSAII (Michael W. Deem and Ramdas Pophale) SiO2 
 PCOD8169328
Probable space group: P C A 21
;
_chemical_formula_sum "Si O2"
_cell_formula_units_Z 32
_cell_length_a 9.452540
_cell_length_b 10.577340
_cell_length_c 12.199055
_cell_angle_alpha 90.000000
_cell_angle_beta 90.000000
_cell_angle_gamma 90.000000
_cell_volume 1219.694816
_symmetry_space_group_name_H-M "P C A 21"
_symmetry_group_IT_number 29
_symmetry_cell_setting 'orthorhombic'
loop_
_space_group_symop_operation_xyz
x,y,z
-x,-y,1/2+z
1/2-x,y,1/2+z
1/2+x,-y,z
loop_
_atom_site_type_symbol
_atom_site_label
_atom_site_fract_x
_atom_site_fract_y
_atom_site_fract_z
Si Si1 0.702517 0.042748 0.073200
Si Si2 0.523280 0.278660 0.053837
Si Si3 0.465321 0.911580 0.200831
Si Si4 0.845227 0.700047 0.265640
Si Si5 0.120486 0.640013 0.643156
Si Si6 0.158119 0.114498 0.393229
Si Si7 0.510241 0.460322 0.437248
Si Si8 0.865163 0.507609 0.725476
O O1 0.566763 0.958694 0.102489
O O2 0.664723 0.190878 0.052654
O O3 0.770787 0.998792 0.959592
O O4 0.812444 0.027835 0.174796
O O5 0.473116 0.272719 0.181651
O O6 0.712642 0.384451 0.170810
O O7 0.402584 0.218255 0.977056
O O8 0.554670 0.420318 0.005972
O O9 0.443822 0.761221 0.201364
O O10 0.529812 0.945051 0.319807
O O11 0.777083 0.827712 0.313041
O O12 0.891748 0.613303 0.368299
O O13 0.724103 0.630986 0.192311
O O14 0.087433 0.642021 0.514822
O O15 0.030010 0.519157 0.689930
O O16 0.636592 0.502552 0.357010
#
# Coordination Sequence:
#
# PCOD8169328 Si02
#       8
#     4   4   4   4   4   4   4   4
#     4  12  30  53  84 122 161 218 282 347 405 488
#     4  12  27  52  80 120 165 216 279 340 405 507
#     4  12  29  53  81 120 163 211 282 343 402 491
#     4  12  26  48  82 117 165 215 268 337 418 495
#     4  12  28  48  78 116 162 208 266 339 401 494
#     4  12  27  54  85 114 162 225 270 341 420 484
#     4  12  26  46  80 119 163 214 264 330 419 489
#     4  12  25  46  72 120 159 205 267 323 408 490
#
# _framework density 26.236069000000001
#
# number of rings (size 3 to 8) (size 9 to 14) (size 15 to 20)
#    0.000    0.000    6.250    1.500    8.750    0.000 
#    2.250    0.000    0.000    0.000    0.000    0.000 
#    0.000    0.000    0.000    0.000    0.000    0.000 
#
# Total GULP energy -396743.021877 kJ/mol
# GULP energy per Si atom -12398.219434 kJ/mol
# Density = 2.617635 g / cm^3
# Si number density = 26.236069 Si / 1000 Ang^3
#
#
#
# Elastic Constant Matrix: (Units=GPa)
#
#
# Indices 1 2 3 4 5 6 
#
# 1 123.8439 27.6957 25.6109 0.0000 0.0000 0.0000
# 2 27.6957 98.7923 31.7188 0.0000 0.0000 0.0000
# 3 25.6109 31.7188 118.7680 0.0000 0.0000 0.0000
# 4 0.0000 0.0000 0.0000 48.9060 0.0000 0.0000
# 5 0.0000 0.0000 0.0000 0.0000 49.6398 0.0000
# 6 0.0000 0.0000 0.0000 0.0000 0.0000 38.8889
#
#
#
# Elastic Compliance Matrix: (Units=1/GPa)
#
#
# Indices 1 2 3 4 5 6 
#
# 1 0.008810 -0.002034 -0.001357 0.000000 0.000000 0.000000
# 2 -0.002034 0.011541 -0.002644 0.000000 0.000000 0.000000
# 3 -0.001357 -0.002644 0.009418 0.000000 0.000000 0.000000
# 4 0.000000 0.000000 0.000000 0.020447 0.000000 0.000000
# 5 0.000000 0.000000 0.000000 0.000000 0.020145 0.000000
# 6 0.000000 0.000000 0.000000 0.000000 0.000000 0.025714
#
#
# Mechanical properties :
#
#
# Convention : Reuss Voigt Hill
#
# Bulk Modulus (GPa) = 56.49432 56.82833 56.66133
# Shear Modulus (GPa) = 43.84204 44.57885 44.21044
#
# Velocity S-wave (km/s) = 4.09229 4.12654 4.10945
# Velocity P-wave (km/s) = 6.62639 6.66422 6.64533
#
# Compressibility (1/GPa) = 0.01770089
#
# Stress axis : x y z
#
# Youngs Moduli (GPa) = 113.50541 86.64518 106.17622
#
# Poissons Ratio (x) = 0.17627 0.14403
# Poissons Ratio (y) = 0.23091 0.28069
# Poissons Ratio (z) = 0.15397 0.22906
#
# Static dielectric constant tensor:
#      x y z
#    x 4.822420 0.000000 0.000000 
#    y 0.000000 4.662050 0.000000 
#    z 0.000000 0.000000 4.859530 
# 
# 
# High freq. dielectric constant tensor:
#      x y z
#    x 2.068410 0.000000 0.000000 
#    y 0.000000 2.051770 0.000000 
#    z 0.000000 0.000000 2.058350 
# 
# From -- ./inp_files/3245.got.cif
#   From: 2010.03.12/outbox.cif.g09.slc.cpg/sg29_2_cif.got.tgz:3245.got - 2010.04.14 03:43:10.
