data_PCOD8169426
_publ_section_title
;
Structure prediction by ZEFSAII (Michael W. Deem and Ramdas Pophale) SiO2 
 PCOD8169426
Probable space group: P N C 2
;
_chemical_formula_sum "Si O2"
_cell_formula_units_Z 22
_cell_length_a 4.884950
_cell_length_b 15.167278
_cell_length_c 12.434540
_cell_angle_alpha 90.000000
_cell_angle_beta 90.000000
_cell_angle_gamma 90.000000
_cell_volume 921.292411
_symmetry_space_group_name_H-M "P N C 2"
_symmetry_group_IT_number 30
_symmetry_cell_setting 'orthorhombic'
loop_
_space_group_symop_operation_xyz
x,y,z
-x,-y,z
-x,1/2+y,1/2+z
x,1/2-y,1/2+z
loop_
_atom_site_type_symbol
_atom_site_label
_atom_site_fract_x
_atom_site_fract_y
_atom_site_fract_z
Si Si1 0.072856 0.364364 0.326800
Si Si2 0.970901 0.313847 0.747501
Si Si3 0.697861 0.429649 0.500405
Si Si4 0.533259 0.775039 0.113303
Si Si5 0.000000 0.500000 0.698438
Si Si6 0.569467 0.404605 0.187844
O O1 0.043979 0.257334 0.340320
O O2 0.981713 0.414428 0.435660
O O3 0.880485 0.398307 0.228912
O O4 0.382457 0.387742 0.294580
O O5 0.653183 0.303797 0.715786
O O6 0.149103 0.290880 0.640663
O O7 0.053054 0.415450 0.776546
O O8 0.500000 0.500000 0.440523
O O9 0.543270 0.334570 0.509838
O O10 0.755461 0.469706 0.618921
O O11 0.486307 0.669737 0.096179
O O12 0.500000 0.500000 0.137427
#
# Coordination Sequence:
#
# PCOD8169426 Si02
#       6
#     4   4   4   4   2   4
#     4  10  22  32  51  81 115 137 177 234 294 329
#     4   9  18  35  49  76 106 147 179 222 270 351
#     4  11  21  32  53  85 114 139 184 247 294 327
#     4   9  19  34  50  76 106 140 183 222 272 334
#     4  10  20  32  56  78 108 146 192 224 280 340
#     4  10  20  35  53  75 109 149 183 218 278 350
#
# _framework density 23.879494999999999
#
# number of rings (size 3 to 8) (size 9 to 14) (size 15 to 20)
#    0.000    2.182    1.818    1.091    5.091    0.000 
#    0.000    0.000    0.000    0.000   37.818    0.000 
#    0.000    0.000    0.000    0.000    0.000    0.000 
#
# Total GULP energy -272588.107283 kJ/mol
# GULP energy per Si atom -12390.368513 kJ/mol
# Density = 2.382514 g / cm^3
# Si number density = 23.879495 Si / 1000 Ang^3
#
#
#
# Elastic Constant Matrix: (Units=GPa)
#
#
# Indices 1 2 3 4 5 6 
#
# 1 71.8204 4.5448 1.8266 0.0000 0.0000 0.0000
# 2 4.5448 233.9298 22.6658 0.0000 0.0000 0.0000
# 3 1.8266 22.6658 26.9604 0.0000 0.0000 0.0000
# 4 0.0000 0.0000 0.0000 24.0322 0.0000 0.0000
# 5 0.0000 0.0000 0.0000 0.0000 15.9760 0.0000
# 6 0.0000 0.0000 0.0000 0.0000 0.0000 32.4452
#
#
#
# Elastic Compliance Matrix: (Units=1/GPa)
#
#
# Indices 1 2 3 4 5 6 
#
# 1 0.013956 -0.000195 -0.000781 0.000000 0.000000 0.000000
# 2 -0.000195 0.004657 -0.003902 0.000000 0.000000 0.000000
# 3 -0.000781 -0.003902 0.040424 0.000000 0.000000 0.000000
# 4 0.000000 0.000000 0.000000 0.041611 0.000000 0.000000
# 5 0.000000 0.000000 0.000000 0.000000 0.062594 0.000000
# 6 0.000000 0.000000 0.000000 0.000000 0.000000 0.030821
#
#
# Mechanical properties :
#
#
# Convention : Reuss Voigt Hill
#
# Bulk Modulus (GPa) = 20.29204 43.42056 31.85630
# Shear Modulus (GPa) = 22.70186 34.73557 28.71871
#
# Velocity S-wave (km/s) = 3.08666 3.81808 3.47169
# Velocity P-wave (km/s) = 4.60646 6.13675 5.42582
#
# Compressibility (1/GPa) = 0.04928041
#
# Stress axis : x y z
#
# Youngs Moduli (GPa) = 71.65455 214.74831 24.73750
#
# Poissons Ratio (x) = 0.04197 0.01933
# Poissons Ratio (y) = 0.01400 0.09652
# Poissons Ratio (z) = 0.05598 0.83786
#
# Static dielectric constant tensor:
#      x y z
#    x 4.280570 0.000000 0.000000 
#    y 0.000000 5.116320 0.000000 
#    z 0.000000 0.000000 3.345810 
# 
# 
# High freq. dielectric constant tensor:
#      x y z
#    x 1.964910 0.000000 0.000000 
#    y 0.000000 1.980860 0.000000 
#    z 0.000000 0.000000 1.842570 
# 
# From -- ./inp_files/4655.got.cif
#   From: 2010.03.12/outbox.cif.g09.slc.cpg/sg30_3_cif.got.tgz:4655.got - 2010.04.14 01:38:02.
