data_PCOD8169237
_publ_section_title
;
Structure prediction by ZEFSAII (Michael W. Deem and Ramdas Pophale) SiO2 
 PCOD8169237
Probable space group: P C A 21
;
_chemical_formula_sum "Si O2"
_cell_formula_units_Z 20
_cell_length_a 11.827774
_cell_length_b 4.709561
_cell_length_c 11.872282
_cell_angle_alpha 90.000000
_cell_angle_beta 90.000000
_cell_angle_gamma 90.000000
_cell_volume 661.329122
_symmetry_space_group_name_H-M "P C A 21"
_symmetry_group_IT_number 29
_symmetry_cell_setting 'orthorhombic'
loop_
_space_group_symop_operation_xyz
x,y,z
-x,-y,1/2+z
1/2-x,y,1/2+z
1/2+x,-y,z
loop_
_atom_site_type_symbol
_atom_site_label
_atom_site_fract_x
_atom_site_fract_y
_atom_site_fract_z
Si Si1 0.203753 0.739818 0.494490
Si Si2 0.499913 0.929932 0.840354
Si Si3 0.602055 0.434888 0.719509
Si Si4 0.658322 0.609970 0.289995
Si Si5 0.358600 0.254770 0.539599
O O1 0.117006 0.618497 0.587634
O O2 0.139563 0.680782 0.371319
O O3 0.314874 0.544443 0.483812
O O4 0.250062 0.044395 0.533169
O O5 0.593014 0.137333 0.784996
O O6 0.382033 0.112910 0.858262
O O7 0.496124 0.643939 0.756785
O O8 0.536449 0.860623 0.968042
O O9 0.709618 0.613452 0.764384
O O10 0.596907 0.672893 0.166266
#
# Coordination Sequence:
#
# PCOD8169237 Si02
#       5
#     4   4   4   4   4
#     4  11  24  46  75  98 151 193 242 312 380 434
#     4  12  25  46  73 108 149 190 255 308 379 456
#     4  11  25  48  67 106 147 193 248 314 371 455
#     4  11  26  46  77 106 147 203 248 310 393 441
#     4  11  24  46  72 106 148 191 253 308 367 466
#
# _framework density 30.242128999999998
#
# number of rings (size 3 to 8) (size 9 to 14) (size 15 to 20)
#    0.000    0.800    4.000    2.400    2.800    6.400 
#    3.600    0.000    0.000    0.000    0.000    0.000 
#    0.000    0.000    0.000    0.000    0.000    0.000 
#
# Total GULP energy -247895.503331 kJ/mol
# GULP energy per Si atom -12394.775167 kJ/mol
# Density = 3.017330 g / cm^3
# Si number density = 30.242129 Si / 1000 Ang^3
#
#
#
# Elastic Constant Matrix: (Units=GPa)
#
#
# Indices 1 2 3 4 5 6 
#
# 1 113.5617 59.6070 104.1305 0.0000 0.0000 0.0000
# 2 59.6070 197.3250 69.4964 0.0000 0.0000 0.0000
# 3 104.1305 69.4964 202.9358 0.0000 0.0000 0.0000
# 4 0.0000 0.0000 0.0000 50.0536 0.0000 0.0000
# 5 0.0000 0.0000 0.0000 0.0000 71.4700 0.0000
# 6 0.0000 0.0000 0.0000 0.0000 0.0000 64.1442
#
#
#
# Elastic Compliance Matrix: (Units=1/GPa)
#
#
# Indices 1 2 3 4 5 6 
#
# 1 0.017598 -0.002429 -0.008198 0.000000 0.000000 0.000000
# 2 -0.002429 0.006098 -0.000842 0.000000 0.000000 0.000000
# 3 -0.008198 -0.000842 0.009423 0.000000 0.000000 0.000000
# 4 0.000000 0.000000 0.000000 0.019979 0.000000 0.000000
# 5 0.000000 0.000000 0.000000 0.000000 0.013992 0.000000
# 6 0.000000 0.000000 0.000000 0.000000 0.000000 0.015590
#
#
# Mechanical properties :
#
#
# Convention : Reuss Voigt Hill
#
# Bulk Modulus (GPa) = 98.22381 108.92114 103.57247
# Shear Modulus (GPa) = 45.86741 55.83949 50.85345
#
# Velocity S-wave (km/s) = 3.89867 4.30165 4.10511
# Velocity P-wave (km/s) = 7.26745 7.79531 7.53600
#
# Compressibility (1/GPa) = 0.01018083
#
# Stress axis : x y z
#
# Youngs Moduli (GPa) = 56.82552 163.98864 106.12702
#
# Poissons Ratio (x) = 0.39825 0.87004
# Poissons Ratio (y) = 0.13800 0.08938
# Poissons Ratio (z) = 0.46586 0.13810
#
# Static dielectric constant tensor:
#      x y z
#    x 6.253600 0.000000 0.000000 
#    y 0.000000 5.810560 0.000000 
#    z 0.000000 0.000000 6.240580 
# 
# 
# High freq. dielectric constant tensor:
#      x y z
#    x 2.289960 0.000000 0.000000 
#    y 0.000000 2.271960 0.000000 
#    z 0.000000 0.000000 2.258330 
# 
# From -- ./inp_files/3281.got.cif
#   From: 2010.03.12/outbox.cif.g09.slc.cpg/sg29_2_cif.got.tgz:3281.got - 2010.04.14 03:43:10.
