data_PCOD8169222
_publ_section_title
;
Structure prediction by ZEFSAII (Michael W. Deem and Ramdas Pophale) SiO2 
 PCOD8169222
Probable space group: P C A 21
;
_chemical_formula_sum "Si O2"
_cell_formula_units_Z 32
_cell_length_a 12.222699
_cell_length_b 11.007815
_cell_length_c 10.399648
_cell_angle_alpha 90.000000
_cell_angle_beta 90.000000
_cell_angle_gamma 90.000000
_cell_volume 1399.222818
_symmetry_space_group_name_H-M "P C A 21"
_symmetry_group_IT_number 29
_symmetry_cell_setting 'orthorhombic'
loop_
_space_group_symop_operation_xyz
x,y,z
-x,-y,1/2+z
1/2-x,y,1/2+z
1/2+x,-y,z
loop_
_atom_site_type_symbol
_atom_site_label
_atom_site_fract_x
_atom_site_fract_y
_atom_site_fract_z
Si Si1 0.649701 0.162979 0.320370
Si Si2 0.323974 0.911490 0.106018
Si Si3 0.553179 0.299862 0.716884
Si Si4 0.070000 0.474776 0.045681
Si Si5 0.222153 0.342233 0.861114
Si Si6 0.921413 0.842047 0.208993
Si Si7 0.941298 0.691087 0.974282
Si Si8 0.283949 0.584903 0.738901
O O1 0.698710 0.102621 0.451752
O O2 0.718948 0.119843 0.195024
O O3 0.521616 0.124564 0.305703
O O4 0.659454 0.310776 0.327652
O O5 0.423160 0.819952 0.135095
O O6 0.364892 0.043888 0.142281
O O7 0.457530 0.376719 0.653383
O O8 0.657810 0.385515 0.722065
O O9 0.512820 0.257748 0.856616
O O10 0.155413 0.575102 0.100861
O O11 0.964371 0.547391 0.994244
O O12 0.118115 0.401579 0.927349
O O13 0.176616 0.234913 0.772382
O O14 0.291380 0.448152 0.792123
O O15 0.311216 0.284961 0.958151
O O16 0.980088 0.763135 0.099399
#
# Coordination Sequence:
#
# PCOD8169222 Si02
#       8
#     4   4   4   4   4   4   4   4
#     4  11  28  52  80 114 150 205 259 325 392 456
#     4  11  30  49  81 106 151 207 263 320 371 469
#     4  11  25  43  71 106 145 199 250 306 388 449
#     4  12  23  44  73 108 151 192 246 321 393 464
#     4  12  26  43  72 110 149 197 247 318 385 468
#     4  12  29  51  75 109 154 204 263 315 390 457
#     4  12  27  43  71 108 151 195 249 316 384 453
#     4  11  24  43  71 109 147 189 249 313 393 468
#
# _framework density 22.869838999999999
#
# number of rings (size 3 to 8) (size 9 to 14) (size 15 to 20)
#    0.000    0.500    3.750    3.000   14.000    0.000 
#    0.000    0.000    0.000    0.000    0.000    0.000 
#    0.000    0.000    0.000    0.000    0.000    0.000 
#
# Total GULP energy -396785.269692 kJ/mol
# GULP energy per Si atom -12399.539678 kJ/mol
# Density = 2.281779 g / cm^3
# Si number density = 22.869839 Si / 1000 Ang^3
#
#
#
# Elastic Constant Matrix: (Units=GPa)
#
#
# Indices 1 2 3 4 5 6 
#
# 1 102.9930 39.9381 40.9964 0.0000 0.0000 0.0000
# 2 39.9381 90.6584 34.0331 0.0000 0.0000 0.0000
# 3 40.9964 34.0331 122.4387 0.0000 0.0000 0.0000
# 4 0.0000 0.0000 0.0000 37.1082 0.0000 0.0000
# 5 0.0000 0.0000 0.0000 0.0000 35.1576 0.0000
# 6 0.0000 0.0000 0.0000 0.0000 0.0000 27.0879
#
#
#
# Elastic Compliance Matrix: (Units=1/GPa)
#
#
# Indices 1 2 3 4 5 6 
#
# 1 0.012621 -0.004437 -0.002993 0.000000 0.000000 0.000000
# 2 -0.004437 0.013875 -0.002371 0.000000 0.000000 0.000000
# 3 -0.002993 -0.002371 0.009829 0.000000 0.000000 0.000000
# 4 0.000000 0.000000 0.000000 0.026948 0.000000 0.000000
# 5 0.000000 0.000000 0.000000 0.000000 0.028443 0.000000
# 6 0.000000 0.000000 0.000000 0.000000 0.000000 0.036917
#
#
# Mechanical properties :
#
#
# Convention : Reuss Voigt Hill
#
# Bulk Modulus (GPa) = 59.79574 60.66948 60.23261
# Shear Modulus (GPa) = 32.50796 33.27891 32.89344
#
# Velocity S-wave (km/s) = 3.77428 3.81877 3.79659
# Velocity P-wave (km/s) = 6.72283 6.78453 6.75375
#
# Compressibility (1/GPa) = 0.01672360
#
# Stress axis : x y z
#
# Youngs Moduli (GPa) = 79.23286 72.07209 101.74476
#
# Poissons Ratio (x) = 0.31975 0.30450
# Poissons Ratio (y) = 0.35152 0.24126
# Poissons Ratio (z) = 0.23712 0.17090
#
# Static dielectric constant tensor:
#      x y z
#    x 3.997140 0.000000 0.000000 
#    y 0.000000 4.188160 0.000000 
#    z 0.000000 0.000000 4.261760 
# 
# 
# High freq. dielectric constant tensor:
#      x y z
#    x 1.909920 0.000000 0.000000 
#    y 0.000000 1.894630 0.000000 
#    z 0.000000 0.000000 1.907450 
# 
# From -- ./inp_files/3220.got.cif
#   From: 2010.03.12/outbox.cif.g09.slc.cpg/sg29_2_cif.got.tgz:3220.got - 2010.04.14 03:43:10.
