data_PCOD8169813
_publ_section_title
;
Structure prediction by ZEFSAII (Michael W. Deem and Ramdas Pophale) SiO2 
 PCOD8169813
Probable space group: P M N 21
;
_chemical_formula_sum "Si O2"
_cell_formula_units_Z 32
_cell_length_a 8.995466
_cell_length_b 7.851955
_cell_length_c 23.817248
_cell_angle_alpha 90.000000
_cell_angle_beta 90.000000
_cell_angle_gamma 90.000000
_cell_volume 1682.259723
_symmetry_space_group_name_H-M "P M N 21"
_symmetry_group_IT_number 31
_symmetry_cell_setting 'orthorhombic'
loop_
_space_group_symop_operation_xyz
x,y,z
1/2-x,-y,1/2+z
-x,y,z
1/2+x,-y,1/2+z
loop_
_atom_site_type_symbol
_atom_site_label
_atom_site_fract_x
_atom_site_fract_y
_atom_site_fract_z
Si Si1 0.169490 0.084719 0.939540
Si Si2 0.674146 0.415462 0.814263
Si Si3 0.827736 0.926812 0.054077
Si Si4 0.672194 0.427414 0.941851
Si Si5 0.326951 0.942239 0.312481
Si Si6 0.175980 0.250250 0.247985
Si Si7 0.677198 0.753480 0.620072
Si Si8 0.676621 0.441452 0.546656
O O1 0.282612 0.234162 0.953826
O O2 0.000000 0.154543 0.943175
O O3 0.201097 0.010282 0.877779
O O4 0.198921 0.944029 0.987089
O O5 0.500000 0.377002 0.806929
O O6 0.711942 0.472950 0.877644
O O7 0.727412 0.571331 0.775308
O O8 0.760168 0.243153 0.797568
O O9 0.768294 0.740345 0.071795
O O10 0.000000 0.938003 0.068295
O O11 0.753193 0.077741 0.090622
O O12 0.500000 0.451540 0.954527
O O13 0.762806 0.547816 0.983436
O O14 0.500000 0.937711 0.297595
O O15 0.249435 0.088256 0.276888
O O16 0.231351 0.254203 0.183924
O O17 0.000000 0.228645 0.253273
O O18 0.500000 0.750750 0.616759
O O19 0.740097 0.589607 0.586662
O O20 0.500000 0.447428 0.542868
#
# Coordination Sequence:
#
# PCOD8169813 Si02
#       8
#     4   4   4   4   4   4   4   4
#     4   9  17  33  54  78 110 141 175 221 270 319
#     4   9  20  37  55  80 114 148 184 225 273 329
#     4   9  17  30  53  83 105 129 173 226 271 314
#     4  10  19  32  51  78 112 145 175 214 269 328
#     4  10  21  35  55  84 114 146 183 227 278 330
#     4  10  21  37  59  82 108 148 190 231 273 324
#     4   9  18  34  55  80 106 136 183 230 269 313
#     4  10  19  32  54  79 105 137 175 224 273 319
#
# _framework density 19.022034999999999
#
# number of rings (size 3 to 8) (size 9 to 14) (size 15 to 20)
#    0.000    2.500    1.250    0.750    1.750    2.500 
#    0.000    5.000    0.000    1.500    0.000    0.000 
#    0.000    0.000    0.000    0.000    0.000    0.000 
#
# Total GULP energy -396687.339230 kJ/mol
# GULP energy per Si atom -12396.479351 kJ/mol
# Density = 1.897874 g / cm^3
# Si number density = 19.022035 Si / 1000 Ang^3
#
#
#
# Elastic Constant Matrix: (Units=GPa)
#
#
# Indices 1 2 3 4 5 6 
#
# 1 35.8861 38.2103 31.9101 0.0000 0.0000 0.0000
# 2 38.2103 174.8091 94.0807 0.0000 0.0000 0.0000
# 3 31.9101 94.0807 128.7430 0.0000 0.0000 0.0000
# 4 0.0000 0.0000 0.0000 26.4622 0.0000 0.0000
# 5 0.0000 0.0000 0.0000 0.0000 22.8656 0.0000
# 6 0.0000 0.0000 0.0000 0.0000 0.0000 19.9880
#
#
#
# Elastic Compliance Matrix: (Units=1/GPa)
#
#
# Indices 1 2 3 4 5 6 
#
# 1 0.038631 -0.005424 -0.005611 0.000000 0.000000 0.000000
# 2 -0.005424 0.010190 -0.006102 0.000000 0.000000 0.000000
# 3 -0.005611 -0.006102 0.013618 0.000000 0.000000 0.000000
# 4 0.000000 0.000000 0.000000 0.037790 0.000000 0.000000
# 5 0.000000 0.000000 0.000000 0.000000 0.043734 0.000000
# 6 0.000000 0.000000 0.000000 0.000000 0.000000 0.050030
#
#
# Mechanical properties :
#
#
# Convention : Reuss Voigt Hill
#
# Bulk Modulus (GPa) = 35.50701 74.20446 54.85574
# Shear Modulus (GPa) = 21.03884 25.54564 23.29224
#
# Velocity S-wave (km/s) = 3.32930 3.66860 3.50306
# Velocity P-wave (km/s) = 5.78669 7.55244 6.72774
#
# Compressibility (1/GPa) = 0.02816345
#
# Stress axis : x y z
#
# Youngs Moduli (GPa) = 25.88598 98.13191 73.43457
#
# Poissons Ratio (x) = 0.53228 0.41206
# Poissons Ratio (y) = 0.14041 0.44812
# Poissons Ratio (z) = 0.14525 0.59883
#
# Static dielectric constant tensor:
#      x y z
#    x 3.199050 0.000000 0.000000 
#    y 0.000000 3.637020 0.000000 
#    z 0.000000 0.000000 3.655070 
# 
# 
# High freq. dielectric constant tensor:
#      x y z
#    x 1.705040 0.000000 0.000000 
#    y 0.000000 1.745090 0.000000 
#    z 0.000000 0.000000 1.739850 
# 
# From -- ./inp_files/6467.got.cif
#   From: 2010.03.12/outbox.cif.g09.slc.cpg/sg31_4_cif.got.tgz:6467.got - 2010.04.14 01:42:59.
