data_PCOD8169763
_publ_section_title
;
Structure prediction by ZEFSAII (Michael W. Deem and Ramdas Pophale) SiO2 
 PCOD8169763
Probable space group: P M N 21
;
_chemical_formula_sum "Si O2"
_cell_formula_units_Z 24
_cell_length_a 14.005150
_cell_length_b 17.576602
_cell_length_c 4.935622
_cell_angle_alpha 90.000000
_cell_angle_beta 90.000000
_cell_angle_gamma 90.000000
_cell_volume 1214.967259
_symmetry_space_group_name_H-M "P M N 21"
_symmetry_group_IT_number 31
_symmetry_cell_setting 'orthorhombic'
loop_
_space_group_symop_operation_xyz
x,y,z
1/2-x,-y,1/2+z
-x,y,z
1/2+x,-y,1/2+z
loop_
_atom_site_type_symbol
_atom_site_label
_atom_site_fract_x
_atom_site_fract_y
_atom_site_fract_z
Si Si1 0.000000 0.117699 0.243460
Si Si2 0.307383 0.707413 0.293903
Si Si3 0.500000 0.984726 0.246109
Si Si4 0.293671 0.535720 0.130173
Si Si5 0.206549 0.960450 0.734506
Si Si6 0.000000 0.336802 0.033321
Si Si7 0.699267 0.804550 0.760055
Si Si8 0.500000 0.564203 0.043454
O O1 0.000000 0.088988 0.552902
O O2 0.906877 0.167554 0.184359
O O3 0.000000 0.043441 0.054548
O O4 0.274788 0.620792 0.243226
O O5 0.408177 0.710890 0.450962
O O6 0.248410 0.757456 0.513854
O O7 0.308944 0.748907 0.011525
O O8 0.406982 0.035968 0.191509
O O9 0.277515 0.478592 0.380154
O O10 0.400154 0.519660 0.006087
O O11 0.234150 0.876095 0.832407
O O12 0.260067 0.977527 0.453528
O O13 0.000000 0.414071 0.859452
O O14 0.000000 0.360688 0.350950
#
# Coordination Sequence:
#
# PCOD8169763 Si02
#       8
#     2   4   2   4   4   2   4   2
#     4  12  22  35  62  90 122 155 196 244 314 379
#     4  11  22  36  57  88 124 158 197 249 311 370
#     4  12  22  41  60  87 120 160 210 254 296 371
#     4  11  22  39  63  89 123 163 206 250 305 371
#     4  12  23  41  61  86 119 163 209 257 300 364
#     4  10  18  35  54  84 124 157 181 238 317 391
#     4  12  22  36  57  89 123 158 199 253 307 365
#     4  10  20  35  60  89 120 154 197 242 309 363
#
# _framework density 19.753619
#
# number of rings (size 3 to 8) (size 9 to 14) (size 15 to 20)
#    0.000    0.667    3.333    8.000    0.000    0.000 
#    0.000    0.000    0.000    6.000    0.000    0.000 
#    0.000    0.000    0.000    0.000    0.000    0.000 
#
# Total GULP energy -297503.509868 kJ/mol
# GULP energy per Si atom -12395.979578 kJ/mol
# Density = 1.970866 g / cm^3
# Si number density = 19.753619 Si / 1000 Ang^3
#
#
#
# Elastic Constant Matrix: (Units=GPa)
#
#
# Indices 1 2 3 4 5 6 
#
# 1 95.5394 48.1719 29.5901 0.0000 0.0000 0.0000
# 2 48.1719 97.0304 31.3520 0.0000 0.0000 0.0000
# 3 29.5901 31.3520 96.1669 0.0000 0.0000 0.0000
# 4 0.0000 0.0000 0.0000 45.7886 0.0000 0.0000
# 5 0.0000 0.0000 0.0000 0.0000 22.0435 0.0000
# 6 0.0000 0.0000 0.0000 0.0000 0.0000 12.8040
#
#
#
# Elastic Compliance Matrix: (Units=1/GPa)
#
#
# Indices 1 2 3 4 5 6 
#
# 1 0.014422 -0.006400 -0.002351 0.000000 0.000000 0.000000
# 2 -0.006400 0.014360 -0.002712 0.000000 0.000000 0.000000
# 3 -0.002351 -0.002712 0.012006 0.000000 0.000000 0.000000
# 4 0.000000 0.000000 0.000000 0.021840 0.000000 0.000000
# 5 0.000000 0.000000 0.000000 0.000000 0.045365 0.000000
# 6 0.000000 0.000000 0.000000 0.000000 0.000000 0.078100
#
#
# Mechanical properties :
#
#
# Convention : Reuss Voigt Hill
#
# Bulk Modulus (GPa) = 55.98756 56.32939 56.15847
# Shear Modulus (GPa) = 23.25863 28.10208 25.68035
#
# Velocity S-wave (km/s) = 3.43510 3.77587 3.60951
# Velocity P-wave (km/s) = 6.64362 6.89837 6.77219
#
# Compressibility (1/GPa) = 0.01786111
#
# Stress axis : x y z
#
# Youngs Moduli (GPa) = 69.33770 69.63805 83.29033
#
# Poissons Ratio (x) = 0.44571 0.19581
# Poissons Ratio (y) = 0.44379 0.22590
# Poissons Ratio (z) = 0.16301 0.18887
#
# Static dielectric constant tensor:
#      x y z
#    x 3.638250 0.000000 0.000000 
#    y 0.000000 3.661780 0.000000 
#    z 0.000000 0.000000 3.775720 
# 
# 
# High freq. dielectric constant tensor:
#      x y z
#    x 1.740530 0.000000 0.000000 
#    y 0.000000 1.761820 0.000000 
#    z 0.000000 0.000000 1.796880 
# 
# From -- ./inp_files/640.got.cif
#   From: 2010.03.12/outbox.cif.g09.slc.cpg/sg31_1_cif.got.tgz:640.got - 2010.04.14 01:42:59.
