data_PCOD8169346
_publ_section_title
;
Structure prediction by ZEFSAII (Michael W. Deem and Ramdas Pophale) SiO2 
 PCOD8169346
Probable space group: P C A 21
;
_chemical_formula_sum "Si O2"
_cell_formula_units_Z 24
_cell_length_a 11.926008
_cell_length_b 10.146407
_cell_length_c 8.401178
_cell_angle_alpha 90.000000
_cell_angle_beta 90.000000
_cell_angle_gamma 90.000000
_cell_volume 1016.594046
_symmetry_space_group_name_H-M "P C A 21"
_symmetry_group_IT_number 29
_symmetry_cell_setting 'orthorhombic'
loop_
_space_group_symop_operation_xyz
x,y,z
-x,-y,1/2+z
1/2-x,y,1/2+z
1/2+x,-y,z
loop_
_atom_site_type_symbol
_atom_site_label
_atom_site_fract_x
_atom_site_fract_y
_atom_site_fract_z
Si Si1 0.865676 0.237445 0.780900
Si Si2 0.146588 0.861420 0.926586
Si Si3 0.885447 0.843299 0.345048
Si Si4 0.489021 0.330771 0.765240
Si Si5 0.758456 0.702912 0.612484
Si Si6 0.605710 0.477794 0.484548
O O1 0.859821 0.217063 0.592055
O O2 0.770535 0.148079 0.857428
O O3 0.843938 0.388669 0.838823
O O4 0.984541 0.189419 0.843959
O O5 0.052051 0.803182 0.810116
O O6 0.124224 0.016334 0.930617
O O7 0.818845 0.739629 0.450382
O O8 0.829817 0.817569 0.170258
O O9 0.355580 0.309922 0.745318
O O10 0.549151 0.381026 0.608856
O O11 0.494713 0.433430 0.911890
O O12 0.697530 0.563842 0.578959
#
# Coordination Sequence:
#
# PCOD8169346 Si02
#       6
#     4   4   4   4   4   4
#     4  12  29  49  78 119 153 218 258 335 395 475
#     4  12  30  49  80 111 164 206 272 326 397 477
#     4  12  28  52  79 113 157 206 268 320 399 467
#     4  12  27  48  76 116 151 210 249 330 388 471
#     4  12  27  49  76 117 152 206 252 329 391 466
#     4  12  27  47  79 112 163 192 269 312 410 470
#
# _framework density 23.608245
#
# number of rings (size 3 to 8) (size 9 to 14) (size 15 to 20)
#    0.000    0.000    3.333    5.000   11.667    0.000 
#    0.000    0.000    0.000    0.000    0.000    0.000 
#    0.000    0.000    0.000    0.000    0.000    0.000 
#
# Total GULP energy -297582.731489 kJ/mol
# GULP energy per Si atom -12399.280479 kJ/mol
# Density = 2.355451 g / cm^3
# Si number density = 23.608245 Si / 1000 Ang^3
#
#
#
# Elastic Constant Matrix: (Units=GPa)
#
#
# Indices 1 2 3 4 5 6 
#
# 1 148.0401 54.4510 53.0453 0.0000 0.0000 0.0000
# 2 54.4510 104.6230 38.4103 0.0000 0.0000 0.0000
# 3 53.0453 38.4103 105.9363 0.0000 0.0000 0.0000
# 4 0.0000 0.0000 0.0000 41.6173 0.0000 0.0000
# 5 0.0000 0.0000 0.0000 0.0000 38.3666 0.0000
# 6 0.0000 0.0000 0.0000 0.0000 0.0000 23.1505
#
#
#
# Elastic Compliance Matrix: (Units=1/GPa)
#
#
# Indices 1 2 3 4 5 6 
#
# 1 0.009276 -0.003602 -0.003339 0.000000 0.000000 0.000000
# 2 -0.003602 0.012424 -0.002701 0.000000 0.000000 0.000000
# 3 -0.003339 -0.002701 0.012091 0.000000 0.000000 0.000000
# 4 0.000000 0.000000 0.000000 0.024028 0.000000 0.000000
# 5 0.000000 0.000000 0.000000 0.000000 0.026064 0.000000
# 6 0.000000 0.000000 0.000000 0.000000 0.000000 0.043196
#
#
# Mechanical properties :
#
#
# Convention : Reuss Voigt Hill
#
# Bulk Modulus (GPa) = 68.93023 72.26807 70.59915
# Shear Modulus (GPa) = 33.06882 34.80639 33.93761
#
# Velocity S-wave (km/s) = 3.74670 3.84387 3.79559
# Velocity P-wave (km/s) = 6.92661 7.09776 7.01271
#
# Compressibility (1/GPa) = 0.01450742
#
# Stress axis : x y z
#
# Youngs Moduli (GPa) = 107.80349 80.48624 82.70687
#
# Poissons Ratio (x) = 0.28991 0.27614
# Poissons Ratio (y) = 0.38831 0.22341
# Poissons Ratio (z) = 0.35994 0.21741
#
# Static dielectric constant tensor:
#      x y z
#    x 4.585690 0.000000 0.000000 
#    y 0.000000 4.169130 0.000000 
#    z 0.000000 0.000000 4.450390 
# 
# 
# High freq. dielectric constant tensor:
#      x y z
#    x 1.950750 0.000000 0.000000 
#    y 0.000000 1.931260 0.000000 
#    z 0.000000 0.000000 1.951100 
# 
# From -- ./inp_files/1401.got.cif
#   From: 2010.03.12/outbox.cif.g09.slc.cpg/sg29_1_cif.got.tgz:1401.got - 2010.04.14 03:43:10.
