data_PCOD8169990
_publ_section_title
;
Structure prediction by ZEFSAII (Michael W. Deem and Ramdas Pophale) SiO2 
 PCOD8169990
Probable space group: P M N 21
;
_chemical_formula_sum "Si O2"
_cell_formula_units_Z 32
_cell_length_a 8.599639
_cell_length_b 14.442580
_cell_length_c 12.388894
_cell_angle_alpha 90.000000
_cell_angle_beta 90.000000
_cell_angle_gamma 90.000000
_cell_volume 1538.712704
_symmetry_space_group_name_H-M "P M N 21"
_symmetry_group_IT_number 31
_symmetry_cell_setting 'orthorhombic'
loop_
_space_group_symop_operation_xyz
x,y,z
1/2-x,-y,1/2+z
-x,y,z
1/2+x,-y,1/2+z
loop_
_atom_site_type_symbol
_atom_site_label
_atom_site_fract_x
_atom_site_fract_y
_atom_site_fract_z
Si Si1 0.827480 0.322332 0.430240
Si Si2 0.314317 0.546986 0.110868
Si Si3 0.327730 0.873483 0.017972
Si Si4 0.816877 0.224751 0.221384
Si Si5 0.181561 0.362141 0.036285
Si Si6 0.817205 0.667108 0.303680
Si Si7 0.319069 0.128533 0.740363
Si Si8 0.321021 0.048838 0.316077
O O1 0.746838 0.403215 0.501359
O O2 0.831467 0.237149 0.513137
O O3 0.746610 0.291882 0.316909
O O4 0.000000 0.356768 0.400574
O O5 0.500000 0.541862 0.107767
O O6 0.266074 0.599687 0.219479
O O7 0.239474 0.445688 0.111851
O O8 0.500000 0.913799 0.993317
O O9 0.276170 0.902515 0.135889
O O10 0.200689 0.909590 0.934372
O O11 0.738885 0.123446 0.227170
O O12 0.000000 0.211660 0.244744
O O13 0.784064 0.268565 0.104447
O O14 0.274483 0.361325 0.924997
O O15 0.000000 0.371982 0.011758
O O16 0.761901 0.772960 0.286428
O O17 0.000000 0.656304 0.287481
O O18 0.500000 0.133195 0.713600
O O19 0.278679 0.045634 0.821329
O O20 0.500000 0.026762 0.293466
#
# Coordination Sequence:
#
# PCOD8169990 Si02
#       8
#     4   4   4   4   4   4   4   4
#     4   8  16  33  60  87 114 153 196 250 312 368
#     4  11  22  39  65  95 126 162 207 259 317 381
#     4  10  19  37  61  87 120 157 203 258 316 375
#     4   9  20  41  63  87 124 166 211 262 317 374
#     4  11  25  42  64  94 130 172 214 260 320 383
#     4  11  25  44  65  92 129 167 213 266 315 376
#     4  11  23  40  63  91 124 165 212 264 319 375
#     4  11  23  38  61  93 127 166 214 261 314 382
#
# _framework density 20.796605
#
# number of rings (size 3 to 8) (size 9 to 14) (size 15 to 20)
#    0.000    1.750    1.250    3.750    1.750    3.500 
#    0.000    3.125    0.000    0.000    0.000    0.000 
#    0.000    0.000    0.000    0.000    0.000    0.000 
#
# Total GULP energy -396719.682556 kJ/mol
# GULP energy per Si atom -12397.490080 kJ/mol
# Density = 2.074927 g / cm^3
# Si number density = 20.796605 Si / 1000 Ang^3
#
#
#
# Elastic Constant Matrix: (Units=GPa)
#
#
# Indices 1 2 3 4 5 6 
#
# 1 62.4982 25.0692 12.0191 0.0000 0.0000 0.0000
# 2 25.0692 106.8918 27.3351 0.0000 0.0000 0.0000
# 3 12.0191 27.3351 76.6319 0.0000 0.0000 0.0000
# 4 0.0000 0.0000 0.0000 25.1418 0.0000 0.0000
# 5 0.0000 0.0000 0.0000 0.0000 28.8653 0.0000
# 6 0.0000 0.0000 0.0000 0.0000 0.0000 30.0884
#
#
#
# Elastic Compliance Matrix: (Units=1/GPa)
#
#
# Indices 1 2 3 4 5 6 
#
# 1 0.017804 -0.003809 -0.001434 0.000000 0.000000 0.000000
# 2 -0.003809 0.011109 -0.003365 0.000000 0.000000 0.000000
# 3 -0.001434 -0.003365 0.014475 0.000000 0.000000 0.000000
# 4 0.000000 0.000000 0.000000 0.039774 0.000000 0.000000
# 5 0.000000 0.000000 0.000000 0.000000 0.034644 0.000000
# 6 0.000000 0.000000 0.000000 0.000000 0.000000 0.033235
#
#
# Mechanical properties :
#
#
# Convention : Reuss Voigt Hill
#
# Bulk Modulus (GPa) = 38.20887 41.65207 39.93047
# Shear Modulus (GPa) = 28.25159 28.92567 28.58863
#
# Velocity S-wave (km/s) = 3.68974 3.73350 3.71169
# Velocity P-wave (km/s) = 6.04688 6.21749 6.13278
#
# Compressibility (1/GPa) = 0.02617193
#
# Stress axis : x y z
#
# Youngs Moduli (GPa) = 56.16711 90.01587 69.08612
#
# Poissons Ratio (x) = 0.34286 0.09905
# Poissons Ratio (y) = 0.21394 0.23250
# Poissons Ratio (z) = 0.08053 0.30293
#
# Static dielectric constant tensor:
#      x y z
#    x 3.568770 0.000000 0.000000 
#    y 0.000000 3.837050 0.000000 
#    z 0.000000 0.000000 3.652780 
# 
# 
# High freq. dielectric constant tensor:
#      x y z
#    x 1.802370 0.000000 0.000000 
#    y 0.000000 1.816080 0.000000 
#    z 0.000000 0.000000 1.813520 
# 
# From -- ./inp_files/3734.got.cif
#   From: 2010.03.12/outbox.cif.g09.slc.cpg/sg31_2_cif.got.tgz:3734.got - 2010.04.14 01:42:59.
