data_PCOD8169087
_publ_section_title
;
Structure prediction by ZEFSAII (Michael W. Deem and Ramdas Pophale) SiO2 
 PCOD8169087
Probable space group: P C A 21
;
_chemical_formula_sum "Si O2"
_cell_formula_units_Z 24
_cell_length_a 17.953136
_cell_length_b 5.819326
_cell_length_c 9.161225
_cell_angle_alpha 90.000000
_cell_angle_beta 90.000000
_cell_angle_gamma 90.000000
_cell_volume 957.120366
_symmetry_space_group_name_H-M "P C A 21"
_symmetry_group_IT_number 29
_symmetry_cell_setting 'orthorhombic'
loop_
_space_group_symop_operation_xyz
x,y,z
-x,-y,1/2+z
1/2-x,y,1/2+z
1/2+x,-y,z
loop_
_atom_site_type_symbol
_atom_site_label
_atom_site_fract_x
_atom_site_fract_y
_atom_site_fract_z
Si Si1 0.201538 0.729967 0.957040
Si Si2 0.034136 0.243985 0.382360
Si Si3 0.069739 0.485239 0.094480
Si Si4 0.207552 0.348675 0.734854
Si Si5 0.804920 0.885960 0.953716
Si Si6 0.083516 0.102202 0.875616
O O1 0.219173 0.598694 0.804641
O O2 0.277773 0.859879 0.011618
O O3 0.148703 0.939352 0.925558
O O4 0.156821 0.568728 0.074482
O O5 0.052276 0.448141 0.266546
O O6 0.106915 0.111950 0.437286
O O7 0.988526 0.337816 0.522080
O O8 0.984087 0.044586 0.306851
O O9 0.056974 0.241700 0.017317
O O10 0.219455 0.329405 0.560263
O O11 0.266691 0.167834 0.800076
O O12 0.120736 0.275423 0.758939
#
# Coordination Sequence:
#
# PCOD8169087 Si02
#       6
#     4   4   4   4   4   4
#     4   9  22  47  72  94 153 191 237 310 366 435
#     4  11  26  43  76 107 142 193 249 304 376 451
#     4  10  24  46  71 107 149 190 243 311 378 446
#     4  10  24  45  68 103 146 189 250 306 371 439
#     4  11  26  44  71 106 140 199 252 298 377 447
#     4   9  22  43  70  97 144 184 235 301 368 430
#
# _framework density 25.075216000000001
#
# number of rings (size 3 to 8) (size 9 to 14) (size 15 to 20)
#    0.000    2.000    0.000    0.000   16.333    5.333 
#    0.000    0.000    0.000    0.000    0.000    0.000 
#    0.000    0.000    0.000    0.000    0.000    0.000 
#
# Total GULP energy -297418.485203 kJ/mol
# GULP energy per Si atom -12392.436883 kJ/mol
# Density = 2.501814 g / cm^3
# Si number density = 25.075216 Si / 1000 Ang^3
#
#
#
# Elastic Constant Matrix: (Units=GPa)
#
#
# Indices 1 2 3 4 5 6 
#
# 1 146.1092 55.1007 31.3715 0.0000 0.0000 0.0000
# 2 55.1007 107.8182 16.9274 0.0000 0.0000 0.0000
# 3 31.3715 16.9274 86.7628 0.0000 0.0000 0.0000
# 4 0.0000 0.0000 0.0000 31.1710 0.0000 0.0000
# 5 0.0000 0.0000 0.0000 0.0000 21.1801 0.0000
# 6 0.0000 0.0000 0.0000 0.0000 0.0000 53.2506
#
#
#
# Elastic Compliance Matrix: (Units=1/GPa)
#
#
# Indices 1 2 3 4 5 6 
#
# 1 0.008944 -0.004191 -0.002416 0.000000 0.000000 0.000000
# 2 -0.004191 0.011532 -0.000734 0.000000 0.000000 0.000000
# 3 -0.002416 -0.000734 0.012543 0.000000 0.000000 0.000000
# 4 0.000000 0.000000 0.000000 0.032081 0.000000 0.000000
# 5 0.000000 0.000000 0.000000 0.000000 0.047214 0.000000
# 6 0.000000 0.000000 0.000000 0.000000 0.000000 0.018779
#
#
# Mechanical properties :
#
#
# Convention : Reuss Voigt Hill
#
# Bulk Modulus (GPa) = 54.54151 60.83214 57.68683
# Shear Modulus (GPa) = 32.91903 36.93973 34.92938
#
# Velocity S-wave (km/s) = 3.62720 3.84234 3.73632
# Velocity P-wave (km/s) = 6.27220 6.63304 6.45515
#
# Compressibility (1/GPa) = 0.01833466
#
# Stress axis : x y z
#
# Youngs Moduli (GPa) = 111.81204 86.71412 79.72852
#
# Poissons Ratio (x) = 0.36345 0.19263
# Poissons Ratio (y) = 0.46864 0.05856
# Poissons Ratio (z) = 0.27015 0.06369
#
# Static dielectric constant tensor:
#      x y z
#    x 4.916550 0.000000 0.000000 
#    y 0.000000 4.843760 0.000000 
#    z 0.000000 0.000000 4.154820 
# 
# 
# High freq. dielectric constant tensor:
#      x y z
#    x 2.012190 0.000000 0.000000 
#    y 0.000000 2.003190 0.000000 
#    z 0.000000 0.000000 1.971890 
# 
# From -- ./inp_files/2008.got.cif
#   From: 2010.03.12/outbox.cif.g09.slc.cpg/sg29_2_cif.got.tgz:2008.got - 2010.04.14 03:43:10.
