data_PCOD8169068
_publ_section_title
;
Structure prediction by ZEFSAII (Michael W. Deem and Ramdas Pophale) SiO2 
 PCOD8169068
Probable space group: P C A 21
;
_chemical_formula_sum "Si O2"
_cell_formula_units_Z 28
_cell_length_a 9.161418
_cell_length_b 14.689210
_cell_length_c 8.578905
_cell_angle_alpha 90.000000
_cell_angle_beta 90.000000
_cell_angle_gamma 90.000000
_cell_volume 1154.497501
_symmetry_space_group_name_H-M "P C A 21"
_symmetry_group_IT_number 29
_symmetry_cell_setting 'orthorhombic'
loop_
_space_group_symop_operation_xyz
x,y,z
-x,-y,1/2+z
1/2-x,y,1/2+z
1/2+x,-y,z
loop_
_atom_site_type_symbol
_atom_site_label
_atom_site_fract_x
_atom_site_fract_y
_atom_site_fract_z
Si Si1 0.542119 0.206606 0.202620
Si Si2 0.349311 0.049716 0.092941
Si Si3 0.457881 0.706606 0.243147
Si Si4 0.274469 0.750000 0.972883
Si Si5 0.555559 0.585523 0.700859
Si Si6 0.650689 0.549716 0.352826
Si Si7 0.444441 0.085524 0.744908
O O1 0.411746 0.138102 0.180230
O O2 0.619104 0.187775 0.368463
O O3 0.477076 0.307715 0.188526
O O4 0.669362 0.186241 0.076205
O O5 0.175823 0.058945 0.114883
O O6 0.407379 0.961298 0.184676
O O7 0.390684 0.047894 0.911384
O O8 0.330638 0.686241 0.369562
O O9 0.588254 0.638102 0.265537
O O10 0.522924 0.807715 0.257241
O O11 0.380896 0.687775 0.077304
O O12 0.609316 0.547894 0.534383
O O13 0.407379 0.538702 0.761091
O O14 0.675823 0.558945 0.830884
#
# Coordination Sequence:
#
# PCOD8169068 Si02
#       7
#     4   4   4   4   4   4   4
#     4  11  25  46  73 100 145 181 234 281 354 404
#     4  12  28  47  72 104 141 184 234 288 348 414
#     4  11  25  46  73 100 145 181 234 281 354 404
#     4  10  24  42  78 104 132 184 236 286 344 414
#     4  12  28  47  72 104 141 184 234 288 348 414
#     4  12  28  47  72 104 141 184 234 288 348 414
#     4  12  28  47  72 104 141 184 234 288 348 414
#
# _framework density 24.252976
#
# number of rings (size 3 to 8) (size 9 to 14) (size 15 to 20)
#    0.000    0.571    2.857    2.571   16.000    0.000 
#    0.000    0.000    0.000    0.000    0.000    0.000 
#    0.000    0.000    0.000    0.000    0.000    0.000 
#
# Total GULP energy -347257.857668 kJ/mol
# GULP energy per Si atom -12402.066345 kJ/mol
# Density = 2.419777 g / cm^3
# Si number density = 24.252976 Si / 1000 Ang^3
#
#
#
# Elastic Constant Matrix: (Units=GPa)
#
#
# Indices 1 2 3 4 5 6 
#
# 1 96.4694 5.4738 16.8252 0.0000 0.0000 0.0000
# 2 5.4738 85.4346 -8.0401 0.0000 0.0000 0.0000
# 3 16.8252 -8.0401 117.0818 0.0000 0.0000 0.0000
# 4 0.0000 0.0000 0.0000 21.1431 0.0000 0.0000
# 5 0.0000 0.0000 0.0000 0.0000 24.1865 0.0000
# 6 0.0000 0.0000 0.0000 0.0000 0.0000 19.1609
#
#
#
# Elastic Compliance Matrix: (Units=1/GPa)
#
#
# Indices 1 2 3 4 5 6 
#
# 1 0.010691 -0.000835 -0.001594 0.000000 0.000000 0.000000
# 2 -0.000835 0.011846 0.000933 0.000000 0.000000 0.000000
# 3 -0.001594 0.000933 0.008834 0.000000 0.000000 0.000000
# 4 0.000000 0.000000 0.000000 0.047297 0.000000 0.000000
# 5 0.000000 0.000000 0.000000 0.000000 0.041345 0.000000
# 6 0.000000 0.000000 0.000000 0.000000 0.000000 0.052190
#
#
# Mechanical properties :
#
#
# Convention : Reuss Voigt Hill
#
# Bulk Modulus (GPa) = 35.23456 36.38930 35.81193
# Shear Modulus (GPa) = 27.07761 31.87988 29.47875
#
# Velocity S-wave (km/s) = 3.34498 3.62950 3.49014
# Velocity P-wave (km/s) = 5.42936 5.70973 5.57131
#
# Compressibility (1/GPa) = 0.02838123
#
# Stress axis : x y z
#
# Youngs Moduli (GPa) = 93.53380 84.41524 113.19683
#
# Poissons Ratio (x) = 0.07048 0.18041
# Poissons Ratio (y) = 0.07810 -0.10567
# Poissons Ratio (z) = 0.14907 -0.07880
#
# Static dielectric constant tensor:
#      x y z
#    x 4.469900 0.000000 0.000000 
#    y 0.000000 4.071280 0.000000 
#    z 0.000000 0.000000 4.686270 
# 
# 
# High freq. dielectric constant tensor:
#      x y z
#    x 1.974280 0.000000 0.000000 
#    y 0.000000 1.951830 0.000000 
#    z 0.000000 0.000000 1.981560 
# 
# From -- ./inp_files/1196.got.cif
#   From: 2010.03.12/outbox.cif.g09.slc.cpg/sg29_1_cif.got.tgz:1196.got - 2010.04.14 03:43:10.
