data_PCOD8169206
_publ_section_title
;
Structure prediction by ZEFSAII (Michael W. Deem and Ramdas Pophale) SiO2 
 PCOD8169206
Probable space group: P C A 21
;
_chemical_formula_sum "Si O2"
_cell_formula_units_Z 24
_cell_length_a 9.410224
_cell_length_b 8.695884
_cell_length_c 13.856164
_cell_angle_alpha 90.000000
_cell_angle_beta 90.000000
_cell_angle_gamma 90.000000
_cell_volume 1133.852897
_symmetry_space_group_name_H-M "P C A 21"
_symmetry_group_IT_number 29
_symmetry_cell_setting 'orthorhombic'
loop_
_space_group_symop_operation_xyz
x,y,z
-x,-y,1/2+z
1/2-x,y,1/2+z
1/2+x,-y,z
loop_
_atom_site_type_symbol
_atom_site_label
_atom_site_fract_x
_atom_site_fract_y
_atom_site_fract_z
Si Si1 0.907314 0.677922 0.676280
Si Si2 0.642741 0.818437 0.766957
Si Si3 0.210684 0.658393 0.962046
Si Si4 0.657732 0.172666 0.778400
Si Si5 0.606610 0.321431 0.170544
Si Si6 0.049613 0.344343 0.957422
O O1 0.805692 0.783348 0.741672
O O2 0.869927 0.500152 0.693949
O O3 0.901249 0.717919 0.562281
O O4 0.063900 0.711247 0.715048
O O5 0.558011 0.723467 0.684588
O O6 0.600929 0.773349 0.875861
O O7 0.614481 0.998963 0.757021
O O8 0.152786 0.791467 0.891842
O O9 0.127586 0.503793 0.934885
O O10 0.379796 0.630479 0.955751
O O11 0.164068 0.720126 0.065723
O O12 0.817967 0.211784 0.747830
#
# Coordination Sequence:
#
# PCOD8169206 Si02
#       6
#     4   4   4   4   4   4
#     4  11  25  44  73  98 130 180 228 280 328 401
#     4  12  27  42  70 101 140 176 221 277 346 402
#     4  11  25  44  73  99 134 177 231 281 326 401
#     4  12  25  44  67 101 138 176 218 279 343 400
#     4  11  23  46  70  97 130 178 230 279 327 397
#     4  11  25  46  69 102 132 177 232 278 332 399
#
# _framework density 21.166767
#
# number of rings (size 3 to 8) (size 9 to 14) (size 15 to 20)
#    0.000    0.667    3.333    4.000    9.333    2.667 
#    0.000    0.000    0.000    0.000    0.000    0.000 
#    0.000    0.000    0.000    0.000    0.000    0.000 
#
# Total GULP energy -297676.252798 kJ/mol
# GULP energy per Si atom -12403.177200 kJ/mol
# Density = 2.111859 g / cm^3
# Si number density = 21.166767 Si / 1000 Ang^3
#
#
#
# Elastic Constant Matrix: (Units=GPa)
#
#
# Indices 1 2 3 4 5 6 
#
# 1 79.3574 31.8705 31.1371 0.0000 0.0000 0.0000
# 2 31.8705 100.2609 68.6023 0.0000 0.0000 0.0000
# 3 31.1371 68.6023 119.3650 0.0000 0.0000 0.0000
# 4 0.0000 0.0000 0.0000 23.0471 0.0000 0.0000
# 5 0.0000 0.0000 0.0000 0.0000 42.4193 0.0000
# 6 0.0000 0.0000 0.0000 0.0000 0.0000 30.3227
#
#
#
# Elastic Compliance Matrix: (Units=1/GPa)
#
#
# Indices 1 2 3 4 5 6 
#
# 1 0.014701 -0.003377 -0.001894 0.000000 0.000000 0.000000
# 2 -0.003377 0.017214 -0.009013 0.000000 0.000000 0.000000
# 3 -0.001894 -0.009013 0.014051 0.000000 0.000000 0.000000
# 4 0.000000 0.000000 0.000000 0.043389 0.000000 0.000000
# 5 0.000000 0.000000 0.000000 0.000000 0.023574 0.000000
# 6 0.000000 0.000000 0.000000 0.000000 0.000000 0.032979
#
#
# Mechanical properties :
#
#
# Convention : Reuss Voigt Hill
#
# Bulk Modulus (GPa) = 57.47371 62.46700 59.97035
# Shear Modulus (GPa) = 27.73539 30.31602 29.02570
#
# Velocity S-wave (km/s) = 3.62377 3.78861 3.70711
# Velocity P-wave (km/s) = 6.68735 6.97954 6.83501
#
# Compressibility (1/GPa) = 0.01739926
#
# Stress axis : x y z
#
# Youngs Moduli (GPa) = 68.02455 58.09157 71.16717
#
# Poissons Ratio (x) = 0.19618 0.13478
# Poissons Ratio (y) = 0.22973 0.64140
# Poissons Ratio (z) = 0.12883 0.52355
#
# Static dielectric constant tensor:
#      x y z
#    x 3.887620 0.000000 0.000000 
#    y 0.000000 3.525630 0.000000 
#    z 0.000000 0.000000 3.965370 
# 
# 
# High freq. dielectric constant tensor:
#      x y z
#    x 1.846100 0.000000 0.000000 
#    y 0.000000 1.817610 0.000000 
#    z 0.000000 0.000000 1.843490 
# 
# From -- ./inp_files/2813.got.cif
#   From: 2010.03.12/outbox.cif.g09.slc.cpg/sg29_2_cif.got.tgz:2813.got - 2010.04.14 03:43:10.
