data_PCOD8169378
_publ_section_title
;
Structure prediction by ZEFSAII (Michael W. Deem and Ramdas Pophale) SiO2 
 PCOD8169378
Probable space group: P N C 2
;
_chemical_formula_sum "Si O2"
_cell_formula_units_Z 20
_cell_length_a 11.136679
_cell_length_b 13.001595
_cell_length_c 5.336247
_cell_angle_alpha 90.000000
_cell_angle_beta 90.000000
_cell_angle_gamma 90.000000
_cell_volume 772.659697
_symmetry_space_group_name_H-M "P N C 2"
_symmetry_group_IT_number 30
_symmetry_cell_setting 'orthorhombic'
loop_
_space_group_symop_operation_xyz
x,y,z
-x,-y,z
-x,1/2+y,1/2+z
x,1/2-y,1/2+z
loop_
_atom_site_type_symbol
_atom_site_label
_atom_site_fract_x
_atom_site_fract_y
_atom_site_fract_z
Si Si1 0.434515 0.391415 0.146920
Si Si2 0.465122 0.618798 0.646931
Si Si3 0.914558 0.131021 0.620036
Si Si4 0.815658 0.362735 0.620060
Si Si5 0.180314 0.182668 0.594306
O O1 0.500000 0.500000 0.180366
O O2 0.463516 0.332966 0.409351
O O3 0.290914 0.397485 0.112795
O O4 0.492229 0.330080 0.910292
O O5 0.500000 0.500000 0.681898
O O6 0.326422 0.640954 0.605140
O O7 0.874356 0.250013 0.627697
O O8 0.857093 0.077897 0.372688
O O9 0.057866 0.117430 0.611233
O O10 0.864482 0.077653 0.873624
O O11 0.185508 0.238191 0.325373
#
# Coordination Sequence:
#
# PCOD8169378 Si02
#       5
#     4   4   4   4   4
#     4  10  23  42  62  87 130 173 208 252 316 385
#     4  10  21  40  62  84 123 170 208 245 300 376
#     4  10  19  35  58  90 123 154 194 257 321 355
#     4  10  18  35  58  86 124 154 198 251 303 369
#     4  12  21  40  64  96 127 156 212 268 316 378
#
# _framework density 25.884616999999999
#
# number of rings (size 3 to 8) (size 9 to 14) (size 15 to 20)
#    0.000    1.600    4.000    2.400    0.000    0.000 
#   21.600    0.000    0.000   28.800    0.000    0.000 
#    0.000    0.000    0.000    0.000    0.000    0.000 
#
# Total GULP energy -247823.280313 kJ/mol
# GULP energy per Si atom -12391.164016 kJ/mol
# Density = 2.582570 g / cm^3
# Si number density = 25.884617 Si / 1000 Ang^3
#
#
#
# Elastic Constant Matrix: (Units=GPa)
#
#
# Indices 1 2 3 4 5 6 
#
# 1 184.6502 -9.5795 27.9597 0.0000 0.0000 0.0000
# 2 -9.5795 23.0438 -19.8941 0.0000 0.0000 0.0000
# 3 27.9597 -19.8941 257.1480 0.0000 0.0000 0.0000
# 4 0.0000 0.0000 0.0000 -26.5410 0.0000 0.0000
# 5 0.0000 0.0000 0.0000 0.0000 51.2949 0.0000
# 6 0.0000 0.0000 0.0000 0.0000 0.0000 15.2835
#
#
#
# Elastic Compliance Matrix: (Units=1/GPa)
#
#
# Indices 1 2 3 4 5 6 
#
# 1 0.005585 0.001926 -0.000458 0.000000 0.000000 0.000000
# 2 0.001926 0.047166 0.003440 0.000000 0.000000 0.000000
# 3 -0.000458 0.003440 0.004205 0.000000 0.000000 0.000000
# 4 0.000000 0.000000 0.000000 -0.037678 0.000000 0.000000
# 5 0.000000 0.000000 0.000000 0.000000 0.019495 0.000000
# 6 0.000000 0.000000 0.000000 0.000000 0.000000 0.065430
#
#
# Mechanical properties :
#
#
# Convention : Reuss Voigt Hill
#
# Bulk Modulus (GPa) = 14.97671 51.31265 33.14468
# Shear Modulus (GPa) = 42.86518 39.09789 40.98154
#
# Velocity S-wave (km/s) = 4.07382 3.89069 3.98331
# Velocity P-wave (km/s) = 5.28456 6.32850 5.82994
#
# Compressibility (1/GPa) = 0.06677034
#
# Stress axis : x y z
#
# Youngs Moduli (GPa) = 179.05234 21.20180 237.82725
#
# Poissons Ratio (x) = -0.04084 0.10898
# Poissons Ratio (y) = -0.34488 -0.81801
# Poissons Ratio (z) = 0.08205 -0.07292
#
# Static dielectric constant tensor:
#      x y z
#    x 4.681850 0.000000 0.000000 
#    y 0.000000 4.082180 0.000000 
#    z 0.000000 0.000000 8.197830 
# 
# 
# High freq. dielectric constant tensor:
#      x y z
#    x 2.041010 0.000000 0.000000 
#    y 0.000000 1.998860 0.000000 
#    z 0.000000 0.000000 2.084670 
# 
# From -- ./inp_files/353.got.cif
#   From: 2010.03.12/outbox.cif.g09.slc.cpg/sg30_1_cif.got.tgz:353.got - 2010.04.14 01:38:02.
