data_PCOD8169583
_publ_section_title
;
Structure prediction by ZEFSAII (Michael W. Deem and Ramdas Pophale) SiO2 
 PCOD8169583
Probable space group: P N C 2
;
_chemical_formula_sum "Si O2"
_cell_formula_units_Z 30
_cell_length_a 20.377578
_cell_length_b 5.002023
_cell_length_c 11.040498
_cell_angle_alpha 90.000000
_cell_angle_beta 90.000000
_cell_angle_gamma 90.000000
_cell_volume 1125.348177
_symmetry_space_group_name_H-M "P N C 2"
_symmetry_group_IT_number 30
_symmetry_cell_setting 'orthorhombic'
loop_
_space_group_symop_operation_xyz
x,y,z
-x,-y,z
-x,1/2+y,1/2+z
x,1/2-y,1/2+z
loop_
_atom_site_type_symbol
_atom_site_label
_atom_site_fract_x
_atom_site_fract_y
_atom_site_fract_z
Si Si1 0.749824 0.737556 0.375000
Si Si2 0.736389 0.260174 0.715267
Si Si3 0.168423 0.616777 0.027226
Si Si4 0.602407 0.769223 0.911166
Si Si5 0.923472 0.548641 0.448727
Si Si6 0.927298 0.616245 0.186137
Si Si7 0.591377 0.266911 0.759269
Si Si8 0.500000 0.500000 0.085094
O O1 0.765892 0.449333 0.315483
O O2 0.679995 0.736795 0.446727
O O3 0.747044 0.944499 0.264586
O O4 0.809852 0.832330 0.464029
O O5 0.765448 0.254706 0.578053
O O6 0.660249 0.190980 0.696931
O O7 0.126152 0.606262 0.152005
O O8 0.123165 0.788359 0.935494
O O9 0.590237 0.576008 0.796564
O O10 0.581392 0.070935 0.875557
O O11 0.555845 0.662991 0.015525
O O12 0.912865 0.721162 0.322974
O O13 0.909971 0.680701 0.577850
O O14 0.000000 0.500000 0.445833
O O15 0.000000 0.500000 0.172052
O O16 0.533823 0.227853 0.664627
#
# Coordination Sequence:
#
# PCOD8169583 Si02
#       8
#     4   4   4   4   4   4   4   2
#     4  10  24  44  66  98 140 184 235 300 370 438
#     4  10  24  44  67  97 141 184 235 302 367 441
#     4  12  25  42  71 102 134 188 244 300 366 453
#     4  10  23  42  62  94 137 177 230 294 358 429
#     4  11  26  48  69 106 148 192 243 304 380 451
#     4  11  26  46  71 103 146 194 238 310 372 457
#     4  10  23  42  62  95 136 178 231 293 360 427
#     4  12  22  38  68  96 128 184 236 292 356 434
#
# _framework density 26.658415999999999
#
# number of rings (size 3 to 8) (size 9 to 14) (size 15 to 20)
#    0.000    1.333    1.333    2.400    5.600    3.733 
#    0.000    8.000    0.000    0.000    0.000    0.000 
#    0.000    0.000    0.000    0.000    0.000    0.000 
#
# Total GULP energy -371718.195288 kJ/mol
# GULP energy per Si atom -12390.606510 kJ/mol
# Density = 2.659774 g / cm^3
# Si number density = 26.658416 Si / 1000 Ang^3
#
#
#
# Elastic Constant Matrix: (Units=GPa)
#
#
# Indices 1 2 3 4 5 6 
#
# 1 128.9679 7.3711 50.5152 0.0000 0.0000 0.0000
# 2 7.3711 56.5145 7.7528 0.0000 0.0000 0.0000
# 3 50.5152 7.7528 126.4730 0.0000 0.0000 0.0000
# 4 0.0000 0.0000 0.0000 18.0218 0.0000 0.0000
# 5 0.0000 0.0000 0.0000 0.0000 10.9712 0.0000
# 6 0.0000 0.0000 0.0000 0.0000 0.0000 23.1098
#
#
#
# Elastic Compliance Matrix: (Units=1/GPa)
#
#
# Indices 1 2 3 4 5 6 
#
# 1 0.009220 -0.000703 -0.003639 0.000000 0.000000 0.000000
# 2 -0.000703 0.017898 -0.000816 0.000000 0.000000 0.000000
# 3 -0.003639 -0.000816 0.009410 0.000000 0.000000 0.000000
# 4 0.000000 0.000000 0.000000 0.055488 0.000000 0.000000
# 5 0.000000 0.000000 0.000000 0.000000 0.091147 0.000000
# 6 0.000000 0.000000 0.000000 0.000000 0.000000 0.043272
#
#
# Mechanical properties :
#
#
# Convention : Reuss Voigt Hill
#
# Bulk Modulus (GPa) = 38.15250 49.24819 43.70034
# Shear Modulus (GPa) = 20.36740 26.84165 23.60453
#
# Velocity S-wave (km/s) = 2.76708 3.17657 2.97887
# Velocity P-wave (km/s) = 4.95496 5.65403 5.31600
#
# Compressibility (1/GPa) = 0.02621060
#
# Stress axis : x y z
#
# Youngs Moduli (GPa) = 108.46540 55.87127 106.26478
#
# Poissons Ratio (x) = 0.03929 0.38673
# Poissons Ratio (y) = 0.07628 0.08674
# Poissons Ratio (z) = 0.39474 0.04561
#
# Static dielectric constant tensor:
#      x y z
#    x 5.726840 0.000000 0.000000 
#    y 0.000000 4.756140 0.000000 
#    z 0.000000 0.000000 4.702000 
# 
# 
# High freq. dielectric constant tensor:
#      x y z
#    x 2.109210 0.000000 0.000000 
#    y 0.000000 2.052970 0.000000 
#    z 0.000000 0.000000 2.064210 
# 
# From -- ./inp_files/4495.got.cif
#   From: 2010.03.12/outbox.cif.g09.slc.cpg/sg30_3_cif.got.tgz:4495.got - 2010.04.14 01:38:02.
