data_PCOD8169924
_publ_section_title
;
Structure prediction by ZEFSAII (Michael W. Deem and Ramdas Pophale) SiO2 
 PCOD8169924
Probable space group: P M N 21
;
_chemical_formula_sum "Si O2"
_cell_formula_units_Z 32
_cell_length_a 8.589179
_cell_length_b 9.238311
_cell_length_c 20.944146
_cell_angle_alpha 90.000000
_cell_angle_beta 90.000000
_cell_angle_gamma 90.000000
_cell_volume 1661.907656
_symmetry_space_group_name_H-M "P M N 21"
_symmetry_group_IT_number 31
_symmetry_cell_setting 'orthorhombic'
loop_
_space_group_symop_operation_xyz
x,y,z
1/2-x,-y,1/2+z
-x,y,z
1/2+x,-y,1/2+z
loop_
_atom_site_type_symbol
_atom_site_label
_atom_site_fract_x
_atom_site_fract_y
_atom_site_fract_z
Si Si1 0.681313 0.668316 0.722270
Si Si2 0.183713 0.668640 0.212794
Si Si3 0.178232 0.642493 0.988082
Si Si4 0.684432 0.329783 0.989139
Si Si5 0.182334 0.145991 0.101549
Si Si6 0.820307 0.668943 0.350414
Si Si7 0.322463 0.365852 0.347317
Si Si8 0.819872 0.166923 0.595176
O O1 0.500000 0.689529 0.734498
O O2 0.722963 0.501432 0.707463
O O3 0.738041 0.762055 0.662449
O O4 0.771746 0.728715 0.785585
O O5 0.240932 0.732140 0.282476
O O6 0.281091 0.752248 0.160492
O O7 0.000000 0.695006 0.202462
O O8 0.281707 0.499769 0.998877
O O9 0.224170 0.767196 0.036737
O O10 0.000000 0.597085 0.000311
O O11 0.198260 0.710300 0.916493
O O12 0.500000 0.304705 0.997313
O O13 0.781023 0.236353 0.038522
O O14 0.747823 0.276988 0.918560
O O15 0.000000 0.110857 0.104172
O O16 0.279266 0.000035 0.101856
O O17 0.796278 0.498171 0.346499
O O18 0.000000 0.702522 0.353165
O O19 0.500000 0.418906 0.339113
O O20 0.000000 0.185134 0.579674
#
# Coordination Sequence:
#
# PCOD8169924 Si02
#       8
#     4   4   4   4   4   4   4   4
#     4   9  19  35  57  81 106 139 177 214 262 322
#     4   9  17  34  58  82 108 139 174 214 262 324
#     4  10  20  36  57  82 110 143 179 217 267 325
#     4  10  19  34  58  87 112 138 177 224 265 310
#     4  11  23  39  56  76 107 148 184 219 268 326
#     4   8  16  31  53  80 110 139 170 211 263 318
#     4   9  17  29  52  83 110 134 169 218 265 308
#     4  12  25  38  53  77 107 142 184 231 272 311
#
# _framework density 19.254982999999999
#
# number of rings (size 3 to 8) (size 9 to 14) (size 15 to 20)
#    0.000    2.250    0.000    4.125    0.000    6.000 
#    0.000    1.250    0.000    1.500    0.000    0.000 
#    0.000    0.000    0.000    0.000    0.000    0.000 
#
# Total GULP energy -396532.162420 kJ/mol
# GULP energy per Si atom -12391.630076 kJ/mol
# Density = 1.921116 g / cm^3
# Si number density = 19.254983 Si / 1000 Ang^3
#
#
#
# Elastic Constant Matrix: (Units=GPa)
#
#
# Indices 1 2 3 4 5 6 
#
# 1 33.9487 12.1767 30.8396 0.0000 0.0000 0.0000
# 2 12.1767 61.4553 49.9500 0.0000 0.0000 0.0000
# 3 30.8396 49.9500 176.9095 0.0000 0.0000 0.0000
# 4 0.0000 0.0000 0.0000 -2.9543 0.0000 0.0000
# 5 0.0000 0.0000 0.0000 0.0000 30.4644 0.0000
# 6 0.0000 0.0000 0.0000 0.0000 0.0000 26.1362
#
#
#
# Elastic Compliance Matrix: (Units=1/GPa)
#
#
# Indices 1 2 3 4 5 6 
#
# 1 0.035313 -0.002587 -0.005425 0.000000 0.000000 0.000000
# 2 -0.002587 0.021308 -0.005565 0.000000 0.000000 0.000000
# 3 -0.005425 -0.005565 0.008170 0.000000 0.000000 0.000000
# 4 0.000000 0.000000 0.000000 -0.338486 0.000000 0.000000
# 5 0.000000 0.000000 0.000000 0.000000 0.032825 0.000000
# 6 0.000000 0.000000 0.000000 0.000000 0.000000 0.038261
#
#
# Mechanical properties :
#
#
# Convention : Reuss Voigt Hill
#
# Bulk Modulus (GPa) = 26.57114 50.91621 38.74368
# Shear Modulus (GPa) = -30.69202 22.68573 -4.00315
#
# Velocity S-wave (km/s) = -3.99680 3.43618 -1.44344
# Velocity P-wave (km/s) = 2.73306 6.49951 4.16977
#
# Compressibility (1/GPa) = 0.03763481
#
# Stress axis : x y z
#
# Youngs Moduli (GPa) = 28.31843 46.93082 122.40323
#
# Poissons Ratio (x) = 0.12142 0.66408
# Poissons Ratio (y) = 0.07326 0.68120
# Poissons Ratio (z) = 0.15364 0.26118
#
# Static dielectric constant tensor:
#      x y z
#    x 3.460110 0.000000 0.000000 
#    y 0.000000 3.135510 0.000000 
#    z 0.000000 0.000000 4.196840 
# 
# 
# High freq. dielectric constant tensor:
#      x y z
#    x 1.747910 0.000000 0.000000 
#    y 0.000000 1.700320 0.000000 
#    z 0.000000 0.000000 1.781550 
# 
# From -- ./inp_files/6237.got.cif
#   From: 2010.03.12/outbox.cif.g09.slc.cpg/sg31_4_cif.got.tgz:6237.got - 2010.04.14 01:42:59.
