data_PCOD8169677
_publ_section_title
;
Structure prediction by ZEFSAII (Michael W. Deem and Ramdas Pophale) SiO2 
 PCOD8169677
Probable space group: P M N 21
;
_chemical_formula_sum "Si O2"
_cell_formula_units_Z 28
_cell_length_a 10.612175
_cell_length_b 5.241591
_cell_length_c 28.116332
_cell_angle_alpha 90.000000
_cell_angle_beta 90.000000
_cell_angle_gamma 90.000000
_cell_volume 1563.961998
_symmetry_space_group_name_H-M "P M N 21"
_symmetry_group_IT_number 31
_symmetry_cell_setting 'orthorhombic'
loop_
_space_group_symop_operation_xyz
x,y,z
1/2-x,-y,1/2+z
-x,y,z
1/2+x,-y,1/2+z
loop_
_atom_site_type_symbol
_atom_site_label
_atom_site_fract_x
_atom_site_fract_y
_atom_site_fract_z
Si Si1 0.791152 0.000003 0.338890
Si Si2 0.349051 0.490846 0.570526
Si Si3 0.849769 0.025775 0.233792
Si Si4 0.852956 0.008006 0.019561
Si Si5 0.148839 0.524721 0.177559
Si Si6 0.634639 0.485943 0.886013
Si Si7 0.857518 0.201589 0.918228
O O1 0.858040 0.254161 0.356931
O O2 0.770421 0.023596 0.282645
O O3 0.875424 0.749067 0.348550
O O4 0.661147 0.961509 0.369446
O O5 0.500000 0.489923 0.569315
O O6 0.294531 0.745605 0.545936
O O7 0.296235 0.476816 0.624197
O O8 0.293831 0.250035 0.541073
O O9 0.806439 0.779749 0.204057
O O10 0.000000 0.028060 0.243865
O O11 0.804333 0.274872 0.205355
O O12 0.000000 0.005745 0.030478
O O13 0.827102 0.021231 0.963119
O O14 0.000000 0.519932 0.174215
O O15 0.500000 0.490464 0.914174
O O16 0.756932 0.437740 0.919777
O O17 0.000000 0.310544 0.920880
#
# Coordination Sequence:
#
# PCOD8169677 Si02
#       7
#     4   4   4   4   4   4   4
#     4  10  21  32  51  71 103 137 175 209 249 300
#     4   9  16  27  42  64  92 126 161 199 247 304
#     4  10  17  27  43  65  95 130 163 197 248 304
#     4   9  17  28  45  64  93 129 163 197 248 304
#     4   9  17  26  41  64  94 126 160 200 247 303
#     4  10  20  34  52  72 101 137 173 213 252 296
#     4   9  22  36  52  76 106 141 177 213 253 303
#
# _framework density 17.903248000000001
#
# number of rings (size 3 to 8) (size 9 to 14) (size 15 to 20)
#    0.857    1.714    0.000    3.000    2.000    5.143 
#    0.000    0.000    0.000    0.000    0.000    0.000 
#    0.000    6.857    0.000    0.000    0.000    0.000 
#
# Total GULP energy -346871.316697 kJ/mol
# GULP energy per Si atom -12388.261311 kJ/mol
# Density = 1.786250 g / cm^3
# Si number density = 17.903248 Si / 1000 Ang^3
#
#
#
# Elastic Constant Matrix: (Units=GPa)
#
#
# Indices 1 2 3 4 5 6 
#
# 1 51.6516 11.5553 22.5330 0.0000 0.0000 0.0000
# 2 11.5553 134.0863 39.7432 0.0000 0.0000 0.0000
# 3 22.5330 39.7432 127.3193 0.0000 0.0000 0.0000
# 4 0.0000 0.0000 0.0000 26.5893 0.0000 0.0000
# 5 0.0000 0.0000 0.0000 0.0000 19.2459 0.0000
# 6 0.0000 0.0000 0.0000 0.0000 0.0000 16.7834
#
#
#
# Elastic Compliance Matrix: (Units=1/GPa)
#
#
# Indices 1 2 3 4 5 6 
#
# 1 0.021055 -0.000782 -0.003482 0.000000 0.000000 0.000000
# 2 -0.000782 0.008247 -0.002436 0.000000 0.000000 0.000000
# 3 -0.003482 -0.002436 0.009231 0.000000 0.000000 0.000000
# 4 0.000000 0.000000 0.000000 0.037609 0.000000 0.000000
# 5 0.000000 0.000000 0.000000 0.000000 0.051959 0.000000
# 6 0.000000 0.000000 0.000000 0.000000 0.000000 0.059583
#
#
# Mechanical properties :
#
#
# Convention : Reuss Voigt Hill
#
# Bulk Modulus (GPa) = 39.78979 51.19113 45.49046
# Shear Modulus (GPa) = 23.87067 28.47209 26.17138
#
# Velocity S-wave (km/s) = 3.65542 3.99222 3.82753
# Velocity P-wave (km/s) = 6.33161 7.06440 6.70802
#
# Compressibility (1/GPa) = 0.02513208
#
# Stress axis : x y z
#
# Youngs Moduli (GPa) = 47.49566 121.25144 108.33159
#
# Poissons Ratio (x) = 0.09486 0.37721
# Poissons Ratio (y) = 0.03716 0.26389
# Poissons Ratio (z) = 0.16538 0.29537
#
# Static dielectric constant tensor:
#      x y z
#    x 2.690060 0.000000 0.000000 
#    y 0.000000 3.525140 0.000000 
#    z 0.000000 0.000000 3.359950 
# 
# 
# High freq. dielectric constant tensor:
#      x y z
#    x 1.613840 0.000000 0.000000 
#    y 0.000000 1.711560 0.000000 
#    z 0.000000 0.000000 1.693650 
# 
# From -- ./inp_files/6588.got.cif
#   From: 2010.03.12/outbox.cif.g09.slc.cpg/sg31_4_cif.got.tgz:6588.got - 2010.04.14 01:42:59.
