data_PCOD8169320
_publ_section_title
;
Structure prediction by ZEFSAII (Michael W. Deem and Ramdas Pophale) SiO2 
 PCOD8169320
Probable space group: P C A 21
;
_chemical_formula_sum "Si O2"
_cell_formula_units_Z 24
_cell_length_a 13.983039
_cell_length_b 8.278040
_cell_length_c 8.535046
_cell_angle_alpha 90.000000
_cell_angle_beta 90.000000
_cell_angle_gamma 90.000000
_cell_volume 987.949977
_symmetry_space_group_name_H-M "P C A 21"
_symmetry_group_IT_number 29
_symmetry_cell_setting 'orthorhombic'
loop_
_space_group_symop_operation_xyz
x,y,z
-x,-y,1/2+z
1/2-x,y,1/2+z
1/2+x,-y,z
loop_
_atom_site_type_symbol
_atom_site_label
_atom_site_fract_x
_atom_site_fract_y
_atom_site_fract_z
Si Si1 0.675727 0.613030 0.162370
Si Si2 0.497759 0.092832 0.120974
Si Si3 0.793697 0.908114 0.085211
Si Si4 0.989647 0.233444 0.279223
Si Si5 0.691546 0.412229 0.866269
Si Si6 0.818040 0.122599 0.803061
O O1 0.581731 0.650674 0.264687
O O2 0.759888 0.561498 0.278680
O O3 0.712934 0.772486 0.072988
O O4 0.654816 0.471416 0.036587
O O5 0.577285 0.168780 0.236168
O O6 0.391384 0.156022 0.168389
O O7 0.494670 0.896882 0.138174
O O8 0.521959 0.139285 0.943212
O O9 0.751878 0.069287 0.163428
O O10 0.826869 0.963493 0.911763
O O11 0.896952 0.347510 0.263419
O O12 0.772821 0.275503 0.890584
#
# Coordination Sequence:
#
# PCOD8169320 Si02
#       6
#     4   4   4   4   4   4
#     4  12  28  51  76 112 159 201 250 315 393 459
#     4  12  24  46  76 113 147 192 268 316 372 447
#     4  12  24  46  73 109 145 203 253 311 376 448
#     4  12  27  48  75 115 151 206 254 318 385 455
#     4  12  28  49  74 113 155 202 248 317 393 457
#     4  12  25  46  78 108 151 198 259 313 369 456
#
# _framework density 24.292726999999999
#
# number of rings (size 3 to 8) (size 9 to 14) (size 15 to 20)
#    0.000    0.000    5.000    5.000    0.000    5.333 
#    0.000    0.000    0.000    0.000    0.000    0.000 
#    0.000    0.000    0.000    0.000    0.000    0.000 
#
# Total GULP energy -297667.012858 kJ/mol
# GULP energy per Si atom -12402.792202 kJ/mol
# Density = 2.423744 g / cm^3
# Si number density = 24.292727 Si / 1000 Ang^3
#
#
#
# Elastic Constant Matrix: (Units=GPa)
#
#
# Indices 1 2 3 4 5 6 
#
# 1 181.9173 49.2542 47.0970 0.0000 0.0000 0.0000
# 2 49.2542 94.6385 46.6017 0.0000 0.0000 0.0000
# 3 47.0970 46.6017 101.7158 0.0000 0.0000 0.0000
# 4 0.0000 0.0000 0.0000 42.0391 0.0000 0.0000
# 5 0.0000 0.0000 0.0000 0.0000 33.7915 0.0000
# 6 0.0000 0.0000 0.0000 0.0000 0.0000 45.0175
#
#
#
# Elastic Compliance Matrix: (Units=1/GPa)
#
#
# Indices 1 2 3 4 5 6 
#
# 1 0.006682 -0.002523 -0.001938 0.000000 0.000000 0.000000
# 2 -0.002523 0.014598 -0.005520 0.000000 0.000000 0.000000
# 3 -0.001938 -0.005520 0.013257 0.000000 0.000000 0.000000
# 4 0.000000 0.000000 0.000000 0.023787 0.000000 0.000000
# 5 0.000000 0.000000 0.000000 0.000000 0.029593 0.000000
# 6 0.000000 0.000000 0.000000 0.000000 0.000000 0.022214
#
#
# Mechanical properties :
#
#
# Convention : Reuss Voigt Hill
#
# Bulk Modulus (GPa) = 68.60853 73.79748 71.20301
# Shear Modulus (GPa) = 37.05037 39.85754 38.45396
#
# Velocity S-wave (km/s) = 3.90957 4.05497 3.98294
# Velocity P-wave (km/s) = 6.97735 7.23658 7.10815
#
# Compressibility (1/GPa) = 0.01457545
#
# Stress axis : x y z
#
# Youngs Moduli (GPa) = 149.65844 68.50351 75.42934
#
# Poissons Ratio (x) = 0.17286 0.14617
# Poissons Ratio (y) = 0.37764 0.41635
# Poissons Ratio (z) = 0.29001 0.37812
#
# Static dielectric constant tensor:
#      x y z
#    x 4.594510 0.000000 0.000000 
#    y 0.000000 4.251930 0.000000 
#    z 0.000000 0.000000 4.212600 
# 
# 
# High freq. dielectric constant tensor:
#      x y z
#    x 1.983150 0.000000 0.000000 
#    y 0.000000 1.958120 0.000000 
#    z 0.000000 0.000000 1.954650 
# 
# From -- ./inp_files/1725.got.cif
#   From: 2010.03.12/outbox.cif.g09.slc.cpg/sg29_1_cif.got.tgz:1725.got - 2010.04.14 03:43:10.
