data_PCOD8169692
_publ_section_title
;
Structure prediction by ZEFSAII (Michael W. Deem and Ramdas Pophale) SiO2 
 PCOD8169692
Probable space group: P M N 21
;
_chemical_formula_sum "Si O2"
_cell_formula_units_Z 32
_cell_length_a 28.847313
_cell_length_b 12.007420
_cell_length_c 5.308404
_cell_angle_alpha 90.000000
_cell_angle_beta 90.000000
_cell_angle_gamma 90.000000
_cell_volume 1838.734549
_symmetry_space_group_name_H-M "P M N 21"
_symmetry_group_IT_number 31
_symmetry_cell_setting 'orthorhombic'
loop_
_space_group_symop_operation_xyz
x,y,z
1/2-x,-y,1/2+z
-x,y,z
1/2+x,-y,1/2+z
loop_
_atom_site_type_symbol
_atom_site_label
_atom_site_fract_x
_atom_site_fract_y
_atom_site_fract_z
Si Si1 0.797176 0.593454 0.217290
Si Si2 0.553779 0.121039 0.717274
Si Si3 0.905428 0.635319 0.217278
Si Si4 0.591245 0.105823 0.217274
Si Si5 0.810917 0.996798 0.717257
Si Si6 0.244725 0.354718 0.217290
Si Si7 0.287445 0.883974 0.717257
Si Si8 0.945351 0.645251 0.717278
O O1 0.851307 0.614409 0.217260
O O2 0.788124 0.461950 0.217279
O O3 0.776127 0.649585 0.466953
O O4 0.776117 0.649595 0.967662
O O5 0.500000 0.152800 0.717261
O O6 0.584026 0.233344 0.717290
O O7 0.567653 0.051575 0.466921
O O8 0.567650 0.051576 0.967635
O O9 0.928749 0.579844 0.466313
O O10 0.928752 0.579846 0.968250
O O11 0.580605 0.236660 0.217289
O O12 0.645943 0.086541 0.217264
O O13 0.813058 0.072409 0.467271
O O14 0.765977 0.919905 0.717261
O O15 0.813057 0.072417 0.967231
O O16 0.210539 0.249419 0.217265
O O17 0.000000 0.663754 0.717264
#
# Coordination Sequence:
#
# PCOD8169692 Si02
#       8
#     4   4   4   4   4   4   4   4
#     4  10  21  33  51  78  94 128 185 193 250 305
#     4  10  19  29  44  71 102 129 150 193 255 300
#     4  10  18  28  46  69  97 129 158 196 221 314
#     4  10  18  29  46  64  96 129 159 197 220 307
#     4  10  21  33  47  74  90 130 182 196 241 300
#     4  10  21  36  51  68 103 134 161 227 245 280
#     4  10  21  35  49  65 102 130 163 223 245 272
#     4  10  19  31  46  73 104 131 152 195 257 300
#
# _framework density 17.403272000000001
#
# number of rings (size 3 to 8) (size 9 to 14) (size 15 to 20)
#    0.000    2.000    0.000    6.000    7.000    0.000 
#    0.000    0.000    0.000    0.000    0.000    0.000 
#    0.000   34.000    0.000    0.000    0.000    0.000 
#
# Total GULP energy -396656.595848 kJ/mol
# GULP energy per Si atom -12395.518620 kJ/mol
# Density = 1.736366 g / cm^3
# Si number density = 17.403272 Si / 1000 Ang^3
#
#
#
# Elastic Constant Matrix: (Units=GPa)
#
#
# Indices 1 2 3 4 5 6 
#
# 1 129.1566 21.4385 54.5105 0.0000 0.0000 0.0000
# 2 21.4385 38.2598 16.1326 0.0000 0.0000 0.0000
# 3 54.5105 16.1326 197.1314 0.0000 0.0000 0.0000
# 4 0.0000 0.0000 0.0000 9.3920 0.0000 0.0000
# 5 0.0000 0.0000 0.0000 0.0000 27.4451 0.0000
# 6 0.0000 0.0000 0.0000 0.0000 0.0000 18.0040
#
#
#
# Elastic Compliance Matrix: (Units=1/GPa)
#
#
# Indices 1 2 3 4 5 6 
#
# 1 0.009409 -0.004324 -0.002248 0.000000 0.000000 0.000000
# 2 -0.004324 0.029059 -0.001182 0.000000 0.000000 0.000000
# 3 -0.002248 -0.001182 0.005791 0.000000 0.000000 0.000000
# 4 0.000000 0.000000 0.000000 0.106473 0.000000 0.000000
# 5 0.000000 0.000000 0.000000 0.000000 0.036436 0.000000
# 6 0.000000 0.000000 0.000000 0.000000 0.000000 0.055543
#
#
# Mechanical properties :
#
#
# Convention : Reuss Voigt Hill
#
# Bulk Modulus (GPa) = 34.78298 60.96788 47.87543
# Shear Modulus (GPa) = 18.67036 29.13264 23.90150
#
# Velocity S-wave (km/s) = 3.27893 4.09586 3.70995
# Velocity P-wave (km/s) = 5.86217 7.58133 6.77649
#
# Compressibility (1/GPa) = 0.02874969
#
# Stress axis : x y z
#
# Youngs Moduli (GPa) = 106.28052 34.41306 172.67894
#
# Poissons Ratio (x) = 0.14882 0.38816
# Poissons Ratio (y) = 0.45960 0.20416
# Poissons Ratio (z) = 0.23891 0.04069
#
# Static dielectric constant tensor:
#      x y z
#    x 3.089520 0.000000 0.000000 
#    y 0.000000 2.731530 0.000000 
#    z 0.000000 0.000000 5.887590 
# 
# 
# High freq. dielectric constant tensor:
#      x y z
#    x 1.667690 0.000000 0.000000 
#    y 0.000000 1.602150 0.000000 
#    z 0.000000 0.000000 1.718900 
# 
# From -- ./inp_files/1139.got.cif
#   From: 2010.03.12/outbox.cif.g09.slc.cpg/sg31_1_cif.got.tgz:1139.got - 2010.04.14 01:42:59.
