data_PCOD8169747
_publ_section_title
;
Structure prediction by ZEFSAII (Michael W. Deem and Ramdas Pophale) SiO2 
 PCOD8169747
Probable space group: P M N 21
;
_chemical_formula_sum "Si O2"
_cell_formula_units_Z 32
_cell_length_a 22.776144
_cell_length_b 11.117751
_cell_length_c 6.551715
_cell_angle_alpha 90.000000
_cell_angle_beta 90.000000
_cell_angle_gamma 90.000000
_cell_volume 1659.021982
_symmetry_space_group_name_H-M "P M N 21"
_symmetry_group_IT_number 31
_symmetry_cell_setting 'orthorhombic'
loop_
_space_group_symop_operation_xyz
x,y,z
1/2-x,-y,1/2+z
-x,y,z
1/2+x,-y,1/2+z
loop_
_atom_site_type_symbol
_atom_site_label
_atom_site_fract_x
_atom_site_fract_y
_atom_site_fract_z
Si Si1 0.137188 0.496537 0.598160
Si Si2 0.348173 0.844631 0.410195
Si Si3 0.703050 0.939437 0.811437
Si Si4 0.434199 0.641029 0.417900
Si Si5 0.165978 0.939873 0.684006
Si Si6 0.347291 0.300653 0.413952
Si Si7 0.067776 0.579512 0.211002
Si Si8 0.279682 0.716054 0.080650
O O1 0.089228 0.412290 0.705579
O O2 0.163533 0.589542 0.760801
O O3 0.105723 0.569714 0.416902
O O4 0.191346 0.413072 0.524445
O O5 0.326726 0.926355 0.595299
O O6 0.400264 0.760125 0.485434
O O7 0.297217 0.759355 0.309700
O O8 0.373334 0.945535 0.253235
O O9 0.770892 0.971223 0.782882
O O10 0.694708 0.812498 0.923711
O O11 0.672776 0.050589 0.937294
O O12 0.500000 0.679816 0.374440
O O13 0.429303 0.548948 0.603503
O O14 0.141025 0.814786 0.768570
O O15 0.403533 0.320944 0.560125
O O16 0.290566 0.290403 0.559381
O O17 0.000000 0.616667 0.256210
#
# Coordination Sequence:
#
# PCOD8169747 Si02
#       8
#     4   4   4   4   4   4   4   4
#     4  10  20  36  56  85 114 150 184 235 284 348
#     4  10  19  34  58  80 112 144 187 237 286 344
#     4  10  18  33  54  76 108 148 187 228 283 354
#     4   9  19  37  59  83 108 140 188 242 291 334
#     4  10  20  34  51  80 109 150 188 227 283 348
#     4  10  23  36  53  84 118 154 188 234 287 343
#     4  10  21  38  60  81 109 153 198 232 280 349
#     4   9  21  34  51  85 115 143 182 233 300 340
#
# _framework density 19.288473
#
# number of rings (size 3 to 8) (size 9 to 14) (size 15 to 20)
#    0.000    2.250    1.250    1.125    1.750    3.500 
#    2.250    0.625    0.000    0.750    0.000    0.000 
#    0.000    0.000    0.000    0.000    0.000    0.000 
#
# Total GULP energy -396641.461444 kJ/mol
# GULP energy per Si atom -12395.045670 kJ/mol
# Density = 1.924457 g / cm^3
# Si number density = 19.288473 Si / 1000 Ang^3
#
#
#
# Elastic Constant Matrix: (Units=GPa)
#
#
# Indices 1 2 3 4 5 6 
#
# 1 76.8376 36.4604 27.4873 0.0000 0.0000 0.0000
# 2 36.4604 83.8674 25.0329 0.0000 0.0000 0.0000
# 3 27.4873 25.0329 90.2794 0.0000 0.0000 0.0000
# 4 0.0000 0.0000 0.0000 32.4208 0.0000 0.0000
# 5 0.0000 0.0000 0.0000 0.0000 21.9855 0.0000
# 6 0.0000 0.0000 0.0000 0.0000 0.0000 22.5449
#
#
#
# Elastic Compliance Matrix: (Units=1/GPa)
#
#
# Indices 1 2 3 4 5 6 
#
# 1 0.017344 -0.006502 -0.003478 0.000000 0.000000 0.000000
# 2 -0.006502 0.015437 -0.002301 0.000000 0.000000 0.000000
# 3 -0.003478 -0.002301 0.012774 0.000000 0.000000 0.000000
# 4 0.000000 0.000000 0.000000 0.030844 0.000000 0.000000
# 5 0.000000 0.000000 0.000000 0.000000 0.045485 0.000000
# 6 0.000000 0.000000 0.000000 0.000000 0.000000 0.044356
#
#
# Mechanical properties :
#
#
# Convention : Reuss Voigt Hill
#
# Bulk Modulus (GPa) = 47.63413 47.66063 47.64738
# Shear Modulus (GPa) = 25.27831 26.19050 25.73440
#
# Velocity S-wave (km/s) = 3.62406 3.68887 3.65661
# Velocity P-wave (km/s) = 6.50085 6.55032 6.52563
#
# Compressibility (1/GPa) = 0.02099335
#
# Stress axis : x y z
#
# Youngs Moduli (GPa) = 57.65733 64.77954 78.28671
#
# Poissons Ratio (x) = 0.42120 0.27226
# Poissons Ratio (y) = 0.37489 0.18012
# Poissons Ratio (z) = 0.20052 0.14904
#
# Static dielectric constant tensor:
#      x y z
#    x 3.382760 0.000000 0.000000 
#    y 0.000000 3.576760 0.000000 
#    z 0.000000 0.000000 3.628890 
# 
# 
# High freq. dielectric constant tensor:
#      x y z
#    x 1.716310 0.000000 0.000000 
#    y 0.000000 1.753180 0.000000 
#    z 0.000000 0.000000 1.758320 
# 
# From -- ./inp_files/1150.got.cif
#   From: 2010.03.12/outbox.cif.g09.slc.cpg/sg31_1_cif.got.tgz:1150.got - 2010.04.14 01:42:59.
