data_PCOD8169899
_publ_section_title
;
Structure prediction by ZEFSAII (Michael W. Deem and Ramdas Pophale) SiO2 
 PCOD8169899
Probable space group: P M N 21
;
_chemical_formula_sum "Si O2"
_cell_formula_units_Z 32
_cell_length_a 14.725150
_cell_length_b 11.640516
_cell_length_c 8.639710
_cell_angle_alpha 90.000000
_cell_angle_beta 90.000000
_cell_angle_gamma 90.000000
_cell_volume 1480.918385
_symmetry_space_group_name_H-M "P M N 21"
_symmetry_group_IT_number 31
_symmetry_cell_setting 'orthorhombic'
loop_
_space_group_symop_operation_xyz
x,y,z
1/2-x,-y,1/2+z
-x,y,z
1/2+x,-y,1/2+z
loop_
_atom_site_type_symbol
_atom_site_label
_atom_site_fract_x
_atom_site_fract_y
_atom_site_fract_z
Si Si1 0.596141 0.071856 0.154050
Si Si2 0.893931 0.629416 0.322965
Si Si3 0.104587 0.201491 0.181233
Si Si4 0.280175 0.601816 0.823896
Si Si5 0.253675 0.257866 0.613799
Si Si6 0.646763 0.879979 0.338524
Si Si7 0.103406 0.678711 0.680249
Si Si8 0.207028 0.051116 0.411292
O O1 0.500000 0.107259 0.076678
O O2 0.628297 0.191011 0.238240
O O3 0.570252 0.958950 0.259043
O O4 0.666194 0.044494 0.021373
O O5 0.832352 0.516678 0.308108
O O6 0.849654 0.717950 0.199290
O O7 0.884365 0.677432 0.495282
O O8 0.000000 0.606851 0.280474
O O9 0.167091 0.310842 0.211689
O O10 0.128219 0.103500 0.304649
O O11 0.000000 0.236760 0.201012
O O12 0.121637 0.153838 0.010296
O O13 0.175393 0.593915 0.764125
O O14 0.279869 0.637269 0.005100
O O15 0.174354 0.233739 0.741576
O O16 0.263600 0.146745 0.505043
O O17 0.725154 0.976666 0.309611
O O18 0.000000 0.641806 0.726269
#
# Coordination Sequence:
#
# PCOD8169899 Si02
#       8
#     4   4   4   4   4   4   4   4
#     4  10  19  34  55  82 115 151 190 240 293 349
#     4  11  23  41  63  89 118 156 205 257 309 360
#     4  11  22  36  57  87 120 162 208 250 298 363
#     4  11  22  41  63  86 122 161 201 255 308 357
#     4  10  22  37  60  87 115 157 200 245 300 360
#     4  11  21  37  58  86 121 159 196 240 296 356
#     4  10  22  39  63  90 119 157 204 253 305 363
#     4  10  20  35  55  81 118 159 198 242 297 354
#
# _framework density 21.608215000000001
#
# number of rings (size 3 to 8) (size 9 to 14) (size 15 to 20)
#    0.000    1.500    0.000    7.125    0.000    0.500 
#    0.000    6.250    0.000    6.750    0.000    0.000 
#    0.000    0.000    0.000    0.000    0.000    0.000 
#
# Total GULP energy -396512.586304 kJ/mol
# GULP energy per Si atom -12391.018322 kJ/mol
# Density = 2.155903 g / cm^3
# Si number density = 21.608215 Si / 1000 Ang^3
#
#
#
# Elastic Constant Matrix: (Units=GPa)
#
#
# Indices 1 2 3 4 5 6 
#
# 1 137.4434 50.9294 43.4609 0.0000 0.0000 0.0000
# 2 50.9294 69.1595 25.4800 0.0000 0.0000 0.0000
# 3 43.4609 25.4800 95.7921 0.0000 0.0000 0.0000
# 4 0.0000 0.0000 0.0000 26.1827 0.0000 0.0000
# 5 0.0000 0.0000 0.0000 0.0000 17.4299 0.0000
# 6 0.0000 0.0000 0.0000 0.0000 0.0000 27.9506
#
#
#
# Elastic Compliance Matrix: (Units=1/GPa)
#
#
# Indices 1 2 3 4 5 6 
#
# 1 0.010767 -0.006795 -0.003077 0.000000 0.000000 0.000000
# 2 -0.006795 0.020318 -0.002322 0.000000 0.000000 0.000000
# 3 -0.003077 -0.002322 0.012453 0.000000 0.000000 0.000000
# 4 0.000000 0.000000 0.000000 0.038193 0.000000 0.000000
# 5 0.000000 0.000000 0.000000 0.000000 0.057373 0.000000
# 6 0.000000 0.000000 0.000000 0.000000 0.000000 0.035777
#
#
# Mechanical properties :
#
#
# Convention : Reuss Voigt Hill
#
# Bulk Modulus (GPa) = 52.21893 60.23728 56.22810
# Shear Modulus (GPa) = 24.31283 26.48095 25.39689
#
# Velocity S-wave (km/s) = 3.35799 3.50452 3.43204
# Velocity P-wave (km/s) = 6.26526 6.65681 6.46400
#
# Compressibility (1/GPa) = 0.01915014
#
# Stress axis : x y z
#
# Youngs Moduli (GPa) = 92.87955 49.21637 80.30132
#
# Poissons Ratio (x) = 0.33441 0.24712
# Poissons Ratio (y) = 0.63110 0.18644
# Poissons Ratio (z) = 0.28583 0.11427
#
# Static dielectric constant tensor:
#      x y z
#    x 4.036490 0.000000 0.000000 
#    y 0.000000 3.942210 0.000000 
#    z 0.000000 0.000000 3.893940 
# 
# 
# High freq. dielectric constant tensor:
#      x y z
#    x 1.856320 0.000000 0.000000 
#    y 0.000000 1.842690 0.000000 
#    z 0.000000 0.000000 1.851800 
# 
# From -- ./inp_files/2565.got.cif
#   From: 2010.03.12/outbox.cif.g09.slc.cpg/sg31_2_cif.got.tgz:2565.got - 2010.04.14 01:42:59.
