data_PCOD8169928
_publ_section_title
;
Structure prediction by ZEFSAII (Michael W. Deem and Ramdas Pophale) SiO2 
 PCOD8169928
Probable space group: P M N 21
;
_chemical_formula_sum "Si O2"
_cell_formula_units_Z 32
_cell_length_a 9.219899
_cell_length_b 10.567133
_cell_length_c 16.610021
_cell_angle_alpha 90.000000
_cell_angle_beta 90.000000
_cell_angle_gamma 90.000000
_cell_volume 1618.279448
_symmetry_space_group_name_H-M "P M N 21"
_symmetry_group_IT_number 31
_symmetry_cell_setting 'orthorhombic'
loop_
_space_group_symop_operation_xyz
x,y,z
1/2-x,-y,1/2+z
-x,y,z
1/2+x,-y,1/2+z
loop_
_atom_site_type_symbol
_atom_site_label
_atom_site_fract_x
_atom_site_fract_y
_atom_site_fract_z
Si Si1 0.829272 0.392053 0.914250
Si Si2 0.337132 0.300649 0.767529
Si Si3 0.170449 0.684687 0.895056
Si Si4 0.162836 0.169026 0.532803
Si Si5 0.669152 0.190407 0.225163
Si Si6 0.335722 0.335971 0.064601
Si Si7 0.166576 0.954868 0.167640
Si Si8 0.655987 0.590570 0.142148
O O1 0.768527 0.306317 0.842777
O O2 0.777261 0.539192 0.907865
O O3 0.000000 0.386168 0.913574
O O4 0.772258 0.312974 0.991098
O O5 0.500000 0.330562 0.794961
O O6 0.323066 0.167457 0.723635
O O7 0.285385 0.410615 0.706398
O O8 0.206860 0.726622 0.803837
O O9 0.000000 0.696175 0.914080
O O10 0.253517 0.781896 0.953853
O O11 0.251316 0.059494 0.581014
O O12 0.149068 0.278714 0.596734
O O13 0.000000 0.120940 0.509241
O O14 0.500000 0.155167 0.224426
O O15 0.714417 0.268543 0.146084
O O16 0.761878 0.062968 0.222528
O O17 0.500000 0.297275 0.041321
O O18 0.318955 0.485323 0.076025
O O19 0.000000 0.987652 0.148062
O O20 0.500000 0.566398 0.186447
#
# Coordination Sequence:
#
# PCOD8169928 Si02
#       8
#     4   4   4   4   4   4   4   4
#     4  11  22  36  58  89 122 153 191 237 293 356
#     4  10  21  36  57  83 112 149 190 238 291 341
#     4  10  21  38  60  88 122 154 192 243 297 351
#     4  10  19  34  61  90 115 151 194 237 287 347
#     4  10  22  40  61  84 115 159 200 242 295 349
#     4  10  20  37  58  83 120 155 188 236 292 348
#     4  10  22  41  61  83 115 152 198 248 291 343
#     4   9  17  32  56  84 115 147 183 229 286 347
#
# _framework density 19.774087000000002
#
# number of rings (size 3 to 8) (size 9 to 14) (size 15 to 20)
#    0.000    2.000    1.250    2.250    0.000    6.000 
#    2.250    1.250    0.000    0.000    0.000    0.000 
#    0.000    0.000    0.000    0.000    0.000    0.000 
#
# Total GULP energy -396637.794442 kJ/mol
# GULP energy per Si atom -12394.931076 kJ/mol
# Density = 1.972908 g / cm^3
# Si number density = 19.774087 Si / 1000 Ang^3
#
#
#
# Elastic Constant Matrix: (Units=GPa)
#
#
# Indices 1 2 3 4 5 6 
#
# 1 102.1644 35.6546 63.1324 0.0000 0.0000 0.0000
# 2 35.6546 33.5175 19.0037 0.0000 0.0000 0.0000
# 3 63.1324 19.0037 122.3099 0.0000 0.0000 0.0000
# 4 0.0000 0.0000 0.0000 28.1181 0.0000 0.0000
# 5 0.0000 0.0000 0.0000 0.0000 40.3940 0.0000
# 6 0.0000 0.0000 0.0000 0.0000 0.0000 21.3859
#
#
#
# Elastic Compliance Matrix: (Units=1/GPa)
#
#
# Indices 1 2 3 4 5 6 
#
# 1 0.020954 -0.017719 -0.008063 0.000000 0.000000 0.000000
# 2 -0.017719 0.047700 0.001735 0.000000 0.000000 0.000000
# 3 -0.008063 0.001735 0.012068 0.000000 0.000000 0.000000
# 4 0.000000 0.000000 0.000000 0.035564 0.000000 0.000000
# 5 0.000000 0.000000 0.000000 0.000000 0.024756 0.000000
# 6 0.000000 0.000000 0.000000 0.000000 0.000000 0.046760
#
#
# Mechanical properties :
#
#
# Convention : Reuss Voigt Hill
#
# Bulk Modulus (GPa) = 30.64811 54.84145 42.74478
# Shear Modulus (GPa) = 20.26146 27.32634 23.79390
#
# Velocity S-wave (km/s) = 3.20448 3.72146 3.47261
# Velocity P-wave (km/s) = 5.40596 6.80146 6.14346
#
# Compressibility (1/GPa) = 0.03262844
#
# Stress axis : x y z
#
# Youngs Moduli (GPa) = 47.72272 20.96421 82.86195
#
# Poissons Ratio (x) = 0.37146 0.66811
# Poissons Ratio (y) = 0.84559 -0.14373
# Poissons Ratio (z) = 0.38478 -0.03636
#
# Static dielectric constant tensor:
#      x y z
#    x 3.856120 0.000000 0.000000 
#    y 0.000000 3.498010 0.000000 
#    z 0.000000 0.000000 3.655670 
# 
# 
# High freq. dielectric constant tensor:
#      x y z
#    x 1.774980 0.000000 0.000000 
#    y 0.000000 1.753060 0.000000 
#    z 0.000000 0.000000 1.772980 
# 
# From -- ./inp_files/4922.got.cif
#   From: 2010.03.12/outbox.cif.g09.slc.cpg/sg31_3_cif.got.tgz:4922.got - 2010.04.14 01:42:59.
