data_PCOD8169749
_publ_section_title
;
Structure prediction by ZEFSAII (Michael W. Deem and Ramdas Pophale) SiO2 
 PCOD8169749
Probable space group: P M N 21
;
_chemical_formula_sum "Si O2"
_cell_formula_units_Z 32
_cell_length_a 8.866032
_cell_length_b 10.296282
_cell_length_c 19.259306
_cell_angle_alpha 90.000000
_cell_angle_beta 90.000000
_cell_angle_gamma 90.000000
_cell_volume 1758.127458
_symmetry_space_group_name_H-M "P M N 21"
_symmetry_group_IT_number 31
_symmetry_cell_setting 'orthorhombic'
loop_
_space_group_symop_operation_xyz
x,y,z
1/2-x,-y,1/2+z
-x,y,z
1/2+x,-y,1/2+z
loop_
_atom_site_type_symbol
_atom_site_label
_atom_site_fract_x
_atom_site_fract_y
_atom_site_fract_z
Si Si1 0.822754 0.989179 0.253380
Si Si2 0.823237 0.607342 0.463045
Si Si3 0.172999 0.898583 0.960103
Si Si4 0.321258 0.715919 0.752999
Si Si5 0.826679 0.007256 0.102456
Si Si6 0.178418 0.863448 0.388634
Si Si7 0.675709 0.277039 0.109430
Si Si8 0.821827 0.633362 0.889913
O O1 0.775846 0.943801 0.176031
O O2 0.756296 0.889573 0.310637
O O3 0.000000 0.990529 0.263455
O O4 0.764611 0.136330 0.265969
O O5 0.757085 0.729792 0.419539
O O6 0.792029 0.627184 0.544900
O O7 0.732942 0.483219 0.437703
O O8 0.000000 0.587714 0.448678
O O9 0.231986 0.763894 0.929022
O O10 0.000000 0.923761 0.938766
O O11 0.274861 0.015420 0.934741
O O12 0.191650 0.897305 0.043837
O O13 0.500000 0.701710 0.754522
O O14 0.262872 0.670142 0.677376
O O15 0.251709 0.626298 0.813447
O O16 0.000000 0.055107 0.108768
O O17 0.728357 0.133982 0.086212
O O18 0.000000 0.854604 0.390354
O O19 0.500000 0.271038 0.127101
O O20 0.000000 0.627203 0.881979
#
# Coordination Sequence:
#
# PCOD8169749 Si02
#       8
#     4   4   4   4   4   4   4   4
#     4   8  15  28  51  79 104 133 170 220 271 324
#     4  10  22  37  54  79 112 150 188 225 272 331
#     4  10  20  33  52  79 109 140 179 228 276 321
#     4  10  19  34  57  81 107 142 184 226 278 334
#     4   9  17  31  51  78 109 139 176 220 275 330
#     4  10  18  33  55  79 105 137 182 227 273 327
#     4  10  19  33  54  81 112 141 179 227 273 327
#     4  11  23  37  54  80 114 150 188 231 278 326
#
# _framework density 18.201180999999998
#
# number of rings (size 3 to 8) (size 9 to 14) (size 15 to 20)
#    0.000    2.250    2.500    1.875    0.000    2.000 
#    0.000    1.250    0.000    3.000    0.000    0.000 
#    0.000    0.000    0.000    0.000    0.000    0.000 
#
# Total GULP energy -396692.441213 kJ/mol
# GULP energy per Si atom -12396.638788 kJ/mol
# Density = 1.815975 g / cm^3
# Si number density = 18.201181 Si / 1000 Ang^3
#
#
#
# Elastic Constant Matrix: (Units=GPa)
#
#
# Indices 1 2 3 4 5 6 
#
# 1 56.9143 30.4098 43.3696 0.0000 0.0000 0.0000
# 2 30.4098 84.7176 54.0248 0.0000 0.0000 0.0000
# 3 43.3696 54.0248 141.3190 0.0000 0.0000 0.0000
# 4 0.0000 0.0000 0.0000 29.8070 0.0000 0.0000
# 5 0.0000 0.0000 0.0000 0.0000 26.1878 0.0000
# 6 0.0000 0.0000 0.0000 0.0000 0.0000 19.6515
#
#
#
# Elastic Compliance Matrix: (Units=1/GPa)
#
#
# Indices 1 2 3 4 5 6 
#
# 1 0.024619 -0.005315 -0.005524 0.000000 0.000000 0.000000
# 2 -0.005315 0.016757 -0.004775 0.000000 0.000000 0.000000
# 3 -0.005524 -0.004775 0.010597 0.000000 0.000000 0.000000
# 4 0.000000 0.000000 0.000000 0.033549 0.000000 0.000000
# 5 0.000000 0.000000 0.000000 0.000000 0.038186 0.000000
# 6 0.000000 0.000000 0.000000 0.000000 0.000000 0.050887
#
#
# Mechanical properties :
#
#
# Convention : Reuss Voigt Hill
#
# Bulk Modulus (GPa) = 48.20196 59.83993 54.02094
# Shear Modulus (GPa) = 23.50336 25.47238 24.48787
#
# Velocity S-wave (km/s) = 3.59738 3.74503 3.67195
# Velocity P-wave (km/s) = 6.61779 7.18670 6.90811
#
# Compressibility (1/GPa) = 0.02074604
#
# Stress axis : x y z
#
# Youngs Moduli (GPa) = 40.61895 59.67795 94.36893
#
# Poissons Ratio (x) = 0.31717 0.52126
# Poissons Ratio (y) = 0.21588 0.45060
# Poissons Ratio (z) = 0.22436 0.28495
#
# Static dielectric constant tensor:
#      x y z
#    x 3.217410 0.000000 0.000000 
#    y 0.000000 3.170330 0.000000 
#    z 0.000000 0.000000 3.804950 
# 
# 
# High freq. dielectric constant tensor:
#      x y z
#    x 1.694800 0.000000 0.000000 
#    y 0.000000 1.669930 0.000000 
#    z 0.000000 0.000000 1.726890 
# 
# From -- ./inp_files/6251.got.cif
#   From: 2010.03.12/outbox.cif.g09.slc.cpg/sg31_4_cif.got.tgz:6251.got - 2010.04.14 01:42:59.
