data_PCOD8169891
_publ_section_title
;
Structure prediction by ZEFSAII (Michael W. Deem and Ramdas Pophale) SiO2 
 PCOD8169891
Probable space group: P M N 21
;
_chemical_formula_sum "Si O2"
_cell_formula_units_Z 32
_cell_length_a 8.992425
_cell_length_b 14.588128
_cell_length_c 12.283599
_cell_angle_alpha 90.000000
_cell_angle_beta 90.000000
_cell_angle_gamma 90.000000
_cell_volume 1611.395031
_symmetry_space_group_name_H-M "P M N 21"
_symmetry_group_IT_number 31
_symmetry_cell_setting 'orthorhombic'
loop_
_space_group_symop_operation_xyz
x,y,z
1/2-x,-y,1/2+z
-x,y,z
1/2+x,-y,1/2+z
loop_
_atom_site_type_symbol
_atom_site_label
_atom_site_fract_x
_atom_site_fract_y
_atom_site_fract_z
Si Si1 0.670640 0.560182 0.106680
Si Si2 0.675192 0.316337 0.456004
Si Si3 0.328006 0.849181 0.052402
Si Si4 0.673765 0.136537 0.763802
Si Si5 0.176158 0.326591 0.818876
Si Si6 0.675048 0.228858 0.230723
Si Si7 0.829818 0.061561 0.324989
Si Si8 0.671200 0.359341 0.042563
O O1 0.500000 0.587991 0.084449
O O2 0.727697 0.607632 0.219021
O O3 0.686923 0.450644 0.116024
O O4 0.771316 0.585166 0.000172
O O5 0.500000 0.302871 0.472328
O O6 0.768873 0.253303 0.538255
O O7 0.722872 0.294271 0.332119
O O8 0.500000 0.846776 0.087150
O O9 0.226626 0.893735 0.144475
O O10 0.296957 0.906747 0.945936
O O11 0.500000 0.160092 0.767839
O O12 0.763733 0.223533 0.806603
O O13 0.714884 0.045030 0.830507
O O14 0.000000 0.323020 0.824476
O O15 0.235658 0.367189 0.932092
O O16 0.500000 0.218537 0.229327
O O17 0.740104 0.126275 0.241211
O O18 0.730335 0.276061 0.118966
O O19 0.000000 0.073256 0.290448
O O20 0.500000 0.342404 0.010192
#
# Coordination Sequence:
#
# PCOD8169891 Si02
#       8
#     4   4   4   4   4   4   4   4
#     4  10  22  39  60  85 118 156 196 245 300 354
#     4  10  19  33  59  87 112 147 196 249 295 349
#     4  10  19  35  56  81 114 152 194 245 301 353
#     4  11  22  38  60  87 119 157 199 247 299 357
#     4  11  24  41  62  90 122 157 200 250 299 356
#     4   9  20  38  60  86 117 155 198 246 299 353
#     4   9  21  38  58  85 119 157 200 248 300 356
#     4  10  23  42  61  85 123 165 199 244 305 362
#
# _framework density 19.858568999999999
#
# number of rings (size 3 to 8) (size 9 to 14) (size 15 to 20)
#    0.000    2.000    1.250    1.500    1.750    4.500 
#    0.000    3.750    0.000    0.000    0.000    0.000 
#    0.000    0.000    0.000    0.000    0.000    0.000 
#
# Total GULP energy -396691.949427 kJ/mol
# GULP energy per Si atom -12396.623420 kJ/mol
# Density = 1.981337 g / cm^3
# Si number density = 19.858569 Si / 1000 Ang^3
#
#
#
# Elastic Constant Matrix: (Units=GPa)
#
#
# Indices 1 2 3 4 5 6 
#
# 1 50.8507 34.3582 36.9149 0.0000 0.0000 0.0000
# 2 34.3582 99.9236 42.3202 0.0000 0.0000 0.0000
# 3 36.9149 42.3202 92.7474 0.0000 0.0000 0.0000
# 4 0.0000 0.0000 0.0000 26.8183 0.0000 0.0000
# 5 0.0000 0.0000 0.0000 0.0000 31.4371 0.0000
# 6 0.0000 0.0000 0.0000 0.0000 0.0000 31.2960
#
#
#
# Elastic Compliance Matrix: (Units=1/GPa)
#
#
# Indices 1 2 3 4 5 6 
#
# 1 0.030909 -0.006715 -0.009238 0.000000 0.000000 0.000000
# 2 -0.006715 0.013864 -0.003653 0.000000 0.000000 0.000000
# 3 -0.009238 -0.003653 0.016126 0.000000 0.000000 0.000000
# 4 0.000000 0.000000 0.000000 0.037288 0.000000 0.000000
# 5 0.000000 0.000000 0.000000 0.000000 0.031810 0.000000
# 6 0.000000 0.000000 0.000000 0.000000 0.000000 0.031953
#
#
# Mechanical properties :
#
#
# Convention : Reuss Voigt Hill
#
# Bulk Modulus (GPa) = 46.11380 52.30091 49.20735
# Shear Modulus (GPa) = 23.99333 26.57218 25.28276
#
# Velocity S-wave (km/s) = 3.47970 3.66193 3.57198
# Velocity P-wave (km/s) = 6.27821 6.65384 6.46875
#
# Compressibility (1/GPa) = 0.02168548
#
# Stress axis : x y z
#
# Youngs Moduli (GPa) = 32.35293 72.12972 62.01227
#
# Poissons Ratio (x) = 0.48438 0.57288
# Poissons Ratio (y) = 0.21726 0.22655
# Poissons Ratio (z) = 0.29888 0.26351
#
# Static dielectric constant tensor:
#      x y z
#    x 3.573290 0.000000 0.000000 
#    y 0.000000 3.714900 0.000000 
#    z 0.000000 0.000000 3.740530 
# 
# 
# High freq. dielectric constant tensor:
#      x y z
#    x 1.770850 0.000000 0.000000 
#    y 0.000000 1.777160 0.000000 
#    z 0.000000 0.000000 1.773130 
# 
# From -- ./inp_files/3544.got.cif
#   From: 2010.03.12/outbox.cif.g09.slc.cpg/sg31_2_cif.got.tgz:3544.got - 2010.04.14 01:42:59.
