data_PCOD8169790
_publ_section_title
;
Structure prediction by ZEFSAII (Michael W. Deem and Ramdas Pophale) SiO2 
 PCOD8169790
Probable space group: P M N 21
;
_chemical_formula_sum "Si O2"
_cell_formula_units_Z 32
_cell_length_a 9.015916
_cell_length_b 9.420587
_cell_length_c 20.898671
_cell_angle_alpha 90.000000
_cell_angle_beta 90.000000
_cell_angle_gamma 90.000000
_cell_volume 1775.033241
_symmetry_space_group_name_H-M "P M N 21"
_symmetry_group_IT_number 31
_symmetry_cell_setting 'orthorhombic'
loop_
_space_group_symop_operation_xyz
x,y,z
1/2-x,-y,1/2+z
-x,y,z
1/2+x,-y,1/2+z
loop_
_atom_site_type_symbol
_atom_site_label
_atom_site_fract_x
_atom_site_fract_y
_atom_site_fract_z
Si Si1 0.673497 0.352978 0.222660
Si Si2 0.170482 0.653865 0.216013
Si Si3 0.175968 0.844304 0.607101
Si Si4 0.170053 0.657155 0.863503
Si Si5 0.324733 0.663824 0.988170
Si Si6 0.176376 0.163312 0.610391
Si Si7 0.329126 0.342035 0.993603
Si Si8 0.667784 0.371642 0.856021
O O1 0.500000 0.392458 0.215263
O O2 0.767523 0.494690 0.211067
O O3 0.725001 0.237596 0.170934
O O4 0.703932 0.281104 0.292400
O O5 0.262176 0.760182 0.172770
O O6 0.185579 0.713051 0.289384
O O7 0.000000 0.651862 0.194013
O O8 0.246076 0.762280 0.545472
O O9 0.000000 0.853506 0.601580
O O10 0.239908 0.003490 0.608839
O O11 0.263864 0.728265 0.920984
O O12 0.208887 0.492064 0.857549
O O13 0.000000 0.676122 0.882073
O O14 0.500000 0.668778 0.984331
O O15 0.264674 0.502571 0.997457
O O16 0.265441 0.757606 0.046832
O O17 0.000000 0.167615 0.614309
O O18 0.500000 0.352368 0.012980
O O19 0.308277 0.279169 0.921114
O O20 0.500000 0.437711 0.859222
#
# Coordination Sequence:
#
# PCOD8169790 Si02
#       8
#     4   4   4   4   4   4   4   4
#     4   9  17  31  51  74  98 125 161 201 237 281
#     4  10  19  31  49  73 100 128 157 195 243 289
#     4   9  17  30  49  71  94 123 162 203 237 275
#     4   9  16  26  45  72  97 120 150 193 241 284
#     4   9  17  30  48  69  93 122 157 197 239 284
#     4  10  20  33  49  69  94 127 165 201 237 281
#     4   8  13  25  47  69  88 114 151 194 233 271
#     4   8  15  28  46  69  96 123 153 192 237 283
#
# _framework density 18.027832
#
# number of rings (size 3 to 8) (size 9 to 14) (size 15 to 20)
#    0.000    3.000    0.000    2.250    0.000    3.500 
#    0.000    1.875    0.000    4.500    0.000    0.000 
#    0.000    0.000    0.000    0.000    0.000    0.000 
#
# Total GULP energy -396478.959497 kJ/mol
# GULP energy per Si atom -12389.967484 kJ/mol
# Density = 1.798680 g / cm^3
# Si number density = 18.027832 Si / 1000 Ang^3
#
#
#
# Elastic Constant Matrix: (Units=GPa)
#
#
# Indices 1 2 3 4 5 6 
#
# 1 23.9668 17.4516 29.3794 0.0000 0.0000 0.0000
# 2 17.4516 91.7499 74.6432 0.0000 0.0000 0.0000
# 3 29.3794 74.6432 182.8028 0.0000 0.0000 0.0000
# 4 0.0000 0.0000 0.0000 6.1104 0.0000 0.0000
# 5 0.0000 0.0000 0.0000 0.0000 26.9605 0.0000
# 6 0.0000 0.0000 0.0000 0.0000 0.0000 11.0600
#
#
#
# Elastic Compliance Matrix: (Units=1/GPa)
#
#
# Indices 1 2 3 4 5 6 
#
# 1 0.053307 -0.004746 -0.006629 0.000000 0.000000 0.000000
# 2 -0.004746 0.016743 -0.006074 0.000000 0.000000 0.000000
# 3 -0.006629 -0.006074 0.009016 0.000000 0.000000 0.000000
# 4 0.000000 0.000000 0.000000 0.163655 0.000000 0.000000
# 5 0.000000 0.000000 0.000000 0.000000 0.037091 0.000000
# 6 0.000000 0.000000 0.000000 0.000000 0.000000 0.090416
#
#
# Mechanical properties :
#
#
# Convention : Reuss Voigt Hill
#
# Bulk Modulus (GPa) = 22.64114 60.16310 41.40212
# Shear Modulus (GPa) = 11.90903 20.62923 16.26913
#
# Velocity S-wave (km/s) = 2.57299 3.38642 3.00733
# Velocity P-wave (km/s) = 4.62745 6.98106 5.92235
#
# Compressibility (1/GPa) = 0.04416739
#
# Stress axis : x y z
#
# Youngs Moduli (GPa) = 18.75934 59.72481 110.91400
#
# Poissons Ratio (x) = 0.28346 0.73528
# Poissons Ratio (y) = 0.08903 0.67369
# Poissons Ratio (z) = 0.12436 0.36277
#
# Static dielectric constant tensor:
#      x y z
#    x 3.068470 0.000000 0.000000 
#    y 0.000000 3.128370 0.000000 
#    z 0.000000 0.000000 3.864060 
# 
# 
# High freq. dielectric constant tensor:
#      x y z
#    x 1.669130 0.000000 0.000000 
#    y 0.000000 1.651780 0.000000 
#    z 0.000000 0.000000 1.726760 
# 
# From -- ./inp_files/6455.got.cif
#   From: 2010.03.12/outbox.cif.g09.slc.cpg/sg31_4_cif.got.tgz:6455.got - 2010.04.14 01:42:59.
