data_PCOD8169544
_publ_section_title
;
Structure prediction by ZEFSAII (Michael W. Deem and Ramdas Pophale) SiO2 
 PCOD8169544
Probable space group: P N C 2
;
_chemical_formula_sum "Si O2"
_cell_formula_units_Z 32
_cell_length_a 13.913878
_cell_length_b 11.219268
_cell_length_c 8.692297
_cell_angle_alpha 90.000000
_cell_angle_beta 90.000000
_cell_angle_gamma 90.000000
_cell_volume 1356.898212
_symmetry_space_group_name_H-M "P N C 2"
_symmetry_group_IT_number 30
_symmetry_cell_setting 'orthorhombic'
loop_
_space_group_symop_operation_xyz
x,y,z
-x,-y,z
-x,1/2+y,1/2+z
x,1/2-y,1/2+z
loop_
_atom_site_type_symbol
_atom_site_label
_atom_site_fract_x
_atom_site_fract_y
_atom_site_fract_z
Si Si1 0.405525 0.264383 0.194980
Si Si2 0.097929 0.959533 0.023319
Si Si3 0.284417 0.136858 0.428008
Si Si4 0.977801 0.199075 0.545723
Si Si5 0.264398 0.847377 0.859502
Si Si6 0.099066 0.324154 0.760096
Si Si7 0.783193 0.114392 0.527266
Si Si8 0.520374 0.127873 0.957052
O O1 0.369016 0.156058 0.303161
O O2 0.454806 0.363694 0.302977
O O3 0.315999 0.315523 0.095992
O O4 0.489710 0.223786 0.082658
O O5 0.075071 0.825980 0.079118
O O6 0.193991 0.954301 0.918826
O O7 0.000000 0.000000 0.932207
O O8 0.114277 0.052916 0.164109
O O9 0.192757 0.208751 0.361196
O O10 0.257589 0.999234 0.439591
O O11 0.895300 0.100478 0.583910
O O12 0.073114 0.208166 0.653691
O O13 0.008871 0.165574 0.374440
O O14 0.279799 0.857343 0.677112
O O15 0.367467 0.856964 0.935142
O O16 0.220154 0.719405 0.901594
O O17 0.500000 0.000000 0.029433
#
# Coordination Sequence:
#
# PCOD8169544 Si02
#       8
#     4   4   4   4   4   4   4   4
#     4  10  25  48  68 107 143 179 249 303 360 444
#     4   9  22  41  69  96 144 181 233 287 352 414
#     4  11  25  45  71 102 140 194 240 299 367 437
#     4  10  22  40  65 102 138 181 239 283 351 420
#     4  11  24  45  71 108 145 186 243 296 365 437
#     4  11  23  42  69  96 142 195 233 298 355 427
#     4  11  25  42  74 104 146 184 239 299 365 433
#     4  11  24  44  75  99 143 188 234 301 369 425
#
# _framework density 23.583197999999999
#
# number of rings (size 3 to 8) (size 9 to 14) (size 15 to 20)
#    0.000    1.500    0.000    3.750   10.500    1.000 
#   13.500    2.500    0.000    0.000    0.000    0.000 
#    0.000    0.000    0.000    0.000    0.000    0.000 
#
# Total GULP energy -396573.022351 kJ/mol
# GULP energy per Si atom -12392.906948 kJ/mol
# Density = 2.352952 g / cm^3
# Si number density = 23.583198 Si / 1000 Ang^3
#
#
#
# Elastic Constant Matrix: (Units=GPa)
#
#
# Indices 1 2 3 4 5 6 
#
# 1 136.6402 37.2429 37.4909 0.0000 0.0000 0.0000
# 2 37.2429 79.8875 34.9422 0.0000 0.0000 0.0000
# 3 37.4909 34.9422 93.6023 0.0000 0.0000 0.0000
# 4 0.0000 0.0000 0.0000 26.2720 0.0000 0.0000
# 5 0.0000 0.0000 0.0000 0.0000 29.9498 0.0000
# 6 0.0000 0.0000 0.0000 0.0000 0.0000 35.8744
#
#
#
# Elastic Compliance Matrix: (Units=1/GPa)
#
#
# Indices 1 2 3 4 5 6 
#
# 1 0.008808 -0.003063 -0.002384 0.000000 0.000000 0.000000
# 2 -0.003063 0.016026 -0.004756 0.000000 0.000000 0.000000
# 3 -0.002384 -0.004756 0.013414 0.000000 0.000000 0.000000
# 4 0.000000 0.000000 0.000000 0.038063 0.000000 0.000000
# 5 0.000000 0.000000 0.000000 0.000000 0.033389 0.000000
# 6 0.000000 0.000000 0.000000 0.000000 0.000000 0.027875
#
#
# Mechanical properties :
#
#
# Convention : Reuss Voigt Hill
#
# Bulk Modulus (GPa) = 56.05049 58.83133 57.44091
# Shear Modulus (GPa) = 30.50129 31.78284 31.14206
#
# Velocity S-wave (km/s) = 3.60022 3.67507 3.63784
# Velocity P-wave (km/s) = 6.41099 6.55810 6.48496
#
# Compressibility (1/GPa) = 0.01784106
#
# Stress axis : x y z
#
# Youngs Moduli (GPa) = 113.53866 62.39990 74.55042
#
# Poissons Ratio (x) = 0.19114 0.17775
# Poissons Ratio (y) = 0.34779 0.35453
# Poissons Ratio (z) = 0.27070 0.29675
#
# Static dielectric constant tensor:
#      x y z
#    x 4.644120 0.000000 0.000000 
#    y 0.000000 4.062980 0.000000 
#    z 0.000000 0.000000 4.365970 
# 
# 
# High freq. dielectric constant tensor:
#      x y z
#    x 1.946310 0.000000 0.000000 
#    y 0.000000 1.912190 0.000000 
#    z 0.000000 0.000000 1.937640 
# 
# From -- ./inp_files/2688.got.cif
#   From: 2010.03.12/outbox.cif.g09.slc.cpg/sg30_2_cif.got.tgz:2688.got - 2010.04.14 01:38:02.
