data_PCOD8169457
_publ_section_title
;
Structure prediction by ZEFSAII (Michael W. Deem and Ramdas Pophale) SiO2 
 PCOD8169457
Probable space group: P N C 2
;
_chemical_formula_sum "Si O2"
_cell_formula_units_Z 32
_cell_length_a 9.315104
_cell_length_b 15.062838
_cell_length_c 11.810088
_cell_angle_alpha 90.000000
_cell_angle_beta 90.000000
_cell_angle_gamma 90.000000
_cell_volume 1657.095916
_symmetry_space_group_name_H-M "P N C 2"
_symmetry_group_IT_number 30
_symmetry_cell_setting 'orthorhombic'
loop_
_space_group_symop_operation_xyz
x,y,z
-x,-y,z
-x,1/2+y,1/2+z
x,1/2-y,1/2+z
loop_
_atom_site_type_symbol
_atom_site_label
_atom_site_fract_x
_atom_site_fract_y
_atom_site_fract_z
Si Si1 0.338745 0.899040 0.681140
Si Si2 0.333838 0.654983 0.930485
Si Si3 0.668947 1.000000 0.261927
Si Si4 0.338745 0.100960 0.681140
Si Si5 0.168373 0.500000 0.526060
Si Si6 0.169044 0.170774 0.879420
Si Si7 0.830957 0.329226 0.379420
Si Si8 0.666161 0.845017 0.430485
O O1 0.305147 0.893545 0.548746
O O2 0.500000 0.865061 0.706335
O O3 0.228664 0.839840 0.752351
O O4 0.320482 0.000000 0.720093
O O5 0.286310 0.587834 0.831417
O O6 0.236861 0.741882 0.932645
O O7 0.499999 0.681894 0.916573
O O8 0.749958 1.000000 0.143989
O O9 0.500000 0.000000 0.239226
O O10 0.713690 0.912166 0.331416
O O11 0.228664 0.160161 0.752351
O O12 0.305148 0.106455 0.548745
O O13 0.213860 0.412943 0.456090
O O14 0.213860 0.587058 0.456090
O O15 0.000000 0.500000 0.551213
O O16 0.236863 0.258117 0.932646
O O17 0.000000 0.182199 0.871846
#
# Coordination Sequence:
#
# PCOD8169457 Si02
#       8
#     4   4   4   4   4   4   4   4
#     4  10  20  39  66  90 116 151 197 251 301 351
#     4  10  22  41  63  91 120 152 197 249 299 352
#     4  10  22  41  64  88 118 155 197 246 299 352
#     4  10  20  39  66  90 116 151 197 251 301 351
#     4  10  24  43  58  82 124 163 197 240 291 352
#     4  11  24  41  60  87 123 161 199 243 293 352
#     4  11  24  41  60  87 123 161 199 243 293 352
#     4  10  22  41  63  91 120 152 197 249 299 352
#
# _framework density 19.310891999999999
#
# number of rings (size 3 to 8) (size 9 to 14) (size 15 to 20)
#    0.000    1.750    2.500    0.750    3.500    4.000 
#    0.000    0.000    0.000    0.000    0.000    0.000 
#    0.000    0.000    0.000    0.000    0.000    0.000 
#
# Total GULP energy -396911.256541 kJ/mol
# GULP energy per Si atom -12403.476767 kJ/mol
# Density = 1.926694 g / cm^3
# Si number density = 19.310892 Si / 1000 Ang^3
#
#
#
# Elastic Constant Matrix: (Units=GPa)
#
#
# Indices 1 2 3 4 5 6 
#
# 1 81.2682 57.7742 54.3537 0.0000 0.0000 0.0000
# 2 57.7742 120.8611 39.3713 0.0000 0.0000 0.0000
# 3 54.3537 39.3713 110.1889 0.0000 0.0000 0.0000
# 4 0.0000 0.0000 0.0000 25.0256 0.0000 0.0000
# 5 0.0000 0.0000 0.0000 0.0000 16.1238 0.0000
# 6 0.0000 0.0000 0.0000 0.0000 0.0000 33.6905
#
#
#
# Elastic Compliance Matrix: (Units=1/GPa)
#
#
# Indices 1 2 3 4 5 6 
#
# 1 0.024580 -0.008828 -0.008971 0.000000 0.000000 0.000000
# 2 -0.008828 0.012534 -0.000124 0.000000 0.000000 0.000000
# 3 -0.008971 -0.000124 0.013545 0.000000 0.000000 0.000000
# 4 0.000000 0.000000 0.000000 0.039959 0.000000 0.000000
# 5 0.000000 0.000000 0.000000 0.000000 0.062020 0.000000
# 6 0.000000 0.000000 0.000000 0.000000 0.000000 0.029682
#
#
# Mechanical properties :
#
#
# Convention : Reuss Voigt Hill
#
# Bulk Modulus (GPa) = 67.50228 68.36851 67.93540
# Shear Modulus (GPa) = 22.41109 25.68923 24.05016
#
# Velocity S-wave (km/s) = 3.41037 3.65128 3.53288
# Velocity P-wave (km/s) = 7.10907 7.29772 7.20402
#
# Compressibility (1/GPa) = 0.01481431
#
# Stress axis : x y z
#
# Youngs Moduli (GPa) = 40.68279 79.78172 73.82942
#
# Poissons Ratio (x) = 0.70429 0.66231
# Poissons Ratio (y) = 0.35913 0.00916
# Poissons Ratio (z) = 0.36496 0.00990
#
# Static dielectric constant tensor:
#      x y z
#    x 3.446690 0.000000 0.000000 
#    y 0.000000 3.606530 0.000000 
#    z 0.000000 0.000000 3.477380 
# 
# 
# High freq. dielectric constant tensor:
#      x y z
#    x 1.744590 0.000000 0.000000 
#    y 0.000000 1.759100 0.000000 
#    z 0.000000 0.000000 1.760090 
# 
# From -- ./inp_files/3755.got.cif
#   From: 2010.03.12/outbox.cif.g09.slc.cpg/sg30_2_cif.got.tgz:3755.got - 2010.04.14 01:38:02.
