data_PCOD8169151
_publ_section_title
;
Structure prediction by ZEFSAII (Michael W. Deem and Ramdas Pophale) SiO2 
 PCOD8169151
Probable space group: P C A 21
;
_chemical_formula_sum "Si O2"
_cell_formula_units_Z 32
_cell_length_a 16.257275
_cell_length_b 6.285758
_cell_length_c 13.968659
_cell_angle_alpha 90.000000
_cell_angle_beta 90.000000
_cell_angle_gamma 90.000000
_cell_volume 1427.447435
_symmetry_space_group_name_H-M "P C A 21"
_symmetry_group_IT_number 29
_symmetry_cell_setting 'orthorhombic'
loop_
_space_group_symop_operation_xyz
x,y,z
-x,-y,1/2+z
1/2-x,y,1/2+z
1/2+x,-y,z
loop_
_atom_site_type_symbol
_atom_site_label
_atom_site_fract_x
_atom_site_fract_y
_atom_site_fract_z
Si Si1 0.195098 0.480198 0.094680
Si Si2 0.664782 0.794430 0.263012
Si Si3 0.072689 0.831327 0.162841
Si Si4 0.703006 0.849673 0.923519
Si Si5 0.194685 0.788180 0.501882
Si Si6 0.529189 0.816658 0.845423
Si Si7 0.546782 0.926102 0.504632
Si Si8 0.581159 0.525614 0.403220
O O1 0.216388 0.322444 0.180987
O O2 0.113758 0.616579 0.121941
O O3 0.273139 0.634973 0.085620
O O4 0.184565 0.340276 0.998159
O O5 0.716717 0.812435 0.359902
O O6 0.590587 0.644303 0.300526
O O7 0.637215 0.019513 0.218913
O O8 0.997710 0.785658 0.235528
O O9 0.031683 0.956663 0.073742
O O10 0.625454 0.867668 0.852969
O O11 0.723817 0.076551 0.972519
O O12 0.156567 0.643272 0.416499
O O13 0.123503 0.938544 0.544820
O O14 0.505387 0.599552 0.900910
O O15 0.478445 0.005691 0.897086
O O16 0.576380 0.682069 0.494944
#
# Coordination Sequence:
#
# PCOD8169151 Si02
#       8
#     4   4   4   4   4   4   4   4
#     4  12  25  44  70 105 139 189 243 298 365 441
#     4  12  24  47  71 100 146 190 244 305 368 441
#     4  12  26  44  71 105 138 191 246 307 369 441
#     4  12  26  47  71 107 149 191 246 302 375 444
#     4  11  23  44  72 100 139 190 238 295 367 435
#     4  11  24  43  68 103 138 189 241 302 367 431
#     4  11  23  45  70 100 143 184 239 302 369 438
#     4  11  21  46  73  96 144 194 235 301 372 435
#
# _framework density 22.417639000000001
#
# number of rings (size 3 to 8) (size 9 to 14) (size 15 to 20)
#    0.000    0.500    5.000    3.750    0.000    4.000 
#    2.250    0.000    0.000    0.000    0.000    0.000 
#    0.000    0.000    0.000    0.000    0.000    0.000 
#
# Total GULP energy -396668.282008 kJ/mol
# GULP energy per Si atom -12395.883813 kJ/mol
# Density = 2.236662 g / cm^3
# Si number density = 22.417639 Si / 1000 Ang^3
#
#
#
# Elastic Constant Matrix: (Units=GPa)
#
#
# Indices 1 2 3 4 5 6 
#
# 1 75.7327 34.5595 20.2516 0.0000 0.0000 0.0000
# 2 34.5595 118.8893 41.0722 0.0000 0.0000 0.0000
# 3 20.2516 41.0722 98.8852 0.0000 0.0000 0.0000
# 4 0.0000 0.0000 0.0000 42.4464 0.0000 0.0000
# 5 0.0000 0.0000 0.0000 0.0000 39.7871 0.0000
# 6 0.0000 0.0000 0.0000 0.0000 0.0000 29.7066
#
#
#
# Elastic Compliance Matrix: (Units=1/GPa)
#
#
# Indices 1 2 3 4 5 6 
#
# 1 0.015415 -0.003958 -0.001513 0.000000 0.000000 0.000000
# 2 -0.003958 0.010837 -0.003690 0.000000 0.000000 0.000000
# 3 -0.001513 -0.003690 0.011955 0.000000 0.000000 0.000000
# 4 0.000000 0.000000 0.000000 0.023559 0.000000 0.000000
# 5 0.000000 0.000000 0.000000 0.000000 0.025134 0.000000
# 6 0.000000 0.000000 0.000000 0.000000 0.000000 0.033663
#
#
# Mechanical properties :
#
#
# Convention : Reuss Voigt Hill
#
# Bulk Modulus (GPa) = 50.29157 53.91931 52.10544
# Shear Modulus (GPa) = 34.36093 35.56295 34.96194
#
# Velocity S-wave (km/s) = 3.91930 3.98726 3.95343
# Velocity P-wave (km/s) = 6.55468 6.73068 6.64326
#
# Compressibility (1/GPa) = 0.01988405
#
# Stress axis : x y z
#
# Youngs Moduli (GPa) = 64.87090 92.27878 83.64423
#
# Poissons Ratio (x) = 0.36527 0.12655
# Poissons Ratio (y) = 0.25678 0.30868
# Poissons Ratio (z) = 0.09814 0.34055
#
# Static dielectric constant tensor:
#      x y z
#    x 3.875970 0.000000 0.000000 
#    y 0.000000 4.283400 0.000000 
#    z 0.000000 0.000000 3.948360 
# 
# 
# High freq. dielectric constant tensor:
#      x y z
#    x 1.872620 0.000000 0.000000 
#    y 0.000000 1.899930 0.000000 
#    z 0.000000 0.000000 1.872730 
# 
# From -- ./inp_files/4777.got.cif
#   From: 2010.03.12/outbox.cif.g09.slc.cpg/sg29_3_cif.got.tgz:4777.got - 2010.04.14 03:43:10.
