data_PCOD8169868
_publ_section_title
;
Structure prediction by ZEFSAII (Michael W. Deem and Ramdas Pophale) SiO2 
 PCOD8169868
Probable space group: P M N 21
;
_chemical_formula_sum "Si O2"
_cell_formula_units_Z 32
_cell_length_a 16.725790
_cell_length_b 11.799028
_cell_length_c 9.425463
_cell_angle_alpha 90.000000
_cell_angle_beta 90.000000
_cell_angle_gamma 90.000000
_cell_volume 1860.096880
_symmetry_space_group_name_H-M "P M N 21"
_symmetry_group_IT_number 31
_symmetry_cell_setting 'orthorhombic'
loop_
_space_group_symop_operation_xyz
x,y,z
1/2-x,-y,1/2+z
-x,y,z
1/2+x,-y,1/2+z
loop_
_atom_site_type_symbol
_atom_site_label
_atom_site_fract_x
_atom_site_fract_y
_atom_site_fract_z
Si Si1 0.407826 0.101797 0.715250
Si Si2 0.589078 0.087599 0.249823
Si Si3 0.677924 0.486913 0.372066
Si Si4 0.410739 0.664721 0.519108
Si Si5 0.907393 0.726549 0.971523
Si Si6 0.872591 0.080795 0.992466
Si Si7 0.192065 0.861376 0.496906
Si Si8 0.241537 0.616610 0.588098
O O1 0.500000 0.112810 0.758564
O O2 0.381826 0.199987 0.606849
O O3 0.355350 0.119040 0.853267
O O4 0.393817 0.979607 0.641599
O O5 0.500000 0.095474 0.186512
O O6 0.611328 0.203991 0.328887
O O7 0.590994 0.985892 0.360918
O O8 0.649586 0.067557 0.121178
O O9 0.611191 0.588681 0.378466
O O10 0.645778 0.385009 0.469225
O O11 0.758128 0.532880 0.450931
O O12 0.695803 0.447197 0.213674
O O13 0.500000 0.631064 0.575947
O O14 0.412894 0.796807 0.483013
O O15 0.335962 0.642700 0.629155
O O16 0.000000 0.693038 0.979764
O O17 0.778088 0.085493 0.974462
O O18 0.195092 0.729778 0.542235
#
# Coordination Sequence:
#
# PCOD8169868 Si02
#       8
#     4   4   4   4   4   4   4   4
#     4  10  21  35  55  83 113 142 178 229 279 327
#     4  10  19  33  55  79 108 141 178 226 274 323
#     4  10  19  36  54  79 109 141 182 228 269 318
#     4   9  19  34  60  80 105 147 188 218 265 334
#     4   9  18  32  55  79 105 143 185 220 268 331
#     4  10  20  36  56  78 110 143 184 218 269 339
#     4  11  20  35  52  85 110 141 182 226 279 319
#     4   9  22  33  55  79 112 140 181 229 273 317
#
# _framework density 17.203405
#
# number of rings (size 3 to 8) (size 9 to 14) (size 15 to 20)
#    0.750    1.500    1.250    3.375    1.750    0.000 
#    0.000    0.000    0.000    1.500    0.000    0.000 
#    0.000    0.000    0.000    0.000    0.000    0.000 
#
# Total GULP energy -396508.949464 kJ/mol
# GULP energy per Si atom -12390.904671 kJ/mol
# Density = 1.716425 g / cm^3
# Si number density = 17.203405 Si / 1000 Ang^3
#
#
#
# Elastic Constant Matrix: (Units=GPa)
#
#
# Indices 1 2 3 4 5 6 
#
# 1 77.9326 18.9644 35.2257 0.0000 0.0000 0.0000
# 2 18.9644 98.9942 28.0269 0.0000 0.0000 0.0000
# 3 35.2257 28.0269 78.4673 0.0000 0.0000 0.0000
# 4 0.0000 0.0000 0.0000 16.5706 0.0000 0.0000
# 5 0.0000 0.0000 0.0000 0.0000 83.3614 0.0000
# 6 0.0000 0.0000 0.0000 0.0000 0.0000 15.3691
#
#
#
# Elastic Compliance Matrix: (Units=1/GPa)
#
#
# Indices 1 2 3 4 5 6 
#
# 1 0.016218 -0.001163 -0.006865 0.000000 0.000000 0.000000
# 2 -0.001163 0.011321 -0.003522 0.000000 0.000000 0.000000
# 3 -0.006865 -0.003522 0.017084 0.000000 0.000000 0.000000
# 4 0.000000 0.000000 0.000000 0.060348 0.000000 0.000000
# 5 0.000000 0.000000 0.000000 0.000000 0.011996 0.000000
# 6 0.000000 0.000000 0.000000 0.000000 0.000000 0.065066
#
#
# Mechanical properties :
#
#
# Convention : Reuss Voigt Hill
#
# Bulk Modulus (GPa) = 46.46118 46.64757 46.55437
# Shear Modulus (GPa) = 23.55086 34.60536 29.07811
#
# Velocity S-wave (km/s) = 3.70397 4.48989 4.11573
# Velocity P-wave (km/s) = 6.73484 7.35207 7.05021
#
# Compressibility (1/GPa) = 0.02152335
#
# Stress axis : x y z
#
# Youngs Moduli (GPa) = 61.66119 88.32783 58.53483
#
# Poissons Ratio (x) = 0.10275 0.40184
# Poissons Ratio (y) = 0.07173 0.20614
# Poissons Ratio (z) = 0.42330 0.31105
#
# Static dielectric constant tensor:
#      x y z
#    x 3.136920 0.000000 0.000000 
#    y 0.000000 3.292580 0.000000 
#    z 0.000000 0.000000 2.954720 
# 
# 
# High freq. dielectric constant tensor:
#      x y z
#    x 1.668230 0.000000 0.000000 
#    y 0.000000 1.671630 0.000000 
#    z 0.000000 0.000000 1.638440 
# 
# From -- ./inp_files/2912.got.cif
#   From: 2010.03.12/outbox.cif.g09.slc.cpg/sg31_2_cif.got.tgz:2912.got - 2010.04.14 01:42:59.
