data_PCOD8169166
_publ_section_title
;
Structure prediction by ZEFSAII (Michael W. Deem and Ramdas Pophale) SiO2 
 PCOD8169166
Probable space group: P C A 21
;
_chemical_formula_sum "Si O2"
_cell_formula_units_Z 32
_cell_length_a 17.954655
_cell_length_b 6.356615
_cell_length_c 13.492341
_cell_angle_alpha 90.000000
_cell_angle_beta 90.000000
_cell_angle_gamma 90.000000
_cell_volume 1539.892067
_symmetry_space_group_name_H-M "P C A 21"
_symmetry_group_IT_number 29
_symmetry_cell_setting 'orthorhombic'
loop_
_space_group_symop_operation_xyz
x,y,z
-x,-y,1/2+z
1/2-x,y,1/2+z
1/2+x,-y,z
loop_
_atom_site_type_symbol
_atom_site_label
_atom_site_fract_x
_atom_site_fract_y
_atom_site_fract_z
Si Si1 0.825991 0.344141 0.155910
Si Si2 0.277772 0.927369 0.787074
Si Si3 0.956904 0.034514 0.090383
Si Si4 0.979233 0.702602 0.423016
Si Si5 0.706892 0.425207 0.435713
Si Si6 0.674456 0.671927 0.821645
Si Si7 0.057020 0.967023 0.272964
Si Si8 0.063254 0.303628 0.430196
O O1 0.759403 0.233199 0.212489
O O2 0.894199 0.187583 0.135127
O O3 0.849363 0.547480 0.221450
O O4 0.791559 0.421622 0.053599
O O5 0.296411 0.812770 0.892041
O O6 0.225411 0.128322 0.798028
O O7 0.357170 0.987709 0.739721
O O8 0.003941 0.938402 0.179406
O O9 0.014265 0.163532 0.022915
O O10 0.921503 0.844207 0.026064
O O11 0.899436 0.749787 0.376106
O O12 0.994753 0.460985 0.452530
O O13 0.043308 0.767214 0.344367
O O14 0.783720 0.522516 0.398397
O O15 0.638072 0.570771 0.402189
O O16 0.036010 0.174905 0.334841
#
# Coordination Sequence:
#
# PCOD8169166 Si02
#       8
#     4   4   4   4   4   4   4   4
#     4  11  25  42  66 101 132 177 229 278 340 417
#     4  11  24  43  65  97 136 172 228 278 346 408
#     4  11  25  41  66 101 132 180 229 281 347 403
#     4  11  24  43  65  99 134 173 229 282 338 407
#     4  11  23  44  67  94 131 179 223 270 347 418
#     4  11  26  43  69 102 135 179 224 289 341 414
#     4  11  23  41  66  95 132 178 224 282 339 411
#     4  11  22  43  70  91 134 182 224 282 342 408
#
# _framework density 20.780678000000002
#
# number of rings (size 3 to 8) (size 9 to 14) (size 15 to 20)
#    0.000    1.000    3.750    2.250    3.500    7.000 
#    0.000    0.000    0.000    0.000    0.000    0.000 
#    0.000    0.000    0.000    0.000    0.000    0.000 
#
# Total GULP energy -396814.821173 kJ/mol
# GULP energy per Si atom -12400.463162 kJ/mol
# Density = 2.073338 g / cm^3
# Si number density = 20.780678 Si / 1000 Ang^3
#
#
#
# Elastic Constant Matrix: (Units=GPa)
#
#
# Indices 1 2 3 4 5 6 
#
# 1 99.0605 28.9038 25.9133 0.0000 0.0000 0.0000
# 2 28.9038 102.3941 27.3245 0.0000 0.0000 0.0000
# 3 25.9133 27.3245 101.1330 0.0000 0.0000 0.0000
# 4 0.0000 0.0000 0.0000 30.9669 0.0000 0.0000
# 5 0.0000 0.0000 0.0000 0.0000 34.0143 0.0000
# 6 0.0000 0.0000 0.0000 0.0000 0.0000 34.8830
#
#
#
# Elastic Compliance Matrix: (Units=1/GPa)
#
#
# Indices 1 2 3 4 5 6 
#
# 1 0.011445 -0.002638 -0.002220 0.000000 0.000000 0.000000
# 2 -0.002638 0.011133 -0.002332 0.000000 0.000000 0.000000
# 3 -0.002220 -0.002332 0.011087 0.000000 0.000000 0.000000
# 4 0.000000 0.000000 0.000000 0.032292 0.000000 0.000000
# 5 0.000000 0.000000 0.000000 0.000000 0.029399 0.000000
# 6 0.000000 0.000000 0.000000 0.000000 0.000000 0.028667
#
#
# Mechanical properties :
#
#
# Convention : Reuss Voigt Hill
#
# Bulk Modulus (GPa) = 51.85368 51.87454 51.86411
# Shear Modulus (GPa) = 34.52244 34.66924 34.59584
#
# Velocity S-wave (km/s) = 4.08030 4.08896 4.08463
# Velocity P-wave (km/s) = 6.87062 6.87822 6.87442
#
# Compressibility (1/GPa) = 0.01928504
#
# Stress axis : x y z
#
# Youngs Moduli (GPa) = 87.37173 89.82089 90.19728
#
# Poissons Ratio (x) = 0.23699 0.20022
# Poissons Ratio (y) = 0.23052 0.21034
# Poissons Ratio (z) = 0.19395 0.20946
#
# Static dielectric constant tensor:
#      x y z
#    x 3.760990 0.000000 0.000000 
#    y 0.000000 3.984570 0.000000 
#    z 0.000000 0.000000 3.830400 
# 
# 
# High freq. dielectric constant tensor:
#      x y z
#    x 1.814710 0.000000 0.000000 
#    y 0.000000 1.826460 0.000000 
#    z 0.000000 0.000000 1.814160 
# 
# From -- ./inp_files/3807.got.cif
#   From: 2010.03.12/outbox.cif.g09.slc.cpg/sg29_2_cif.got.tgz:3807.got - 2010.04.14 03:43:10.
