data_PCOD8169548
_publ_section_title
;
Structure prediction by ZEFSAII (Michael W. Deem and Ramdas Pophale) SiO2 
 PCOD8169548
Probable space group: P N C 2
;
_chemical_formula_sum "Si O2"
_cell_formula_units_Z 20
_cell_length_a 12.825688
_cell_length_b 13.417073
_cell_length_c 5.089915
_cell_angle_alpha 90.000000
_cell_angle_beta 90.000000
_cell_angle_gamma 90.000000
_cell_volume 875.888821
_symmetry_space_group_name_H-M "P N C 2"
_symmetry_group_IT_number 30
_symmetry_cell_setting 'orthorhombic'
loop_
_space_group_symop_operation_xyz
x,y,z
-x,-y,z
-x,1/2+y,1/2+z
x,1/2-y,1/2+z
loop_
_atom_site_type_symbol
_atom_site_label
_atom_site_fract_x
_atom_site_fract_y
_atom_site_fract_z
Si Si1 0.709901 0.447293 0.541980
Si Si2 0.384647 0.313280 0.977392
Si Si3 0.000000 0.000000 0.763925
Si Si4 0.115353 0.813280 0.977392
Si Si5 0.790099 0.947293 0.541980
Si Si6 0.500000 0.000000 0.263925
O O1 0.760615 0.340570 0.461136
O O2 0.733845 0.527309 0.317229
O O3 0.585528 0.444751 0.581137
O O4 0.766155 0.472691 0.817229
O O5 0.414779 0.235353 0.752857
O O6 0.447327 0.416727 0.947525
O O7 0.260615 0.340570 0.961136
O O8 0.085528 0.055249 0.581137
O O9 0.947327 0.083273 0.947525
O O10 0.085221 0.735353 0.752857
#
# Coordination Sequence:
#
# PCOD8169548 Si02
#       6
#     4   4   2   4   4   2
#     4  10  22  41  64  91 128 170 217 274 328 384
#     4  11  24  41  65 100 135 174 224 272 328 393
#     4  10  24  44  70  96 134 180 222 272 332 394
#     4  11  24  41  65 100 135 174 224 272 328 393
#     4  10  22  41  64  91 128 170 217 274 328 384
#     4  10  24  44  70  96 134 180 222 272 332 394
#
# _framework density 22.833949
#
# number of rings (size 3 to 8) (size 9 to 14) (size 15 to 20)
#    0.000    1.600    0.000    4.800    0.000   17.600 
#    0.000    0.000    0.000    0.000    0.000    0.000 
#    0.000    0.000    0.000    0.000    0.000    0.000 
#
# Total GULP energy -247939.242129 kJ/mol
# GULP energy per Si atom -12396.962106 kJ/mol
# Density = 2.278198 g / cm^3
# Si number density = 22.833949 Si / 1000 Ang^3
#
#
#
# Elastic Constant Matrix: (Units=GPa)
#
#
# Indices 1 2 3 4 5 6 
#
# 1 141.4668 44.5862 50.0336 0.0000 0.0000 0.0000
# 2 44.5862 112.2597 27.7381 0.0000 0.0000 0.0000
# 3 50.0336 27.7381 113.6759 0.0000 0.0000 0.0000
# 4 0.0000 0.0000 0.0000 26.8559 0.0000 0.0000
# 5 0.0000 0.0000 0.0000 0.0000 30.8371 0.0000
# 6 0.0000 0.0000 0.0000 0.0000 0.0000 44.0256
#
#
#
# Elastic Compliance Matrix: (Units=1/GPa)
#
#
# Indices 1 2 3 4 5 6 
#
# 1 0.009132 -0.002803 -0.003335 0.000000 0.000000 0.000000
# 2 -0.002803 0.010340 -0.001289 0.000000 0.000000 0.000000
# 3 -0.003335 -0.001289 0.010580 0.000000 0.000000 0.000000
# 4 0.000000 0.000000 0.000000 0.037236 0.000000 0.000000
# 5 0.000000 0.000000 0.000000 0.000000 0.032428 0.000000
# 6 0.000000 0.000000 0.000000 0.000000 0.000000 0.022714
#
#
# Mechanical properties :
#
#
# Convention : Reuss Voigt Hill
#
# Bulk Modulus (GPa) = 65.80659 68.01313 66.90986
# Shear Modulus (GPa) = 35.12477 36.68003 35.90240
#
# Velocity S-wave (km/s) = 3.92633 4.01232 3.96956
# Velocity P-wave (km/s) = 7.03114 7.16349 7.09762
#
# Compressibility (1/GPa) = 0.01519605
#
# Stress axis : x y z
#
# Youngs Moduli (GPa) = 109.50753 96.71484 94.52145
#
# Poissons Ratio (x) = 0.27107 0.31527
# Poissons Ratio (y) = 0.30692 0.12187
# Poissons Ratio (z) = 0.36525 0.12470
#
# Static dielectric constant tensor:
#      x y z
#    x 4.335930 0.000000 0.000000 
#    y 0.000000 3.995420 0.000000 
#    z 0.000000 0.000000 4.145450 
# 
# 
# High freq. dielectric constant tensor:
#      x y z
#    x 1.900530 0.000000 0.000000 
#    y 0.000000 1.888230 0.000000 
#    z 0.000000 0.000000 1.913330 
# 
# From -- ./inp_files/654.got.cif
#   From: 2010.03.12/outbox.cif.g09.slc.cpg/sg30_1_cif.got.tgz:654.got - 2010.04.14 01:38:02.
