data_PCOD8169127
_publ_section_title
;
Structure prediction by ZEFSAII (Michael W. Deem and Ramdas Pophale) SiO2 
 PCOD8169127
Probable space group: P C A 21
;
_chemical_formula_sum "Si O2"
_cell_formula_units_Z 24
_cell_length_a 8.537712
_cell_length_b 8.737607
_cell_length_c 15.474997
_cell_angle_alpha 90.000000
_cell_angle_beta 90.000000
_cell_angle_gamma 90.000000
_cell_volume 1154.421965
_symmetry_space_group_name_H-M "P C A 21"
_symmetry_group_IT_number 29
_symmetry_cell_setting 'orthorhombic'
loop_
_space_group_symop_operation_xyz
x,y,z
-x,-y,1/2+z
1/2-x,y,1/2+z
1/2+x,-y,z
loop_
_atom_site_type_symbol
_atom_site_label
_atom_site_fract_x
_atom_site_fract_y
_atom_site_fract_z
Si Si1 0.867500 0.090729 0.889410
Si Si2 0.054277 0.465072 0.986382
Si Si3 0.918366 0.561239 0.802773
Si Si4 0.269997 0.714965 0.241864
Si Si5 0.217324 0.709261 0.550352
Si Si6 0.706933 0.784568 0.888539
O O1 0.759890 0.151517 0.811130
O O2 0.046836 0.126930 0.864939
O O3 0.842686 0.909949 0.904110
O O4 0.817676 0.161950 0.980415
O O5 0.179956 0.326865 0.971427
O O6 0.968426 0.495166 0.895539
O O7 0.127757 0.619658 0.021623
O O8 0.926570 0.409916 0.055583
O O9 0.860456 0.417422 0.747359
O O10 0.770175 0.676429 0.811428
O O11 0.058305 0.646998 0.755969
O O12 0.259977 0.783770 0.144917
#
# Coordination Sequence:
#
# PCOD8169127 Si02
#       6
#     4   4   4   4   4   4
#     4  11  23  42  61  91 131 166 209 250 320 381
#     4  11  19  40  65  91 121 164 212 261 306 364
#     4  12  19  40  67  92 121 166 212 259 310 365
#     4  12  22  39  64  94 128 166 210 260 312 371
#     4  11  23  38  63  93 128 163 211 259 311 370
#     4  11  22  39  70  89 123 175 202 257 319 367
#
# _framework density 20.789625000000001
#
# number of rings (size 3 to 8) (size 9 to 14) (size 15 to 20)
#    0.000    0.667    8.333    2.000    0.000    0.000 
#    0.000    8.333    0.000    0.000    0.000    0.000 
#    0.000    0.000    0.000    0.000    0.000    0.000 
#
# Total GULP energy -297565.568125 kJ/mol
# GULP energy per Si atom -12398.565339 kJ/mol
# Density = 2.074231 g / cm^3
# Si number density = 20.789625 Si / 1000 Ang^3
#
#
#
# Elastic Constant Matrix: (Units=GPa)
#
#
# Indices 1 2 3 4 5 6 
#
# 1 63.2957 10.2261 16.7438 0.0000 0.0000 0.0000
# 2 10.2261 76.2694 21.9884 0.0000 0.0000 0.0000
# 3 16.7438 21.9884 113.5717 0.0000 0.0000 0.0000
# 4 0.0000 0.0000 0.0000 10.6061 0.0000 0.0000
# 5 0.0000 0.0000 0.0000 0.0000 23.1254 0.0000
# 6 0.0000 0.0000 0.0000 0.0000 0.0000 44.2180
#
#
#
# Elastic Compliance Matrix: (Units=1/GPa)
#
#
# Indices 1 2 3 4 5 6 
#
# 1 0.016625 -0.001612 -0.002139 0.000000 0.000000 0.000000
# 2 -0.001612 0.014043 -0.002481 0.000000 0.000000 0.000000
# 3 -0.002139 -0.002481 0.009601 0.000000 0.000000 0.000000
# 4 0.000000 0.000000 0.000000 0.094285 0.000000 0.000000
# 5 0.000000 0.000000 0.000000 0.000000 0.043243 0.000000
# 6 0.000000 0.000000 0.000000 0.000000 0.000000 0.022615
#
#
# Mechanical properties :
#
#
# Convention : Reuss Voigt Hill
#
# Bulk Modulus (GPa) = 35.96607 39.00593 37.48600
# Shear Modulus (GPa) = 22.50789 29.20180 25.85484
#
# Velocity S-wave (km/s) = 3.29393 3.75191 3.53036
# Velocity P-wave (km/s) = 5.63952 6.12960 5.88966
#
# Compressibility (1/GPa) = 0.02780398
#
# Stress axis : x y z
#
# Youngs Moduli (GPa) = 60.14974 71.21025 104.15906
#
# Poissons Ratio (x) = 0.11482 0.22278
# Poissons Ratio (y) = 0.09699 0.25843
# Poissons Ratio (z) = 0.12865 0.17668
#
# Static dielectric constant tensor:
#      x y z
#    x 4.011230 0.000000 0.000000 
#    y 0.000000 3.804130 0.000000 
#    z 0.000000 0.000000 3.566700 
# 
# 
# High freq. dielectric constant tensor:
#      x y z
#    x 1.830290 0.000000 0.000000 
#    y 0.000000 1.807420 0.000000 
#    z 0.000000 0.000000 1.786210 
# 
# From -- ./inp_files/4181.got.cif
#   From: 2010.03.12/outbox.cif.g09.slc.cpg/sg29_3_cif.got.tgz:4181.got - 2010.04.14 03:43:10.
