data_PCOD8169453
_publ_section_title
;
Structure prediction by ZEFSAII (Michael W. Deem and Ramdas Pophale) SiO2 
 PCOD8169453
Probable space group: P N C 2
;
_chemical_formula_sum "Si O2"
_cell_formula_units_Z 32
_cell_length_a 14.495362
_cell_length_b 9.629914
_cell_length_c 9.348687
_cell_angle_alpha 90.000000
_cell_angle_beta 90.000000
_cell_angle_gamma 90.000000
_cell_volume 1304.974706
_symmetry_space_group_name_H-M "P N C 2"
_symmetry_group_IT_number 30
_symmetry_cell_setting 'orthorhombic'
loop_
_space_group_symop_operation_xyz
x,y,z
-x,-y,z
-x,1/2+y,1/2+z
x,1/2-y,1/2+z
loop_
_atom_site_type_symbol
_atom_site_label
_atom_site_fract_x
_atom_site_fract_y
_atom_site_fract_z
Si Si1 0.604546 0.451779 0.908620
Si Si2 0.877566 0.848784 0.879687
Si Si3 0.075849 0.394137 0.079439
Si Si4 0.225853 0.612096 0.088436
Si Si5 0.790795 0.137112 0.922844
Si Si6 0.684708 0.734444 0.793011
Si Si7 0.580812 0.668296 0.535259
Si Si8 0.392460 0.865241 0.109939
O O1 0.500000 0.500000 0.948675
O O2 0.663699 0.584526 0.858023
O O3 0.612692 0.336057 0.781418
O O4 0.664703 0.390174 0.042931
O O5 0.948239 0.868221 0.747343
O O6 0.790924 0.771396 0.808591
O O7 0.850687 0.997536 0.950706
O O8 0.925702 0.752328 0.997383
O O9 0.177337 0.463553 0.069714
O O10 0.000000 0.500000 0.016273
O O11 0.227228 0.656781 0.254650
O O12 0.165308 0.722015 0.991383
O O13 0.700545 0.133719 0.021882
O O14 0.654301 0.757488 0.628595
O O15 0.620909 0.845334 0.876914
O O16 0.571644 0.522311 0.610597
O O17 0.474870 0.730109 0.538134
#
# Coordination Sequence:
#
# PCOD8169453 Si02
#       8
#     4   4   4   4   4   4   4   4
#     4  11  22  40  61  96 144 192 242 293 357 418
#     4  11  24  46  78 108 139 185 235 295 361 440
#     4  11  27  50  78 112 144 176 236 294 360 441
#     4  11  26  46  66 103 143 190 238 301 358 429
#     4  11  25  43  68  97 141 186 241 291 364 423
#     4  11  20  37  64  92 131 182 233 294 345 414
#     4  10  21  33  55  87 131 175 238 286 339 399
#     4  10  20  39  54  89 131 188 236 289 342 416
#
# _framework density 24.521547999999999
#
# number of rings (size 3 to 8) (size 9 to 14) (size 15 to 20)
#    0.000    1.250    5.000    1.500    5.250    4.000 
#    2.250    0.625    0.000    0.000    0.000    0.000 
#    0.000    0.000    0.000    0.000    0.000    0.000 
#
# Total GULP energy -396443.362005 kJ/mol
# GULP energy per Si atom -12388.855063 kJ/mol
# Density = 2.446574 g / cm^3
# Si number density = 24.521548 Si / 1000 Ang^3
#
#
#
# Elastic Constant Matrix: (Units=GPa)
#
#
# Indices 1 2 3 4 5 6 
#
# 1 55.2817 13.1894 23.7784 0.0000 0.0000 0.0000
# 2 13.1894 104.6951 47.1230 0.0000 0.0000 0.0000
# 3 23.7784 47.1230 139.4595 0.0000 0.0000 0.0000
# 4 0.0000 0.0000 0.0000 35.0239 0.0000 0.0000
# 5 0.0000 0.0000 0.0000 0.0000 23.5769 0.0000
# 6 0.0000 0.0000 0.0000 0.0000 0.0000 29.8299
#
#
#
# Elastic Compliance Matrix: (Units=1/GPa)
#
#
# Indices 1 2 3 4 5 6 
#
# 1 0.019636 -0.001140 -0.002963 0.000000 0.000000 0.000000
# 2 -0.001140 0.011331 -0.003634 0.000000 0.000000 0.000000
# 3 -0.002963 -0.003634 0.008904 0.000000 0.000000 0.000000
# 4 0.000000 0.000000 0.000000 0.028552 0.000000 0.000000
# 5 0.000000 0.000000 0.000000 0.000000 0.042414 0.000000
# 6 0.000000 0.000000 0.000000 0.000000 0.000000 0.033523
#
#
# Mechanical properties :
#
#
# Convention : Reuss Voigt Hill
#
# Bulk Modulus (GPa) = 40.99046 51.95754 46.47400
# Shear Modulus (GPa) = 29.76789 32.04251 30.90520
#
# Velocity S-wave (km/s) = 3.48796 3.61876 3.55396
# Velocity P-wave (km/s) = 5.74226 6.22054 5.98618
#
# Compressibility (1/GPa) = 0.02439592
#
# Stress axis : x y z
#
# Youngs Moduli (GPa) = 50.92807 88.25369 112.31276
#
# Poissons Ratio (x) = 0.10062 0.33275
# Poissons Ratio (y) = 0.05807 0.40818
# Poissons Ratio (z) = 0.15088 0.32074
#
# Static dielectric constant tensor:
#      x y z
#    x 4.331410 0.000000 0.000000 
#    y 0.000000 5.728360 0.000000 
#    z 0.000000 0.000000 4.561400 
# 
# 
# High freq. dielectric constant tensor:
#      x y z
#    x 1.960990 0.000000 0.000000 
#    y 0.000000 1.987680 0.000000 
#    z 0.000000 0.000000 1.976190 
# 
# From -- ./inp_files/2689.got.cif
#   From: 2010.03.12/outbox.cif.g09.slc.cpg/sg30_2_cif.got.tgz:2689.got - 2010.04.14 01:38:02.
