data_PCOD8169353
_publ_section_title
;
Structure prediction by ZEFSAII (Michael W. Deem and Ramdas Pophale) SiO2 
 PCOD8169353
Probable space group: P C A 21
;
_chemical_formula_sum "Si O2"
_cell_formula_units_Z 12
_cell_length_a 19.476948
_cell_length_b 4.786131
_cell_length_c 5.015247
_cell_angle_alpha 90.000000
_cell_angle_beta 90.000000
_cell_angle_gamma 90.000000
_cell_volume 467.517437
_symmetry_space_group_name_H-M "P C A 21"
_symmetry_group_IT_number 29
_symmetry_cell_setting 'orthorhombic'
loop_
_space_group_symop_operation_xyz
x,y,z
-x,-y,1/2+z
1/2-x,y,1/2+z
1/2+x,-y,z
loop_
_atom_site_type_symbol
_atom_site_label
_atom_site_fract_x
_atom_site_fract_y
_atom_site_fract_z
Si Si1 0.204961 0.935108 0.013370
Si Si2 0.388122 0.426257 0.497366
Si Si3 0.505288 0.805609 0.648131
O O1 0.264908 0.995909 0.222500
O O2 0.179316 0.617362 0.989106
O O3 0.139214 0.124264 0.094031
O O4 0.445599 0.571129 0.683510
O O5 0.423676 0.359523 0.210128
O O6 0.507076 0.943288 0.357850
#
# Coordination Sequence:
#
# PCOD8169353 Si02
#       3
#     4   4   4
#     4  12  30  50  78 108 156 212 254 312 376 466
#     4  12  28  52  80 114 158 194 268 314 396 458
#     4  12  28  50  82 120 156 202 252 340 398 458
#
# _framework density 25.667487999999999
#
# number of rings (size 3 to 8) (size 9 to 14) (size 15 to 20)
#    0.000    0.000    3.333    4.000    4.667    5.333 
#    0.000    0.000    0.000    0.000    0.000    0.000 
#    0.000    0.000    0.000    0.000    0.000    0.000 
#
# Total GULP energy -148741.265984 kJ/mol
# GULP energy per Si atom -12395.105499 kJ/mol
# Density = 2.560907 g / cm^3
# Si number density = 25.667488 Si / 1000 Ang^3
#
#
#
# Elastic Constant Matrix: (Units=GPa)
#
#
# Indices 1 2 3 4 5 6 
#
# 1 99.6343 24.4600 14.9086 0.0000 0.0000 0.0000
# 2 24.4600 124.9164 21.4012 0.0000 0.0000 0.0000
# 3 14.9086 21.4012 57.9196 0.0000 0.0000 0.0000
# 4 0.0000 0.0000 0.0000 30.1705 0.0000 0.0000
# 5 0.0000 0.0000 0.0000 0.0000 47.8468 0.0000
# 6 0.0000 0.0000 0.0000 0.0000 0.0000 67.3749
#
#
#
# Elastic Compliance Matrix: (Units=1/GPa)
#
#
# Indices 1 2 3 4 5 6 
#
# 1 0.010784 -0.001747 -0.002131 0.000000 0.000000 0.000000
# 2 -0.001747 0.008829 -0.002813 0.000000 0.000000 0.000000
# 3 -0.002131 -0.002813 0.018853 0.000000 0.000000 0.000000
# 4 0.000000 0.000000 0.000000 0.033145 0.000000 0.000000
# 5 0.000000 0.000000 0.000000 0.000000 0.020900 0.000000
# 6 0.000000 0.000000 0.000000 0.000000 0.000000 0.014842
#
#
# Mechanical properties :
#
#
# Convention : Reuss Voigt Hill
#
# Bulk Modulus (GPa) = 39.86189 44.89001 42.37595
# Shear Modulus (GPa) = 38.73085 43.85848 41.29466
#
# Velocity S-wave (km/s) = 3.88873 4.13815 4.01538
# Velocity P-wave (km/s) = 5.97719 6.35290 6.16791
#
# Compressibility (1/GPa) = 0.02508662
#
# Stress axis : x y z
#
# Youngs Moduli (GPa) = 92.72739 113.25962 53.04189
#
# Poissons Ratio (x) = 0.19783 0.11301
# Poissons Ratio (y) = 0.16196 0.14920
# Poissons Ratio (z) = 0.19756 0.31858
#
# Static dielectric constant tensor:
#      x y z
#    x 4.880290 0.000000 0.000000 
#    y 0.000000 5.023020 0.000000 
#    z 0.000000 0.000000 4.235110 
# 
# 
# High freq. dielectric constant tensor:
#      x y z
#    x 2.037220 0.000000 0.000000 
#    y 0.000000 2.057700 0.000000 
#    z 0.000000 0.000000 2.004830 
# 
# From -- ./inp_files/297.got.cif
#   From: 2010.03.12/outbox.cif.g09.slc.cpg/sg29_1_cif.got.tgz:297.got - 2010.04.14 03:43:10.
