data_PCOD8169008
_publ_section_title
;
Structure prediction by ZEFSAII (Michael W. Deem and Ramdas Pophale) SiO2 
 PCOD8169008
Probable space group: P C A 21
;
_chemical_formula_sum "Si O2"
_cell_formula_units_Z 24
_cell_length_a 5.207775
_cell_length_b 13.730923
_cell_length_c 13.663150
_cell_angle_alpha 90.000000
_cell_angle_beta 90.000000
_cell_angle_gamma 90.000000
_cell_volume 977.018485
_symmetry_space_group_name_H-M "P C A 21"
_symmetry_group_IT_number 29
_symmetry_cell_setting 'orthorhombic'
loop_
_space_group_symop_operation_xyz
x,y,z
-x,-y,1/2+z
1/2-x,y,1/2+z
1/2+x,-y,z
loop_
_atom_site_type_symbol
_atom_site_label
_atom_site_fract_x
_atom_site_fract_y
_atom_site_fract_z
Si Si1 0.090666 0.449429 0.154000
Si Si2 0.196183 0.954641 0.860166
Si Si3 0.966598 0.548408 0.882569
Si Si4 0.922740 0.762945 0.577625
Si Si5 0.072750 0.759680 0.952515
Si Si6 0.784367 0.963317 0.644393
O O1 0.833616 0.494372 0.105512
O O2 0.069913 0.471047 0.268284
O O3 0.126225 0.335398 0.136454
O O4 0.141682 0.839914 0.870614
O O5 0.463931 0.984481 0.911262
O O6 0.202338 0.986454 0.746935
O O7 0.183393 0.474321 0.927815
O O8 0.072364 0.656016 0.899746
O O9 0.713377 0.777238 0.492459
O O10 0.876635 0.851678 0.653523
O O11 0.212316 0.763848 0.537131
O O12 0.508488 0.974132 0.588426
#
# Coordination Sequence:
#
# PCOD8169008 Si02
#       6
#     4   4   4   4   4   4
#     4  10  23  44  68  98 134 180 225 268 324 407
#     4  10  23  43  66  95 126 182 221 271 328 402
#     4  10  23  44  68  98 134 180 225 268 324 407
#     4  12  26  42  68 104 136 173 222 284 344 401
#     4  12  26  42  68 104 136 173 222 284 344 401
#     4  10  23  43  66  95 126 182 221 271 328 402
#
# _framework density 24.564530000000001
#
# number of rings (size 3 to 8) (size 9 to 14) (size 15 to 20)
#    0.000    1.333    0.000    4.000    4.667    8.000 
#   12.000    0.000    0.000    0.000    0.000    0.000 
#    0.000    0.000    0.000    0.000    0.000    0.000 
#
# Total GULP energy -297478.086491 kJ/mol
# GULP energy per Si atom -12394.920270 kJ/mol
# Density = 2.450862 g / cm^3
# Si number density = 24.564530 Si / 1000 Ang^3
#
#
#
# Elastic Constant Matrix: (Units=GPa)
#
#
# Indices 1 2 3 4 5 6 
#
# 1 232.4532 76.1151 14.6190 0.0000 0.0000 0.0000
# 2 76.1151 191.8112 -0.2861 0.0000 0.0000 0.0000
# 3 14.6190 -0.2861 13.6178 0.0000 0.0000 0.0000
# 4 0.0000 0.0000 0.0000 39.3344 0.0000 0.0000
# 5 0.0000 0.0000 0.0000 0.0000 2.0895 0.0000
# 6 0.0000 0.0000 0.0000 0.0000 0.0000 48.7050
#
#
#
# Elastic Compliance Matrix: (Units=1/GPa)
#
#
# Indices 1 2 3 4 5 6 
#
# 1 0.005367 -0.002139 -0.005807 0.000000 0.000000 0.000000
# 2 -0.002139 0.006066 0.002423 0.000000 0.000000 0.000000
# 3 -0.005807 0.002423 0.079718 0.000000 0.000000 0.000000
# 4 0.000000 0.000000 0.000000 0.025423 0.000000 0.000000
# 5 0.000000 0.000000 0.000000 0.000000 0.478586 0.000000
# 6 0.000000 0.000000 0.000000 0.000000 0.000000 0.020532
#
#
# Mechanical properties :
#
#
# Convention : Reuss Voigt Hill
#
# Bulk Modulus (GPa) = 12.48335 68.75312 40.61823
# Shear Modulus (GPa) = 7.65182 41.18806 24.41994
#
# Velocity S-wave (km/s) = 1.76685 4.09923 3.15638
# Velocity P-wave (km/s) = 3.04224 7.10313 5.46396
#
# Compressibility (1/GPa) = 0.08010670
#
# Stress axis : x y z
#
# Youngs Moduli (GPa) = 186.31007 164.86128 12.54419
#
# Poissons Ratio (x) = 0.35257 0.07284
# Poissons Ratio (y) = 0.39844 -0.03040
# Poissons Ratio (z) = 1.08189 -0.39949
#
# Static dielectric constant tensor:
#      x y z
#    x 5.951120 0.000000 0.000000 
#    y 0.000000 4.423340 0.000000 
#    z 0.000000 0.000000 4.078090 
# 
# 
# High freq. dielectric constant tensor:
#      x y z
#    x 2.016940 0.000000 0.000000 
#    y 0.000000 1.978370 0.000000 
#    z 0.000000 0.000000 1.964510 
# 
# From -- ./inp_files/4022.got.cif
#   From: 2010.03.12/outbox.cif.g09.slc.cpg/sg29_3_cif.got.tgz:4022.got - 2010.04.14 03:43:10.
