data_PCOD8169325
_publ_section_title
;
Structure prediction by ZEFSAII (Michael W. Deem and Ramdas Pophale) SiO2 
 PCOD8169325
Probable space group: P C A 21
;
_chemical_formula_sum "Si O2"
_cell_formula_units_Z 24
_cell_length_a 8.311867
_cell_length_b 13.538403
_cell_length_c 9.366615
_cell_angle_alpha 90.000000
_cell_angle_beta 90.000000
_cell_angle_gamma 90.000000
_cell_volume 1054.019614
_symmetry_space_group_name_H-M "P C A 21"
_symmetry_group_IT_number 29
_symmetry_cell_setting 'orthorhombic'
loop_
_space_group_symop_operation_xyz
x,y,z
-x,-y,1/2+z
1/2-x,y,1/2+z
1/2+x,-y,z
loop_
_atom_site_type_symbol
_atom_site_label
_atom_site_fract_x
_atom_site_fract_y
_atom_site_fract_z
Si Si1 0.561551 0.286846 0.737290
Si Si2 0.596065 0.911395 0.163508
Si Si3 0.582642 0.918843 0.834541
Si Si4 0.432418 0.419632 0.512910
Si Si5 0.567042 0.632393 0.509232
Si Si6 0.930494 0.284632 0.782058
O O1 0.503420 0.189548 0.655640
O O2 0.479464 0.385085 0.671752
O O3 0.503129 0.285883 0.900881
O O4 0.752263 0.292361 0.719969
O O5 0.761055 0.890035 0.244814
O O6 0.498867 0.990016 0.255763
O O7 0.624388 0.946955 0.999505
O O8 0.462105 0.826484 0.833830
O O9 0.454652 0.536209 0.501299
O O10 0.553972 0.360625 0.411532
O O11 0.249989 0.393838 0.473239
O O12 0.559134 0.683284 0.662981
#
# Coordination Sequence:
#
# PCOD8169325 Si02
#       6
#     4   4   4   4   4   4
#     4  12  26  45  71 104 144 188 241 296 362 434
#     4  12  27  48  76 108 148 191 244 301 368 441
#     4  12  27  48  76 108 148 191 244 301 368 441
#     4  12  24  48  65 106 139 190 244 298 366 426
#     4  12  26  42  75  98 145 190 240 302 358 436
#     4  12  26  45  71 104 144 188 241 296 362 434
#
# _framework density 22.769976
#
# number of rings (size 3 to 8) (size 9 to 14) (size 15 to 20)
#    0.000    0.000    1.667    9.000    4.667    0.000 
#    0.000    0.000    0.000    0.000    0.000    0.000 
#    0.000    0.000    0.000    0.000    0.000    0.000 
#
# Total GULP energy -297803.948661 kJ/mol
# GULP energy per Si atom -12408.497861 kJ/mol
# Density = 2.271815 g / cm^3
# Si number density = 22.769976 Si / 1000 Ang^3
#
#
#
# Elastic Constant Matrix: (Units=GPa)
#
#
# Indices 1 2 3 4 5 6 
#
# 1 117.8198 23.1034 31.8324 0.0000 0.0000 0.0000
# 2 23.1034 85.8449 30.6360 0.0000 0.0000 0.0000
# 3 31.8324 30.6360 125.3919 0.0000 0.0000 0.0000
# 4 0.0000 0.0000 0.0000 42.4301 0.0000 0.0000
# 5 0.0000 0.0000 0.0000 0.0000 34.8166 0.0000
# 6 0.0000 0.0000 0.0000 0.0000 0.0000 31.8925
#
#
#
# Elastic Compliance Matrix: (Units=1/GPa)
#
#
# Indices 1 2 3 4 5 6 
#
# 1 0.009368 -0.001832 -0.001931 0.000000 0.000000 0.000000
# 2 -0.001832 0.013120 -0.002740 0.000000 0.000000 0.000000
# 3 -0.001931 -0.002740 0.009135 0.000000 0.000000 0.000000
# 4 0.000000 0.000000 0.000000 0.023568 0.000000 0.000000
# 5 0.000000 0.000000 0.000000 0.000000 0.028722 0.000000
# 6 0.000000 0.000000 0.000000 0.000000 0.000000 0.031355
#
#
# Mechanical properties :
#
#
# Convention : Reuss Voigt Hill
#
# Bulk Modulus (GPa) = 53.71582 55.57782 54.64682
# Shear Modulus (GPa) = 37.18007 38.06016 37.62011
#
# Velocity S-wave (km/s) = 4.04524 4.09284 4.06911
# Velocity P-wave (km/s) = 6.74244 6.84080 6.79180
#
# Compressibility (1/GPa) = 0.01861649
#
# Stress axis : x y z
#
# Youngs Moduli (GPa) = 106.74117 76.21946 109.47342
#
# Poissons Ratio (x) = 0.13966 0.21135
# Poissons Ratio (y) = 0.19559 0.29999
# Poissons Ratio (z) = 0.20608 0.20887
#
# Static dielectric constant tensor:
#      x y z
#    x 4.175410 0.000000 0.000000 
#    y 0.000000 4.041240 0.000000 
#    z 0.000000 0.000000 4.231840 
# 
# 
# High freq. dielectric constant tensor:
#      x y z
#    x 1.907890 0.000000 0.000000 
#    y 0.000000 1.902590 0.000000 
#    z 0.000000 0.000000 1.916230 
# 
# From -- ./inp_files/1133.got.cif
#   From: 2010.03.12/outbox.cif.g09.slc.cpg/sg29_1_cif.got.tgz:1133.got - 2010.04.14 03:43:10.
