data_PCOD8169116
_publ_section_title
;
Structure prediction by ZEFSAII (Michael W. Deem and Ramdas Pophale) SiO2 
 PCOD8169116
Probable space group: P C A 21
;
_chemical_formula_sum "Si O2"
_cell_formula_units_Z 20
_cell_length_a 8.909215
_cell_length_b 5.091669
_cell_length_c 17.161058
_cell_angle_alpha 90.000000
_cell_angle_beta 90.000000
_cell_angle_gamma 90.000000
_cell_volume 778.473193
_symmetry_space_group_name_H-M "P C A 21"
_symmetry_group_IT_number 29
_symmetry_cell_setting 'orthorhombic'
loop_
_space_group_symop_operation_xyz
x,y,z
-x,-y,1/2+z
1/2-x,y,1/2+z
1/2+x,-y,z
loop_
_atom_site_type_symbol
_atom_site_label
_atom_site_fract_x
_atom_site_fract_y
_atom_site_fract_z
Si Si1 0.421311 0.717380 0.132370
Si Si2 0.928300 0.201837 0.951111
Si Si3 0.903206 0.300217 0.393978
Si Si4 0.325907 0.984759 0.723331
Si Si5 0.081425 0.358957 0.759313
O O1 0.559514 0.832108 0.179185
O O2 0.412771 0.415339 0.165260
O O3 0.264014 0.848635 0.153694
O O4 0.450895 0.743696 0.041843
O O5 0.754989 0.243049 0.932220
O O6 0.040843 0.404223 0.911351
O O7 0.976044 0.910732 0.923191
O O8 0.894439 0.348850 0.299760
O O9 0.217693 0.158207 0.780256
O O10 0.420081 0.779357 0.778374
#
# Coordination Sequence:
#
# PCOD8169116 Si02
#       5
#     4   4   4   4   4
#     4  11  25  45  81 109 157 207 272 329 402 483
#     4  12  30  52  82 118 165 217 269 332 417 485
#     4  12  31  53  80 117 169 212 270 339 412 487
#     4  10  25  46  77 114 155 204 278 333 396 480
#     4  11  27  46  80 114 164 210 279 335 409 481
#
# _framework density 25.691310999999999
#
# number of rings (size 3 to 8) (size 9 to 14) (size 15 to 20)
#    0.000    0.800    0.000    3.600   22.400    0.000 
#    0.000    0.000    0.000    0.000    0.000    0.000 
#    0.000    0.000    0.000    0.000    0.000    0.000 
#
# Total GULP energy -247953.019629 kJ/mol
# GULP energy per Si atom -12397.650981 kJ/mol
# Density = 2.563284 g / cm^3
# Si number density = 25.691311 Si / 1000 Ang^3
#
#
#
# Elastic Constant Matrix: (Units=GPa)
#
#
# Indices 1 2 3 4 5 6 
#
# 1 148.8424 37.9932 8.4224 0.0000 0.0000 0.0000
# 2 37.9932 121.3482 24.0772 0.0000 0.0000 0.0000
# 3 8.4224 24.0772 77.6527 0.0000 0.0000 0.0000
# 4 0.0000 0.0000 0.0000 27.1705 0.0000 0.0000
# 5 0.0000 0.0000 0.0000 0.0000 15.7121 0.0000
# 6 0.0000 0.0000 0.0000 0.0000 0.0000 37.1627
#
#
#
# Elastic Compliance Matrix: (Units=1/GPa)
#
#
# Indices 1 2 3 4 5 6 
#
# 1 0.007303 -0.002269 -0.000089 0.000000 0.000000 0.000000
# 2 -0.002269 0.009486 -0.002695 0.000000 0.000000 0.000000
# 3 -0.000089 -0.002695 0.013723 0.000000 0.000000 0.000000
# 4 0.000000 0.000000 0.000000 0.036805 0.000000 0.000000
# 5 0.000000 0.000000 0.000000 0.000000 0.063645 0.000000
# 6 0.000000 0.000000 0.000000 0.000000 0.000000 0.026909
#
#
# Mechanical properties :
#
#
# Convention : Reuss Voigt Hill
#
# Bulk Modulus (GPa) = 49.00385 54.31431 51.65908
# Shear Modulus (GPa) = 28.60782 34.49910 31.55346
#
# Velocity S-wave (km/s) = 3.34057 3.66844 3.50834
# Velocity P-wave (km/s) = 5.83050 6.25542 6.04669
#
# Compressibility (1/GPa) = 0.02040656
#
# Stress axis : x y z
#
# Youngs Moduli (GPa) = 136.93627 105.42017 72.86972
#
# Poissons Ratio (x) = 0.23918 0.00646
# Poissons Ratio (y) = 0.31069 0.19639
# Poissons Ratio (z) = 0.01213 0.28412
#
# Static dielectric constant tensor:
#      x y z
#    x 4.877510 0.000000 0.000000 
#    y 0.000000 5.073880 0.000000 
#    z 0.000000 0.000000 5.127670 
# 
# 
# High freq. dielectric constant tensor:
#      x y z
#    x 2.051920 0.000000 0.000000 
#    y 0.000000 2.044630 0.000000 
#    z 0.000000 0.000000 2.025810 
# 
# From -- ./inp_files/4929.got.cif
#   From: 2010.03.12/outbox.cif.g09.slc.cpg/sg29_3_cif.got.tgz:4929.got - 2010.04.14 03:43:10.
