data_PCOD8169038
_publ_section_title
;
Structure prediction by ZEFSAII (Michael W. Deem and Ramdas Pophale) SiO2 
 PCOD8169038
Probable space group: P C A 21
;
_chemical_formula_sum "Si O2"
_cell_formula_units_Z 24
_cell_length_a 11.377607
_cell_length_b 8.179853
_cell_length_c 11.614707
_cell_angle_alpha 90.000000
_cell_angle_beta 90.000000
_cell_angle_gamma 90.000000
_cell_volume 1080.947711
_symmetry_space_group_name_H-M "P C A 21"
_symmetry_group_IT_number 29
_symmetry_cell_setting 'orthorhombic'
loop_
_space_group_symop_operation_xyz
x,y,z
-x,-y,1/2+z
1/2-x,y,1/2+z
1/2+x,-y,z
loop_
_atom_site_type_symbol
_atom_site_label
_atom_site_fract_x
_atom_site_fract_y
_atom_site_fract_z
Si Si1 0.940469 0.684734 0.933430
Si Si2 0.457903 0.136156 0.173515
Si Si3 0.816729 0.147059 0.827676
Si Si4 0.518257 0.326251 0.492482
Si Si5 0.087631 0.779272 0.723968
Si Si6 0.800593 0.801192 0.375125
O O1 0.996706 0.505142 0.937230
O O2 0.801901 0.672215 0.904123
O O3 0.999541 0.787144 0.831400
O O4 0.965722 0.779357 0.050905
O O5 0.585611 0.120869 0.230487
O O6 0.366638 0.237322 0.254391
O O7 0.409010 0.953628 0.159073
O O8 0.869619 0.237083 0.937739
O O9 0.717404 0.262659 0.770413
O O10 0.755109 0.981879 0.874085
O O11 0.543714 0.350412 0.628642
O O12 0.399971 0.219339 0.474125
#
# Coordination Sequence:
#
# PCOD8169038 Si02
#       6
#     4   4   4   4   4   4
#     4  12  27  44  72 106 148 188 237 303 370 427
#     4  10  24  45  72 105 136 190 244 295 354 439
#     4  10  23  47  74  99 139 191 247 292 355 435
#     4  11  28  43  72 107 147 188 241 304 373 427
#     4  11  26  43  72 102 139 190 242 293 364 428
#     4  10  24  48  70 101 141 189 245 297 354 434
#
# _framework density 22.202738
#
# number of rings (size 3 to 8) (size 9 to 14) (size 15 to 20)
#    0.000    1.333    1.667    1.000   16.333    0.000 
#    0.000    0.000    0.000    0.000    0.000    0.000 
#    0.000    0.000    0.000    0.000    0.000    0.000 
#
# Total GULP energy -297631.501572 kJ/mol
# GULP energy per Si atom -12401.312566 kJ/mol
# Density = 2.215220 g / cm^3
# Si number density = 22.202738 Si / 1000 Ang^3
#
#
#
# Elastic Constant Matrix: (Units=GPa)
#
#
# Indices 1 2 3 4 5 6 
#
# 1 152.7607 39.7988 57.5927 0.0000 0.0000 0.0000
# 2 39.7988 84.9104 44.3639 0.0000 0.0000 0.0000
# 3 57.5927 44.3639 136.7405 0.0000 0.0000 0.0000
# 4 0.0000 0.0000 0.0000 30.8622 0.0000 0.0000
# 5 0.0000 0.0000 0.0000 0.0000 26.7663 0.0000
# 6 0.0000 0.0000 0.0000 0.0000 0.0000 27.3494
#
#
#
# Elastic Compliance Matrix: (Units=1/GPa)
#
#
# Indices 1 2 3 4 5 6 
#
# 1 0.008185 -0.002451 -0.002652 0.000000 0.000000 0.000000
# 2 -0.002451 0.014915 -0.003807 0.000000 0.000000 0.000000
# 3 -0.002652 -0.003807 0.009665 0.000000 0.000000 0.000000
# 4 0.000000 0.000000 0.000000 0.032402 0.000000 0.000000
# 5 0.000000 0.000000 0.000000 0.000000 0.037360 0.000000
# 6 0.000000 0.000000 0.000000 0.000000 0.000000 0.036564
#
#
# Mechanical properties :
#
#
# Convention : Reuss Voigt Hill
#
# Bulk Modulus (GPa) = 66.90953 73.10246 70.00599
# Shear Modulus (GPa) = 30.88489 32.50600 31.69544
#
# Velocity S-wave (km/s) = 3.73371 3.83045 3.78239
# Velocity P-wave (km/s) = 6.98488 7.24980 7.11857
#
# Compressibility (1/GPa) = 0.01494555
#
# Stress axis : x y z
#
# Youngs Moduli (GPa) = 122.18215 67.04802 103.46385
#
# Poissons Ratio (x) = 0.16430 0.27440
# Poissons Ratio (y) = 0.29941 0.39386
# Poissons Ratio (z) = 0.32404 0.25524
#
# Static dielectric constant tensor:
#      x y z
#    x 4.239320 0.000000 0.000000 
#    y 0.000000 3.742500 0.000000 
#    z 0.000000 0.000000 3.991950 
# 
# 
# High freq. dielectric constant tensor:
#      x y z
#    x 1.888980 0.000000 0.000000 
#    y 0.000000 1.855890 0.000000 
#    z 0.000000 0.000000 1.879530 
# 
# From -- ./inp_files/3071.got.cif
#   From: 2010.03.12/outbox.cif.g09.slc.cpg/sg29_2_cif.got.tgz:3071.got - 2010.04.14 03:43:10.
