data_PCOD8169297
_publ_section_title
;
Structure prediction by ZEFSAII (Michael W. Deem and Ramdas Pophale) SiO2 
 PCOD8169297
Probable space group: P C A 21
;
_chemical_formula_sum "Si O2"
_cell_formula_units_Z 20
_cell_length_a 15.048560
_cell_length_b 5.067666
_cell_length_c 9.333355
_cell_angle_alpha 90.000000
_cell_angle_beta 90.000000
_cell_angle_gamma 90.000000
_cell_volume 711.771694
_symmetry_space_group_name_H-M "P C A 21"
_symmetry_group_IT_number 29
_symmetry_cell_setting 'orthorhombic'
loop_
_space_group_symop_operation_xyz
x,y,z
-x,-y,1/2+z
1/2-x,y,1/2+z
1/2+x,-y,z
loop_
_atom_site_type_symbol
_atom_site_label
_atom_site_fract_x
_atom_site_fract_y
_atom_site_fract_z
Si Si1 0.716510 0.564031 0.817100
Si Si2 0.915509 0.503923 0.779342
Si Si3 0.681264 0.049501 0.637546
Si Si4 0.856811 0.178908 0.531912
Si Si5 0.501470 0.198251 0.520662
O O1 0.821919 0.610657 0.843118
O O2 0.673088 0.836822 0.764293
O O3 0.698391 0.342032 0.697626
O O4 0.665120 0.463335 0.959373
O O5 0.893186 0.237238 0.691363
O O6 0.965163 0.706569 0.674405
O O7 0.982527 0.438284 0.909900
O O8 0.767748 0.994176 0.536863
O O9 0.593812 0.042251 0.540920
O O10 0.932362 0.009836 0.450801
#
# Coordination Sequence:
#
# PCOD8169297 Si02
#       5
#     4   4   4   4   4
#     4  11  26  53  82 120 170 234 291 364 448 525
#     4  11  28  51  83 125 173 231 301 370 446 530
#     4  11  27  50  84 120 171 232 287 368 442 525
#     4  11  27  50  82 121 178 227 296 368 451 532
#     4  12  28  52  85 128 178 234 305 370 449 536
#
# _framework density 28.0989
#
# number of rings (size 3 to 8) (size 9 to 14) (size 15 to 20)
#    0.000    0.800    4.000    0.000   11.200    0.000 
#    0.000    0.000    0.000    0.000    0.000    0.000 
#    0.000    0.000    0.000    0.000    0.000    0.000 
#
# Total GULP energy -248105.038599 kJ/mol
# GULP energy per Si atom -12405.251930 kJ/mol
# Density = 2.803495 g / cm^3
# Si number density = 28.098900 Si / 1000 Ang^3
#
#
#
# Elastic Constant Matrix: (Units=GPa)
#
#
# Indices 1 2 3 4 5 6 
#
# 1 177.8999 62.0858 32.5368 0.0000 0.0000 0.0000
# 2 62.0858 97.2230 19.0608 0.0000 0.0000 0.0000
# 3 32.5368 19.0608 81.8558 0.0000 0.0000 0.0000
# 4 0.0000 0.0000 0.0000 45.4355 0.0000 0.0000
# 5 0.0000 0.0000 0.0000 0.0000 42.2719 0.0000
# 6 0.0000 0.0000 0.0000 0.0000 0.0000 40.4893
#
#
#
# Elastic Compliance Matrix: (Units=1/GPa)
#
#
# Indices 1 2 3 4 5 6 
#
# 1 0.007522 -0.004419 -0.001961 0.000000 0.000000 0.000000
# 2 -0.004419 0.013374 -0.001358 0.000000 0.000000 0.000000
# 3 -0.001961 -0.001358 0.013312 0.000000 0.000000 0.000000
# 4 0.000000 0.000000 0.000000 0.022009 0.000000 0.000000
# 5 0.000000 0.000000 0.000000 0.000000 0.023656 0.000000
# 6 0.000000 0.000000 0.000000 0.000000 0.000000 0.024698
#
#
# Mechanical properties :
#
#
# Convention : Reuss Voigt Hill
#
# Bulk Modulus (GPa) = 53.38254 64.92730 59.15492
# Shear Modulus (GPa) = 39.59113 41.85902 40.72508
#
# Velocity S-wave (km/s) = 3.75773 3.86385 3.81116
# Velocity P-wave (km/s) = 6.15359 6.56222 6.36119
#
# Compressibility (1/GPa) = 0.01873272
#
# Stress axis : x y z
#
# Youngs Moduli (GPa) = 132.94355 74.77321 75.11915
#
# Poissons Ratio (x) = 0.33043 0.14730
# Poissons Ratio (y) = 0.58748 0.10199
# Poissons Ratio (z) = 0.26069 0.10152
#
# Static dielectric constant tensor:
#      x y z
#    x 5.586700 0.000000 0.000000 
#    y 0.000000 4.705900 0.000000 
#    z 0.000000 0.000000 4.872170 
# 
# 
# High freq. dielectric constant tensor:
#      x y z
#    x 2.160880 0.000000 0.000000 
#    y 0.000000 2.129470 0.000000 
#    z 0.000000 0.000000 2.128590 
# 
# From -- ./inp_files/3333.got.cif
#   From: 2010.03.12/outbox.cif.g09.slc.cpg/sg29_2_cif.got.tgz:3333.got - 2010.04.14 03:43:10.
