data_PCOD8169161
_publ_section_title
;
Structure prediction by ZEFSAII (Michael W. Deem and Ramdas Pophale) SiO2 
 PCOD8169161
Probable space group: P C A 21
;
_chemical_formula_sum "Si O2"
_cell_formula_units_Z 32
_cell_length_a 21.459706
_cell_length_b 6.579274
_cell_length_c 10.367445
_cell_angle_alpha 90.000000
_cell_angle_beta 90.000000
_cell_angle_gamma 90.000000
_cell_volume 1463.772154
_symmetry_space_group_name_H-M "P C A 21"
_symmetry_group_IT_number 29
_symmetry_cell_setting 'orthorhombic'
loop_
_space_group_symop_operation_xyz
x,y,z
-x,-y,1/2+z
1/2-x,y,1/2+z
1/2+x,-y,z
loop_
_atom_site_type_symbol
_atom_site_label
_atom_site_fract_x
_atom_site_fract_y
_atom_site_fract_z
Si Si1 0.517939 0.689623 0.944770
Si Si2 0.853216 0.286954 0.713558
Si Si3 0.576028 0.975530 0.380524
Si Si4 0.038154 0.414025 0.222222
Si Si5 0.776222 0.051401 0.515389
Si Si6 0.844373 0.726437 0.364687
Si Si7 0.166088 0.224687 0.574381
Si Si8 0.731337 0.450904 0.407639
O O1 0.487932 0.909722 0.916805
O O2 0.499825 0.522087 0.837431
O O3 0.592239 0.715881 0.944610
O O4 0.497968 0.621894 0.090740
O O5 0.876576 0.141978 0.827032
O O6 0.906784 0.441202 0.670922
O O7 0.832110 0.139979 0.599855
O O8 0.795657 0.427371 0.762700
O O9 0.562779 0.801091 0.275400
O O10 0.608251 0.888041 0.508204
O O11 0.732446 0.227447 0.464511
O O12 0.807984 0.934169 0.396413
O O13 0.729520 0.904522 0.593501
O O14 0.858820 0.711667 0.213709
O O15 0.800765 0.539293 0.406816
O O16 0.181741 0.421146 0.489280
#
# Coordination Sequence:
#
# PCOD8169161 Si02
#       8
#     4   4   4   4   4   4   4   4
#     4  11  28  47  71 103 134 189 233 285 350 406
#     4  11  22  42  69  98 133 179 223 273 350 405
#     4  11  25  44  71  93 135 182 232 283 345 406
#     4  11  26  48  72  98 140 180 235 291 340 413
#     4  11  23  41  68 100 137 172 220 273 342 409
#     4  11  26  42  65 103 139 174 228 282 336 414
#     4  11  24  41  66  99 137 176 225 282 338 409
#     4  11  22  41  66 102 135 176 218 281 345 410
#
# _framework density 21.861325999999998
#
# number of rings (size 3 to 8) (size 9 to 14) (size 15 to 20)
#    0.000    1.000    2.500    3.000    5.250    5.000 
#    2.250    0.000    0.000    0.000    0.000    0.000 
#    0.000    0.000    0.000    0.000    0.000    0.000 
#
# Total GULP energy -396852.143994 kJ/mol
# GULP energy per Si atom -12401.629500 kJ/mol
# Density = 2.181157 g / cm^3
# Si number density = 21.861326 Si / 1000 Ang^3
#
#
#
# Elastic Constant Matrix: (Units=GPa)
#
#
# Indices 1 2 3 4 5 6 
#
# 1 81.0126 25.6641 15.9468 0.0000 0.0000 0.0000
# 2 25.6641 103.7247 24.1692 0.0000 0.0000 0.0000
# 3 15.9468 24.1692 113.4451 0.0000 0.0000 0.0000
# 4 0.0000 0.0000 0.0000 33.7935 0.0000 0.0000
# 5 0.0000 0.0000 0.0000 0.0000 35.7117 0.0000
# 6 0.0000 0.0000 0.0000 0.0000 0.0000 23.5439
#
#
#
# Elastic Compliance Matrix: (Units=1/GPa)
#
#
# Indices 1 2 3 4 5 6 
#
# 1 0.013561 -0.003063 -0.001254 0.000000 0.000000 0.000000
# 2 -0.003063 0.010836 -0.001878 0.000000 0.000000 0.000000
# 3 -0.001254 -0.001878 0.009391 0.000000 0.000000 0.000000
# 4 0.000000 0.000000 0.000000 0.029592 0.000000 0.000000
# 5 0.000000 0.000000 0.000000 0.000000 0.028002 0.000000
# 6 0.000000 0.000000 0.000000 0.000000 0.000000 0.042474
#
#
# Mechanical properties :
#
#
# Convention : Reuss Voigt Hill
#
# Bulk Modulus (GPa) = 46.73180 47.74917 47.24048
# Shear Modulus (GPa) = 32.59905 34.10330 33.35117
#
# Velocity S-wave (km/s) = 3.86576 3.95395 3.91010
# Velocity P-wave (km/s) = 6.43027 6.53714 6.48392
#
# Compressibility (1/GPa) = 0.02139871
#
# Stress axis : x y z
#
# Youngs Moduli (GPa) = 73.74124 92.28124 106.48291
#
# Poissons Ratio (x) = 0.28268 0.13349
# Poissons Ratio (y) = 0.22588 0.19998
# Poissons Ratio (z) = 0.09244 0.17331
#
# Static dielectric constant tensor:
#      x y z
#    x 3.915400 0.000000 0.000000 
#    y 0.000000 4.101940 0.000000 
#    z 0.000000 0.000000 3.889710 
# 
# 
# High freq. dielectric constant tensor:
#      x y z
#    x 1.858030 0.000000 0.000000 
#    y 0.000000 1.872680 0.000000 
#    z 0.000000 0.000000 1.861490 
# 
# From -- ./inp_files/3843.got.cif
#   From: 2010.03.12/outbox.cif.g09.slc.cpg/sg29_2_cif.got.tgz:3843.got - 2010.04.14 03:43:10.
