data_PCOD8169247
_publ_section_title
;
Structure prediction by ZEFSAII (Michael W. Deem and Ramdas Pophale) SiO2 
 PCOD8169247
Probable space group: P C A 21
;
_chemical_formula_sum "Si O2"
_cell_formula_units_Z 28
_cell_length_a 11.255597
_cell_length_b 11.354110
_cell_length_c 8.794362
_cell_angle_alpha 90.000000
_cell_angle_beta 90.000000
_cell_angle_gamma 90.000000
_cell_volume 1123.895600
_symmetry_space_group_name_H-M "P C A 21"
_symmetry_group_IT_number 29
_symmetry_cell_setting 'orthorhombic'
loop_
_space_group_symop_operation_xyz
x,y,z
-x,-y,1/2+z
1/2-x,y,1/2+z
1/2+x,-y,z
loop_
_atom_site_type_symbol
_atom_site_label
_atom_site_fract_x
_atom_site_fract_y
_atom_site_fract_z
Si Si1 0.047771 0.235120 0.686520
Si Si2 0.886650 0.071382 0.532196
Si Si3 0.964692 0.816985 0.513596
Si Si4 0.699849 0.664522 0.215636
Si Si5 0.185368 0.827188 0.717886
Si Si6 0.344228 0.562862 0.188171
Si Si7 0.028306 0.428349 0.455860
O O1 0.188714 0.246460 0.722266
O O2 0.991429 0.347842 0.600502
O O3 0.016277 0.118214 0.588433
O O4 0.985705 0.226419 0.851569
O O5 0.843783 0.149952 0.392208
O O6 0.795732 0.092889 0.670253
O O7 0.885976 0.934495 0.489325
O O8 0.891165 0.711680 0.590331
O O9 0.070955 0.858839 0.619572
O O10 0.740749 0.533183 0.172245
O O11 0.631612 0.651235 0.376139
O O12 0.216108 0.689668 0.693602
O O13 0.422359 0.541365 0.340942
O O14 0.423888 0.549457 0.033862
#
# Coordination Sequence:
#
# PCOD8169247 Si02
#       7
#     4   4   4   4   4   4   4
#     4  11  24  47  75 112 150 201 254 320 389 468
#     4  12  28  49  78 113 156 203 265 323 393 463
#     4  12  27  49  80 110 160 202 266 316 400 475
#     4  11  26  48  76 114 152 207 256 318 399 476
#     4  12  28  53  75 115 151 207 255 330 389 468
#     4  11  26  45  75 106 157 194 258 318 395 463
#     4  11  25  45  73 112 156 200 256 321 395 477
#
# _framework density 24.913346000000001
#
# number of rings (size 3 to 8) (size 9 to 14) (size 15 to 20)
#    0.000    0.571    2.857    3.429   10.000    4.571 
#    0.000    0.000    0.000    0.000    0.000    0.000 
#    0.000    0.000    0.000    0.000    0.000    0.000 
#
# Total GULP energy -347226.493820 kJ/mol
# GULP energy per Si atom -12400.946208 kJ/mol
# Density = 2.485664 g / cm^3
# Si number density = 24.913346 Si / 1000 Ang^3
#
#
#
# Elastic Constant Matrix: (Units=GPa)
#
#
# Indices 1 2 3 4 5 6 
#
# 1 75.8537 34.8745 22.2161 0.0000 0.0000 0.0000
# 2 34.8745 137.8874 46.7723 0.0000 0.0000 0.0000
# 3 22.2161 46.7723 141.3748 0.0000 0.0000 0.0000
# 4 0.0000 0.0000 0.0000 33.3248 0.0000 0.0000
# 5 0.0000 0.0000 0.0000 0.0000 24.8657 0.0000
# 6 0.0000 0.0000 0.0000 0.0000 0.0000 41.2718
#
#
#
# Elastic Compliance Matrix: (Units=1/GPa)
#
#
# Indices 1 2 3 4 5 6 
#
# 1 0.015112 -0.003398 -0.001251 0.000000 0.000000 0.000000
# 2 -0.003398 0.008933 -0.002421 0.000000 0.000000 0.000000
# 3 -0.001251 -0.002421 0.008071 0.000000 0.000000 0.000000
# 4 0.000000 0.000000 0.000000 0.030008 0.000000 0.000000
# 5 0.000000 0.000000 0.000000 0.000000 0.040216 0.000000
# 6 0.000000 0.000000 0.000000 0.000000 0.000000 0.024230
#
#
# Mechanical properties :
#
#
# Convention : Reuss Voigt Hill
#
# Bulk Modulus (GPa) = 55.62953 62.53797 59.08375
# Shear Modulus (GPa) = 34.08293 36.64265 35.36279
#
# Velocity S-wave (km/s) = 3.70274 3.83927 3.77162
# Velocity P-wave (km/s) = 6.37637 6.69403 6.53713
#
# Compressibility (1/GPa) = 0.01797606
#
# Stress axis : x y z
#
# Youngs Moduli (GPa) = 66.17364 111.94376 123.89995
#
# Poissons Ratio (x) = 0.38037 0.15495
# Poissons Ratio (y) = 0.22485 0.30002
# Poissons Ratio (z) = 0.08275 0.27107
#
# Static dielectric constant tensor:
#      x y z
#    x 4.411050 0.000000 0.000000 
#    y 0.000000 4.442330 0.000000 
#    z 0.000000 0.000000 4.639850 
# 
# 
# High freq. dielectric constant tensor:
#      x y z
#    x 1.982670 0.000000 0.000000 
#    y 0.000000 1.992490 0.000000 
#    z 0.000000 0.000000 2.009900 
# 
# From -- ./inp_files/1475.got.cif
#   From: 2010.03.12/outbox.cif.g09.slc.cpg/sg29_1_cif.got.tgz:1475.got - 2010.04.14 03:43:10.
