data_PCOD8169446
_publ_section_title
;
Structure prediction by ZEFSAII (Michael W. Deem and Ramdas Pophale) SiO2 
 PCOD8169446
Probable space group: P N C 2
;
_chemical_formula_sum "Si O2"
_cell_formula_units_Z 22
_cell_length_a 10.993729
_cell_length_b 14.598244
_cell_length_c 5.270685
_cell_angle_alpha 90.000000
_cell_angle_beta 90.000000
_cell_angle_gamma 90.000000
_cell_volume 845.887694
_symmetry_space_group_name_H-M "P N C 2"
_symmetry_group_IT_number 30
_symmetry_cell_setting 'orthorhombic'
loop_
_space_group_symop_operation_xyz
x,y,z
-x,-y,z
-x,1/2+y,1/2+z
x,1/2-y,1/2+z
loop_
_atom_site_type_symbol
_atom_site_label
_atom_site_fract_x
_atom_site_fract_y
_atom_site_fract_z
Si Si1 0.718144 0.726932 0.480850
Si Si2 0.247145 0.476604 0.430802
Si Si3 0.500000 0.500000 0.685515
Si Si4 0.172460 0.927958 0.416141
Si Si5 0.023979 0.201607 0.512281
Si Si6 0.402055 0.689218 0.847859
O O1 0.638021 0.739367 0.738605
O O2 0.781599 0.630622 0.440971
O O3 0.828838 0.800479 0.506338
O O4 0.387334 0.491573 0.496319
O O5 0.163103 0.519067 0.649507
O O6 0.223506 0.511684 0.148022
O O7 0.482217 0.593511 0.851463
O O8 0.034503 0.899152 0.485960
O O9 0.260819 0.840621 0.372505
O O10 0.972834 0.241196 0.774419
O O11 0.429658 0.744199 0.585755
#
# Coordination Sequence:
#
# PCOD8169446 Si02
#       6
#     4   4   2   4   4   4
#     4  10  22  42  63  91 128 169 218 268 333 412
#     4  11  24  42  65  93 132 174 217 280 343 392
#     4  10  26  44  66 102 138 172 234 290 328 416
#     4  11  22  40  65  95 129 167 221 279 330 405
#     4  10  20  38  62  89 123 164 208 265 322 390
#     4  11  23  40  66  97 130 176 220 271 342 395
#
# _framework density 26.008178999999998
#
# number of rings (size 3 to 8) (size 9 to 14) (size 15 to 20)
#    0.000    1.455    0.000    5.455    0.000    8.000 
#    0.000   21.818    0.000    0.000    0.000    0.000 
#    0.000    0.000    0.000    0.000    0.000    0.000 
#
# Total GULP energy -272600.230701 kJ/mol
# GULP energy per Si atom -12390.919577 kJ/mol
# Density = 2.594898 g / cm^3
# Si number density = 26.008179 Si / 1000 Ang^3
#
#
#
# Elastic Constant Matrix: (Units=GPa)
#
#
# Indices 1 2 3 4 5 6 
#
# 1 34.6932 -6.5594 -0.7005 0.0000 0.0000 0.0000
# 2 -6.5594 111.3762 83.6612 0.0000 0.0000 0.0000
# 3 -0.7005 83.6612 202.0596 0.0000 0.0000 0.0000
# 4 0.0000 0.0000 0.0000 53.2668 0.0000 0.0000
# 5 0.0000 0.0000 0.0000 0.0000 8.4623 0.0000
# 6 0.0000 0.0000 0.0000 0.0000 0.0000 34.0553
#
#
#
# Elastic Compliance Matrix: (Units=1/GPa)
#
#
# Indices 1 2 3 4 5 6 
#
# 1 0.029258 0.002390 -0.000888 0.000000 0.000000 0.000000
# 2 0.002390 0.013227 -0.005468 0.000000 0.000000 0.000000
# 3 -0.000888 -0.005468 0.007210 0.000000 0.000000 0.000000
# 4 0.000000 0.000000 0.000000 0.018773 0.000000 0.000000
# 5 0.000000 0.000000 0.000000 0.000000 0.118172 0.000000
# 6 0.000000 0.000000 0.000000 0.000000 0.000000 0.029364
#
#
# Mechanical properties :
#
#
# Convention : Reuss Voigt Hill
#
# Bulk Modulus (GPa) = 23.94476 55.65906 39.80191
# Shear Modulus (GPa) = 21.02102 37.27204 29.14653
#
# Velocity S-wave (km/s) = 2.84605 3.78972 3.35127
# Velocity P-wave (km/s) = 4.47511 6.37153 5.50559
#
# Compressibility (1/GPa) = 0.04176279
#
# Stress axis : x y z
#
# Youngs Moduli (GPa) = 34.17854 75.60390 138.69598
#
# Poissons Ratio (x) = -0.18072 0.12320
# Poissons Ratio (y) = -0.08170 0.75841
# Poissons Ratio (z) = 0.03036 0.41342
#
# Static dielectric constant tensor:
#      x y z
#    x 4.620520 0.000000 0.000000 
#    y 0.000000 4.969140 0.000000 
#    z 0.000000 0.000000 5.601110 
# 
# 
# High freq. dielectric constant tensor:
#      x y z
#    x 2.035860 0.000000 0.000000 
#    y 0.000000 2.041530 0.000000 
#    z 0.000000 0.000000 2.067940 
# 
# From -- ./inp_files/666.got.cif
#   From: 2010.03.12/outbox.cif.g09.slc.cpg/sg30_1_cif.got.tgz:666.got - 2010.04.14 01:38:02.
