data_PCOD8169497
_publ_section_title
;
Structure prediction by ZEFSAII (Michael W. Deem and Ramdas Pophale) SiO2 
 PCOD8169497
Probable space group: P N C 2
;
_chemical_formula_sum "Si O2"
_cell_formula_units_Z 20
_cell_length_a 14.386955
_cell_length_b 11.475311
_cell_length_c 4.814865
_cell_angle_alpha 90.000000
_cell_angle_beta 90.000000
_cell_angle_gamma 90.000000
_cell_volume 794.909092
_symmetry_space_group_name_H-M "P N C 2"
_symmetry_group_IT_number 30
_symmetry_cell_setting 'orthorhombic'
loop_
_space_group_symop_operation_xyz
x,y,z
-x,-y,z
-x,1/2+y,1/2+z
x,1/2-y,1/2+z
loop_
_atom_site_type_symbol
_atom_site_label
_atom_site_fract_x
_atom_site_fract_y
_atom_site_fract_z
Si Si1 0.500000 0.000000 0.537210
Si Si2 0.651801 0.831315 0.675155
Si Si3 0.000000 0.000000 0.691192
Si Si4 0.201198 0.517696 0.117150
Si Si5 0.348753 0.833070 0.320738
Si Si6 0.102770 0.674556 0.498977
O O1 0.568190 0.922740 0.730321
O O2 0.440440 0.911929 0.348193
O O3 0.645124 0.781884 0.365045
O O4 0.748870 0.899029 0.711275
O O5 0.095193 0.012826 0.508644
O O6 0.008126 0.888788 0.900832
O O7 0.258904 0.586295 0.882388
O O8 0.191149 0.597864 0.395560
O O9 0.348406 0.782638 0.011445
O O10 0.106606 0.798851 0.328190
#
# Coordination Sequence:
#
# PCOD8169497 Si02
#       6
#     2   4   2   4   4   4
#     4  10  24  42  66  94 130 160 216 250 314 394
#     4  11  25  43  65  95 131 167 207 265 323 372
#     4   8  22  42  58 100 118 172 214 266 306 380
#     4   9  22  42  62  96 124 166 216 260 307 383
#     4  11  23  40  65  93 124 164 206 258 312 369
#     4  10  21  39  60  85 120 159 205 255 305 359
#
# _framework density 25.16011
#
# number of rings (size 3 to 8) (size 9 to 14) (size 15 to 20)
#    1.200    0.800    0.000    2.400    0.000   12.000 
#    0.000    0.000    0.000    0.000    0.000    0.000 
#    0.000    0.000    0.000    0.000    0.000    0.000 
#
# Total GULP energy -247846.828151 kJ/mol
# GULP energy per Si atom -12392.341408 kJ/mol
# Density = 2.510284 g / cm^3
# Si number density = 25.160110 Si / 1000 Ang^3
#
#
#
# Elastic Constant Matrix: (Units=GPa)
#
#
# Indices 1 2 3 4 5 6 
#
# 1 193.0718 58.6707 9.7784 0.0000 0.0000 0.0000
# 2 58.6707 120.6313 4.1873 0.0000 0.0000 0.0000
# 3 9.7784 4.1873 43.7062 0.0000 0.0000 0.0000
# 4 0.0000 0.0000 0.0000 3.9389 0.0000 0.0000
# 5 0.0000 0.0000 0.0000 0.0000 16.6246 0.0000
# 6 0.0000 0.0000 0.0000 0.0000 0.0000 62.5887
#
#
#
# Elastic Compliance Matrix: (Units=1/GPa)
#
#
# Indices 1 2 3 4 5 6 
#
# 1 0.006129 -0.002943 -0.001089 0.000000 0.000000 0.000000
# 2 -0.002943 0.009731 -0.000274 0.000000 0.000000 0.000000
# 3 -0.001089 -0.000274 0.023150 0.000000 0.000000 0.000000
# 4 0.000000 0.000000 0.000000 0.253880 0.000000 0.000000
# 5 0.000000 0.000000 0.000000 0.000000 0.060152 0.000000
# 6 0.000000 0.000000 0.000000 0.000000 0.000000 0.015977
#
#
# Mechanical properties :
#
#
# Convention : Reuss Voigt Hill
#
# Bulk Modulus (GPa) = 32.89769 55.85359 44.37564
# Shear Modulus (GPa) = 12.89445 35.61528 24.25487
#
# Velocity S-wave (km/s) = 2.26629 3.76646 3.10824
# Velocity P-wave (km/s) = 4.46675 6.41579 5.52785
#
# Compressibility (1/GPa) = 0.03039728
#
# Stress axis : x y z
#
# Youngs Moduli (GPa) = 163.16060 102.76824 43.19654
#
# Poissons Ratio (x) = 0.30246 0.04705
# Poissons Ratio (y) = 0.48019 0.01183
# Poissons Ratio (z) = 0.17772 0.02814
#
# Static dielectric constant tensor:
#      x y z
#    x 4.700080 0.000000 0.000000 
#    y 0.000000 4.636450 0.000000 
#    z 0.000000 0.000000 3.854680 
# 
# 
# High freq. dielectric constant tensor:
#      x y z
#    x 2.008280 0.000000 0.000000 
#    y 0.000000 2.016220 0.000000 
#    z 0.000000 0.000000 1.975410 
# 
# From -- ./inp_files/892.got.cif
#   From: 2010.03.12/outbox.cif.g09.slc.cpg/sg30_1_cif.got.tgz:892.got - 2010.04.14 01:38:02.
