data_PCOD8169176
_publ_section_title
;
Structure prediction by ZEFSAII (Michael W. Deem and Ramdas Pophale) SiO2 
 PCOD8169176
Probable space group: P C A 21
;
_chemical_formula_sum "Si O2"
_cell_formula_units_Z 28
_cell_length_a 14.696992
_cell_length_b 5.938352
_cell_length_c 14.061681
_cell_angle_alpha 90.000000
_cell_angle_beta 90.000000
_cell_angle_gamma 90.000000
_cell_volume 1227.246031
_symmetry_space_group_name_H-M "P C A 21"
_symmetry_group_IT_number 29
_symmetry_cell_setting 'orthorhombic'
loop_
_space_group_symop_operation_xyz
x,y,z
-x,-y,1/2+z
1/2-x,y,1/2+z
1/2+x,-y,z
loop_
_atom_site_type_symbol
_atom_site_label
_atom_site_fract_x
_atom_site_fract_y
_atom_site_fract_z
Si Si1 0.005068 0.605986 0.275030
Si Si2 0.335069 0.255886 0.768494
Si Si3 0.235411 0.894354 0.856688
Si Si4 0.585038 0.070666 0.124941
Si Si5 0.089047 0.190048 0.949353
Si Si6 0.818285 0.441015 0.207154
Si Si7 0.716465 0.417499 0.024269
O O1 0.093191 0.451139 0.291109
O O2 0.019052 0.816425 0.203135
O O3 0.983202 0.689172 0.381385
O O4 0.924868 0.456609 0.230509
O O5 0.233908 0.355563 0.758843
O O6 0.321652 0.066945 0.851322
O O7 0.360080 0.134106 0.671116
O O8 0.220246 0.791704 0.751233
O O9 0.141502 0.006521 0.887293
O O10 0.259651 0.700531 0.932090
O O11 0.649421 0.265026 0.086031
O O12 0.536746 0.946264 0.034471
O O13 0.162904 0.361435 0.992525
O O14 0.801597 0.464360 0.094181
#
# Coordination Sequence:
#
# PCOD8169176 Si02
#       7
#     4   4   4   4   4   4   4
#     4  12  26  44  76 111 152 193 253 316 379 453
#     4  12  23  46  73 106 151 192 248 312 371 448
#     4  11  23  44  77 104 140 201 242 299 390 440
#     4  11  24  45  75 106 146 195 239 315 376 437
#     4  11  24  45  77 104 148 194 248 311 378 448
#     4  12  24  47  76 103 151 194 252 309 374 442
#     4  11  22  47  74 108 142 191 254 308 364 460
#
# _framework density 22.815311000000001
#
# number of rings (size 3 to 8) (size 9 to 14) (size 15 to 20)
#    0.000    0.571    7.143    0.000    2.000    0.000 
#    0.000   14.286    0.000    0.000    0.000    0.000 
#    0.000    0.000    0.000    0.000    0.000    0.000 
#
# Total GULP energy -347071.573582 kJ/mol
# GULP energy per Si atom -12395.413342 kJ/mol
# Density = 2.276338 g / cm^3
# Si number density = 22.815311 Si / 1000 Ang^3
#
#
#
# Elastic Constant Matrix: (Units=GPa)
#
#
# Indices 1 2 3 4 5 6 
#
# 1 64.4542 19.3725 29.6332 0.0000 0.0000 0.0000
# 2 19.3725 101.0499 48.2063 0.0000 0.0000 0.0000
# 3 29.6332 48.2063 129.0875 0.0000 0.0000 0.0000
# 4 0.0000 0.0000 0.0000 52.2300 0.0000 0.0000
# 5 0.0000 0.0000 0.0000 0.0000 35.4185 0.0000
# 6 0.0000 0.0000 0.0000 0.0000 0.0000 33.9349
#
#
#
# Elastic Compliance Matrix: (Units=1/GPa)
#
#
# Indices 1 2 3 4 5 6 
#
# 1 0.017599 -0.001760 -0.003383 0.000000 0.000000 0.000000
# 2 -0.001760 0.012217 -0.004158 0.000000 0.000000 0.000000
# 3 -0.003383 -0.004158 0.010076 0.000000 0.000000 0.000000
# 4 0.000000 0.000000 0.000000 0.019146 0.000000 0.000000
# 5 0.000000 0.000000 0.000000 0.000000 0.028234 0.000000
# 6 0.000000 0.000000 0.000000 0.000000 0.000000 0.029468
#
#
# Mechanical properties :
#
#
# Convention : Reuss Voigt Hill
#
# Bulk Modulus (GPa) = 46.97038 54.33506 50.65272
# Shear Modulus (GPa) = 35.10250 37.47530 36.28890
#
# Velocity S-wave (km/s) = 3.92669 4.05724 3.99250
# Velocity P-wave (km/s) = 6.41798 6.76868 6.59566
#
# Compressibility (1/GPa) = 0.02129001
#
# Stress axis : x y z
#
# Youngs Moduli (GPa) = 56.82084 81.85100 99.24470
#
# Poissons Ratio (x) = 0.14408 0.33572
# Poissons Ratio (y) = 0.10002 0.41269
# Poissons Ratio (z) = 0.19221 0.34036
#
# Static dielectric constant tensor:
#      x y z
#    x 3.707730 0.000000 0.000000 
#    y 0.000000 4.394180 0.000000 
#    z 0.000000 0.000000 4.475340 
# 
# 
# High freq. dielectric constant tensor:
#      x y z
#    x 1.865330 0.000000 0.000000 
#    y 0.000000 1.922760 0.000000 
#    z 0.000000 0.000000 1.916130 
# 
# From -- ./inp_files/4660.got.cif
#   From: 2010.03.12/outbox.cif.g09.slc.cpg/sg29_3_cif.got.tgz:4660.got - 2010.04.14 03:43:10.
