data_PCOD8169943
_publ_section_title
;
Structure prediction by ZEFSAII (Michael W. Deem and Ramdas Pophale) SiO2 
 PCOD8169943
Probable space group: P M N 21
;
_chemical_formula_sum "Si O2"
_cell_formula_units_Z 32
_cell_length_a 9.010844
_cell_length_b 9.976095
_cell_length_c 19.197680
_cell_angle_alpha 90.000000
_cell_angle_beta 90.000000
_cell_angle_gamma 90.000000
_cell_volume 1725.737735
_symmetry_space_group_name_H-M "P M N 21"
_symmetry_group_IT_number 31
_symmetry_cell_setting 'orthorhombic'
loop_
_space_group_symop_operation_xyz
x,y,z
1/2-x,-y,1/2+z
-x,y,z
1/2+x,-y,1/2+z
loop_
_atom_site_type_symbol
_atom_site_label
_atom_site_fract_x
_atom_site_fract_y
_atom_site_fract_z
Si Si1 0.824125 0.212810 0.450060
Si Si2 0.326172 0.521692 0.309028
Si Si3 0.828400 0.518779 0.446262
Si Si4 0.175475 0.786325 0.807729
Si Si5 0.172611 0.146420 0.170620
Si Si6 0.670171 0.654297 0.168400
Si Si7 0.831776 0.623172 0.592435
Si Si8 0.326728 0.118550 0.586253
O O1 0.775957 0.367075 0.462659
O O2 0.751496 0.159966 0.378375
O O3 0.761937 0.126205 0.513943
O O4 0.000000 0.194220 0.446479
O O5 0.500000 0.528667 0.317966
O O6 0.254897 0.578518 0.379463
O O7 0.278253 0.368317 0.294896
O O8 0.274083 0.614550 0.245426
O O9 0.794257 0.617494 0.510401
O O10 0.000000 0.515568 0.427779
O O11 0.236863 0.870512 0.742430
O O12 0.000000 0.806076 0.813556
O O13 0.217292 0.281148 0.130505
O O14 0.000000 0.153371 0.189317
O O15 0.210663 0.023770 0.120269
O O16 0.500000 0.705124 0.168776
O O17 0.684746 0.527002 0.119044
O O18 0.776401 0.769385 0.140836
O O19 0.000000 0.674378 0.606070
O O20 0.500000 0.136301 0.570812
#
# Coordination Sequence:
#
# PCOD8169943 Si02
#       8
#     4   4   4   4   4   4   4   4
#     4  10  19  35  58  84 113 146 186 232 281 336
#     4   9  18  32  53  82 113 142 178 229 280 335
#     4   9  18  32  53  82 113 142 178 229 280 335
#     4  10  19  35  58  84 113 146 186 232 281 336
#     4  11  24  39  55  82 117 152 193 236 278 333
#     4  10  19  36  58  82 111 144 186 232 283 339
#     4  10  19  36  58  82 111 144 186 232 283 339
#     4  11  24  39  55  82 117 152 193 236 278 333
#
# _framework density 18.542795999999999
#
# number of rings (size 3 to 8) (size 9 to 14) (size 15 to 20)
#    0.000    2.000    2.500    1.500    0.000    4.500 
#    0.000    1.250    0.000    3.000    0.000    0.000 
#    0.000    0.000    0.000    0.000    0.000    0.000 
#
# Total GULP energy -396877.046508 kJ/mol
# GULP energy per Si atom -12402.407703 kJ/mol
# Density = 1.850059 g / cm^3
# Si number density = 18.542796 Si / 1000 Ang^3
#
#
#
# Elastic Constant Matrix: (Units=GPa)
#
#
# Indices 1 2 3 4 5 6 
#
# 1 68.3543 21.7544 52.5844 0.0000 0.0000 0.0000
# 2 21.7544 29.6464 22.8281 0.0000 0.0000 0.0000
# 3 52.5844 22.8281 130.9832 0.0000 0.0000 0.0000
# 4 0.0000 0.0000 0.0000 21.7044 0.0000 0.0000
# 5 0.0000 0.0000 0.0000 0.0000 40.2380 0.0000
# 6 0.0000 0.0000 0.0000 0.0000 0.0000 21.9364
#
#
#
# Elastic Compliance Matrix: (Units=1/GPa)
#
#
# Indices 1 2 3 4 5 6 
#
# 1 0.024349 -0.011943 -0.007694 0.000000 0.000000 0.000000
# 2 -0.011943 0.044817 -0.003016 0.000000 0.000000 0.000000
# 3 -0.007694 -0.003016 0.011249 0.000000 0.000000 0.000000
# 4 0.000000 0.000000 0.000000 0.046074 0.000000 0.000000
# 5 0.000000 0.000000 0.000000 0.000000 0.024852 0.000000
# 6 0.000000 0.000000 0.000000 0.000000 0.000000 0.045586
#
#
# Mechanical properties :
#
#
# Convention : Reuss Voigt Hill
#
# Bulk Modulus (GPa) = 28.48248 47.03531 37.75889
# Shear Modulus (GPa) = 19.68991 25.56357 22.62674
#
# Velocity S-wave (km/s) = 3.26216 3.71701 3.49699
# Velocity P-wave (km/s) = 5.43899 6.62136 6.05909
#
# Compressibility (1/GPa) = 0.03510931
#
# Stress axis : x y z
#
# Youngs Moduli (GPa) = 41.06863 22.31287 88.89691
#
# Poissons Ratio (x) = 0.26649 0.68396
# Poissons Ratio (y) = 0.49049 0.26813
# Poissons Ratio (z) = 0.31597 0.06730
#
# Static dielectric constant tensor:
#      x y z
#    x 3.377090 0.000000 0.000000 
#    y 0.000000 3.155160 0.000000 
#    z 0.000000 0.000000 3.660570 
# 
# 
# High freq. dielectric constant tensor:
#      x y z
#    x 1.721510 0.000000 0.000000 
#    y 0.000000 1.684100 0.000000 
#    z 0.000000 0.000000 1.738820 
# 
# From -- ./inp_files/5869.got.cif
#   From: 2010.03.12/outbox.cif.g09.slc.cpg/sg31_3_cif.got.tgz:5869.got - 2010.04.14 01:42:59.
