data_PCOD8169495
_publ_section_title
;
Structure prediction by ZEFSAII (Michael W. Deem and Ramdas Pophale) SiO2 
 PCOD8169495
Probable space group: P N C 2
;
_chemical_formula_sum "Si O2"
_cell_formula_units_Z 24
_cell_length_a 8.781344
_cell_length_b 24.935544
_cell_length_c 4.949528
_cell_angle_alpha 90.000000
_cell_angle_beta 90.000000
_cell_angle_gamma 90.000000
_cell_volume 1083.786216
_symmetry_space_group_name_H-M "P N C 2"
_symmetry_group_IT_number 30
_symmetry_cell_setting 'orthorhombic'
loop_
_space_group_symop_operation_xyz
x,y,z
-x,-y,z
-x,1/2+y,1/2+z
x,1/2-y,1/2+z
loop_
_atom_site_type_symbol
_atom_site_label
_atom_site_fract_x
_atom_site_fract_y
_atom_site_fract_z
Si Si1 0.823378 0.101041 0.356130
Si Si2 0.671852 0.898613 0.684633
Si Si3 0.886996 0.215993 0.524900
Si Si4 0.002078 0.561628 0.356971
Si Si5 0.503741 0.560855 0.685018
Si Si6 0.242542 0.215747 0.510974
O O1 0.797926 0.162128 0.450693
O O2 0.662587 0.078412 0.270569
O O3 0.885039 0.065906 0.603989
O O4 0.940246 0.097967 0.105555
O O5 0.837310 0.916976 0.778329
O O6 0.619116 0.935599 0.436662
O O7 0.665269 0.837489 0.582648
O O8 0.557426 0.902724 0.935815
O O9 0.841821 0.263796 0.321410
O O10 0.064756 0.201580 0.520493
O O11 0.000000 0.500000 0.452133
O O12 0.500000 0.500000 0.582109
O O13 0.286293 0.236090 0.213887
#
# Coordination Sequence:
#
# PCOD8169495 Si02
#       6
#     4   4   4   4   4   4
#     4  12  24  43  65  97 131 173 220 271 332 392
#     4  12  24  43  67  97 129 175 222 271 330 393
#     4  10  21  38  64  95 127 168 214 271 332 387
#     4  12  24  41  68  98 128 166 231 282 315 383
#     4  12  26  45  66  94 140 182 213 265 343 399
#     4  10  21  38  64  97 127 166 214 276 332 384
#
# _framework density 22.144587999999999
#
# number of rings (size 3 to 8) (size 9 to 14) (size 15 to 20)
#    0.000    0.667    1.667    7.000    4.667    0.000 
#    0.000    5.000    0.000    0.000    0.000    0.000 
#    0.000    0.000    0.000    0.000    0.000    0.000 
#
# Total GULP energy -297793.128648 kJ/mol
# GULP energy per Si atom -12408.047027 kJ/mol
# Density = 2.209419 g / cm^3
# Si number density = 22.144588 Si / 1000 Ang^3
#
#
#
# Elastic Constant Matrix: (Units=GPa)
#
#
# Indices 1 2 3 4 5 6 
#
# 1 61.0678 45.1591 17.3902 0.0000 0.0000 0.0000
# 2 45.1591 96.8724 15.6141 0.0000 0.0000 0.0000
# 3 17.3902 15.6141 109.6899 0.0000 0.0000 0.0000
# 4 0.0000 0.0000 0.0000 20.7852 0.0000 0.0000
# 5 0.0000 0.0000 0.0000 0.0000 24.5745 0.0000
# 6 0.0000 0.0000 0.0000 0.0000 0.0000 17.6416
#
#
#
# Elastic Compliance Matrix: (Units=1/GPa)
#
#
# Indices 1 2 3 4 5 6 
#
# 1 0.025600 -0.011545 -0.002415 0.000000 0.000000 0.000000
# 2 -0.011545 0.015772 -0.000415 0.000000 0.000000 0.000000
# 3 -0.002415 -0.000415 0.009559 0.000000 0.000000 0.000000
# 4 0.000000 0.000000 0.000000 0.048111 0.000000 0.000000
# 5 0.000000 0.000000 0.000000 0.000000 0.040693 0.000000
# 6 0.000000 0.000000 0.000000 0.000000 0.000000 0.056684
#
#
# Mechanical properties :
#
#
# Convention : Reuss Voigt Hill
#
# Bulk Modulus (GPa) = 45.08410 47.10633 46.09522
# Shear Modulus (GPa) = 21.49966 25.23137 23.36552
#
# Velocity S-wave (km/s) = 3.11927 3.37915 3.25181
# Velocity P-wave (km/s) = 5.77722 6.04510 5.91268
#
# Compressibility (1/GPa) = 0.02218077
#
# Stress axis : x y z
#
# Youngs Moduli (GPa) = 39.06193 63.40522 104.61822
#
# Poissons Ratio (x) = 0.73200 0.25268
# Poissons Ratio (y) = 0.45096 0.04339
# Poissons Ratio (z) = 0.09435 0.02630
#
# Static dielectric constant tensor:
#      x y z
#    x 3.843990 0.000000 0.000000 
#    y 0.000000 4.272890 0.000000 
#    z 0.000000 0.000000 4.306630 
# 
# 
# High freq. dielectric constant tensor:
#      x y z
#    x 1.854390 0.000000 0.000000 
#    y 0.000000 1.881130 0.000000 
#    z 0.000000 0.000000 1.892750 
# 
# From -- ./inp_files/411.got.cif
#   From: 2010.03.12/outbox.cif.g09.slc.cpg/sg30_1_cif.got.tgz:411.got - 2010.04.14 01:38:02.
