data_PCOD8169376
_publ_section_title
;
Structure prediction by ZEFSAII (Michael W. Deem and Ramdas Pophale) SiO2 
 PCOD8169376
Probable space group: P N C 2
;
_chemical_formula_sum "Si O2"
_cell_formula_units_Z 20
_cell_length_a 13.057505
_cell_length_b 4.955418
_cell_length_c 13.185803
_cell_angle_alpha 90.000000
_cell_angle_beta 90.000000
_cell_angle_gamma 90.000000
_cell_volume 853.192596
_symmetry_space_group_name_H-M "P N C 2"
_symmetry_group_IT_number 30
_symmetry_cell_setting 'orthorhombic'
loop_
_space_group_symop_operation_xyz
x,y,z
-x,-y,z
-x,1/2+y,1/2+z
x,1/2-y,1/2+z
loop_
_atom_site_type_symbol
_atom_site_label
_atom_site_fract_x
_atom_site_fract_y
_atom_site_fract_z
Si Si1 0.618813 0.439039 0.382490
Si Si2 0.889884 0.571775 0.068373
Si Si3 0.064212 0.236920 0.789987
Si Si4 0.279467 0.420458 0.793170
Si Si5 0.761640 0.439868 0.562312
O O1 0.500000 0.500000 0.389897
O O2 0.661430 0.637486 0.295994
O O3 0.663458 0.502712 0.493621
O O4 0.652698 0.136126 0.354382
O O5 0.900313 0.577109 0.189683
O O6 0.802455 0.358366 0.040906
O O7 0.000000 0.500000 0.016187
O O8 0.853868 0.862109 0.029174
O O9 0.166950 0.356093 0.844398
O O10 0.000000 0.500000 0.760129
O O11 0.000000 0.000000 0.850656
O O12 0.269036 0.516765 0.678355
#
# Coordination Sequence:
#
# PCOD8169376 Si02
#       5
#     4   4   4   4   4
#     4  12  27  45  65  92 125 164 221 279 319 367
#     4  10  18  35  64  95 129 167 202 246 309 381
#     4  10  18  34  63  96 130 167 205 250 312 385
#     4  11  23  44  68  94 128 167 210 260 321 383
#     4  11  23  42  66  93 128 167 208 257 317 380
#
# _framework density 23.441367
#
# number of rings (size 3 to 8) (size 9 to 14) (size 15 to 20)
#    0.000    1.200    0.000   10.800    0.000    1.600 
#    0.000   10.000    0.000    0.000    0.000    0.000 
#    0.000    0.000    0.000    0.000    0.000    0.000 
#
# Total GULP energy -247911.454896 kJ/mol
# GULP energy per Si atom -12395.572745 kJ/mol
# Density = 2.338801 g / cm^3
# Si number density = 23.441367 Si / 1000 Ang^3
#
#
#
# Elastic Constant Matrix: (Units=GPa)
#
#
# Indices 1 2 3 4 5 6 
#
# 1 190.6574 55.0102 31.2216 0.0000 0.0000 0.0000
# 2 55.0102 135.0717 15.1412 0.0000 0.0000 0.0000
# 3 31.2216 15.1412 56.2533 0.0000 0.0000 0.0000
# 4 0.0000 0.0000 0.0000 14.3982 0.0000 0.0000
# 5 0.0000 0.0000 0.0000 0.0000 25.8971 0.0000
# 6 0.0000 0.0000 0.0000 0.0000 0.0000 47.9479
#
#
#
# Elastic Compliance Matrix: (Units=1/GPa)
#
#
# Indices 1 2 3 4 5 6 
#
# 1 0.006380 -0.002270 -0.002930 0.000000 0.000000 0.000000
# 2 -0.002270 0.008441 -0.001012 0.000000 0.000000 0.000000
# 3 -0.002930 -0.001012 0.019675 0.000000 0.000000 0.000000
# 4 0.000000 0.000000 0.000000 0.069453 0.000000 0.000000
# 5 0.000000 0.000000 0.000000 0.000000 0.038614 0.000000
# 6 0.000000 0.000000 0.000000 0.000000 0.000000 0.020856
#
#
# Mechanical properties :
#
#
# Convention : Reuss Voigt Hill
#
# Bulk Modulus (GPa) = 45.30547 64.96982 55.13764
# Shear Modulus (GPa) = 27.29240 36.35594 31.82417
#
# Velocity S-wave (km/s) = 3.41586 3.94246 3.68857
# Velocity P-wave (km/s) = 5.90987 6.96420 6.45858
#
# Compressibility (1/GPa) = 0.02207239
#
# Stress axis : x y z
#
# Youngs Moduli (GPa) = 156.74689 118.46424 50.82505
#
# Poissons Ratio (x) = 0.26889 0.14891
# Poissons Ratio (y) = 0.35579 0.05145
# Poissons Ratio (z) = 0.45925 0.11992
#
# Static dielectric constant tensor:
#      x y z
#    x 4.451350 0.000000 0.000000 
#    y 0.000000 4.547080 0.000000 
#    z 0.000000 0.000000 4.016390 
# 
# 
# High freq. dielectric constant tensor:
#      x y z
#    x 1.920620 0.000000 0.000000 
#    y 0.000000 1.950540 0.000000 
#    z 0.000000 0.000000 1.916790 
# 
# From -- ./inp_files/5375.got.cif
#   From: 2010.03.12/outbox.cif.g09.slc.cpg/sg30_3_cif.got.tgz:5375.got - 2010.04.14 01:38:02.
