data_PCOD8169157
_publ_section_title
;
Structure prediction by ZEFSAII (Michael W. Deem and Ramdas Pophale) SiO2 
 PCOD8169157
Probable space group: P C A 21
;
_chemical_formula_sum "Si O2"
_cell_formula_units_Z 28
_cell_length_a 17.428044
_cell_length_b 7.898245
_cell_length_c 7.894017
_cell_angle_alpha 90.000000
_cell_angle_beta 90.000000
_cell_angle_gamma 90.000000
_cell_volume 1086.619029
_symmetry_space_group_name_H-M "P C A 21"
_symmetry_group_IT_number 29
_symmetry_cell_setting 'orthorhombic'
loop_
_space_group_symop_operation_xyz
x,y,z
-x,-y,1/2+z
1/2-x,y,1/2+z
1/2+x,-y,z
loop_
_atom_site_type_symbol
_atom_site_label
_atom_site_fract_x
_atom_site_fract_y
_atom_site_fract_z
Si Si1 0.556323 0.516797 0.266570
Si Si2 0.297087 0.616111 0.349675
Si Si3 0.449509 0.729805 0.471539
Si Si4 0.660424 0.810337 0.200255
Si Si5 0.825544 0.770585 0.327920
Si Si6 0.644273 0.298875 0.504159
Si Si7 0.415538 0.062894 0.030781
O O1 0.487759 0.649234 0.302684
O O2 0.634908 0.614872 0.221167
O O3 0.572418 0.399779 0.429930
O O4 0.528105 0.399179 0.118122
O O5 0.358100 0.740767 0.445500
O O6 0.310848 0.420090 0.399156
O O7 0.213609 0.704452 0.366371
O O8 0.313434 0.602328 0.151728
O O9 0.491686 0.908175 0.517846
O O10 0.747917 0.841631 0.249704
O O11 0.613111 0.917614 0.337414
O O12 0.649321 0.867953 0.002446
O O13 0.885976 0.803072 0.174261
O O14 0.610495 0.124311 0.581069
#
# Coordination Sequence:
#
# PCOD8169157 Si02
#       7
#     4   4   4   4   4   4   4
#     4  11  22  44  70 105 135 186 244 300 349 424
#     4  12  24  45  74 106 137 189 247 303 353 426
#     4  11  24  45  72 102 141 189 239 299 361 427
#     4  11  22  39  73 101 137 184 245 298 347 421
#     4  12  21  43  71 106 134 185 247 300 347 418
#     4  12  27  45  72 106 147 186 239 299 367 438
#     4  11  28  45  68 108 151 191 233 293 376 444
#
# _framework density 25.768000000000001
#
# number of rings (size 3 to 8) (size 9 to 14) (size 15 to 20)
#    0.000    0.571    4.286    5.143    2.000    1.143 
#    2.571    0.000    0.000    0.000    0.000    0.000 
#    0.000    0.000    0.000    0.000    0.000    0.000 
#
# Total GULP energy -346920.052500 kJ/mol
# GULP energy per Si atom -12390.001875 kJ/mol
# Density = 2.570935 g / cm^3
# Si number density = 25.768000 Si / 1000 Ang^3
#
#
#
# Elastic Constant Matrix: (Units=GPa)
#
#
# Indices 1 2 3 4 5 6 
#
# 1 53.0528 3.4383 -21.1051 0.0000 0.0000 0.0000
# 2 3.4383 57.0636 -8.2865 0.0000 0.0000 0.0000
# 3 -21.1051 -8.2865 107.8076 0.0000 0.0000 0.0000
# 4 0.0000 0.0000 0.0000 24.1555 0.0000 0.0000
# 5 0.0000 0.0000 0.0000 0.0000 24.7474 0.0000
# 6 0.0000 0.0000 0.0000 0.0000 0.0000 29.8870
#
#
#
# Elastic Compliance Matrix: (Units=1/GPa)
#
#
# Indices 1 2 3 4 5 6 
#
# 1 0.020465 -0.000659 0.003956 0.000000 0.000000 0.000000
# 2 -0.000659 0.017743 0.001235 0.000000 0.000000 0.000000
# 3 0.003956 0.001235 0.010145 0.000000 0.000000 0.000000
# 4 0.000000 0.000000 0.000000 0.041398 0.000000 0.000000
# 5 0.000000 0.000000 0.000000 0.000000 0.040408 0.000000
# 6 0.000000 0.000000 0.000000 0.000000 0.000000 0.033459
#
#
# Mechanical properties :
#
#
# Convention : Reuss Voigt Hill
#
# Bulk Modulus (GPa) = 17.41616 18.44640 17.93128
# Shear Modulus (GPa) = 28.78604 32.01647 30.40125
#
# Velocity S-wave (km/s) = 3.34597 3.52872 3.43856
# Velocity P-wave (km/s) = 4.65841 4.87613 4.76852
#
# Compressibility (1/GPa) = 0.05741793
#
# Stress axis : x y z
#
# Youngs Moduli (GPa) = 48.86274 56.35929 98.56962
#
# Poissons Ratio (x) = 0.03712 -0.38992
# Poissons Ratio (y) = 0.03218 -0.12172
# Poissons Ratio (z) = -0.19329 -0.06960
#
# Static dielectric constant tensor:
#      x y z
#    x 4.674200 0.000000 0.000000 
#    y 0.000000 4.239040 0.000000 
#    z 0.000000 0.000000 4.786260 
# 
# 
# High freq. dielectric constant tensor:
#      x y z
#    x 2.031950 0.000000 0.000000 
#    y 0.000000 1.998970 0.000000 
#    z 0.000000 0.000000 2.050690 
# 
# From -- ./inp_files/2058.got.cif
#   From: 2010.03.12/outbox.cif.g09.slc.cpg/sg29_2_cif.got.tgz:2058.got - 2010.04.14 03:43:10.
