data_PCOD8169911
_publ_section_title
;
Structure prediction by ZEFSAII (Michael W. Deem and Ramdas Pophale) SiO2 
 PCOD8169911
Probable space group: P M N 21
;
_chemical_formula_sum "Si O2"
_cell_formula_units_Z 32
_cell_length_a 8.933083
_cell_length_b 12.325447
_cell_length_c 14.316806
_cell_angle_alpha 90.000000
_cell_angle_beta 90.000000
_cell_angle_gamma 90.000000
_cell_volume 1576.341059
_symmetry_space_group_name_H-M "P M N 21"
_symmetry_group_IT_number 31
_symmetry_cell_setting 'orthorhombic'
loop_
_space_group_symop_operation_xyz
x,y,z
1/2-x,-y,1/2+z
-x,y,z
1/2+x,-y,1/2+z
loop_
_atom_site_type_symbol
_atom_site_label
_atom_site_fract_x
_atom_site_fract_y
_atom_site_fract_z
Si Si1 0.323304 0.907169 0.656990
Si Si2 0.824312 0.177320 0.468102
Si Si3 0.675945 0.873233 0.173584
Si Si4 0.324739 0.401709 0.980560
Si Si5 0.665326 0.756223 0.348456
Si Si6 0.679143 0.321890 0.182168
Si Si7 0.321033 0.609453 0.866971
Si Si8 0.664852 0.971951 0.452485
O O1 0.500000 0.894649 0.675060
O O2 0.243115 0.799446 0.696214
O O3 0.279265 0.915410 0.547914
O O4 0.262154 0.017062 0.705588
O O5 0.763573 0.167749 0.573669
O O6 0.759395 0.282246 0.416615
O O7 0.000000 0.186043 0.465457
O O8 0.772136 0.067999 0.415885
O O9 0.500000 0.900499 0.170505
O O10 0.709047 0.768293 0.239564
O O11 0.500000 0.409138 0.990135
O O12 0.286373 0.306915 0.907946
O O13 0.263842 0.512798 0.934822
O O14 0.261231 0.374556 0.084077
O O15 0.500000 0.703612 0.362852
O O16 0.661121 0.882341 0.373851
O O17 0.500000 0.318742 0.185698
O O18 0.742947 0.397923 0.265314
O O19 0.500000 0.606458 0.853831
O O20 0.500000 0.021667 0.469474
#
# Coordination Sequence:
#
# PCOD8169911 Si02
#       8
#     4   4   4   4   4   4   4   4
#     4  10  19  34  56  83 118 157 193 237 291 346
#     4   9  19  36  56  80 114 153 192 236 289 346
#     4   9  19  34  55  86 120 157 196 240 289 346
#     4  10  23  42  62  85 118 155 196 244 289 345
#     4  10  20  35  57  86 119 155 193 239 290 342
#     4  11  23  39  61  88 114 149 195 243 289 345
#     4  10  23  42  61  85 116 154 197 243 295 345
#     4   9  18  32  52  81 117 152 186 234 288 339
#
# _framework density 20.300173999999998
#
# number of rings (size 3 to 8) (size 9 to 14) (size 15 to 20)
#    0.000    2.250    1.250    0.750    1.750    4.000 
#    0.000    2.500    0.000    0.000    0.000    0.000 
#    0.000    0.000    0.000    0.000    0.000    0.000 
#
# Total GULP energy -396666.878763 kJ/mol
# GULP energy per Si atom -12395.839961 kJ/mol
# Density = 2.025397 g / cm^3
# Si number density = 20.300174 Si / 1000 Ang^3
#
#
#
# Elastic Constant Matrix: (Units=GPa)
#
#
# Indices 1 2 3 4 5 6 
#
# 1 36.2556 25.2806 24.8903 0.0000 0.0000 0.0000
# 2 25.2806 100.0707 50.7528 0.0000 0.0000 0.0000
# 3 24.8903 50.7528 90.4473 0.0000 0.0000 0.0000
# 4 0.0000 0.0000 0.0000 28.9632 0.0000 0.0000
# 5 0.0000 0.0000 0.0000 0.0000 24.7530 0.0000
# 6 0.0000 0.0000 0.0000 0.0000 0.0000 25.3361
#
#
#
# Elastic Compliance Matrix: (Units=1/GPa)
#
#
# Indices 1 2 3 4 5 6 
#
# 1 0.036208 -0.005722 -0.006753 0.000000 0.000000 0.000000
# 2 -0.005722 0.014872 -0.006771 0.000000 0.000000 0.000000
# 3 -0.006753 -0.006771 0.016714 0.000000 0.000000 0.000000
# 4 0.000000 0.000000 0.000000 0.034527 0.000000 0.000000
# 5 0.000000 0.000000 0.000000 0.000000 0.040399 0.000000
# 6 0.000000 0.000000 0.000000 0.000000 0.000000 0.039469
#
#
# Mechanical properties :
#
#
# Convention : Reuss Voigt Hill
#
# Bulk Modulus (GPa) = 34.12708 47.62455 40.87582
# Shear Modulus (GPa) = 21.69674 24.20045 22.94860
#
# Velocity S-wave (km/s) = 3.27279 3.45647 3.36588
# Velocity P-wave (km/s) = 5.57936 6.28018 5.94012
#
# Compressibility (1/GPa) = 0.02930224
#
# Stress axis : x y z
#
# Youngs Moduli (GPa) = 27.61797 67.23871 59.83060
#
# Poissons Ratio (x) = 0.38475 0.40406
# Poissons Ratio (y) = 0.15803 0.40509
# Poissons Ratio (z) = 0.18651 0.45525
#
# Static dielectric constant tensor:
#      x y z
#    x 3.517950 0.000000 0.000000 
#    y 0.000000 3.695070 0.000000 
#    z 0.000000 0.000000 3.930980 
# 
# 
# High freq. dielectric constant tensor:
#      x y z
#    x 1.776540 0.000000 0.000000 
#    y 0.000000 1.781330 0.000000 
#    z 0.000000 0.000000 1.804770 
# 
# From -- ./inp_files/5075.got.cif
#   From: 2010.03.12/outbox.cif.g09.slc.cpg/sg31_3_cif.got.tgz:5075.got - 2010.04.14 01:42:59.
