data_PCOD8169215
_publ_section_title
;
Structure prediction by ZEFSAII (Michael W. Deem and Ramdas Pophale) SiO2 
 PCOD8169215
Probable space group: P C A 21
;
_chemical_formula_sum "Si O2"
_cell_formula_units_Z 32
_cell_length_a 9.311053
_cell_length_b 13.813530
_cell_length_c 12.300342
_cell_angle_alpha 90.000000
_cell_angle_beta 90.000000
_cell_angle_gamma 90.000000
_cell_volume 1582.051660
_symmetry_space_group_name_H-M "P C A 21"
_symmetry_group_IT_number 29
_symmetry_cell_setting 'orthorhombic'
loop_
_space_group_symop_operation_xyz
x,y,z
-x,-y,1/2+z
1/2-x,y,1/2+z
1/2+x,-y,z
loop_
_atom_site_type_symbol
_atom_site_label
_atom_site_fract_x
_atom_site_fract_y
_atom_site_fract_z
Si Si1 0.489824 0.185921 0.812990
Si Si2 0.520158 0.660523 0.867896
Si Si3 0.600865 0.931167 0.128982
Si Si4 0.852969 0.007564 0.244605
Si Si5 0.370568 0.460026 0.181519
Si Si6 0.810034 0.847353 0.407970
Si Si7 0.878361 0.506159 0.531334
Si Si8 0.694156 0.367284 0.841988
O O1 0.416621 0.172536 0.693205
O O2 0.359251 0.179413 0.899942
O O3 0.572656 0.286212 0.825546
O O4 0.605206 0.097071 0.825319
O O5 0.617964 0.630167 0.764286
O O6 0.589824 0.754491 0.920509
O O7 0.353885 0.677971 0.836542
O O8 0.526620 0.576602 0.957608
O O9 0.691182 0.007850 0.201942
O O10 0.447721 0.986173 0.133009
O O11 0.669280 0.914538 0.013019
O O12 0.873859 0.906477 0.306931
O O13 0.258358 0.438940 0.084450
O O14 0.527841 0.470753 0.131966
O O15 0.323633 0.556288 0.245373
O O16 0.827165 0.415066 0.459961
#
# Coordination Sequence:
#
# PCOD8169215 Si02
#       8
#     4   4   4   4   4   4   4   4
#     4   9  24  41  64  94 131 164 214 276 307 393
#     4  11  26  40  67  99 128 170 221 266 320 394
#     4   9  22  41  65  93 124 174 204 265 328 377
#     4   9  22  44  62  92 129 166 218 259 321 388
#     4  11  24  44  66  91 134 173 214 271 319 383
#     4  11  24  41  67  97 129 170 216 264 331 387
#     4  11  24  42  66  93 133 176 219 260 328 378
#     4  11  24  43  63 101 128 169 222 267 320 388
#
# _framework density 20.226900000000001
#
# number of rings (size 3 to 8) (size 9 to 14) (size 15 to 20)
#    0.750    1.000    2.500    0.000    8.750    1.000 
#    0.000    0.000    0.000    0.000    0.000    0.000 
#    0.000    0.000    0.000    0.000    0.000    0.000 
#
# Total GULP energy -396501.680392 kJ/mol
# GULP energy per Si atom -12390.677512 kJ/mol
# Density = 2.018086 g / cm^3
# Si number density = 20.226900 Si / 1000 Ang^3
#
#
#
# Elastic Constant Matrix: (Units=GPa)
#
#
# Indices 1 2 3 4 5 6 
#
# 1 101.8487 28.2672 33.4296 0.0000 0.0000 0.0000
# 2 28.2672 57.5455 15.6943 0.0000 0.0000 0.0000
# 3 33.4296 15.6943 76.7579 0.0000 0.0000 0.0000
# 4 0.0000 0.0000 0.0000 20.8894 0.0000 0.0000
# 5 0.0000 0.0000 0.0000 0.0000 32.5471 0.0000
# 6 0.0000 0.0000 0.0000 0.0000 0.0000 38.7149
#
#
#
# Elastic Compliance Matrix: (Units=1/GPa)
#
#
# Indices 1 2 3 4 5 6 
#
# 1 0.012685 -0.005003 -0.004501 0.000000 0.000000 0.000000
# 2 -0.005003 0.020377 -0.001987 0.000000 0.000000 0.000000
# 3 -0.004501 -0.001987 0.015395 0.000000 0.000000 0.000000
# 4 0.000000 0.000000 0.000000 0.047871 0.000000 0.000000
# 5 0.000000 0.000000 0.000000 0.000000 0.030725 0.000000
# 6 0.000000 0.000000 0.000000 0.000000 0.000000 0.025830
#
#
# Mechanical properties :
#
#
# Convention : Reuss Voigt Hill
#
# Bulk Modulus (GPa) = 39.25801 43.43715 41.34758
# Shear Modulus (GPa) = 27.12127 29.01435 28.06781
#
# Velocity S-wave (km/s) = 3.66574 3.79151 3.72916
# Velocity P-wave (km/s) = 6.11292 6.37879 6.24727
#
# Compressibility (1/GPa) = 0.02547251
#
# Stress axis : x y z
#
# Youngs Moduli (GPa) = 78.83601 49.07443 64.95703
#
# Poissons Ratio (x) = 0.24553 0.29240
# Poissons Ratio (y) = 0.39443 0.12910
# Poissons Ratio (z) = 0.35487 0.09753
#
# Static dielectric constant tensor:
#      x y z
#    x 3.703310 0.000000 0.000000 
#    y 0.000000 3.387020 0.000000 
#    z 0.000000 0.000000 3.585200 
# 
# 
# High freq. dielectric constant tensor:
#      x y z
#    x 1.804450 0.000000 0.000000 
#    y 0.000000 1.769830 0.000000 
#    z 0.000000 0.000000 1.784940 
# 
# From -- ./inp_files/2927.got.cif
#   From: 2010.03.12/outbox.cif.g09.slc.cpg/sg29_2_cif.got.tgz:2927.got - 2010.04.14 03:43:10.
