data_PCOD8169737
_publ_section_title
;
Structure prediction by ZEFSAII (Michael W. Deem and Ramdas Pophale) SiO2 
 PCOD8169737
Probable space group: P M N 21
;
_chemical_formula_sum "Si O2"
_cell_formula_units_Z 32
_cell_length_a 9.333659
_cell_length_b 8.268850
_cell_length_c 20.580198
_cell_angle_alpha 90.000000
_cell_angle_beta 90.000000
_cell_angle_gamma 90.000000
_cell_volume 1588.351409
_symmetry_space_group_name_H-M "P M N 21"
_symmetry_group_IT_number 31
_symmetry_cell_setting 'orthorhombic'
loop_
_space_group_symop_operation_xyz
x,y,z
1/2-x,-y,1/2+z
-x,y,z
1/2+x,-y,1/2+z
loop_
_atom_site_type_symbol
_atom_site_label
_atom_site_fract_x
_atom_site_fract_y
_atom_site_fract_z
Si Si1 0.840793 0.132776 0.231320
Si Si2 0.155960 0.652860 0.807707
Si Si3 0.665416 0.342231 0.027584
Si Si4 0.159316 0.922330 0.359739
Si Si5 0.329576 0.639942 0.392711
Si Si6 0.342215 0.146701 0.429986
Si Si7 0.835658 0.297398 0.533992
Si Si8 0.667078 0.029573 0.111802
O O1 0.759492 0.301515 0.247730
O O2 0.755090 0.030778 0.178302
O O3 0.000000 0.173111 0.205532
O O4 0.850784 0.032360 0.296977
O O5 0.222354 0.516567 0.853650
O O6 0.135346 0.804289 0.855340
O O7 0.000000 0.602524 0.778985
O O8 0.500000 0.317935 0.008973
O O9 0.685254 0.519838 0.063430
O O10 0.716197 0.188644 0.070809
O O11 0.757741 0.346509 0.962635
O O12 0.269240 0.778330 0.345209
O O13 0.000000 0.862249 0.378665
O O14 0.224550 0.004279 0.425839
O O15 0.500000 0.647141 0.400721
O O16 0.500000 0.094766 0.457422
O O17 0.274609 0.288776 0.473697
O O18 0.000000 0.277598 0.510459
O O19 0.796001 0.145271 0.580279
O O20 0.500000 0.041684 0.128205
#
# Coordination Sequence:
#
# PCOD8169737 Si02
#       8
#     4   4   4   4   4   4   4   4
#     4  10  22  40  60  81 108 149 200 243 291 349
#     4   9  19  35  56  82 115 149 183 228 287 348
#     4  10  21  37  59  88 122 158 197 241 293 356
#     4  10  21  36  55  82 115 150 190 237 291 352
#     4  11  21  35  57  90 122 150 189 238 297 355
#     4  10  18  32  55  83 113 146 184 230 286 341
#     4  10  20  35  57  84 115 155 196 235 291 354
#     4  10  22  40  59  80 114 157 201 246 292 347
#
# _framework density 20.146673
#
# number of rings (size 3 to 8) (size 9 to 14) (size 15 to 20)
#    0.000    2.000    1.250    2.250    0.000    5.000 
#    2.250    0.000    0.000    0.000    0.000    0.000 
#    0.000    0.000    0.000    0.000    0.000    0.000 
#
# Total GULP energy -396420.690077 kJ/mol
# GULP energy per Si atom -12388.146565 kJ/mol
# Density = 2.010082 g / cm^3
# Si number density = 20.146673 Si / 1000 Ang^3
#
#
#
# Elastic Constant Matrix: (Units=GPa)
#
#
# Indices 1 2 3 4 5 6 
#
# 1 77.1016 24.1557 19.7218 0.0000 0.0000 0.0000
# 2 24.1557 101.4783 14.7455 0.0000 0.0000 0.0000
# 3 19.7218 14.7455 31.8577 0.0000 0.0000 0.0000
# 4 0.0000 0.0000 0.0000 17.0892 0.0000 0.0000
# 5 0.0000 0.0000 0.0000 0.0000 31.3852 0.0000
# 6 0.0000 0.0000 0.0000 0.0000 0.0000 21.1229
#
#
#
# Elastic Compliance Matrix: (Units=1/GPa)
#
#
# Indices 1 2 3 4 5 6 
#
# 1 0.015998 -0.002540 -0.008728 0.000000 0.000000 0.000000
# 2 -0.002540 0.010968 -0.003504 0.000000 0.000000 0.000000
# 3 -0.008728 -0.003504 0.038415 0.000000 0.000000 0.000000
# 4 0.000000 0.000000 0.000000 0.058517 0.000000 0.000000
# 5 0.000000 0.000000 0.000000 0.000000 0.031862 0.000000
# 6 0.000000 0.000000 0.000000 0.000000 0.000000 0.047342
#
#
# Mechanical properties :
#
#
# Convention : Reuss Voigt Hill
#
# Bulk Modulus (GPa) = 27.90465 36.40930 32.15698
# Shear Modulus (GPa) = 20.44217 24.04041 22.24129
#
# Velocity S-wave (km/s) = 3.18884 3.45812 3.32621
# Velocity P-wave (km/s) = 5.23823 5.83576 5.54505
#
# Compressibility (1/GPa) = 0.03583632
#
# Stress axis : x y z
#
# Youngs Moduli (GPa) = 62.50681 91.17331 26.03157
#
# Poissons Ratio (x) = 0.23157 0.22721
# Poissons Ratio (y) = 0.15876 0.09122
# Poissons Ratio (z) = 0.54558 0.31950
#
# Static dielectric constant tensor:
#      x y z
#    x 4.039710 0.000000 0.000000 
#    y 0.000000 3.965500 0.000000 
#    z 0.000000 0.000000 3.278140 
# 
# 
# High freq. dielectric constant tensor:
#      x y z
#    x 1.796740 0.000000 0.000000 
#    y 0.000000 1.791830 0.000000 
#    z 0.000000 0.000000 1.751610 
# 
# From -- ./inp_files/6463.got.cif
#   From: 2010.03.12/outbox.cif.g09.slc.cpg/sg31_4_cif.got.tgz:6463.got - 2010.04.14 01:42:59.
