data_PCOD8169060
_publ_section_title
;
Structure prediction by ZEFSAII (Michael W. Deem and Ramdas Pophale) SiO2 
 PCOD8169060
Probable space group: P C A 21
;
_chemical_formula_sum "Si O2"
_cell_formula_units_Z 32
_cell_length_a 15.142264
_cell_length_b 8.715615
_cell_length_c 11.585724
_cell_angle_alpha 90.000000
_cell_angle_beta 90.000000
_cell_angle_gamma 90.000000
_cell_volume 1529.015999
_symmetry_space_group_name_H-M "P C A 21"
_symmetry_group_IT_number 29
_symmetry_cell_setting 'orthorhombic'
loop_
_space_group_symop_operation_xyz
x,y,z
-x,-y,1/2+z
1/2-x,y,1/2+z
1/2+x,-y,z
loop_
_atom_site_type_symbol
_atom_site_label
_atom_site_fract_x
_atom_site_fract_y
_atom_site_fract_z
Si Si1 0.032442 0.328740 0.185340
Si Si2 0.073120 0.658466 0.275025
Si Si3 0.868954 0.910581 0.071767
Si Si4 0.823750 0.206893 0.574457
Si Si5 0.631129 0.257751 0.521145
Si Si6 0.680990 0.846338 0.041580
Si Si7 0.916477 0.872327 0.321667
Si Si8 0.520328 0.178560 0.921611
O O1 0.063323 0.501284 0.205052
O O2 0.113600 0.240037 0.125975
O O3 0.943229 0.314385 0.110845
O O4 0.014591 0.265130 0.311389
O O5 0.138272 0.761805 0.200416
O O6 0.114859 0.649974 0.402690
O O7 0.976648 0.730817 0.285762
O O8 0.783509 0.800484 0.055516
O O9 0.876166 0.949340 0.207626
O O10 0.869959 0.073131 0.004165
O O11 0.950254 0.809573 0.025786
O O12 0.730673 0.296528 0.562940
O O13 0.889543 0.256181 0.469707
O O14 0.816736 0.024950 0.571165
O O15 0.658376 0.809959 0.908250
O O16 0.969880 0.999239 0.392860
#
# Coordination Sequence:
#
# PCOD8169060 Si02
#       8
#     4   4   4   4   4   4   4   4
#     4  12  26  44  64  97 139 180 218 276 335 407
#     4  12  25  43  67  89 139 187 215 271 337 406
#     4  11  22  40  74 103 130 171 227 289 343 394
#     4  10  24  42  70  98 126 170 232 277 344 397
#     4  11  24  44  69 100 133 176 226 282 339 403
#     4  10  24  42  67 101 134 170 227 292 334 395
#     4  11  21  43  68  94 132 175 224 283 337 396
#     4  11  22  40  67  98 127 167 223 284 333 402
#
# _framework density 20.928494000000001
#
# number of rings (size 3 to 8) (size 9 to 14) (size 15 to 20)
#    0.000    1.000    5.000    1.500    5.250    2.000 
#    4.500    0.000    0.000    0.000    0.000    0.000 
#    0.000    0.000    0.000    0.000    0.000    0.000 
#
# Total GULP energy -396713.074238 kJ/mol
# GULP energy per Si atom -12397.283570 kJ/mol
# Density = 2.088086 g / cm^3
# Si number density = 20.928494 Si / 1000 Ang^3
#
#
#
# Elastic Constant Matrix: (Units=GPa)
#
#
# Indices 1 2 3 4 5 6 
#
# 1 166.4191 31.4942 60.5788 0.0000 0.0000 0.0000
# 2 31.4942 46.0865 21.6169 0.0000 0.0000 0.0000
# 3 60.5788 21.6169 128.1564 0.0000 0.0000 0.0000
# 4 0.0000 0.0000 0.0000 -1.0993 0.0000 0.0000
# 5 0.0000 0.0000 0.0000 0.0000 30.4197 0.0000
# 6 0.0000 0.0000 0.0000 0.0000 0.0000 10.4147
#
#
#
# Elastic Compliance Matrix: (Units=1/GPa)
#
#
# Indices 1 2 3 4 5 6 
#
# 1 0.007867 -0.003944 -0.003053 0.000000 0.000000 0.000000
# 2 -0.003944 0.025540 -0.002444 0.000000 0.000000 0.000000
# 3 -0.003053 -0.002444 0.009658 0.000000 0.000000 0.000000
# 4 0.000000 0.000000 0.000000 -0.909677 0.000000 0.000000
# 5 0.000000 0.000000 0.000000 0.000000 0.032873 0.000000
# 6 0.000000 0.000000 0.000000 0.000000 0.000000 0.096018
#
#
# Mechanical properties :
#
#
# Convention : Reuss Voigt Hill
#
# Bulk Modulus (GPa) = 41.35108 63.11576 52.23342
# Shear Modulus (GPa) = -7.03455 23.07850 8.02198
#
# Velocity S-wave (km/s) = -1.83535 3.32434 1.95994
# Velocity P-wave (km/s) = 3.91277 6.70509 5.48945
#
# Compressibility (1/GPa) = 0.02418316
#
# Stress axis : x y z
#
# Youngs Moduli (GPa) = 127.11785 39.15493 103.53615
#
# Poissons Ratio (x) = 0.15442 0.31613
# Poissons Ratio (y) = 0.50132 0.25302
# Poissons Ratio (z) = 0.38813 0.09568
#
# Static dielectric constant tensor:
#      x y z
#    x 4.285310 0.000000 0.000000 
#    y 0.000000 3.597960 0.000000 
#    z 0.000000 0.000000 3.977600 
# 
# 
# High freq. dielectric constant tensor:
#      x y z
#    x 1.834240 0.000000 0.000000 
#    y 0.000000 1.785560 0.000000 
#    z 0.000000 0.000000 1.835740 
# 
# From -- ./inp_files/3470.got.cif
#   From: 2010.03.12/outbox.cif.g09.slc.cpg/sg29_2_cif.got.tgz:3470.got - 2010.04.14 03:43:10.
