data_PCOD8169360
_publ_section_title
;
Structure prediction by ZEFSAII (Michael W. Deem and Ramdas Pophale) SiO2 
 PCOD8169360
Probable space group: P N C 2
;
_chemical_formula_sum "Si O2"
_cell_formula_units_Z 20
_cell_length_a 22.172351
_cell_length_b 7.265728
_cell_length_c 5.356425
_cell_angle_alpha 90.000000
_cell_angle_beta 90.000000
_cell_angle_gamma 90.000000
_cell_volume 862.910809
_symmetry_space_group_name_H-M "P N C 2"
_symmetry_group_IT_number 30
_symmetry_cell_setting 'orthorhombic'
loop_
_space_group_symop_operation_xyz
x,y,z
-x,-y,z
-x,1/2+y,1/2+z
x,1/2-y,1/2+z
loop_
_atom_site_type_symbol
_atom_site_label
_atom_site_fract_x
_atom_site_fract_y
_atom_site_fract_z
Si Si1 0.761538 0.555360 0.324080
Si Si2 0.811267 0.964591 0.324080
Si Si3 0.379916 0.056093 0.824075
Si Si4 0.429645 0.464481 0.824075
Si Si5 0.943222 0.630790 0.824081
O O1 0.796604 0.747851 0.324080
O O2 0.781809 0.444993 0.574168
O O3 0.690818 0.593706 0.324080
O O4 0.781809 0.444993 0.073992
O O5 0.883028 0.994102 0.324080
O O6 0.415570 0.248061 0.824070
O O7 0.399920 0.945881 0.573967
O O8 0.399922 0.945881 0.074179
O O9 0.500000 0.500000 0.824081
O O10 0.944507 0.750002 0.574082
O O11 0.000000 0.500000 0.824080
#
# Coordination Sequence:
#
# PCOD8169360 Si02
#       5
#     4   4   4   4   4
#     4  10  16  28  51  71 112 119 169 229 299 316
#     4  10  16  29  49  77 106 135 168 223 286 338
#     4  10  19  30  45  74 101 122 167 229 262 336
#     4  10  18  29  43  63 102 129 156 194 263 324
#     4  12  23  40  59  89 130 163 204 247 301 373
#
# _framework density 23.177368000000001
#
# number of rings (size 3 to 8) (size 9 to 14) (size 15 to 20)
#    0.000    1.600    4.000    7.200    0.000    0.000 
#    0.000    0.000    0.000    0.000    0.000    0.000 
#  204.000    0.000    0.000    0.000    0.000    0.000 
#
# Total GULP energy -247858.911643 kJ/mol
# GULP energy per Si atom -12392.945582 kJ/mol
# Density = 2.312462 g / cm^3
# Si number density = 23.177368 Si / 1000 Ang^3
#
#
#
# Elastic Constant Matrix: (Units=GPa)
#
#
# Indices 1 2 3 4 5 6 
#
# 1 225.3329 23.9580 77.4500 0.0000 0.0000 0.0000
# 2 23.9580 21.0801 6.3386 0.0000 0.0000 0.0000
# 3 77.4500 6.3386 304.7564 0.0000 0.0000 0.0000
# 4 0.0000 0.0000 0.0000 -5.0814 0.0000 0.0000
# 5 0.0000 0.0000 0.0000 0.0000 49.4943 0.0000
# 6 0.0000 0.0000 0.0000 0.0000 0.0000 24.6231
#
#
#
# Elastic Compliance Matrix: (Units=1/GPa)
#
#
# Indices 1 2 3 4 5 6 
#
# 1 0.005500 -0.005868 -0.001276 0.000000 0.000000 0.000000
# 2 -0.005868 0.053996 0.000368 0.000000 0.000000 0.000000
# 3 -0.001276 0.000368 0.003598 0.000000 0.000000 0.000000
# 4 0.000000 0.000000 0.000000 -0.196797 0.000000 0.000000
# 5 0.000000 0.000000 0.000000 0.000000 0.020204 0.000000
# 6 0.000000 0.000000 0.000000 0.000000 0.000000 0.040612
#
#
# Mechanical properties :
#
#
# Convention : Reuss Voigt Hill
#
# Bulk Modulus (GPa) = 20.18422 85.18474 52.68448
# Shear Modulus (GPa) = -116.76412 43.36873 -36.69770
#
# Velocity S-wave (km/s) = -7.10548 4.33039 -3.98344
# Velocity P-wave (km/s) = 7.65439 7.86360 1.27409
#
# Compressibility (1/GPa) = 0.04954365
#
# Stress axis : x y z
#
# Youngs Moduli (GPa) = 181.81057 18.51992 277.94179
#
# Poissons Ratio (x) = 0.10867 0.35459
# Poissons Ratio (y) = 1.06677 -0.10231
# Poissons Ratio (z) = 0.23195 -0.00682
#
# Static dielectric constant tensor:
#      x y z
#    x 4.222260 0.000000 0.000000 
#    y 0.000000 3.583200 0.000000 
#    z 0.000000 0.000000 10.532720 
# 
# 
# High freq. dielectric constant tensor:
#      x y z
#    x 1.926700 0.000000 0.000000 
#    y 0.000000 1.840620 0.000000 
#    z 0.000000 0.000000 1.969570 
# 
# From -- ./inp_files/992.got.cif
#   From: 2010.03.12/outbox.cif.g09.slc.cpg/sg30_1_cif.got.tgz:992.got - 2010.04.14 01:38:02.
