data_PCOD8169255
_publ_section_title
;
Structure prediction by ZEFSAII (Michael W. Deem and Ramdas Pophale) SiO2 
 PCOD8169255
Probable space group: P C A 21
;
_chemical_formula_sum "Si O2"
_cell_formula_units_Z 20
_cell_length_a 10.368479
_cell_length_b 5.176257
_cell_length_c 13.991074
_cell_angle_alpha 90.000000
_cell_angle_beta 90.000000
_cell_angle_gamma 90.000000
_cell_volume 750.899710
_symmetry_space_group_name_H-M "P C A 21"
_symmetry_group_IT_number 29
_symmetry_cell_setting 'orthorhombic'
loop_
_space_group_symop_operation_xyz
x,y,z
-x,-y,1/2+z
1/2-x,y,1/2+z
1/2+x,-y,z
loop_
_atom_site_type_symbol
_atom_site_label
_atom_site_fract_x
_atom_site_fract_y
_atom_site_fract_z
Si Si1 0.999952 0.929388 0.963900
Si Si2 0.368088 0.050581 0.280062
Si Si3 0.094178 0.440178 0.055707
Si Si4 0.130039 0.724471 0.240055
Si Si5 0.711187 0.614183 0.395942
O O1 0.861903 0.892182 0.911075
O O2 0.109240 0.910371 0.882441
O O3 0.001250 0.675108 0.029036
O O4 0.017361 0.176355 0.032737
O O5 0.503203 0.094360 0.224218
O O6 0.314564 0.333519 0.310728
O O7 0.261638 0.888846 0.219901
O O8 0.127877 0.479584 0.167334
O O9 0.225872 0.467750 0.995780
O O10 0.121309 0.612224 0.349527
#
# Coordination Sequence:
#
# PCOD8169255 Si02
#       5
#     4   4   4   4   4
#     4  11  24  50  77 117 162 222 273 349 422 499
#     4  11  25  49  83 113 170 217 285 343 431 498
#     4  11  28  48  79 123 167 220 285 351 418 510
#     4  12  27  51  81 127 168 230 282 355 425 515
#     4  11  24  50  80 116 169 223 279 350 428 504
#
# _framework density 26.634715
#
# number of rings (size 3 to 8) (size 9 to 14) (size 15 to 20)
#    0.000    0.800    4.000    2.400    2.800    1.600 
#   10.800    2.000    0.000    0.000    0.000    0.000 
#    0.000    0.000    0.000    0.000    0.000    0.000 
#
# Total GULP energy -247867.105719 kJ/mol
# GULP energy per Si atom -12393.355286 kJ/mol
# Density = 2.657409 g / cm^3
# Si number density = 26.634715 Si / 1000 Ang^3
#
#
#
# Elastic Constant Matrix: (Units=GPa)
#
#
# Indices 1 2 3 4 5 6 
#
# 1 157.1732 59.8223 51.2080 0.0000 0.0000 0.0000
# 2 59.8223 145.8844 40.4578 0.0000 0.0000 0.0000
# 3 51.2080 40.4578 101.9421 0.0000 0.0000 0.0000
# 4 0.0000 0.0000 0.0000 47.1386 0.0000 0.0000
# 5 0.0000 0.0000 0.0000 0.0000 26.4648 0.0000
# 6 0.0000 0.0000 0.0000 0.0000 0.0000 40.4007
#
#
#
# Elastic Compliance Matrix: (Units=1/GPa)
#
#
# Indices 1 2 3 4 5 6 
#
# 1 0.008373 -0.002547 -0.003195 0.000000 0.000000 0.000000
# 2 -0.002547 0.008478 -0.002085 0.000000 0.000000 0.000000
# 3 -0.003195 -0.002085 0.012242 0.000000 0.000000 0.000000
# 4 0.000000 0.000000 0.000000 0.021214 0.000000 0.000000
# 5 0.000000 0.000000 0.000000 0.000000 0.037786 0.000000
# 6 0.000000 0.000000 0.000000 0.000000 0.000000 0.024752
#
#
# Mechanical properties :
#
#
# Convention : Reuss Voigt Hill
#
# Bulk Modulus (GPa) = 74.41660 78.66399 76.54030
# Shear Modulus (GPa) = 37.60017 39.70158 38.65088
#
# Velocity S-wave (km/s) = 3.76133 3.86501 3.81352
# Velocity P-wave (km/s) = 6.84572 7.03678 6.94191
#
# Compressibility (1/GPa) = 0.01343786
#
# Stress axis : x y z
#
# Youngs Moduli (GPa) = 119.43280 117.95876 81.68732
#
# Poissons Ratio (x) = 0.30049 0.26098
# Poissons Ratio (y) = 0.30424 0.17031
# Poissons Ratio (z) = 0.38158 0.24593
#
# Static dielectric constant tensor:
#      x y z
#    x 4.873720 0.000000 0.000000 
#    y 0.000000 4.711090 0.000000 
#    z 0.000000 0.000000 4.654300 
# 
# 
# High freq. dielectric constant tensor:
#      x y z
#    x 2.072610 0.000000 0.000000 
#    y 0.000000 2.071530 0.000000 
#    z 0.000000 0.000000 2.053890 
# 
# From -- ./inp_files/4372.got.cif
#   From: 2010.03.12/outbox.cif.g09.slc.cpg/sg29_3_cif.got.tgz:4372.got - 2010.04.14 03:43:10.
