data_PCOD8169326
_publ_section_title
;
Structure prediction by ZEFSAII (Michael W. Deem and Ramdas Pophale) SiO2 
 PCOD8169326
Probable space group: P C A 21
;
_chemical_formula_sum "Si O2"
_cell_formula_units_Z 24
_cell_length_a 9.505039
_cell_length_b 12.399878
_cell_length_c 8.107499
_cell_angle_alpha 90.000000
_cell_angle_beta 90.000000
_cell_angle_gamma 90.000000
_cell_volume 955.560566
_symmetry_space_group_name_H-M "P C A 21"
_symmetry_group_IT_number 29
_symmetry_cell_setting 'orthorhombic'
loop_
_space_group_symop_operation_xyz
x,y,z
-x,-y,1/2+z
1/2-x,y,1/2+z
1/2+x,-y,z
loop_
_atom_site_type_symbol
_atom_site_label
_atom_site_fract_x
_atom_site_fract_y
_atom_site_fract_z
Si Si1 0.322707 0.556985 0.273400
Si Si2 0.685809 0.218809 0.341500
Si Si3 0.113324 0.429223 0.455637
Si Si4 0.439990 0.107946 0.187907
Si Si5 0.944921 0.141714 0.185574
Si Si6 0.190221 0.199789 0.388630
O O1 0.217521 0.658365 0.288010
O O2 0.223586 0.456894 0.313434
O O3 0.452383 0.574321 0.396643
O O4 0.379267 0.523475 0.093497
O O5 0.583864 0.174885 0.197898
O O6 0.833084 0.156342 0.332957
O O7 0.616282 0.196695 0.519733
O O8 0.171442 0.309399 0.498583
O O9 0.344271 0.159943 0.334434
O O10 0.481043 0.983299 0.196521
O O11 0.365783 0.108921 0.011454
O O12 0.088844 0.206254 0.227068
#
# Coordination Sequence:
#
# PCOD8169326 Si02
#       6
#     4   4   4   4   4   4
#     4  12  28  50  82 110 155 200 263 328 394 465
#     4  12  27  47  78 114 156 203 267 327 387 463
#     4  12  28  50  77 112 148 204 257 322 396 464
#     4  12  26  45  76 113 158 206 259 316 386 467
#     4  12  24  48  76 111 156 208 259 319 388 461
#     4  12  27  48  73 114 155 205 257 320 387 464
#
# _framework density 25.116146000000001
#
# number of rings (size 3 to 8) (size 9 to 14) (size 15 to 20)
#    0.000    0.000    1.667    8.000    7.000    0.000 
#    0.000    0.000    0.000    0.000    0.000    0.000 
#    0.000    0.000    0.000    0.000    0.000    0.000 
#
# Total GULP energy -297424.918719 kJ/mol
# GULP energy per Si atom -12392.704947 kJ/mol
# Density = 2.505898 g / cm^3
# Si number density = 25.116146 Si / 1000 Ang^3
#
#
#
# Elastic Constant Matrix: (Units=GPa)
#
#
# Indices 1 2 3 4 5 6 
#
# 1 79.7207 39.7168 -17.2007 0.0000 0.0000 0.0000
# 2 39.7168 145.6454 32.0426 0.0000 0.0000 0.0000
# 3 -17.2007 32.0426 74.6995 0.0000 0.0000 0.0000
# 4 0.0000 0.0000 0.0000 44.5072 0.0000 0.0000
# 5 0.0000 0.0000 0.0000 0.0000 40.9719 0.0000
# 6 0.0000 0.0000 0.0000 0.0000 0.0000 36.9354
#
#
#
# Elastic Compliance Matrix: (Units=1/GPa)
#
#
# Indices 1 2 3 4 5 6 
#
# 1 0.016965 -0.006057 0.006505 0.000000 0.000000 0.000000
# 2 -0.006057 0.009744 -0.005575 0.000000 0.000000 0.000000
# 3 0.006505 -0.005575 0.017276 0.000000 0.000000 0.000000
# 4 0.000000 0.000000 0.000000 0.022468 0.000000 0.000000
# 5 0.000000 0.000000 0.000000 0.000000 0.024407 0.000000
# 6 0.000000 0.000000 0.000000 0.000000 0.000000 0.027074
#
#
# Mechanical properties :
#
#
# Convention : Reuss Voigt Hill
#
# Bulk Modulus (GPa) = 29.64633 45.46478 37.55556
# Shear Modulus (GPa) = 35.85951 40.85003 38.35477
#
# Velocity S-wave (km/s) = 3.78265 4.03730 3.91205
# Velocity P-wave (km/s) = 5.55943 6.31460 5.94901
#
# Compressibility (1/GPa) = 0.03373098
#
# Stress axis : x y z
#
# Youngs Moduli (GPa) = 58.94458 102.62455 57.88355
#
# Poissons Ratio (x) = 0.62164 -0.37652
# Poissons Ratio (y) = 0.35705 0.32268
# Poissons Ratio (z) = -0.38342 0.57209
#
# Static dielectric constant tensor:
#      x y z
#    x 4.792790 0.000000 0.000000 
#    y 0.000000 4.509790 0.000000 
#    z 0.000000 0.000000 4.511180 
# 
# 
# High freq. dielectric constant tensor:
#      x y z
#    x 2.020080 0.000000 0.000000 
#    y 0.000000 2.012790 0.000000 
#    z 0.000000 0.000000 2.001680 
# 
# From -- ./inp_files/1140.got.cif
#   From: 2010.03.12/outbox.cif.g09.slc.cpg/sg29_1_cif.got.tgz:1140.got - 2010.04.14 03:43:10.
