data_PCOD8169425
_publ_section_title
;
Structure prediction by ZEFSAII (Michael W. Deem and Ramdas Pophale) SiO2 
 PCOD8169425
Probable space group: P N C 2
;
_chemical_formula_sum "Si O2"
_cell_formula_units_Z 28
_cell_length_a 11.063321
_cell_length_b 22.659868
_cell_length_c 5.126860
_cell_angle_alpha 90.000000
_cell_angle_beta 90.000000
_cell_angle_gamma 90.000000
_cell_volume 1285.269931
_symmetry_space_group_name_H-M "P N C 2"
_symmetry_group_IT_number 30
_symmetry_cell_setting 'orthorhombic'
loop_
_space_group_symop_operation_xyz
x,y,z
-x,-y,z
-x,1/2+y,1/2+z
x,1/2-y,1/2+z
loop_
_atom_site_type_symbol
_atom_site_label
_atom_site_fract_x
_atom_site_fract_y
_atom_site_fract_z
Si Si1 0.208956 0.713905 0.454340
Si Si2 0.000000 0.000000 0.660000
Si Si3 0.314110 0.552513 0.932789
Si Si4 0.664246 0.899338 0.965215
Si Si5 0.814385 0.413171 0.420304
Si Si6 0.500000 0.000000 0.129507
Si Si7 0.789148 0.928397 0.465616
Si Si8 0.492944 0.712148 0.444563
O O1 0.172042 0.740049 0.732673
O O2 0.134307 0.653423 0.406481
O O3 0.350703 0.697565 0.454062
O O4 0.090613 0.963400 0.842643
O O5 0.927600 0.952529 0.482743
O O6 0.220666 0.577801 0.720314
O O7 0.448064 0.554525 0.808763
O O8 0.298868 0.483495 0.967553
O O9 0.297927 0.584720 0.211198
O O10 0.749821 0.889905 0.714718
O O11 0.564053 0.848738 0.976127
O O12 0.601310 0.965291 0.958502
O O13 0.760696 0.892501 0.202345
O O14 0.528327 0.757029 0.674186
#
# Coordination Sequence:
#
# PCOD8169425 Si02
#       8
#     4   2   4   4   4   2   4   4
#     4  10  21  37  57  84 114 149 195 241 289 345
#     4  10  22  40  62  86 116 154 194 242 306 352
#     4  10  21  33  51  83 114 145 180 219 284 354
#     4  11  22  36  56  84 118 151 193 236 286 352
#     4  11  22  37  58  82 113 151 194 242 289 350
#     4  10  20  32  52  82 120 150 172 228 296 358
#     4  10  22  36  54  83 113 146 187 232 279 344
#     4  10  21  37  59  83 114 158 196 232 284 344
#
# _framework density 21.785305999999999
#
# number of rings (size 3 to 8) (size 9 to 14) (size 15 to 20)
#    0.000    1.714    0.000    6.000    0.000   14.857 
#    0.000    0.000    0.000    5.143    0.000    0.000 
#    0.000    0.000    0.000    0.000    0.000    0.000 
#
# Total GULP energy -346986.918301 kJ/mol
# GULP energy per Si atom -12392.389939 kJ/mol
# Density = 2.173572 g / cm^3
# Si number density = 21.785306 Si / 1000 Ang^3
#
#
#
# Elastic Constant Matrix: (Units=GPa)
#
#
# Indices 1 2 3 4 5 6 
#
# 1 51.7638 10.5149 12.0051 0.0000 0.0000 0.0000
# 2 10.5149 89.7264 21.1426 0.0000 0.0000 0.0000
# 3 12.0051 21.1426 125.5303 0.0000 0.0000 0.0000
# 4 0.0000 0.0000 0.0000 26.6156 0.0000 0.0000
# 5 0.0000 0.0000 0.0000 0.0000 6.2263 0.0000
# 6 0.0000 0.0000 0.0000 0.0000 0.0000 30.2950
#
#
#
# Elastic Compliance Matrix: (Units=1/GPa)
#
#
# Indices 1 2 3 4 5 6 
#
# 1 0.020089 -0.001980 -0.001588 0.000000 0.000000 0.000000
# 2 -0.001980 0.011801 -0.001798 0.000000 0.000000 0.000000
# 3 -0.001588 -0.001798 0.008421 0.000000 0.000000 0.000000
# 4 0.000000 0.000000 0.000000 0.037572 0.000000 0.000000
# 5 0.000000 0.000000 0.000000 0.000000 0.160610 0.000000
# 6 0.000000 0.000000 0.000000 0.000000 0.000000 0.033009
#
#
# Mechanical properties :
#
#
# Convention : Reuss Voigt Hill
#
# Bulk Modulus (GPa) = 33.80816 39.37173 36.58995
# Shear Modulus (GPa) = 17.11786 27.51791 22.31789
#
# Velocity S-wave (km/s) = 2.80617 3.55793 3.20417
# Velocity P-wave (km/s) = 5.10411 5.91526 5.52459
#
# Compressibility (1/GPa) = 0.02957866
#
# Stress axis : x y z
#
# Youngs Moduli (GPa) = 49.77861 84.74040 118.75203
#
# Poissons Ratio (x) = 0.16779 0.18854
# Poissons Ratio (y) = 0.09857 0.21354
# Poissons Ratio (z) = 0.07903 0.15238
#
# Static dielectric constant tensor:
#      x y z
#    x 3.832490 0.000000 0.000000 
#    y 0.000000 3.755280 0.000000 
#    z 0.000000 0.000000 4.360940 
# 
# 
# High freq. dielectric constant tensor:
#      x y z
#    x 1.820160 0.000000 0.000000 
#    y 0.000000 1.837240 0.000000 
#    z 0.000000 0.000000 1.877190 
# 
# From -- ./inp_files/778.got.cif
#   From: 2010.03.12/outbox.cif.g09.slc.cpg/sg30_1_cif.got.tgz:778.got - 2010.04.14 01:38:02.
