data_PCOD8169405
_publ_section_title
;
Structure prediction by ZEFSAII (Michael W. Deem and Ramdas Pophale) SiO2 
 PCOD8169405
Probable space group: P N C 2
;
_chemical_formula_sum "Si O2"
_cell_formula_units_Z 24
_cell_length_a 12.045560
_cell_length_b 12.181585
_cell_length_c 8.472473
_cell_angle_alpha 90.000000
_cell_angle_beta 90.000000
_cell_angle_gamma 90.000000
_cell_volume 1243.199963
_symmetry_space_group_name_H-M "P N C 2"
_symmetry_group_IT_number 30
_symmetry_cell_setting 'orthorhombic'
loop_
_space_group_symop_operation_xyz
x,y,z
-x,-y,z
-x,1/2+y,1/2+z
x,1/2-y,1/2+z
loop_
_atom_site_type_symbol
_atom_site_label
_atom_site_fract_x
_atom_site_fract_y
_atom_site_fract_z
Si Si1 0.006268 0.124198 0.895000
Si Si2 0.755168 0.858166 0.999605
Si Si3 0.813828 0.529580 0.793730
Si Si4 0.035103 0.657883 0.747994
Si Si5 0.582507 0.904807 0.412059
Si Si6 0.626089 0.796301 0.713643
O O1 0.131204 0.165364 0.910405
O O2 0.947962 0.212200 0.778411
O O3 0.000000 0.000000 0.825617
O O4 0.947936 0.129157 0.064709
O O5 0.665623 0.873151 0.859072
O O6 0.764587 0.964299 0.113587
O O7 0.727303 0.752546 0.108522
O O8 0.864854 0.409748 0.831985
O O9 0.711972 0.556378 0.910750
O O10 0.914202 0.617976 0.809036
O O11 0.552547 0.867436 0.591625
O O12 0.559593 0.806630 0.288071
O O13 0.500000 0.000000 0.359798
#
# Coordination Sequence:
#
# PCOD8169405 Si02
#       6
#     4   4   4   4   4   4
#     4  11  19  33  53  80 116 153 186 228 273 332
#     4   9  15  31  54  78 105 140 187 228 266 316
#     4   9  18  36  57  80 115 149 181 235 283 320
#     4  10  19  36  54  81 121 149 187 229 274 336
#     4  10  20  37  60  84 109 143 190 231 286 329
#     4   9  18  33  59  82 103 139 192 233 264 333
#
# _framework density 19.305019999999999
#
# number of rings (size 3 to 8) (size 9 to 14) (size 15 to 20)
#    0.000    2.333    3.333    4.000    0.000    0.000 
#    6.000    9.167    0.000    0.000    0.000    0.000 
#    0.000    0.000    0.000    0.000    0.000    0.000 
#
# Total GULP energy -297324.654911 kJ/mol
# GULP energy per Si atom -12388.527288 kJ/mol
# Density = 1.926108 g / cm^3
# Si number density = 19.305020 Si / 1000 Ang^3
#
#
#
# Elastic Constant Matrix: (Units=GPa)
#
#
# Indices 1 2 3 4 5 6 
#
# 1 52.3455 29.8687 25.5592 0.0000 0.0000 0.0000
# 2 29.8687 137.8287 42.8082 0.0000 0.0000 0.0000
# 3 25.5592 42.8082 80.8594 0.0000 0.0000 0.0000
# 4 0.0000 0.0000 0.0000 21.3844 0.0000 0.0000
# 5 0.0000 0.0000 0.0000 0.0000 13.4690 0.0000
# 6 0.0000 0.0000 0.0000 0.0000 0.0000 24.7484
#
#
#
# Elastic Compliance Matrix: (Units=1/GPa)
#
#
# Indices 1 2 3 4 5 6 
#
# 1 0.023839 -0.003382 -0.005745 0.000000 0.000000 0.000000
# 2 -0.003382 0.009163 -0.003782 0.000000 0.000000 0.000000
# 3 -0.005745 -0.003782 0.016185 0.000000 0.000000 0.000000
# 4 0.000000 0.000000 0.000000 0.046763 0.000000 0.000000
# 5 0.000000 0.000000 0.000000 0.000000 0.074244 0.000000
# 6 0.000000 0.000000 0.000000 0.000000 0.000000 0.040407
#
#
# Mechanical properties :
#
#
# Convention : Reuss Voigt Hill
#
# Bulk Modulus (GPa) = 42.79080 51.94508 47.36794
# Shear Modulus (GPa) = 20.47436 23.44022 21.95729
#
# Velocity S-wave (km/s) = 3.26017 3.48832 3.37618
# Velocity P-wave (km/s) = 6.03203 6.57195 6.30777
#
# Compressibility (1/GPa) = 0.02336951
#
# Stress axis : x y z
#
# Youngs Moduli (GPa) = 41.94880 109.13584 61.78433
#
# Poissons Ratio (x) = 0.36907 0.35494
# Poissons Ratio (y) = 0.14186 0.23367
# Poissons Ratio (z) = 0.24099 0.41276
#
# Static dielectric constant tensor:
#      x y z
#    x 3.168710 0.000000 0.000000 
#    y 0.000000 3.589060 0.000000 
#    z 0.000000 0.000000 3.578710 
# 
# 
# High freq. dielectric constant tensor:
#      x y z
#    x 1.706780 0.000000 0.000000 
#    y 0.000000 1.738410 0.000000 
#    z 0.000000 0.000000 1.747600 
# 
# From -- ./inp_files/2343.got.cif
#   From: 2010.03.12/outbox.cif.g09.slc.cpg/sg30_2_cif.got.tgz:2343.got - 2010.04.14 01:38:02.
