data_PCOD8169706
_publ_section_title
;
Structure prediction by ZEFSAII (Michael W. Deem and Ramdas Pophale) SiO2 
 PCOD8169706
Probable space group: P M N 21
;
_chemical_formula_sum "Si O2"
_cell_formula_units_Z 32
_cell_length_a 9.127885
_cell_length_b 11.273170
_cell_length_c 16.562410
_cell_angle_alpha 90.000000
_cell_angle_beta 90.000000
_cell_angle_gamma 90.000000
_cell_volume 1704.275291
_symmetry_space_group_name_H-M "P M N 21"
_symmetry_group_IT_number 31
_symmetry_cell_setting 'orthorhombic'
loop_
_space_group_symop_operation_xyz
x,y,z
1/2-x,-y,1/2+z
-x,y,z
1/2+x,-y,1/2+z
loop_
_atom_site_type_symbol
_atom_site_label
_atom_site_fract_x
_atom_site_fract_y
_atom_site_fract_z
Si Si1 0.174688 0.304105 0.543960
Si Si2 0.330177 0.435364 0.077349
Si Si3 0.160684 0.097256 0.112377
Si Si4 0.836336 0.846223 0.167284
Si Si5 0.170825 0.733588 0.717472
Si Si6 0.164408 0.787161 0.480559
Si Si7 0.673156 0.184582 0.389971
Si Si8 0.330960 0.054356 0.835735
O O1 0.237748 0.437943 0.553582
O O2 0.222506 0.244866 0.628332
O O3 0.249922 0.242338 0.467304
O O4 0.000000 0.296045 0.533214
O O5 0.500000 0.458600 0.090777
O O6 0.268780 0.376446 0.161730
O O7 0.297346 0.349838 0.000532
O O8 0.255645 0.144924 0.187179
O O9 0.225955 0.128816 0.026825
O O10 0.000000 0.153547 0.122045
O O11 0.152761 0.956371 0.107129
O O12 0.771724 0.899114 0.250349
O O13 0.000000 0.790335 0.179035
O O14 0.202810 0.726264 0.813483
O O15 0.000000 0.746308 0.700489
O O16 0.180919 0.824668 0.388104
O O17 0.000000 0.811908 0.512074
O O18 0.500000 0.172324 0.406176
O O19 0.736897 0.053986 0.371331
O O20 0.500000 0.011194 0.828606
#
# Coordination Sequence:
#
# PCOD8169706 Si02
#       8
#     4   4   4   4   4   4   4   4
#     4  11  23  38  57  79 110 152 193 231 276 332
#     4   8  17  37  58  77 103 141 192 232 264 323
#     4  10  18  30  52  80 111 138 169 220 274 321
#     4  10  21  36  53  79 117 147 177 228 281 330
#     4   9  18  35  59  81 105 143 185 225 273 330
#     4   9  18  34  57  79 104 142 183 221 269 328
#     4  11  22  36  58  86 116 145 182 234 286 337
#     4  10  20  36  58  85 114 144 181 227 279 339
#
# _framework density 18.776309000000001
#
# number of rings (size 3 to 8) (size 9 to 14) (size 15 to 20)
#    0.000    2.250    1.250    2.625    0.000    4.500 
#    2.250    5.000    0.000    0.000    0.000    0.000 
#    0.000    0.000    0.000    0.000    0.000    0.000 
#
# Total GULP energy -396485.653280 kJ/mol
# GULP energy per Si atom -12390.176665 kJ/mol
# Density = 1.873357 g / cm^3
# Si number density = 18.776309 Si / 1000 Ang^3
#
#
#
# Elastic Constant Matrix: (Units=GPa)
#
#
# Indices 1 2 3 4 5 6 
#
# 1 70.5326 44.0657 39.2186 0.0000 0.0000 0.0000
# 2 44.0657 122.6114 71.2404 0.0000 0.0000 0.0000
# 3 39.2186 71.2404 102.1637 0.0000 0.0000 0.0000
# 4 0.0000 0.0000 0.0000 25.8018 0.0000 0.0000
# 5 0.0000 0.0000 0.0000 0.0000 25.1009 0.0000
# 6 0.0000 0.0000 0.0000 0.0000 0.0000 19.8930
#
#
#
# Elastic Compliance Matrix: (Units=1/GPa)
#
#
# Indices 1 2 3 4 5 6 
#
# 1 0.019363 -0.004438 -0.004338 0.000000 0.000000 0.000000
# 2 -0.004438 0.014728 -0.008566 0.000000 0.000000 0.000000
# 3 -0.004338 -0.008566 0.017427 0.000000 0.000000 0.000000
# 4 0.000000 0.000000 0.000000 0.038757 0.000000 0.000000
# 5 0.000000 0.000000 0.000000 0.000000 0.039839 0.000000
# 6 0.000000 0.000000 0.000000 0.000000 0.000000 0.050269
#
#
# Mechanical properties :
#
#
# Convention : Reuss Voigt Hill
#
# Bulk Modulus (GPa) = 59.40928 67.15079 63.28003
# Shear Modulus (GPa) = 22.65725 23.54469 23.10097
#
# Velocity S-wave (km/s) = 3.47752 3.54497 3.51140
# Velocity P-wave (km/s) = 6.91617 7.25237 7.08627
#
# Compressibility (1/GPa) = 0.01683239
#
# Stress axis : x y z
#
# Youngs Moduli (GPa) = 51.64537 67.89652 57.38203
#
# Poissons Ratio (x) = 0.30135 0.24893
# Poissons Ratio (y) = 0.22922 0.49156
# Poissons Ratio (z) = 0.22404 0.58163
#
# Static dielectric constant tensor:
#      x y z
#    x 3.410620 0.000000 0.000000 
#    y 0.000000 3.543120 0.000000 
#    z 0.000000 0.000000 3.598410 
# 
# 
# High freq. dielectric constant tensor:
#      x y z
#    x 1.719820 0.000000 0.000000 
#    y 0.000000 1.714190 0.000000 
#    z 0.000000 0.000000 1.734930 
# 
# From -- ./inp_files/5934.got.cif
#   From: 2010.03.12/outbox.cif.g09.slc.cpg/sg31_3_cif.got.tgz:5934.got - 2010.04.14 01:42:59.
