data_PCOD8169700
_publ_section_title
;
Structure prediction by ZEFSAII (Michael W. Deem and Ramdas Pophale) SiO2 
 PCOD8169700
Probable space group: P M N 21
;
_chemical_formula_sum "Si O2"
_cell_formula_units_Z 24
_cell_length_a 9.046999
_cell_length_b 15.193607
_cell_length_c 9.259435
_cell_angle_alpha 90.000000
_cell_angle_beta 90.000000
_cell_angle_gamma 90.000000
_cell_volume 1272.769965
_symmetry_space_group_name_H-M "P M N 21"
_symmetry_group_IT_number 31
_symmetry_cell_setting 'orthorhombic'
loop_
_space_group_symop_operation_xyz
x,y,z
1/2-x,-y,1/2+z
-x,y,z
1/2+x,-y,1/2+z
loop_
_atom_site_type_symbol
_atom_site_label
_atom_site_fract_x
_atom_site_fract_y
_atom_site_fract_z
Si Si1 0.828512 0.101037 0.311820
Si Si2 0.667112 0.585875 0.354276
Si Si3 0.667228 0.958222 0.487642
Si Si4 0.167916 0.232340 0.952646
Si Si5 0.826360 0.729871 0.740019
Si Si6 0.671412 0.558023 0.689373
O O1 0.742783 0.192778 0.338668
O O2 0.000000 0.119994 0.333080
O O3 0.778414 0.031210 0.431129
O O4 0.794019 0.062351 0.153635
O O5 0.500000 0.557606 0.317392
O O6 0.688283 0.691912 0.331280
O O7 0.705846 0.562720 0.519660
O O8 0.776620 0.536640 0.246682
O O9 0.500000 0.993176 0.471634
O O10 0.687626 0.867342 0.394467
O O11 0.000000 0.241509 0.018907
O O12 0.288906 0.248539 0.074858
O O13 0.757452 0.634459 0.777496
O O14 0.000000 0.726348 0.766071
O O15 0.500000 0.569866 0.721944
#
# Coordination Sequence:
#
# PCOD8169700 Si02
#       6
#     4   4   4   4   4   4
#     4  10  20  34  52  75 103 133 166 206 250 295
#     4   9  18  33  52  74 100 132 169 207 247 293
#     4   9  18  33  52  74 100 132 169 207 247 293
#     4   8  16  32  51  72 101 132 164 204 246 292
#     4  10  18  30  51  74  97 130 170 206 244 296
#     4  10  20  34  52  75 103 133 166 206 250 295
#
# _framework density 18.856511999999999
#
# number of rings (size 3 to 8) (size 9 to 14) (size 15 to 20)
#    0.000    2.667    0.000    4.500    0.000    6.667 
#    0.000    1.667    0.000    8.000    0.000    0.000 
#    0.000    0.000    0.000    0.000    0.000    0.000 
#
# Total GULP energy -297475.663679 kJ/mol
# GULP energy per Si atom -12394.819320 kJ/mol
# Density = 1.881359 g / cm^3
# Si number density = 18.856512 Si / 1000 Ang^3
#
#
#
# Elastic Constant Matrix: (Units=GPa)
#
#
# Indices 1 2 3 4 5 6 
#
# 1 81.6200 3.4196 8.2067 0.0000 0.0000 0.0000
# 2 3.4196 26.7839 -8.7991 0.0000 0.0000 0.0000
# 3 8.2067 -8.7991 13.8517 0.0000 0.0000 0.0000
# 4 0.0000 0.0000 0.0000 29.2962 0.0000 0.0000
# 5 0.0000 0.0000 0.0000 0.0000 24.6629 0.0000
# 6 0.0000 0.0000 0.0000 0.0000 0.0000 35.4302
#
#
#
# Elastic Compliance Matrix: (Units=1/GPa)
#
#
# Indices 1 2 3 4 5 6 
#
# 1 0.013653 -0.005561 -0.011622 0.000000 0.000000 0.000000
# 2 -0.005561 0.049447 0.034705 0.000000 0.000000 0.000000
# 3 -0.011622 0.034705 0.101125 0.000000 0.000000 0.000000
# 4 0.000000 0.000000 0.000000 0.034134 0.000000 0.000000
# 5 0.000000 0.000000 0.000000 0.000000 0.040547 0.000000
# 6 0.000000 0.000000 0.000000 0.000000 0.000000 0.028225
#
#
# Mechanical properties :
#
#
# Convention : Reuss Voigt Hill
#
# Bulk Modulus (GPa) = 5.01832 14.21223 9.61527
# Shear Modulus (GPa) = 16.74988 25.83975 21.29481
#
# Velocity S-wave (km/s) = 2.98364 3.70582 3.36416
# Velocity P-wave (km/s) = 3.81268 5.08569 4.49448
#
# Compressibility (1/GPa) = 0.19927006
#
# Stress axis : x y z
#
# Youngs Moduli (GPa) = 73.24156 20.22356 9.88878
#
# Poissons Ratio (x) = 0.11247 0.11493
# Poissons Ratio (y) = 0.40731 -0.34319
# Poissons Ratio (z) = 0.85120 -0.70187
#
# Static dielectric constant tensor:
#      x y z
#    x 3.367900 0.000000 0.000000 
#    y 0.000000 3.840780 0.000000 
#    z 0.000000 0.000000 2.937020 
# 
# 
# High freq. dielectric constant tensor:
#      x y z
#    x 1.735520 0.000000 0.000000 
#    y 0.000000 1.751720 0.000000 
#    z 0.000000 0.000000 1.675560 
# 
# From -- ./inp_files/1701.got.cif
#   From: 2010.03.12/outbox.cif.g09.slc.cpg/sg31_1_cif.got.tgz:1701.got - 2010.04.14 01:42:59.
