data_PCOD8169357
_publ_section_title
;
Structure prediction by ZEFSAII (Michael W. Deem and Ramdas Pophale) SiO2 
 PCOD8169357
Probable space group: P N C 2
;
_chemical_formula_sum "Si O2"
_cell_formula_units_Z 24
_cell_length_a 27.565467
_cell_length_b 7.471338
_cell_length_c 5.322763
_cell_angle_alpha 90.000000
_cell_angle_beta 90.000000
_cell_angle_gamma 90.000000
_cell_volume 1096.227943
_symmetry_space_group_name_H-M "P N C 2"
_symmetry_group_IT_number 30
_symmetry_cell_setting 'orthorhombic'
loop_
_space_group_symop_operation_xyz
x,y,z
-x,-y,z
-x,1/2+y,1/2+z
x,1/2-y,1/2+z
loop_
_atom_site_type_symbol
_atom_site_label
_atom_site_fract_x
_atom_site_fract_y
_atom_site_fract_z
Si Si1 0.249582 0.963816 0.910480
Si Si2 0.096520 0.935824 0.410215
Si Si3 0.647760 0.361620 0.374286
Si Si4 0.790162 0.065268 0.410513
Si Si5 0.056325 0.959977 0.910223
Si Si6 0.458098 0.639070 0.439043
O O1 0.307589 0.999640 0.910607
O O2 0.224900 0.047030 0.659591
O O3 0.239168 0.750795 0.908218
O O4 0.225500 0.047299 0.162336
O O5 0.153151 0.892125 0.408358
O O6 0.081248 0.045342 0.660682
O O7 0.066420 0.751762 0.411576
O O8 0.080809 0.045641 0.160716
O O9 0.652088 0.211686 0.590819
O O10 0.594983 0.454766 0.408032
O O11 0.000000 0.000000 0.908433
O O12 0.500000 0.500000 0.385324
O O13 0.463131 0.710615 0.723217
#
# Coordination Sequence:
#
# PCOD8169357 Si02
#       6
#     4   4   4   4   4   4
#     4  10  14  22  36  59  83 120 142 170 227 294
#     4  10  19  30  40  62  86 116 141 179 232 279
#     4  10  16  27  41  66  97 131 161 197 244 297
#     4  10  16  23  39  56  89 118 134 172 235 300
#     4  10  18  29  43  56  79 115 143 176 210 264
#     4  10  21  35  55  77 110 154 190 234 280 328
#
# _framework density 21.893257999999999
#
# number of rings (size 3 to 8) (size 9 to 14) (size 15 to 20)
#    0.000    2.000    3.333    6.000    0.000    0.000 
#    0.000    0.000    0.000    0.000    0.000    0.000 
#    0.000    0.000  192.667    0.667    0.000    0.000 
#
# Total GULP energy -297332.624962 kJ/mol
# GULP energy per Si atom -12388.859373 kJ/mol
# Density = 2.184343 g / cm^3
# Si number density = 21.893258 Si / 1000 Ang^3
#
#
#
# Elastic Constant Matrix: (Units=GPa)
#
#
# Indices 1 2 3 4 5 6 
#
# 1 210.6648 24.5272 57.0087 0.0000 0.0000 0.0000
# 2 24.5272 11.5207 -0.4071 0.0000 0.0000 0.0000
# 3 57.0087 -0.4071 230.2724 0.0000 0.0000 0.0000
# 4 0.0000 0.0000 0.0000 0.9265 0.0000 0.0000
# 5 0.0000 0.0000 0.0000 0.0000 40.0917 0.0000
# 6 0.0000 0.0000 0.0000 0.0000 0.0000 15.8754
#
#
#
# Elastic Compliance Matrix: (Units=1/GPa)
#
#
# Indices 1 2 3 4 5 6 
#
# 1 0.006949 -0.014856 -0.001747 0.000000 0.000000 0.000000
# 2 -0.014856 0.118566 0.003888 0.000000 0.000000 0.000000
# 3 -0.001747 0.003888 0.004782 0.000000 0.000000 0.000000
# 4 0.000000 0.000000 0.000000 1.079331 0.000000 0.000000
# 5 0.000000 0.000000 0.000000 0.000000 0.024943 0.000000
# 6 0.000000 0.000000 0.000000 0.000000 0.000000 0.062991
#
#
# Mechanical properties :
#
#
# Convention : Reuss Voigt Hill
#
# Bulk Modulus (GPa) = 9.53593 68.30172 38.91883
# Shear Modulus (GPa) = 3.68202 36.13399 19.90801
#
# Velocity S-wave (km/s) = 1.29825 4.06700 3.01877
# Velocity P-wave (km/s) = 2.57145 7.30200 5.47410
#
# Compressibility (1/GPa) = 0.10486657
#
# Stress axis : x y z
#
# Youngs Moduli (GPa) = 143.90011 8.43410 209.11799
#
# Poissons Ratio (x) = 0.12530 0.36527
# Poissons Ratio (y) = 2.13785 -0.81298
# Poissons Ratio (z) = 0.25135 -0.03279
#
# Static dielectric constant tensor:
#      x y z
#    x 4.186500 0.000000 0.000000 
#    y 0.000000 2.885660 0.000000 
#    z 0.000000 0.000000 8.347260 
# 
# 
# High freq. dielectric constant tensor:
#      x y z
#    x 1.879440 0.000000 0.000000 
#    y 0.000000 1.754070 0.000000 
#    z 0.000000 0.000000 1.912480 
# 
# From -- ./inp_files/1054.got.cif
#   From: 2010.03.12/outbox.cif.g09.slc.cpg/sg30_1_cif.got.tgz:1054.got - 2010.04.14 01:38:02.
