data_PCOD8169822
_publ_section_title
;
Structure prediction by ZEFSAII (Michael W. Deem and Ramdas Pophale) SiO2 
 PCOD8169822
Probable space group: P M N 21
;
_chemical_formula_sum "Si O2"
_cell_formula_units_Z 32
_cell_length_a 8.788900
_cell_length_b 14.720833
_cell_length_c 12.441775
_cell_angle_alpha 90.000000
_cell_angle_beta 90.000000
_cell_angle_gamma 90.000000
_cell_volume 1609.715968
_symmetry_space_group_name_H-M "P M N 21"
_symmetry_group_IT_number 31
_symmetry_cell_setting 'orthorhombic'
loop_
_space_group_symop_operation_xyz
x,y,z
1/2-x,-y,1/2+z
-x,y,z
1/2+x,-y,1/2+z
loop_
_atom_site_type_symbol
_atom_site_label
_atom_site_fract_x
_atom_site_fract_y
_atom_site_fract_z
Si Si1 0.675044 0.436564 0.852880
Si Si2 0.323565 0.629442 0.788781
Si Si3 0.669826 0.353605 0.074949
Si Si4 0.817763 0.174029 0.353313
Si Si5 0.827591 0.189798 0.979710
Si Si6 0.319375 0.139891 0.582727
Si Si7 0.175041 0.261020 0.753887
Si Si8 0.175585 0.051201 0.157452
O O1 0.500000 0.430066 0.813584
O O2 0.747626 0.536621 0.835890
O O3 0.769574 0.360769 0.788713
O O4 0.687336 0.425626 0.980165
O O5 0.500000 0.629800 0.814520
O O6 0.295670 0.623749 0.662265
O O7 0.253795 0.723061 0.835988
O O8 0.500000 0.355760 0.124181
O O9 0.700653 0.254543 0.028412
O O10 0.755245 0.137975 0.465504
O O11 0.752755 0.110796 0.255217
O O12 0.000000 0.173913 0.353512
O O13 0.803110 0.187840 0.850905
O O14 0.000000 0.224721 0.004294
O O15 0.799907 0.094130 0.038425
O O16 0.500000 0.139113 0.568802
O O17 0.268891 0.227732 0.650532
O O18 0.258724 0.050804 0.647471
O O19 0.000000 0.268781 0.719627
O O20 0.000000 0.044505 0.185731
#
# Coordination Sequence:
#
# PCOD8169822 Si02
#       8
#     4   4   4   4   4   4   4   4
#     4   9  20  37  57  84 116 153 196 243 295 347
#     4  10  20  37  61  83 113 156 195 238 293 352
#     4  10  19  32  52  83 117 145 186 244 294 341
#     4  10  21  40  62  85 116 155 200 241 292 360
#     4   9  17  35  60  81 105 146 195 240 288 346
#     4  11  24  39  58  86 124 161 194 243 300 350
#     4  10  21  37  60  86 116 155 198 241 289 351
#     4   9  19  37  60  84 113 151 192 240 295 347
#
# _framework density 19.879282
#
# number of rings (size 3 to 8) (size 9 to 14) (size 15 to 20)
#    0.000    2.250    1.250    1.125    1.750    3.000 
#    0.000    3.125    0.000    0.000    0.000    0.000 
#    0.000    0.000    0.000    0.000    0.000    0.000 
#
# Total GULP energy -396612.312009 kJ/mol
# GULP energy per Si atom -12394.134750 kJ/mol
# Density = 1.983404 g / cm^3
# Si number density = 19.879282 Si / 1000 Ang^3
#
#
#
# Elastic Constant Matrix: (Units=GPa)
#
#
# Indices 1 2 3 4 5 6 
#
# 1 28.8444 25.3402 23.7118 0.0000 0.0000 0.0000
# 2 25.3402 128.1346 55.0656 0.0000 0.0000 0.0000
# 3 23.7118 55.0656 103.3360 0.0000 0.0000 0.0000
# 4 0.0000 0.0000 0.0000 20.9009 0.0000 0.0000
# 5 0.0000 0.0000 0.0000 0.0000 30.7304 0.0000
# 6 0.0000 0.0000 0.0000 0.0000 0.0000 18.3334
#
#
#
# Elastic Compliance Matrix: (Units=1/GPa)
#
#
# Indices 1 2 3 4 5 6 
#
# 1 0.045936 -0.005907 -0.007393 0.000000 0.000000 0.000000
# 2 -0.005907 0.010882 -0.004443 0.000000 0.000000 0.000000
# 3 -0.007393 -0.004443 0.013741 0.000000 0.000000 0.000000
# 4 0.000000 0.000000 0.000000 0.047845 0.000000 0.000000
# 5 0.000000 0.000000 0.000000 0.000000 0.032541 0.000000
# 6 0.000000 0.000000 0.000000 0.000000 0.000000 0.054545
#
#
# Mechanical properties :
#
#
# Convention : Reuss Voigt Hill
#
# Bulk Modulus (GPa) = 28.51251 52.06114 40.28682
# Shear Modulus (GPa) = 19.78886 24.40609 22.09748
#
# Velocity S-wave (km/s) = 3.15850 3.50768 3.33766
# Velocity P-wave (km/s) = 5.26075 6.53074 5.92984
#
# Compressibility (1/GPa) = 0.03507233
#
# Stress axis : x y z
#
# Youngs Moduli (GPa) = 21.76963 91.89446 72.77364
#
# Poissons Ratio (x) = 0.54286 0.53799
# Poissons Ratio (y) = 0.12860 0.32336
# Poissons Ratio (z) = 0.16093 0.40831
#
# Static dielectric constant tensor:
#      x y z
#    x 3.410870 0.000000 0.000000 
#    y 0.000000 3.815060 0.000000 
#    z 0.000000 0.000000 3.663780 
# 
# 
# High freq. dielectric constant tensor:
#      x y z
#    x 1.754430 0.000000 0.000000 
#    y 0.000000 1.775650 0.000000 
#    z 0.000000 0.000000 1.775070 
# 
# From -- ./inp_files/3683.got.cif
#   From: 2010.03.12/outbox.cif.g09.slc.cpg/sg31_2_cif.got.tgz:3683.got - 2010.04.14 01:42:59.
