data_PCOD8169914
_publ_section_title
;
Structure prediction by ZEFSAII (Michael W. Deem and Ramdas Pophale) SiO2 
 PCOD8169914
Probable space group: P M N 21
;
_chemical_formula_sum "Si O2"
_cell_formula_units_Z 32
_cell_length_a 9.083207
_cell_length_b 11.413437
_cell_length_c 16.043650
_cell_angle_alpha 90.000000
_cell_angle_beta 90.000000
_cell_angle_gamma 90.000000
_cell_volume 1663.254996
_symmetry_space_group_name_H-M "P M N 21"
_symmetry_group_IT_number 31
_symmetry_cell_setting 'orthorhombic'
loop_
_space_group_symop_operation_xyz
x,y,z
1/2-x,-y,1/2+z
-x,y,z
1/2+x,-y,1/2+z
loop_
_atom_site_type_symbol
_atom_site_label
_atom_site_fract_x
_atom_site_fract_y
_atom_site_fract_z
Si Si1 0.327062 0.807744 0.686280
Si Si2 0.332587 0.072019 0.720677
Si Si3 0.165202 0.719902 0.841086
Si Si4 0.171134 0.306860 0.010690
Si Si5 0.326805 0.767796 0.098590
Si Si6 0.165561 0.915875 0.967107
Si Si7 0.832677 0.870213 0.413024
Si Si8 0.672007 0.420792 0.501364
O O1 0.500000 0.803617 0.699846
O O2 0.261038 0.722437 0.757378
O O3 0.280521 0.754632 0.597215
O O4 0.271605 0.942630 0.695519
O O5 0.500000 0.083838 0.688729
O O6 0.234640 0.175920 0.683056
O O7 0.323113 0.094296 0.817943
O O8 0.167562 0.851430 0.878255
O O9 0.226520 0.627946 0.910801
O O10 0.000000 0.683262 0.816001
O O11 0.000000 0.284622 0.991889
O O12 0.270703 0.258434 0.934625
O O13 0.206235 0.443771 0.012815
O O14 0.500000 0.752518 0.106068
O O15 0.283554 0.854295 0.025035
O O16 0.255311 0.641901 0.077989
O O17 0.000000 0.914627 0.005099
O O18 0.219899 0.047889 0.962678
O O19 0.000000 0.882659 0.444957
O O20 0.500000 0.389600 0.509321
#
# Coordination Sequence:
#
# PCOD8169914 Si02
#       8
#     4   4   4   4   4   4   4   4
#     4  10  20  36  59  86 114 148 190 238 290 348
#     4  10  21  37  56  84 123 154 186 234 297 360
#     4   9  18  33  57  84 110 146 186 237 288 339
#     4  10  22  40  61  83 115 161 201 239 292 355
#     4  11  22  35  58  88 113 146 194 244 289 339
#     4  10  19  34  57  83 115 152 188 229 293 355
#     4  11  22  36  57  86 119 153 191 243 292 342
#     4   9  20  41  61  80 113 156 200 238 291 354
#
# _framework density 19.239384000000001
#
# number of rings (size 3 to 8) (size 9 to 14) (size 15 to 20)
#    0.000    2.000    1.250    3.375    0.000    5.500 
#    2.250    0.000    0.000    0.000    0.000    0.000 
#    0.000    0.000    0.000    0.000    0.000    0.000 
#
# Total GULP energy -396709.171045 kJ/mol
# GULP energy per Si atom -12397.161595 kJ/mol
# Density = 1.919559 g / cm^3
# Si number density = 19.239384 Si / 1000 Ang^3
#
#
#
# Elastic Constant Matrix: (Units=GPa)
#
#
# Indices 1 2 3 4 5 6 
#
# 1 77.6088 55.0531 33.9168 0.0000 0.0000 0.0000
# 2 55.0531 130.1344 50.3640 0.0000 0.0000 0.0000
# 3 33.9168 50.3640 61.7459 0.0000 0.0000 0.0000
# 4 0.0000 0.0000 0.0000 26.8444 0.0000 0.0000
# 5 0.0000 0.0000 0.0000 0.0000 32.7777 0.0000
# 6 0.0000 0.0000 0.0000 0.0000 0.0000 27.7509
#
#
#
# Elastic Compliance Matrix: (Units=1/GPa)
#
#
# Indices 1 2 3 4 5 6 
#
# 1 0.019780 -0.006083 -0.005903 0.000000 0.000000 0.000000
# 2 -0.006083 0.013100 -0.007344 0.000000 0.000000 0.000000
# 3 -0.005903 -0.007344 0.025428 0.000000 0.000000 0.000000
# 4 0.000000 0.000000 0.000000 0.037252 0.000000 0.000000
# 5 0.000000 0.000000 0.000000 0.000000 0.030509 0.000000
# 6 0.000000 0.000000 0.000000 0.000000 0.000000 0.036035
#
#
# Mechanical properties :
#
#
# Convention : Reuss Voigt Hill
#
# Bulk Modulus (GPa) = 50.89631 60.90630 55.90131
# Shear Modulus (GPa) = 24.11808 26.15163 25.13485
#
# Velocity S-wave (km/s) = 3.54443 3.69084 3.61837
# Velocity P-wave (km/s) = 6.57741 7.06320 6.82463
#
# Compressibility (1/GPa) = 0.01964779
#
# Stress axis : x y z
#
# Youngs Moduli (GPa) = 50.55520 76.33563 39.32669
#
# Poissons Ratio (x) = 0.46438 0.23216
# Poissons Ratio (y) = 0.30755 0.28880
# Poissons Ratio (z) = 0.29844 0.56058
#
# Static dielectric constant tensor:
#      x y z
#    x 3.464460 0.000000 0.000000 
#    y 0.000000 3.572600 0.000000 
#    z 0.000000 0.000000 3.447370 
# 
# 
# High freq. dielectric constant tensor:
#      x y z
#    x 1.743530 0.000000 0.000000 
#    y 0.000000 1.742990 0.000000 
#    z 0.000000 0.000000 1.743540 
# 
# From -- ./inp_files/5035.got.cif
#   From: 2010.03.12/outbox.cif.g09.slc.cpg/sg31_3_cif.got.tgz:5035.got - 2010.04.14 01:42:59.
