data_PCOD8169580
_publ_section_title
;
Structure prediction by ZEFSAII (Michael W. Deem and Ramdas Pophale) SiO2 
 PCOD8169580
Probable space group: P N C 2
;
_chemical_formula_sum "Si O2"
_cell_formula_units_Z 26
_cell_length_a 9.266305
_cell_length_b 5.418399
_cell_length_c 22.612434
_cell_angle_alpha 90.000000
_cell_angle_beta 90.000000
_cell_angle_gamma 90.000000
_cell_volume 1135.337246
_symmetry_space_group_name_H-M "P N C 2"
_symmetry_group_IT_number 30
_symmetry_cell_setting 'orthorhombic'
loop_
_space_group_symop_operation_xyz
x,y,z
-x,-y,z
-x,1/2+y,1/2+z
x,1/2-y,1/2+z
loop_
_atom_site_type_symbol
_atom_site_label
_atom_site_fract_x
_atom_site_fract_y
_atom_site_fract_z
Si Si1 0.343345 0.466641 0.153740
Si Si2 0.000000 0.500000 0.668941
Si Si3 0.500000 0.000000 0.433806
Si Si4 0.750659 0.819595 0.972294
Si Si5 0.000000 0.000000 0.436918
Si Si6 0.145452 0.890669 0.751529
Si Si7 0.262987 0.991434 0.095967
Si Si8 0.250289 0.707376 0.375715
O O1 0.500000 0.500000 0.182912
O O2 0.231211 0.421975 0.207996
O O3 0.367686 0.219635 0.113775
O O4 0.300028 0.714507 0.116903
O O5 0.095138 0.671018 0.710260
O O6 0.116760 0.389602 0.623515
O O7 0.394526 0.156065 0.476393
O O8 0.599479 0.164304 0.391442
O O9 0.899895 0.667446 0.979398
O O10 0.753130 0.943031 0.907637
O O11 0.745539 0.022047 0.024476
O O12 0.107672 0.853130 0.394488
O O13 0.249877 0.816028 0.804881
O O14 0.000000 0.000000 0.779919
#
# Coordination Sequence:
#
# PCOD8169580 Si02
#       8
#     4   2   2   4   2   4   4   4
#     4  11  26  46  68 106 137 191 236 294 355 429
#     4  10  23  44  68 104 136 191 234 294 360 424
#     4  10  26  46  64 100 142 188 242 282 382 422
#     4  11  25  43  70 101 139 187 234 300 359 435
#     4  10  23  40  66 104 134 171 234 288 362 424
#     4  11  22  44  71  95 139 178 240 298 357 425
#     4  11  26  44  75 100 150 181 244 290 362 429
#     4  11  24  44  68 103 137 185 235 295 363 434
#
# _framework density 22.900684999999999
#
# number of rings (size 3 to 8) (size 9 to 14) (size 15 to 20)
#    0.000    1.231    1.538    2.769    7.538    4.923 
#    5.538    0.000    0.000    0.000    0.000    0.000 
#    0.000    0.000    0.000    0.000    0.000    0.000 
#
# Total GULP energy -322172.841518 kJ/mol
# GULP energy per Si atom -12391.263135 kJ/mol
# Density = 2.284856 g / cm^3
# Si number density = 22.900685 Si / 1000 Ang^3
#
#
#
# Elastic Constant Matrix: (Units=GPa)
#
#
# Indices 1 2 3 4 5 6 
#
# 1 112.2616 3.1861 17.0254 0.0000 0.0000 0.0000
# 2 3.1861 69.7380 -4.7353 0.0000 0.0000 0.0000
# 3 17.0254 -4.7353 89.5034 0.0000 0.0000 0.0000
# 4 0.0000 0.0000 0.0000 171.9497 0.0000 0.0000
# 5 0.0000 0.0000 0.0000 0.0000 17.4805 0.0000
# 6 0.0000 0.0000 0.0000 0.0000 0.0000 19.5175
#
#
#
# Elastic Compliance Matrix: (Units=1/GPa)
#
#
# Indices 1 2 3 4 5 6 
#
# 1 0.009193 -0.000541 -0.001777 0.000000 0.000000 0.000000
# 2 -0.000541 0.014423 0.000866 0.000000 0.000000 0.000000
# 3 -0.001777 0.000866 0.011557 0.000000 0.000000 0.000000
# 4 0.000000 0.000000 0.000000 0.005816 0.000000 0.000000
# 5 0.000000 0.000000 0.000000 0.000000 0.057207 0.000000
# 6 0.000000 0.000000 0.000000 0.000000 0.000000 0.051236
#
#
# Mechanical properties :
#
#
# Convention : Reuss Voigt Hill
#
# Bulk Modulus (GPa) = 30.99028 33.60616 32.29822
# Shear Modulus (GPa) = 30.65783 58.85799 44.75791
#
# Velocity S-wave (km/s) = 3.66283 5.07516 4.42570
# Velocity P-wave (km/s) = 5.60806 7.00354 6.34428
#
# Compressibility (1/GPa) = 0.03226819
#
# Stress axis : x y z
#
# Youngs Moduli (GPa) = 108.78262 69.33423 86.53033
#
# Poissons Ratio (x) = 0.03749 0.15379
# Poissons Ratio (y) = 0.05881 -0.07493
# Poissons Ratio (z) = 0.19333 -0.06004
#
# Static dielectric constant tensor:
#      x y z
#    x 4.740270 0.000000 0.000000 
#    y 0.000000 2.934540 0.000000 
#    z 0.000000 0.000000 3.849940 
# 
# 
# High freq. dielectric constant tensor:
#      x y z
#    x 1.925250 0.000000 0.000000 
#    y 0.000000 1.899260 0.000000 
#    z 0.000000 0.000000 1.893890 
# 
# From -- ./inp_files/7358.got.cif
#   From: 2010.03.12/outbox.cif.g09.slc.cpg/sg30_4_cif.got.tgz:7358.got - 2010.04.14 01:38:02.
