data_PCOD8169957
_publ_section_title
;
Structure prediction by ZEFSAII (Michael W. Deem and Ramdas Pophale) SiO2 
 PCOD8169957
Probable space group: P M N 21
;
_chemical_formula_sum "Si O2"
_cell_formula_units_Z 32
_cell_length_a 8.747373
_cell_length_b 11.934530
_cell_length_c 15.482190
_cell_angle_alpha 90.000000
_cell_angle_beta 90.000000
_cell_angle_gamma 90.000000
_cell_volume 1616.275386
_symmetry_space_group_name_H-M "P M N 21"
_symmetry_group_IT_number 31
_symmetry_cell_setting 'orthorhombic'
loop_
_space_group_symop_operation_xyz
x,y,z
1/2-x,-y,1/2+z
-x,y,z
1/2+x,-y,1/2+z
loop_
_atom_site_type_symbol
_atom_site_label
_atom_site_fract_x
_atom_site_fract_y
_atom_site_fract_z
Si Si1 0.318000 0.238622 0.478440
Si Si2 0.321604 0.225854 0.667237
Si Si3 0.181063 0.606379 0.824897
Si Si4 0.319487 0.751886 0.675491
Si Si5 0.681258 0.363477 0.829684
Si Si6 0.177858 0.006232 0.243427
Si Si7 0.320093 0.995238 0.424726
Si Si8 0.320412 0.220546 0.996839
O O1 0.500000 0.236868 0.479455
O O2 0.254550 0.266585 0.574738
O O3 0.257062 0.329476 0.410162
O O4 0.256961 0.117067 0.450610
O O5 0.500000 0.249437 0.669552
O O6 0.252116 0.296414 0.746680
O O7 0.290973 0.092646 0.674934
O O8 0.253822 0.660346 0.740312
O O9 0.231548 0.479607 0.833669
O O10 0.000000 0.615980 0.817472
O O11 0.500000 0.741167 0.673530
O O12 0.267027 0.876390 0.703592
O O13 0.254759 0.724041 0.581093
O O14 0.500000 0.383019 0.824625
O O15 0.726779 0.294045 0.914384
O O16 0.000000 0.010290 0.270441
O O17 0.277552 0.974077 0.325876
O O18 0.500000 0.984569 0.438415
O O19 0.240670 0.905095 0.486206
O O20 0.500000 0.216844 0.009683
#
# Coordination Sequence:
#
# PCOD8169957 Si02
#       8
#     4   4   4   4   4   4   4   4
#     4   9  19  35  58  86 116 153 192 237 293 352
#     4   9  17  35  60  84 113 150 194 238 291 352
#     4  11  23  40  60  86 120 157 201 254 302 351
#     4  11  23  39  63  91 120 158 203 248 301 363
#     4  10  22  40  61  84 114 157 203 249 295 351
#     4  10  19  35  60  88 119 155 193 241 299 357
#     4  11  20  34  59  90 123 154 195 242 294 362
#     4  11  23  40  61  89 125 160 199 247 303 358
#
# _framework density 19.798604999999998
#
# number of rings (size 3 to 8) (size 9 to 14) (size 15 to 20)
#    0.000    1.750    2.500    2.250    0.000    4.500 
#    0.000    1.250    0.000    3.750    0.000    0.000 
#    0.000    0.000    0.000    0.000    0.000    0.000 
#
# Total GULP energy -396857.546975 kJ/mol
# GULP energy per Si atom -12401.798343 kJ/mol
# Density = 1.975354 g / cm^3
# Si number density = 19.798605 Si / 1000 Ang^3
#
#
#
# Elastic Constant Matrix: (Units=GPa)
#
#
# Indices 1 2 3 4 5 6 
#
# 1 47.1795 29.2351 28.7832 0.0000 0.0000 0.0000
# 2 29.2351 107.2542 39.6918 0.0000 0.0000 0.0000
# 3 28.7832 39.6918 140.7032 0.0000 0.0000 0.0000
# 4 0.0000 0.0000 0.0000 15.6477 0.0000 0.0000
# 5 0.0000 0.0000 0.0000 0.0000 24.5913 0.0000
# 6 0.0000 0.0000 0.0000 0.0000 0.0000 29.1756
#
#
#
# Elastic Compliance Matrix: (Units=1/GPa)
#
#
# Indices 1 2 3 4 5 6 
#
# 1 0.027285 -0.005998 -0.003890 0.000000 0.000000 0.000000
# 2 -0.005998 0.011729 -0.002082 0.000000 0.000000 0.000000
# 3 -0.003890 -0.002082 0.008490 0.000000 0.000000 0.000000
# 4 0.000000 0.000000 0.000000 0.063907 0.000000 0.000000
# 5 0.000000 0.000000 0.000000 0.000000 0.040665 0.000000
# 6 0.000000 0.000000 0.000000 0.000000 0.000000 0.034275
#
#
# Mechanical properties :
#
#
# Convention : Reuss Voigt Hill
#
# Bulk Modulus (GPa) = 42.43448 54.50635 48.47042
# Shear Modulus (GPa) = 22.92048 27.04470 24.98259
#
# Velocity S-wave (km/s) = 3.40616 3.69994 3.55609
# Velocity P-wave (km/s) = 6.07856 6.77074 6.43396
#
# Compressibility (1/GPa) = 0.02356574
#
# Stress axis : x y z
#
# Youngs Moduli (GPa) = 36.64974 85.25933 117.78419
#
# Poissons Ratio (x) = 0.51138 0.45814
# Poissons Ratio (y) = 0.21982 0.24519
# Poissons Ratio (z) = 0.14256 0.17749
#
# Static dielectric constant tensor:
#      x y z
#    x 3.334710 0.000000 0.000000 
#    y 0.000000 3.627160 0.000000 
#    z 0.000000 0.000000 3.969350 
# 
# 
# High freq. dielectric constant tensor:
#      x y z
#    x 1.747420 0.000000 0.000000 
#    y 0.000000 1.772020 0.000000 
#    z 0.000000 0.000000 1.788760 
# 
# From -- ./inp_files/4962.got.cif
#   From: 2010.03.12/outbox.cif.g09.slc.cpg/sg31_3_cif.got.tgz:4962.got - 2010.04.14 01:42:59.
