data_PCOD8169520
_publ_section_title
;
Structure prediction by ZEFSAII (Michael W. Deem and Ramdas Pophale) SiO2 
 PCOD8169520
Probable space group: P N C 2
;
_chemical_formula_sum "Si O2"
_cell_formula_units_Z 16
_cell_length_a 4.909075
_cell_length_b 6.520342
_cell_length_c 21.216972
_cell_angle_alpha 90.000000
_cell_angle_beta 90.000000
_cell_angle_gamma 90.000000
_cell_volume 679.130830
_symmetry_space_group_name_H-M "P N C 2"
_symmetry_group_IT_number 30
_symmetry_cell_setting 'orthorhombic'
loop_
_space_group_symop_operation_xyz
x,y,z
-x,-y,z
-x,1/2+y,1/2+z
x,1/2-y,1/2+z
loop_
_atom_site_type_symbol
_atom_site_label
_atom_site_fract_x
_atom_site_fract_y
_atom_site_fract_z
Si Si1 0.248038 0.863320 0.485930
Si Si2 0.745080 0.358122 0.748645
Si Si3 0.259154 0.860141 0.109251
Si Si4 0.000000 0.500000 0.331068
Si Si5 0.500000 0.000000 0.908623
O O1 0.202325 0.822283 0.560242
O O2 0.310399 0.654557 0.448655
O O3 0.500000 0.000000 0.473517
O O4 0.000000 0.000000 0.459152
O O5 0.500000 0.500000 0.776683
O O6 0.662012 0.273117 0.678799
O O7 0.000000 0.500000 0.739740
O O8 0.829722 0.168312 0.791940
O O9 0.500000 0.000000 0.081430
O O10 0.000000 0.000000 0.114082
O O11 0.747419 0.607592 0.368916
#
# Coordination Sequence:
#
# PCOD8169520 Si02
#       5
#     4   4   4   2   2
#     4  12  26  44  72 106 137 187 234 289 359 421
#     4  10  23  44  70 106 139 180 232 293 355 421
#     4  10  21  42  71 103 147 174 220 298 357 421
#     4  12  26  46  74  96 142 198 238 292 354 432
#     4  12  28  48  68 102 146 188 246 298 344 426
#
# _framework density 23.559526000000002
#
# number of rings (size 3 to 8) (size 9 to 14) (size 15 to 20)
#    0.000    1.000    1.250    4.500    3.500    4.000 
#    2.250    0.000    0.000    0.000    0.000    0.000 
#    0.000    0.000    0.000    0.000    0.000    0.000 
#
# Total GULP energy -198211.500897 kJ/mol
# GULP energy per Si atom -12388.218806 kJ/mol
# Density = 2.350590 g / cm^3
# Si number density = 23.559526 Si / 1000 Ang^3
#
#
#
# Elastic Constant Matrix: (Units=GPa)
#
#
# Indices 1 2 3 4 5 6 
#
# 1 185.3675 63.2860 48.3426 0.0000 0.0000 0.0000
# 2 63.2860 114.8799 54.6626 0.0000 0.0000 0.0000
# 3 48.3426 54.6626 99.3755 0.0000 0.0000 0.0000
# 4 0.0000 0.0000 0.0000 22.7214 0.0000 0.0000
# 5 0.0000 0.0000 0.0000 0.0000 37.6555 0.0000
# 6 0.0000 0.0000 0.0000 0.0000 0.0000 46.9087
#
#
#
# Elastic Compliance Matrix: (Units=1/GPa)
#
#
# Indices 1 2 3 4 5 6 
#
# 1 0.006851 -0.002964 -0.001702 0.000000 0.000000 0.000000
# 2 -0.002964 0.013073 -0.005749 0.000000 0.000000 0.000000
# 3 -0.001702 -0.005749 0.014053 0.000000 0.000000 0.000000
# 4 0.000000 0.000000 0.000000 0.044011 0.000000 0.000000
# 5 0.000000 0.000000 0.000000 0.000000 0.026557 0.000000
# 6 0.000000 0.000000 0.000000 0.000000 0.000000 0.021318
#
#
# Mechanical properties :
#
#
# Convention : Reuss Voigt Hill
#
# Bulk Modulus (GPa) = 76.06670 81.35615 78.71142
# Shear Modulus (GPa) = 33.09603 37.01257 35.05430
#
# Velocity S-wave (km/s) = 3.75211 3.96791 3.86152
# Velocity P-wave (km/s) = 7.15040 7.45651 7.30506
#
# Compressibility (1/GPa) = 0.01314636
#
# Stress axis : x y z
#
# Youngs Moduli (GPa) = 145.97437 76.49280 71.15777
#
# Poissons Ratio (x) = 0.22672 0.12112
# Poissons Ratio (y) = 0.43266 0.40910
# Poissons Ratio (z) = 0.24848 0.43977
#
# Static dielectric constant tensor:
#      x y z
#    x 4.517180 0.000000 0.000000 
#    y 0.000000 3.772750 0.000000 
#    z 0.000000 0.000000 5.196890 
# 
# 
# High freq. dielectric constant tensor:
#      x y z
#    x 1.962550 0.000000 0.000000 
#    y 0.000000 1.908180 0.000000 
#    z 0.000000 0.000000 1.939660 
# 
# From -- ./inp_files/6692.got.cif
#   From: 2010.03.12/outbox.cif.g09.slc.cpg/sg30_4_cif.got.tgz:6692.got - 2010.04.14 01:38:02.
