data_PCOD8169064
_publ_section_title
;
Structure prediction by ZEFSAII (Michael W. Deem and Ramdas Pophale) SiO2 
 PCOD8169064
Probable space group: P C A 21
;
_chemical_formula_sum "Si O2"
_cell_formula_units_Z 28
_cell_length_a 20.870781
_cell_length_b 7.261746
_cell_length_c 8.981811
_cell_angle_alpha 90.000000
_cell_angle_beta 90.000000
_cell_angle_gamma 90.000000
_cell_volume 1361.268100
_symmetry_space_group_name_H-M "P C A 21"
_symmetry_group_IT_number 29
_symmetry_cell_setting 'orthorhombic'
loop_
_space_group_symop_operation_xyz
x,y,z
-x,-y,1/2+z
1/2-x,y,1/2+z
1/2+x,-y,z
loop_
_atom_site_type_symbol
_atom_site_label
_atom_site_fract_x
_atom_site_fract_y
_atom_site_fract_z
Si Si1 0.426418 0.003311 0.029700
Si Si2 0.160461 0.821801 0.125355
Si Si3 0.248135 0.750000 0.368971
Si Si4 0.339539 0.678199 0.112586
Si Si5 0.426418 0.496689 0.708241
Si Si6 0.445186 0.422787 0.045511
Si Si7 0.445186 0.077213 0.692431
O O1 0.415801 0.219257 0.056282
O O2 0.363371 0.889064 0.080447
O O3 0.483674 0.921364 0.128777
O O4 0.444114 0.982786 0.855595
O O5 0.201936 0.883890 0.270755
O O6 0.136629 0.610936 0.157495
O O7 0.100225 0.950754 0.091798
O O8 0.205700 0.853899 0.983655
O O9 0.294300 0.646100 0.254286
O O10 0.201936 0.616110 0.467187
O O11 0.399775 0.549246 0.146143
O O12 0.483674 0.578636 0.609164
O O13 0.415801 0.280743 0.681659
O O14 0.444114 0.517214 0.882346
#
# Coordination Sequence:
#
# PCOD8169064 Si02
#       7
#     4   4   4   4   4   4   4
#     4  11  23  38  62  94 125 157 201 257 313 363
#     4  11  22  46  62  92 126 161 210 250 303 365
#     4  10  24  42  70  82 124 180 200 244 302 368
#     4  11  22  46  62  92 126 161 210 250 303 365
#     4  11  23  38  62  94 125 157 201 257 313 363
#     4  11  23  38  62  94 125 157 201 257 313 363
#     4  11  23  38  62  94 125 157 201 257 313 363
#
# _framework density 20.569056
#
# number of rings (size 3 to 8) (size 9 to 14) (size 15 to 20)
#    0.000    1.143    5.714    0.000    4.000    0.000 
#    0.000    8.571    0.000    0.000    0.000    0.000 
#    0.000    0.000    0.000    0.000    0.000    0.000 
#
# Total GULP energy -346986.069675 kJ/mol
# GULP energy per Si atom -12392.359631 kJ/mol
# Density = 2.052224 g / cm^3
# Si number density = 20.569056 Si / 1000 Ang^3
#
#
#
# Elastic Constant Matrix: (Units=GPa)
#
#
# Indices 1 2 3 4 5 6 
#
# 1 100.9640 31.7371 44.3424 0.0000 0.0000 0.0000
# 2 31.7371 89.9585 18.1681 0.0000 0.0000 0.0000
# 3 44.3424 18.1681 94.7155 0.0000 0.0000 0.0000
# 4 0.0000 0.0000 0.0000 18.9277 0.0000 0.0000
# 5 0.0000 0.0000 0.0000 0.0000 30.0645 0.0000
# 6 0.0000 0.0000 0.0000 0.0000 0.0000 -3.4638
#
#
#
# Elastic Compliance Matrix: (Units=1/GPa)
#
#
# Indices 1 2 3 4 5 6 
#
# 1 0.013520 -0.003632 -0.005633 0.000000 0.000000 0.000000
# 2 -0.003632 0.012540 -0.000705 0.000000 0.000000 0.000000
# 3 -0.005633 -0.000705 0.013330 0.000000 0.000000 0.000000
# 4 0.000000 0.000000 0.000000 0.052833 0.000000 0.000000
# 5 0.000000 0.000000 0.000000 0.000000 0.033262 0.000000
# 6 0.000000 0.000000 0.000000 0.000000 0.000000 -0.288704
#
#
# Mechanical properties :
#
#
# Convention : Reuss Voigt Hill
#
# Bulk Modulus (GPa) = 51.41302 52.68147 52.04725
# Shear Modulus (GPa) = -36.55090 21.86507 -7.34292
#
# Velocity S-wave (km/s) = -4.22000 3.26392 -1.89146
# Velocity P-wave (km/s) = 1.14237 6.31441 4.53745
#
# Compressibility (1/GPa) = 0.01945033
#
# Stress axis : x y z
#
# Youngs Moduli (GPa) = 73.96323 79.74452 75.01712
#
# Poissons Ratio (x) = 0.28965 0.42257
# Poissons Ratio (y) = 0.26865 0.05288
# Poissons Ratio (z) = 0.41663 0.05621
#
# Static dielectric constant tensor:
#      x y z
#    x 3.915810 0.000000 0.000000 
#    y 0.000000 3.579120 0.000000 
#    z 0.000000 0.000000 3.945800 
# 
# 
# High freq. dielectric constant tensor:
#      x y z
#    x 1.817700 0.000000 0.000000 
#    y 0.000000 1.776910 0.000000 
#    z 0.000000 0.000000 1.813570 
# 
# From -- ./inp_files/2123.got.cif
#   From: 2010.03.12/outbox.cif.g09.slc.cpg/sg29_2_cif.got.tgz:2123.got - 2010.04.14 03:43:10.
