data_PCOD8169802
_publ_section_title
;
Structure prediction by ZEFSAII (Michael W. Deem and Ramdas Pophale) SiO2 
 PCOD8169802
Probable space group: P M N 21
;
_chemical_formula_sum "Si O2"
_cell_formula_units_Z 32
_cell_length_a 16.240582
_cell_length_b 9.024077
_cell_length_c 10.658129
_cell_angle_alpha 90.000000
_cell_angle_beta 90.000000
_cell_angle_gamma 90.000000
_cell_volume 1562.015551
_symmetry_space_group_name_H-M "P M N 21"
_symmetry_group_IT_number 31
_symmetry_cell_setting 'orthorhombic'
loop_
_space_group_symop_operation_xyz
x,y,z
1/2-x,-y,1/2+z
-x,y,z
1/2+x,-y,1/2+z
loop_
_atom_site_type_symbol
_atom_site_label
_atom_site_fract_x
_atom_site_fract_y
_atom_site_fract_z
Si Si1 0.847109 0.834743 0.428040
Si Si2 0.654277 0.821356 0.405061
Si Si3 0.654256 0.821329 0.941176
Si Si4 0.347090 0.165284 0.418224
Si Si5 0.407422 0.117383 0.673125
Si Si6 0.159788 0.194901 0.173117
Si Si7 0.905740 0.363527 0.673124
Si Si8 0.656973 0.317746 0.173126
O O1 0.751776 0.796897 0.406255
O O2 0.893152 0.786181 0.299327
O O3 0.884948 0.742335 0.544881
O O4 0.865375 0.006034 0.458625
O O5 0.617694 0.760658 0.540125
O O6 0.610795 0.732710 0.295744
O O7 0.634647 0.993995 0.387623
O O8 0.751758 0.796864 0.940017
O O9 0.617686 0.760646 0.806100
O O10 0.610750 0.732668 0.050466
O O11 0.393138 0.213835 0.546936
O O12 0.384936 0.257695 0.301390
O O13 0.500000 0.052920 0.673109
O O14 0.339089 0.985865 0.673125
O O15 0.251461 0.255227 0.173126
O O16 0.846105 0.504973 0.673114
O O17 0.000000 0.416718 0.673170
#
# Coordination Sequence:
#
# PCOD8169802 Si02
#       8
#     4   4   4   4   4   4   4   4
#     4   9  18  36  63  86 107 144 194 242 284 334
#     4   9  18  37  62  85 109 143 191 240 287 339
#     4   9  18  37  62  85 109 143 191 240 287 339
#     4   9  18  36  63  86 107 144 194 242 284 334
#     4  10  19  31  54  90 120 140 178 244 307 345
#     4   8  18  35  59  85 106 140 193 242 285 331
#     4  12  26  38  52  84 127 161 187 225 283 345
#     4  10  21  38  59  83 115 157 202 235 269 333
#
# _framework density 20.486353000000001
#
# number of rings (size 3 to 8) (size 9 to 14) (size 15 to 20)
#    0.000    2.500    0.000    3.000    0.000   11.000 
#    0.000    2.500    0.000    0.000    0.000    0.000 
#    0.000    0.000    0.000    0.000    0.000    0.000 
#
# Total GULP energy -396446.445569 kJ/mol
# GULP energy per Si atom -12388.951424 kJ/mol
# Density = 2.043972 g / cm^3
# Si number density = 20.486353 Si / 1000 Ang^3
#
#
#
# Elastic Constant Matrix: (Units=GPa)
#
#
# Indices 1 2 3 4 5 6 
#
# 1 40.3055 19.9967 23.2748 0.0000 0.0000 0.0000
# 2 19.9967 61.3576 55.5405 0.0000 0.0000 0.0000
# 3 23.2748 55.5405 229.7238 0.0000 0.0000 0.0000
# 4 0.0000 0.0000 0.0000 3.5508 0.0000 0.0000
# 5 0.0000 0.0000 0.0000 0.0000 15.4551 0.0000
# 6 0.0000 0.0000 0.0000 0.0000 0.0000 5.2194
#
#
#
# Elastic Compliance Matrix: (Units=1/GPa)
#
#
# Indices 1 2 3 4 5 6 
#
# 1 0.029727 -0.008912 -0.000857 0.000000 0.000000 0.000000
# 2 -0.008912 0.023536 -0.004787 0.000000 0.000000 0.000000
# 3 -0.000857 -0.004787 0.005597 0.000000 0.000000 0.000000
# 4 0.000000 0.000000 0.000000 0.281626 0.000000 0.000000
# 5 0.000000 0.000000 0.000000 0.000000 0.064703 0.000000
# 6 0.000000 0.000000 0.000000 0.000000 0.000000 0.191592
#
#
# Mechanical properties :
#
#
# Convention : Reuss Voigt Hill
#
# Bulk Modulus (GPa) = 33.61704 58.77899 46.19801
# Shear Modulus (GPa) = 7.86397 20.35007 14.10702
#
# Velocity S-wave (km/s) = 1.96137 3.15516 2.62698
# Velocity P-wave (km/s) = 4.64482 6.48286 5.63923
#
# Compressibility (1/GPa) = 0.02974682
#
# Stress axis : x y z
#
# Youngs Moduli (GPa) = 33.63935 42.48822 178.65663
#
# Poissons Ratio (x) = 0.37867 0.15313
# Poissons Ratio (y) = 0.29980 0.85529
# Poissons Ratio (z) = 0.02883 0.20341
#
# Static dielectric constant tensor:
#      x y z
#    x 3.360300 0.000000 0.000000 
#    y 0.000000 3.273560 0.000000 
#    z 0.000000 0.000000 4.661960 
# 
# 
# High freq. dielectric constant tensor:
#      x y z
#    x 1.766220 0.000000 0.000000 
#    y 0.000000 1.753590 0.000000 
#    z 0.000000 0.000000 1.843240 
# 
# From -- ./inp_files/4427.got.cif
#   From: 2010.03.12/outbox.cif.g09.slc.cpg/sg31_3_cif.got.tgz:4427.got - 2010.04.14 01:42:59.
