data_PCOD8169791
_publ_section_title
;
Structure prediction by ZEFSAII (Michael W. Deem and Ramdas Pophale) SiO2 
 PCOD8169791
Probable space group: P M N 21
;
_chemical_formula_sum "Si O2"
_cell_formula_units_Z 24
_cell_length_a 9.345302
_cell_length_b 9.546149
_cell_length_c 15.257061
_cell_angle_alpha 90.000000
_cell_angle_beta 90.000000
_cell_angle_gamma 90.000000
_cell_volume 1361.107515
_symmetry_space_group_name_H-M "P M N 21"
_symmetry_group_IT_number 31
_symmetry_cell_setting 'orthorhombic'
loop_
_space_group_symop_operation_xyz
x,y,z
1/2-x,-y,1/2+z
-x,y,z
1/2+x,-y,1/2+z
loop_
_atom_site_type_symbol
_atom_site_label
_atom_site_fract_x
_atom_site_fract_y
_atom_site_fract_z
Si Si1 0.835678 0.607387 0.985170
Si Si2 0.333572 0.333885 0.675865
Si Si3 0.839314 0.121470 0.465399
Si Si4 0.164215 0.048573 0.652392
Si Si5 0.338427 0.858619 0.775760
Si Si6 0.166487 0.458559 0.326700
O O1 0.746411 0.509099 0.918786
O O2 0.000000 0.595407 0.957829
O O3 0.811652 0.571889 0.087880
O O4 0.784748 0.766113 0.974952
O O5 0.500000 0.290954 0.684749
O O6 0.240620 0.193687 0.676346
O O7 0.280201 0.429517 0.755710
O O8 0.823088 0.015250 0.547500
O O9 0.822740 0.054242 0.368090
O O10 0.000000 0.190560 0.469631
O O11 0.000000 0.060964 0.681435
O O12 0.233962 0.919499 0.702935
O O13 0.500000 0.870164 0.739948
O O14 0.296637 0.697278 0.792963
O O15 0.000000 0.475602 0.344597
#
# Coordination Sequence:
#
# PCOD8169791 Si02
#       6
#     4   4   4   4   4   4
#     4   9  16  27  47  72  94 119 156 197 231 270
#     4   9  18  33  51  70  95 127 158 189 232 284
#     4   8  16  31  48  65  91 127 160 188 227 282
#     4  10  19  31  49  73  97 121 155 198 236 272
#     4   9  17  31  50  69  92 125 159 189 228 280
#     4   9  18  33  51  69  93 127 160 189 230 284
#
# _framework density 17.6327
#
# number of rings (size 3 to 8) (size 9 to 14) (size 15 to 20)
#    0.000    3.000    0.000    2.000    0.000    4.667 
#    0.000    1.667    0.000    4.000    0.000    0.000 
#    0.000    0.000    0.000    0.000    0.000    0.000 
#
# Total GULP energy -297356.681781 kJ/mol
# GULP energy per Si atom -12389.861741 kJ/mol
# Density = 1.759257 g / cm^3
# Si number density = 17.632700 Si / 1000 Ang^3
#
#
#
# Elastic Constant Matrix: (Units=GPa)
#
#
# Indices 1 2 3 4 5 6 
#
# 1 56.2527 8.0937 7.0259 0.0000 0.0000 0.0000
# 2 8.0937 20.8334 -8.0913 0.0000 0.0000 0.0000
# 3 7.0259 -8.0913 22.4942 0.0000 0.0000 0.0000
# 4 0.0000 0.0000 0.0000 28.8528 0.0000 0.0000
# 5 0.0000 0.0000 0.0000 0.0000 32.7130 0.0000
# 6 0.0000 0.0000 0.0000 0.0000 0.0000 22.1872
#
#
#
# Elastic Compliance Matrix: (Units=1/GPa)
#
#
# Indices 1 2 3 4 5 6 
#
# 1 0.020936 -0.012407 -0.011002 0.000000 0.000000 0.000000
# 2 -0.012407 0.063147 0.026589 0.000000 0.000000 0.000000
# 3 -0.011002 0.026589 0.057457 0.000000 0.000000 0.000000
# 4 0.000000 0.000000 0.000000 0.034659 0.000000 0.000000
# 5 0.000000 0.000000 0.000000 0.000000 0.030569 0.000000
# 6 0.000000 0.000000 0.000000 0.000000 0.000000 0.045071
#
#
# Mechanical properties :
#
#
# Convention : Reuss Voigt Hill
#
# Bulk Modulus (GPa) = 6.76128 12.62630 9.69379
# Shear Modulus (GPa) = 16.96199 22.92073 19.94136
#
# Velocity S-wave (km/s) = 3.10492 3.60932 3.36658
# Velocity P-wave (km/s) = 4.08618 4.95438 4.54108
#
# Compressibility (1/GPa) = 0.14790109
#
# Stress axis : x y z
#
# Youngs Moduli (GPa) = 47.76430 15.83617 17.40442
#
# Poissons Ratio (x) = 0.19647 0.19148
# Poissons Ratio (y) = 0.59259 -0.46277
# Poissons Ratio (z) = 0.52550 -0.42107
#
# Static dielectric constant tensor:
#      x y z
#    x 3.304260 0.000000 0.000000 
#    y 0.000000 2.786830 0.000000 
#    z 0.000000 0.000000 3.763420 
# 
# 
# High freq. dielectric constant tensor:
#      x y z
#    x 1.687510 0.000000 0.000000 
#    y 0.000000 1.626080 0.000000 
#    z 0.000000 0.000000 1.699690 
# 
# From -- ./inp_files/3455.got.cif
#   From: 2010.03.12/outbox.cif.g09.slc.cpg/sg31_2_cif.got.tgz:3455.got - 2010.04.14 01:42:59.
