data_PCOD8169647
_publ_section_title
;
Structure prediction by ZEFSAII (Michael W. Deem and Ramdas Pophale) SiO2 
 PCOD8169647
Probable space group: P N C 2
;
_chemical_formula_sum "Si O2"
_cell_formula_units_Z 12
_cell_length_a 4.931672
_cell_length_b 5.451495
_cell_length_c 17.639302
_cell_angle_alpha 90.000000
_cell_angle_beta 90.000000
_cell_angle_gamma 90.000000
_cell_volume 474.232374
_symmetry_space_group_name_H-M "P N C 2"
_symmetry_group_IT_number 30
_symmetry_cell_setting 'orthorhombic'
loop_
_space_group_symop_operation_xyz
x,y,z
-x,-y,z
-x,1/2+y,1/2+z
x,1/2-y,1/2+z
loop_
_atom_site_type_symbol
_atom_site_label
_atom_site_fract_x
_atom_site_fract_y
_atom_site_fract_z
Si Si1 0.000000 0.000000 0.157761
Si Si2 0.165116 0.243084 0.871289
Si Si3 0.500000 0.000000 0.257472
Si Si4 0.752994 0.659832 0.032623
O O1 0.245077 0.893204 0.208539
O O2 0.154798 0.191035 0.105111
O O3 0.405531 0.271347 0.809736
O O4 0.000000 0.500000 0.866001
O O5 0.305111 0.192670 0.954471
O O6 0.000000 0.000000 0.849344
O O7 0.500000 0.500000 0.059565
O O8 0.000000 0.500000 0.004755
#
# Coordination Sequence:
#
# PCOD8169647 Si02
#       4
#     2   4   2   4
#     4  12  26  50  74 118 168 214 274 350 420 484
#     4  11  25  51  82 117 159 215 278 338 409 501
#     4  12  26  50  74 124 162 222 268 352 418 488
#     4  11  24  47  78 114 154 215 276 337 407 501
#
# _framework density 25.304054000000001
#
# number of rings (size 3 to 8) (size 9 to 14) (size 15 to 20)
#    0.000    0.667    5.000    2.000    0.000    2.667 
#   12.000    0.000    0.000    0.000    0.000    0.000 
#    0.000    0.000    0.000    0.000    0.000    0.000 
#
# Total GULP energy -148666.002939 kJ/mol
# GULP energy per Si atom -12388.833578 kJ/mol
# Density = 2.524646 g / cm^3
# Si number density = 25.304054 Si / 1000 Ang^3
#
#
#
# Elastic Constant Matrix: (Units=GPa)
#
#
# Indices 1 2 3 4 5 6 
#
# 1 200.4584 77.4429 100.8417 0.0000 0.0000 0.0000
# 2 77.4429 145.4710 65.4922 0.0000 0.0000 0.0000
# 3 100.8417 65.4922 224.5631 0.0000 0.0000 0.0000
# 4 0.0000 0.0000 0.0000 72.4672 0.0000 0.0000
# 5 0.0000 0.0000 0.0000 0.0000 5105.0749 0.0000
# 6 0.0000 0.0000 0.0000 0.0000 0.0000 58.2387
#
#
#
# Elastic Compliance Matrix: (Units=1/GPa)
#
#
# Indices 1 2 3 4 5 6 
#
# 1 0.007304 -0.002776 -0.002470 0.000000 0.000000 0.000000
# 2 -0.002776 0.008968 -0.001369 0.000000 0.000000 0.000000
# 3 -0.002470 -0.001369 0.005962 0.000000 0.000000 0.000000
# 4 0.000000 0.000000 0.000000 0.013799 0.000000 0.000000
# 5 0.000000 0.000000 0.000000 0.000000 0.000196 0.000000
# 6 0.000000 0.000000 0.000000 0.000000 0.000000 0.017171
#
#
# Mechanical properties :
#
#
# Convention : Reuss Voigt Hill
#
# Bulk Modulus (GPa) = 111.07058 117.56069 114.31564
# Shear Modulus (GPa) = 71.80702 1068.93720 570.37211
#
# Velocity S-wave (km/s) = 5.33285 20.57557 15.02986
# Velocity P-wave (km/s) = 9.05034 24.71907 18.61372
#
# Compressibility (1/GPa) = 0.00900328
#
# Stress axis : x y z
#
# Youngs Moduli (GPa) = 136.91739 111.50239 167.74119
#
# Poissons Ratio (x) = 0.30954 0.41434
# Poissons Ratio (y) = 0.38010 0.22963
# Poissons Ratio (z) = 0.33820 0.15264
#
# Static dielectric constant tensor:
#      x y z
#    x -1.260990 0.000000 0.000000 
#    y 0.000000 3.297400 0.000000 
#    z 0.000000 0.000000 5.194870 
# 
# 
# High freq. dielectric constant tensor:
#      x y z
#    x 2.025360 0.000000 0.000000 
#    y 0.000000 1.974890 0.000000 
#    z 0.000000 0.000000 2.044590 
# 
# From -- ./inp_files/5714.got.cif
#   From: 2010.03.12/outbox.cif.g09.slc.cpg/sg30_3_cif.got.tgz:5714.got - 2010.04.14 01:38:02.
