data_PCOD8169534
_publ_section_title
;
Structure prediction by ZEFSAII (Michael W. Deem and Ramdas Pophale) SiO2 
 PCOD8169534
Probable space group: P N C 2
;
_chemical_formula_sum "Si O2"
_cell_formula_units_Z 32
_cell_length_a 8.652560
_cell_length_b 15.528733
_cell_length_c 11.773372
_cell_angle_alpha 90.000000
_cell_angle_beta 90.000000
_cell_angle_gamma 90.000000
_cell_volume 1581.909043
_symmetry_space_group_name_H-M "P N C 2"
_symmetry_group_IT_number 30
_symmetry_cell_setting 'orthorhombic'
loop_
_space_group_symop_operation_xyz
x,y,z
-x,-y,z
-x,1/2+y,1/2+z
x,1/2-y,1/2+z
loop_
_atom_site_type_symbol
_atom_site_label
_atom_site_fract_x
_atom_site_fract_y
_atom_site_fract_z
Si Si1 0.244382 0.873235 0.290470
Si Si2 0.896441 0.653062 0.844472
Si Si3 0.435919 0.729253 0.631774
Si Si4 0.622643 0.100793 0.521649
Si Si5 0.737031 0.927066 0.564968
Si Si6 0.579559 0.589639 0.474315
Si Si7 0.833753 0.528329 0.639863
Si Si8 0.288768 0.188492 0.764484
O O1 0.319376 0.790090 0.233848
O O2 0.358656 0.906847 0.386999
O O3 0.081618 0.848118 0.347313
O O4 0.244570 0.944639 0.192754
O O5 0.841958 0.598263 0.738342
O O6 0.834698 0.750375 0.828147
O O7 0.835324 0.610610 0.960499
O O8 0.342351 0.803290 0.564835
O O9 0.466202 0.647990 0.550099
O O10 0.599811 0.756215 0.684006
O O11 0.444139 0.086260 0.547004
O O12 0.744514 0.031535 0.576405
O O13 0.794821 0.880866 0.680925
O O14 0.500000 0.500000 0.442870
O O15 0.739527 0.569435 0.537419
O O16 0.612212 0.638868 0.357972
O O17 0.000000 0.500000 0.591594
#
# Coordination Sequence:
#
# PCOD8169534 Si02
#       8
#     4   4   4   4   4   4   4   4
#     4  11  22  39  62  93 125 159 213 266 314 374
#     4  11  22  40  65  90 120 165 213 262 313 381
#     4  11  22  40  62  96 127 166 210 265 317 383
#     4  10  22  38  61  93 121 162 209 257 313 376
#     4  10  22  40  66  88 125 162 207 267 315 375
#     4  12  24  40  67  96 131 170 209 271 327 385
#     4  10  22  41  63  89 124 163 212 258 311 382
#     4  11  24  41  63  94 127 166 213 259 327 389
#
# _framework density 20.228725000000001
#
# number of rings (size 3 to 8) (size 9 to 14) (size 15 to 20)
#    0.000    1.250    3.750    3.000    3.500    1.000 
#    2.250    0.000    2.750    0.000    0.000    0.000 
#    0.000    0.000    0.000    0.000    0.000    0.000 
#
# Total GULP energy -396715.739804 kJ/mol
# GULP energy per Si atom -12397.366869 kJ/mol
# Density = 2.018268 g / cm^3
# Si number density = 20.228725 Si / 1000 Ang^3
#
#
#
# Elastic Constant Matrix: (Units=GPa)
#
#
# Indices 1 2 3 4 5 6 
#
# 1 35.5715 28.8886 24.6273 0.0000 0.0000 0.0000
# 2 28.8886 123.7940 27.1580 0.0000 0.0000 0.0000
# 3 24.6273 27.1580 65.5522 0.0000 0.0000 0.0000
# 4 0.0000 0.0000 0.0000 109.1208 0.0000 0.0000
# 5 0.0000 0.0000 0.0000 0.0000 32.4676 0.0000
# 6 0.0000 0.0000 0.0000 0.0000 0.0000 18.9322
#
#
#
# Elastic Compliance Matrix: (Units=1/GPa)
#
#
# Indices 1 2 3 4 5 6 
#
# 1 0.043072 -0.007151 -0.013219 0.000000 0.000000 0.000000
# 2 -0.007151 0.010073 -0.001486 0.000000 0.000000 0.000000
# 3 -0.013219 -0.001486 0.020837 0.000000 0.000000 0.000000
# 4 0.000000 0.000000 0.000000 0.009164 0.000000 0.000000
# 5 0.000000 0.000000 0.000000 0.000000 0.030800 0.000000
# 6 0.000000 0.000000 0.000000 0.000000 0.000000 0.052820
#
#
# Mechanical properties :
#
#
# Convention : Reuss Voigt Hill
#
# Bulk Modulus (GPa) = 33.03765 42.91838 37.97802
# Shear Modulus (GPa) = 22.66862 41.72038 32.19450
#
# Velocity S-wave (km/s) = 3.35119 4.54633 3.99372
# Velocity P-wave (km/s) = 5.59835 6.98723 6.33099
#
# Compressibility (1/GPa) = 0.03026849
#
# Stress axis : x y z
#
# Youngs Moduli (GPa) = 23.21690 99.27656 47.99128
#
# Poissons Ratio (x) = 0.70996 0.63440
# Poissons Ratio (y) = 0.16603 0.07134
# Poissons Ratio (z) = 0.30690 0.14757
#
# Static dielectric constant tensor:
#      x y z
#    x 2.921140 0.000000 0.000000 
#    y 0.000000 4.270020 0.000000 
#    z 0.000000 0.000000 3.631830 
# 
# 
# High freq. dielectric constant tensor:
#      x y z
#    x 1.773110 0.000000 0.000000 
#    y 0.000000 1.807080 0.000000 
#    z 0.000000 0.000000 1.788420 
# 
# From -- ./inp_files/3772.got.cif
#   From: 2010.03.12/outbox.cif.g09.slc.cpg/sg30_2_cif.got.tgz:3772.got - 2010.04.14 01:38:02.
