data_PCOD8169608
_publ_section_title
;
Structure prediction by ZEFSAII (Michael W. Deem and Ramdas Pophale) SiO2 
 PCOD8169608
Probable space group: P N C 2
;
_chemical_formula_sum "Si O2"
_cell_formula_units_Z 28
_cell_length_a 13.797440
_cell_length_b 7.471771
_cell_length_c 12.362276
_cell_angle_alpha 90.000000
_cell_angle_beta 90.000000
_cell_angle_gamma 90.000000
_cell_volume 1274.443253
_symmetry_space_group_name_H-M "P N C 2"
_symmetry_group_IT_number 30
_symmetry_cell_setting 'orthorhombic'
loop_
_space_group_symop_operation_xyz
x,y,z
-x,-y,z
-x,1/2+y,1/2+z
x,1/2-y,1/2+z
loop_
_atom_site_type_symbol
_atom_site_label
_atom_site_fract_x
_atom_site_fract_y
_atom_site_fract_z
Si Si1 0.122860 0.289710 0.824190
Si Si2 0.233662 0.546399 0.683245
Si Si3 0.535162 0.800508 0.964829
Si Si4 0.377140 0.789710 0.795395
Si Si5 0.266338 0.046398 0.936341
Si Si6 0.000000 0.000000 0.482873
Si Si7 0.035162 0.800507 0.154756
Si Si8 0.500000 0.500000 0.136713
O O1 0.206646 0.366337 0.746874
O O2 0.166530 0.122575 0.888376
O O3 0.031471 0.224846 0.752118
O O4 0.090206 0.444140 0.907723
O O5 0.333470 0.622574 0.731210
O O6 0.250000 0.500002 0.559792
O O7 0.146292 0.690175 0.694176
O O8 0.468529 0.724846 0.867468
O O9 0.646291 0.809826 0.925409
O O10 0.500000 0.000000 0.998618
O O11 0.530884 0.670201 0.066649
O O12 0.409794 0.944140 0.711862
O O13 0.293353 0.866337 0.872710
O O14 0.030883 0.829799 0.552937
O O15 0.000000 0.000000 0.120968
#
# Coordination Sequence:
#
# PCOD8169608 Si02
#       8
#     4   4   4   4   4   2   4   2
#     4  11  24  46  68 107 137 182 233 285 357 418
#     4  11  25  44  72 104 139 181 237 291 344 424
#     4  10  24  47  66 106 142 179 233 286 347 412
#     4  11  24  46  68 107 137 182 233 285 357 418
#     4  11  25  44  72 104 139 181 237 291 344 424
#     4  12  24  46  74  94 144 182 226 286 352 414
#     4  10  24  47  66 106 142 179 233 286 347 412
#     4  12  24  46  74  94 144 182 226 286 352 414
#
# _framework density 21.970376000000002
#
# number of rings (size 3 to 8) (size 9 to 14) (size 15 to 20)
#    0.000    1.143    4.286    3.429    8.000    1.143 
#    2.571    0.000    0.000    0.000    0.000    0.000 
#    0.000    0.000    0.000    0.000    0.000    0.000 
#
# Total GULP energy -347277.963946 kJ/mol
# GULP energy per Si atom -12402.784427 kJ/mol
# Density = 2.192037 g / cm^3
# Si number density = 21.970376 Si / 1000 Ang^3
#
#
#
# Elastic Constant Matrix: (Units=GPa)
#
#
# Indices 1 2 3 4 5 6 
#
# 1 115.7865 18.2072 50.7177 0.0000 0.0000 0.0000
# 2 18.2072 38.4488 34.5575 0.0000 0.0000 0.0000
# 3 50.7177 34.5575 148.2765 0.0000 0.0000 0.0000
# 4 0.0000 0.0000 0.0000 43.9822 0.0000 0.0000
# 5 0.0000 0.0000 0.0000 0.0000 42.6367 0.0000
# 6 0.0000 0.0000 0.0000 0.0000 0.0000 34.7357
#
#
#
# Elastic Compliance Matrix: (Units=1/GPa)
#
#
# Indices 1 2 3 4 5 6 
#
# 1 0.010299 -0.002164 -0.003018 0.000000 0.000000 0.000000
# 2 -0.002164 0.033355 -0.007034 0.000000 0.000000 0.000000
# 3 -0.003018 -0.007034 0.009416 0.000000 0.000000 0.000000
# 4 0.000000 0.000000 0.000000 0.022736 0.000000 0.000000
# 5 0.000000 0.000000 0.000000 0.000000 0.023454 0.000000
# 6 0.000000 0.000000 0.000000 0.000000 0.000000 0.028789
#
#
# Mechanical properties :
#
#
# Convention : Reuss Voigt Hill
#
# Bulk Modulus (GPa) = 34.91879 56.60850 45.76364
# Shear Modulus (GPa) = 30.85899 37.53957 34.19928
#
# Velocity S-wave (km/s) = 3.75183 4.13806 3.94967
# Velocity P-wave (km/s) = 5.89036 6.97518 6.45560
#
# Compressibility (1/GPa) = 0.02863788
#
# Stress axis : x y z
#
# Youngs Moduli (GPa) = 97.09660 29.98036 106.20404
#
# Poissons Ratio (x) = 0.06488 0.32056
# Poissons Ratio (y) = 0.21013 0.74699
# Poissons Ratio (z) = 0.29307 0.21087
#
# Static dielectric constant tensor:
#      x y z
#    x 4.628870 0.000000 0.000000 
#    y 0.000000 4.004740 0.000000 
#    z 0.000000 0.000000 4.146310 
# 
# 
# High freq. dielectric constant tensor:
#      x y z
#    x 1.869350 0.000000 0.000000 
#    y 0.000000 1.845280 0.000000 
#    z 0.000000 0.000000 1.880760 
# 
# From -- ./inp_files/4348.got.cif
#   From: 2010.03.12/outbox.cif.g09.slc.cpg/sg30_3_cif.got.tgz:4348.got - 2010.04.14 01:38:02.
