data_PCOD8169061
_publ_section_title
;
Structure prediction by ZEFSAII (Michael W. Deem and Ramdas Pophale) SiO2 
 PCOD8169061
Probable space group: P C A 21
;
_chemical_formula_sum "Si O2"
_cell_formula_units_Z 32
_cell_length_a 13.584567
_cell_length_b 11.234670
_cell_length_c 9.318300
_cell_angle_alpha 90.000000
_cell_angle_beta 90.000000
_cell_angle_gamma 90.000000
_cell_volume 1422.141496
_symmetry_space_group_name_H-M "P C A 21"
_symmetry_group_IT_number 29
_symmetry_cell_setting 'orthorhombic'
loop_
_space_group_symop_operation_xyz
x,y,z
-x,-y,1/2+z
1/2-x,y,1/2+z
1/2+x,-y,z
loop_
_atom_site_type_symbol
_atom_site_label
_atom_site_fract_x
_atom_site_fract_y
_atom_site_fract_z
Si Si1 0.043536 0.263925 0.494430
Si Si2 0.000952 0.385180 0.208361
Si Si3 0.715349 0.932339 0.167599
Si Si4 0.046412 0.178718 0.994603
Si Si5 0.174598 0.289373 0.753655
Si Si6 0.127167 0.606275 0.113381
Si Si7 0.291125 0.551329 0.314508
Si Si8 0.879976 0.992341 0.947015
O O1 0.044592 0.357782 0.364900
O O2 0.134574 0.302191 0.592717
O O3 0.055108 0.128302 0.441493
O O4 0.940252 0.277660 0.582798
O O5 0.055426 0.494225 0.133621
O O6 0.886655 0.416469 0.222080
O O7 0.011473 0.268563 0.114619
O O8 0.740605 0.809285 0.249568
O O9 0.679087 0.014699 0.298528
O O10 0.630779 0.909731 0.051281
O O11 0.808643 0.990655 0.086553
O O12 0.085623 0.251671 0.857988
O O13 0.952223 0.102810 0.952970
O O14 0.227080 0.409792 0.803065
O O15 0.196616 0.622346 0.252147
O O16 0.199694 0.585011 0.979947
#
# Coordination Sequence:
#
# PCOD8169061 Si02
#       8
#     4   4   4   4   4   4   4   4
#     4  10  24  42  68  95 140 179 228 286 348 413
#     4  11  23  46  66 101 136 177 233 286 349 419
#     4  11  24  44  69 108 130 181 243 285 339 414
#     4  12  25  45  71 102 143 184 232 291 359 418
#     4  11  23  41  67 104 132 180 234 283 343 415
#     4  11  24  42  66 101 136 181 228 287 348 421
#     4  11  25  38  67  99 137 181 226 285 353 411
#     4  11  26  46  74 102 142 185 234 293 349 423
#
# _framework density 22.501277999999999
#
# number of rings (size 3 to 8) (size 9 to 14) (size 15 to 20)
#    0.000    1.000    5.000    0.750    5.250    1.000 
#    2.250    1.250    0.000    0.000    0.000    0.000 
#    0.000    0.000    0.000    0.000    0.000    0.000 
#
# Total GULP energy -396931.119785 kJ/mol
# GULP energy per Si atom -12404.097493 kJ/mol
# Density = 2.245006 g / cm^3
# Si number density = 22.501278 Si / 1000 Ang^3
#
#
#
# Elastic Constant Matrix: (Units=GPa)
#
#
# Indices 1 2 3 4 5 6 
#
# 1 94.6493 28.7124 32.3726 0.0000 0.0000 0.0000
# 2 28.7124 36.8688 22.5066 0.0000 0.0000 0.0000
# 3 32.3726 22.5066 92.1219 0.0000 0.0000 0.0000
# 4 0.0000 0.0000 0.0000 23.8153 0.0000 0.0000
# 5 0.0000 0.0000 0.0000 0.0000 33.9912 0.0000
# 6 0.0000 0.0000 0.0000 0.0000 0.0000 33.4990
#
#
#
# Elastic Compliance Matrix: (Units=1/GPa)
#
#
# Indices 1 2 3 4 5 6 
#
# 1 0.014393 -0.009545 -0.002726 0.000000 0.000000 0.000000
# 2 -0.009545 0.038207 -0.005980 0.000000 0.000000 0.000000
# 3 -0.002726 -0.005980 0.013274 0.000000 0.000000 0.000000
# 4 0.000000 0.000000 0.000000 0.041990 0.000000 0.000000
# 5 0.000000 0.000000 0.000000 0.000000 0.029419 0.000000
# 6 0.000000 0.000000 0.000000 0.000000 0.000000 0.029852
#
#
# Mechanical properties :
#
#
# Convention : Reuss Voigt Hill
#
# Bulk Modulus (GPa) = 34.04586 43.42481 38.73534
# Shear Modulus (GPa) = 23.42702 27.59765 25.51233
#
# Velocity S-wave (km/s) = 3.23017 3.50593 3.37087
# Velocity P-wave (km/s) = 5.39217 5.97741 5.69232
#
# Compressibility (1/GPa) = 0.02937214
#
# Stress axis : x y z
#
# Youngs Moduli (GPa) = 69.47738 26.17301 75.33416
#
# Poissons Ratio (x) = 0.24982 0.20536
# Poissons Ratio (y) = 0.66316 0.45053
# Poissons Ratio (z) = 0.18939 0.15652
#
# Static dielectric constant tensor:
#      x y z
#    x 4.122210 0.000000 0.000000 
#    y 0.000000 3.840320 0.000000 
#    z 0.000000 0.000000 4.203460 
# 
# 
# High freq. dielectric constant tensor:
#      x y z
#    x 1.893900 0.000000 0.000000 
#    y 0.000000 1.862980 0.000000 
#    z 0.000000 0.000000 1.903770 
# 
# From -- ./inp_files/1859.got.cif
#   From: 2010.03.12/outbox.cif.g09.slc.cpg/sg29_1_cif.got.tgz:1859.got - 2010.04.14 03:43:10.
