data_PCOD8169363
_publ_section_title
;
Structure prediction by ZEFSAII (Michael W. Deem and Ramdas Pophale) SiO2 
 PCOD8169363
Probable space group: P N C 2
;
_chemical_formula_sum "Si O2"
_cell_formula_units_Z 32
_cell_length_a 10.268052
_cell_length_b 32.386914
_cell_length_c 5.178012
_cell_angle_alpha 90.000000
_cell_angle_beta 90.000000
_cell_angle_gamma 90.000000
_cell_volume 1721.950568
_symmetry_space_group_name_H-M "P N C 2"
_symmetry_group_IT_number 30
_symmetry_cell_setting 'orthorhombic'
loop_
_space_group_symop_operation_xyz
x,y,z
-x,-y,z
-x,1/2+y,1/2+z
x,1/2-y,1/2+z
loop_
_atom_site_type_symbol
_atom_site_label
_atom_site_fract_x
_atom_site_fract_y
_atom_site_fract_z
Si Si1 0.213735 0.936055 0.536340
Si Si2 0.140251 0.362732 0.529225
Si Si3 0.196740 0.230711 0.053118
Si Si4 0.491991 0.048651 0.528033
Si Si5 0.908608 0.266818 0.023779
Si Si6 0.145249 0.514270 0.538452
Si Si7 0.667414 0.936424 0.031983
Si Si8 0.029547 0.861061 0.523047
O O1 0.367105 0.931065 0.492662
O O2 0.151968 0.966110 0.322287
O O3 0.152712 0.890911 0.509074
O O4 0.186399 0.953205 0.821290
O O5 0.208412 0.318282 0.534631
O O6 0.252173 0.395437 0.473500
O O7 0.035039 0.364791 0.302388
O O8 0.072943 0.373302 0.801456
O O9 0.267573 0.247503 0.310868
O O10 0.047260 0.244957 0.082166
O O11 0.398160 0.067889 0.311848
O O12 0.500000 0.000000 0.482071
O O13 0.441640 0.058836 0.813245
O O14 0.832566 0.256000 0.289477
O O15 0.919662 0.315140 0.971776
O O16 0.239332 0.475517 0.521646
O O17 0.000000 0.500000 0.480658
#
# Coordination Sequence:
#
# PCOD8169363 Si02
#       8
#     4   4   4   4   4   4   4   4
#     4  12  25  38  60  82 109 161 189 240 278 325
#     4  12  22  35  56  90 126 142 181 236 298 348
#     4  10  16  31  52  79 117 150 179 210 274 365
#     4  12  23  45  63  76 106 157 223 235 268 330
#     4  10  16  30  52  79 114 150 181 209 269 360
#     4  12  23  40  57  85 120 146 182 225 309 356
#     4  12  24  39  62  85 108 156 195 249 279 328
#     4  12  21  35  54  89 126 142 181 232 294 352
#
# _framework density 18.583579
#
# number of rings (size 3 to 8) (size 9 to 14) (size 15 to 20)
#    0.000    0.500    7.500    4.500    0.000    0.000 
#    0.000    0.000    0.000    0.000    0.000    5.250 
#    0.000    0.000    0.000    0.000    0.000    0.000 
#
# Total GULP energy -396865.465997 kJ/mol
# GULP energy per Si atom -12402.045812 kJ/mol
# Density = 1.854128 g / cm^3
# Si number density = 18.583579 Si / 1000 Ang^3
#
#
#
# Elastic Constant Matrix: (Units=GPa)
#
#
# Indices 1 2 3 4 5 6 
#
# 1 63.4166 29.2569 12.9376 0.0000 0.0000 0.0000
# 2 29.2569 111.5890 16.6786 0.0000 0.0000 0.0000
# 3 12.9376 16.6786 109.5739 0.0000 0.0000 0.0000
# 4 0.0000 0.0000 0.0000 27.8606 0.0000 0.0000
# 5 0.0000 0.0000 0.0000 0.0000 24.0286 0.0000
# 6 0.0000 0.0000 0.0000 0.0000 0.0000 1.4612
#
#
#
# Elastic Compliance Matrix: (Units=1/GPa)
#
#
# Indices 1 2 3 4 5 6 
#
# 1 0.018162 -0.004545 -0.001453 0.000000 0.000000 0.000000
# 2 -0.004545 0.010307 -0.001032 0.000000 0.000000 0.000000
# 3 -0.001453 -0.001032 0.009455 0.000000 0.000000 0.000000
# 4 0.000000 0.000000 0.000000 0.035893 0.000000 0.000000
# 5 0.000000 0.000000 0.000000 0.000000 0.041617 0.000000
# 6 0.000000 0.000000 0.000000 0.000000 0.000000 0.684369
#
#
# Mechanical properties :
#
#
# Convention : Reuss Voigt Hill
#
# Bulk Modulus (GPa) = 41.90276 44.70287 43.30282
# Shear Modulus (GPa) = 6.08408 25.71718 15.90063
#
# Velocity S-wave (km/s) = 1.81136 3.72407 2.92829
# Velocity P-wave (km/s) = 5.19345 6.52678 5.89791
#
# Compressibility (1/GPa) = 0.02386478
#
# Stress axis : x y z
#
# Youngs Moduli (GPa) = 55.06088 97.01884 105.76518
#
# Poissons Ratio (x) = 0.44091 0.15364
# Poissons Ratio (y) = 0.25023 0.10918
# Poissons Ratio (z) = 0.07998 0.10015
#
# Static dielectric constant tensor:
#      x y z
#    x 3.118770 0.000000 0.000000 
#    y 0.000000 3.462880 0.000000 
#    z 0.000000 0.000000 4.386590 
# 
# 
# High freq. dielectric constant tensor:
#      x y z
#    x 1.674230 0.000000 0.000000 
#    y 0.000000 1.725690 0.000000 
#    z 0.000000 0.000000 1.757410 
# 
# From -- ./inp_files/579.got.cif
#   From: 2010.03.12/outbox.cif.g09.slc.cpg/sg30_1_cif.got.tgz:579.got - 2010.04.14 01:38:02.
