data_PCOD8169174
_publ_section_title
;
Structure prediction by ZEFSAII (Michael W. Deem and Ramdas Pophale) SiO2 
 PCOD8169174
Probable space group: P C A 21
;
_chemical_formula_sum "Si O2"
_cell_formula_units_Z 32
_cell_length_a 18.081053
_cell_length_b 9.697953
_cell_length_c 8.613301
_cell_angle_alpha 90.000000
_cell_angle_beta 90.000000
_cell_angle_gamma 90.000000
_cell_volume 1510.335459
_symmetry_space_group_name_H-M "P C A 21"
_symmetry_group_IT_number 29
_symmetry_cell_setting 'orthorhombic'
loop_
_space_group_symop_operation_xyz
x,y,z
-x,-y,1/2+z
1/2-x,y,1/2+z
1/2+x,-y,z
loop_
_atom_site_type_symbol
_atom_site_label
_atom_site_fract_x
_atom_site_fract_y
_atom_site_fract_z
Si Si1 0.048016 0.649911 0.941140
Si Si2 0.683365 0.387614 0.742951
Si Si3 0.575272 0.530190 0.229982
Si Si4 0.668248 0.703671 0.670501
Si Si5 0.592912 0.024818 0.357591
Si Si6 0.680635 0.756937 0.309004
Si Si7 0.469375 0.123261 0.135980
Si Si8 0.664295 0.310185 0.395986
O O1 0.127898 0.680374 0.867021
O O2 0.992434 0.612818 0.803529
O O3 0.051984 0.524440 0.062217
O O4 0.022084 0.789293 0.023041
O O5 0.663766 0.548049 0.729070
O O6 0.676131 0.313079 0.579006
O O7 0.765521 0.367026 0.804079
O O8 0.643734 0.635484 0.206935
O O9 0.595391 0.404079 0.344196
O O10 0.678419 0.706348 0.486007
O O11 0.735796 0.781912 0.753456
O O12 0.591665 0.778080 0.717039
O O13 0.516707 0.049120 0.267050
O O14 0.647395 0.154297 0.347256
O O15 0.636377 0.897580 0.281619
O O16 0.572468 0.993400 0.536056
#
# Coordination Sequence:
#
# PCOD8169174 Si02
#       8
#     4   4   4   4   4   4   4   4
#     4  12  25  43  71 103 142 177 236 297 354 415
#     4  12  25  43  72 106 141 184 235 299 354 416
#     4  12  22  44  69 103 136 182 237 297 342 417
#     4  11  22  46  69 102 136 183 232 287 345 419
#     4  11  27  47  70 102 146 186 236 292 351 432
#     4  11  25  44  69 100 140 179 236 285 346 427
#     4  11  25  48  66 102 143 185 236 285 354 430
#     4  12  25  43  70 104 144 184 236 288 356 414
#
# _framework density 21.187345000000001
#
# number of rings (size 3 to 8) (size 9 to 14) (size 15 to 20)
#    0.000    0.500    6.250    2.250    3.500    4.000 
#    0.000    0.000    0.000    0.000    0.000    0.000 
#    0.000    0.000    0.000    0.000    0.000    0.000 
#
# Total GULP energy -397040.600879 kJ/mol
# GULP energy per Si atom -12407.518777 kJ/mol
# Density = 2.113912 g / cm^3
# Si number density = 21.187345 Si / 1000 Ang^3
#
#
#
# Elastic Constant Matrix: (Units=GPa)
#
#
# Indices 1 2 3 4 5 6 
#
# 1 102.1197 35.7428 23.7127 0.0000 0.0000 0.0000
# 2 35.7428 115.3106 14.9208 0.0000 0.0000 0.0000
# 3 23.7127 14.9208 59.7067 0.0000 0.0000 0.0000
# 4 0.0000 0.0000 0.0000 27.2809 0.0000 0.0000
# 5 0.0000 0.0000 0.0000 0.0000 47.1944 0.0000
# 6 0.0000 0.0000 0.0000 0.0000 0.0000 36.5460
#
#
#
# Elastic Compliance Matrix: (Units=1/GPa)
#
#
# Indices 1 2 3 4 5 6 
#
# 1 0.011802 -0.003154 -0.003899 0.000000 0.000000 0.000000
# 2 -0.003154 0.009805 -0.001198 0.000000 0.000000 0.000000
# 3 -0.003899 -0.001198 0.018596 0.000000 0.000000 0.000000
# 4 0.000000 0.000000 0.000000 0.036656 0.000000 0.000000
# 5 0.000000 0.000000 0.000000 0.000000 0.021189 0.000000
# 6 0.000000 0.000000 0.000000 0.000000 0.000000 0.027363
#
#
# Mechanical properties :
#
#
# Convention : Reuss Voigt Hill
#
# Bulk Modulus (GPa) = 42.19048 47.32106 44.75577
# Shear Modulus (GPa) = 33.37530 35.72163 34.54846
#
# Velocity S-wave (km/s) = 3.97324 4.11053 4.04247
# Velocity P-wave (km/s) = 6.40353 6.70162 6.55427
#
# Compressibility (1/GPa) = 0.02370203
#
# Stress axis : x y z
#
# Youngs Moduli (GPa) = 84.73440 101.99147 53.77407
#
# Poissons Ratio (x) = 0.32164 0.20966
# Poissons Ratio (y) = 0.26722 0.06441
# Poissons Ratio (z) = 0.33037 0.12216
#
# Static dielectric constant tensor:
#      x y z
#    x 4.071520 0.000000 0.000000 
#    y 0.000000 3.843760 0.000000 
#    z 0.000000 0.000000 3.818130 
# 
# 
# High freq. dielectric constant tensor:
#      x y z
#    x 1.845360 0.000000 0.000000 
#    y 0.000000 1.830800 0.000000 
#    z 0.000000 0.000000 1.827730 
# 
# From -- ./inp_files/2315.got.cif
#   From: 2010.03.12/outbox.cif.g09.slc.cpg/sg29_2_cif.got.tgz:2315.got - 2010.04.14 03:43:10.
