data_PCOD8169821
_publ_section_title
;
Structure prediction by ZEFSAII (Michael W. Deem and Ramdas Pophale) SiO2 
 PCOD8169821
Probable space group: P M N 21
;
_chemical_formula_sum "Si O2"
_cell_formula_units_Z 32
_cell_length_a 8.861711
_cell_length_b 12.312545
_cell_length_c 14.656594
_cell_angle_alpha 90.000000
_cell_angle_beta 90.000000
_cell_angle_gamma 90.000000
_cell_volume 1599.184129
_symmetry_space_group_name_H-M "P M N 21"
_symmetry_group_IT_number 31
_symmetry_cell_setting 'orthorhombic'
loop_
_space_group_symop_operation_xyz
x,y,z
1/2-x,-y,1/2+z
-x,y,z
1/2+x,-y,1/2+z
loop_
_atom_site_type_symbol
_atom_site_label
_atom_site_fract_x
_atom_site_fract_y
_atom_site_fract_z
Si Si1 0.677573 0.614355 0.805400
Si Si2 0.820695 0.670392 0.621849
Si Si3 0.334340 0.054974 0.911595
Si Si4 0.178866 0.589793 0.424206
Si Si5 0.326459 0.813816 0.922200
Si Si6 0.323734 0.895934 0.586307
Si Si7 0.320497 0.140315 0.606721
Si Si8 0.168098 0.756952 0.281753
O O1 0.500000 0.607720 0.786406
O O2 0.760102 0.599669 0.707763
O O3 0.725736 0.526386 0.882545
O O4 0.730235 0.729020 0.846958
O O5 0.760929 0.613585 0.527225
O O6 0.761578 0.794287 0.632130
O O7 0.000000 0.671382 0.624495
O O8 0.500000 0.060697 0.960244
O O9 0.337973 0.121647 0.819689
O O10 0.299636 0.932595 0.880115
O O11 0.209070 0.105514 0.978137
O O12 0.251540 0.676549 0.352382
O O13 0.000000 0.605536 0.428435
O O14 0.500000 0.789974 0.946634
O O15 0.230771 0.804158 0.013781
O O16 0.500000 0.880445 0.605666
O O17 0.263482 0.015080 0.619160
O O18 0.500000 0.137964 0.611207
O O19 0.252864 0.222149 0.683991
O O20 0.000000 0.709607 0.266292
#
# Coordination Sequence:
#
# PCOD8169821 Si02
#       8
#     4   4   4   4   4   4   4   4
#     4  10  22  39  59  83 109 145 189 231 278 331
#     4  11  22  38  59  83 110 146 187 230 277 333
#     4   9  16  30  53  76 105 145 184 218 267 334
#     4   9  19  37  59  80 107 144 187 227 270 328
#     4   9  19  34  53  77 111 147 178 221 279 333
#     4  10  19  32  52  81 115 144 180 231 280 323
#     4   9  19  32  53  82 114 149 187 229 274 328
#     4   9  16  30  54  80 105 144 188 223 269 330
#
# _framework density 20.010203000000001
#
# number of rings (size 3 to 8) (size 9 to 14) (size 15 to 20)
#    0.000    2.500    1.250    0.750    1.750    2.000 
#    0.000    1.875    0.000    0.000    0.000    0.000 
#    0.000    0.000    0.000    0.000    0.000    0.000 
#
# Total GULP energy -396470.644769 kJ/mol
# GULP energy per Si atom -12389.707649 kJ/mol
# Density = 1.996466 g / cm^3
# Si number density = 20.010203 Si / 1000 Ang^3
#
#
#
# Elastic Constant Matrix: (Units=GPa)
#
#
# Indices 1 2 3 4 5 6 
#
# 1 36.2448 21.1106 24.6102 0.0000 0.0000 0.0000
# 2 21.1106 89.8052 51.1919 0.0000 0.0000 0.0000
# 3 24.6102 51.1919 111.0367 0.0000 0.0000 0.0000
# 4 0.0000 0.0000 0.0000 28.3662 0.0000 0.0000
# 5 0.0000 0.0000 0.0000 0.0000 28.5423 0.0000
# 6 0.0000 0.0000 0.0000 0.0000 0.0000 18.5562
#
#
#
# Elastic Compliance Matrix: (Units=1/GPa)
#
#
# Indices 1 2 3 4 5 6 
#
# 1 0.034072 -0.005025 -0.005235 0.000000 0.000000 0.000000
# 2 -0.005025 0.015846 -0.006192 0.000000 0.000000 0.000000
# 3 -0.005235 -0.006192 0.013021 0.000000 0.000000 0.000000
# 4 0.000000 0.000000 0.000000 0.035253 0.000000 0.000000
# 5 0.000000 0.000000 0.000000 0.000000 0.035036 0.000000
# 6 0.000000 0.000000 0.000000 0.000000 0.000000 0.053890
#
#
# Mechanical properties :
#
#
# Convention : Reuss Voigt Hill
#
# Bulk Modulus (GPa) = 33.29468 47.87912 40.58690
# Shear Modulus (GPa) = 21.73602 24.43789 23.08695
#
# Velocity S-wave (km/s) = 3.29940 3.49846 3.40039
# Velocity P-wave (km/s) = 5.58477 6.34809 5.97863
#
# Compressibility (1/GPa) = 0.03003483
#
# Stress axis : x y z
#
# Youngs Moduli (GPa) = 29.35002 63.10737 76.79951
#
# Poissons Ratio (x) = 0.31713 0.40203
# Poissons Ratio (y) = 0.14749 0.47553
# Poissons Ratio (z) = 0.15364 0.39075
#
# Static dielectric constant tensor:
#      x y z
#    x 3.336820 0.000000 0.000000 
#    y 0.000000 3.737860 0.000000 
#    z 0.000000 0.000000 3.730210 
# 
# 
# High freq. dielectric constant tensor:
#      x y z
#    x 1.738380 0.000000 0.000000 
#    y 0.000000 1.780840 0.000000 
#    z 0.000000 0.000000 1.783540 
# 
# From -- ./inp_files/4993.got.cif
#   From: 2010.03.12/outbox.cif.g09.slc.cpg/sg31_3_cif.got.tgz:4993.got - 2010.04.14 01:42:59.
