data_PCOD8169374
_publ_section_title
;
Structure prediction by ZEFSAII (Michael W. Deem and Ramdas Pophale) SiO2 
 PCOD8169374
Probable space group: P N C 2
;
_chemical_formula_sum "Si O2"
_cell_formula_units_Z 32
_cell_length_a 12.053834
_cell_length_b 14.449416
_cell_length_c 8.924816
_cell_angle_alpha 90.000000
_cell_angle_beta 90.000000
_cell_angle_gamma 90.000000
_cell_volume 1554.442895
_symmetry_space_group_name_H-M "P N C 2"
_symmetry_group_IT_number 30
_symmetry_cell_setting 'orthorhombic'
loop_
_space_group_symop_operation_xyz
x,y,z
-x,-y,z
-x,1/2+y,1/2+z
x,1/2-y,1/2+z
loop_
_atom_site_type_symbol
_atom_site_label
_atom_site_fract_x
_atom_site_fract_y
_atom_site_fract_z
Si Si1 0.551724 0.851441 0.169510
Si Si2 0.965670 0.670391 0.241394
Si Si3 0.214303 0.837623 0.844084
Si Si4 0.655702 0.708258 0.380766
Si Si5 0.143461 0.326642 0.925568
Si Si6 0.297066 0.830494 0.175061
Si Si7 0.753802 0.526209 0.725745
Si Si8 0.801834 0.545163 0.380154
O O1 0.584648 0.758465 0.255441
O O2 0.421580 0.869698 0.174262
O O3 0.626196 0.936457 0.231975
O O4 0.570145 0.835562 0.995167
O O5 0.908618 0.764117 0.295844
O O6 0.924164 0.576956 0.325622
O O7 0.093148 0.684649 0.282163
O O8 0.940505 0.661094 0.064067
O O9 0.296145 0.768142 0.757368
O O10 0.236693 0.946264 0.814172
O O11 0.234964 0.816482 0.017750
O O12 0.740974 0.776269 0.469969
O O13 0.721048 0.621893 0.306407
O O14 0.169861 0.425955 0.851233
O O15 0.236379 0.916262 0.259160
O O16 0.800752 0.548424 0.560117
#
# Coordination Sequence:
#
# PCOD8169374 Si02
#       8
#     4   4   4   4   4   4   4   4
#     4  10  18  34  58  84 112 150 188 231 288 344
#     4  11  20  36  59  84 113 149 187 231 286 341
#     4  11  24  39  55  79 116 157 193 234 283 343
#     4   9  17  32  58  87 110 138 187 241 287 337
#     4  10  19  34  60  89 114 142 186 242 287 337
#     4  11  23  39  55  80 118 156 193 235 283 345
#     4   9  20  37  60  85 111 145 192 240 288 340
#     4   9  19  37  59  82 110 145 190 242 288 337
#
# _framework density 20.586152999999999
#
# number of rings (size 3 to 8) (size 9 to 14) (size 15 to 20)
#    0.000    2.000    0.000    6.000    0.000    1.000 
#    0.000    5.000    0.000    0.000    0.000    0.000 
#    0.000    0.000    0.000    0.000    0.000    0.000 
#
# Total GULP energy -396561.948527 kJ/mol
# GULP energy per Si atom -12392.560891 kJ/mol
# Density = 2.053930 g / cm^3
# Si number density = 20.586153 Si / 1000 Ang^3
#
#
#
# Elastic Constant Matrix: (Units=GPa)
#
#
# Indices 1 2 3 4 5 6 
#
# 1 75.6972 20.0310 41.8386 0.0000 0.0000 0.0000
# 2 20.0310 110.1904 35.9657 0.0000 0.0000 0.0000
# 3 41.8386 35.9657 78.0875 0.0000 0.0000 0.0000
# 4 0.0000 0.0000 0.0000 30.3840 0.0000 0.0000
# 5 0.0000 0.0000 0.0000 0.0000 29.7583 0.0000
# 6 0.0000 0.0000 0.0000 0.0000 0.0000 19.7316
#
#
#
# Elastic Compliance Matrix: (Units=1/GPa)
#
#
# Indices 1 2 3 4 5 6 
#
# 1 0.018771 -0.000153 -0.009987 0.000000 0.000000 0.000000
# 2 -0.000153 0.010682 -0.004838 0.000000 0.000000 0.000000
# 3 -0.009987 -0.004838 0.020385 0.000000 0.000000 0.000000
# 4 0.000000 0.000000 0.000000 0.032912 0.000000 0.000000
# 5 0.000000 0.000000 0.000000 0.000000 0.033604 0.000000
# 6 0.000000 0.000000 0.000000 0.000000 0.000000 0.050680
#
#
# Mechanical properties :
#
#
# Convention : Reuss Voigt Hill
#
# Bulk Modulus (GPa) = 50.29456 51.07172 50.68314
# Shear Modulus (GPa) = 24.55580 27.05076 25.80328
#
# Velocity S-wave (km/s) = 3.45749 3.62888 3.54422
# Velocity P-wave (km/s) = 6.35793 6.51314 6.43600
#
# Compressibility (1/GPa) = 0.01988286
#
# Stress axis : x y z
#
# Youngs Moduli (GPa) = 53.27430 93.61439 49.05452
#
# Poissons Ratio (x) = 0.01428 0.48991
# Poissons Ratio (y) = 0.00813 0.23734
# Poissons Ratio (z) = 0.53205 0.45293
#
# Static dielectric constant tensor:
#      x y z
#    x 3.690830 0.000000 0.000000 
#    y 0.000000 3.869380 0.000000 
#    z 0.000000 0.000000 3.468460 
# 
# 
# High freq. dielectric constant tensor:
#      x y z
#    x 1.795400 0.000000 0.000000 
#    y 0.000000 1.816000 0.000000 
#    z 0.000000 0.000000 1.787720 
# 
# From -- ./inp_files/2478.got.cif
#   From: 2010.03.12/outbox.cif.g09.slc.cpg/sg30_2_cif.got.tgz:2478.got - 2010.04.14 01:38:02.
