data_PCOD8169540
_publ_section_title
;
Structure prediction by ZEFSAII (Michael W. Deem and Ramdas Pophale) SiO2 
 PCOD8169540
Probable space group: P N C 2
;
_chemical_formula_sum "Si O2"
_cell_formula_units_Z 28
_cell_length_a 12.580444
_cell_length_b 5.245874
_cell_length_c 19.918410
_cell_angle_alpha 90.000000
_cell_angle_beta 90.000000
_cell_angle_gamma 90.000000
_cell_volume 1314.523915
_symmetry_space_group_name_H-M "P N C 2"
_symmetry_group_IT_number 30
_symmetry_cell_setting 'orthorhombic'
loop_
_space_group_symop_operation_xyz
x,y,z
-x,-y,z
-x,1/2+y,1/2+z
x,1/2-y,1/2+z
loop_
_atom_site_type_symbol
_atom_site_label
_atom_site_fract_x
_atom_site_fract_y
_atom_site_fract_z
Si Si1 0.592616 0.338791 0.323200
Si Si2 0.910861 0.818950 0.424552
Si Si3 0.000000 0.500000 0.540892
Si Si4 0.194170 0.435241 0.309712
Si Si5 0.284235 0.068295 0.505868
Si Si6 0.775446 0.073790 0.085929
Si Si7 0.244465 0.922500 0.240732
Si Si8 0.500000 0.000000 0.435823
O O1 0.500000 0.500000 0.285793
O O2 0.688354 0.532815 0.341927
O O3 0.638498 0.116555 0.274414
O O4 0.544686 0.229665 0.391374
O O5 0.958725 0.725814 0.494278
O O6 0.888541 0.592192 0.371277
O O7 0.798365 0.956864 0.442604
O O8 0.000000 0.000000 0.391397
O O9 0.903771 0.397796 0.586536
O O10 0.168490 0.684720 0.264081
O O11 0.189564 0.182581 0.264176
O O12 0.258401 0.312537 0.550945
O O13 0.404255 0.104425 0.481116
O O14 0.277564 0.811377 0.548879
O O15 0.736306 0.073700 0.161937
#
# Coordination Sequence:
#
# PCOD8169540 Si02
#       8
#     4   4   2   4   4   4   4   2
#     4  10  22  39  69  97 133 181 223 280 355 401
#     4  11  22  41  69 101 140 169 232 279 357 406
#     4  10  24  40  70 100 130 192 212 284 348 404
#     4  10  24  40  68  99 131 179 216 293 337 403
#     4  11  26  42  70 102 134 184 228 280 343 402
#     4  11  24  48  69  97 141 183 233 278 332 426
#     4  10  23  45  67  94 139 179 229 279 337 407
#     4  12  26  44  68 106 142 178 230 294 350 416
#
# _framework density 21.300485999999999
#
# number of rings (size 3 to 8) (size 9 to 14) (size 15 to 20)
#    0.857    0.571    1.429    3.429    8.000    0.000 
#    2.571    1.429    0.000    0.000    0.000    0.000 
#    0.000    0.000    0.000    0.000    0.000    0.000 
#
# Total GULP energy -347105.574069 kJ/mol
# GULP energy per Si atom -12396.627645 kJ/mol
# Density = 2.125201 g / cm^3
# Si number density = 21.300486 Si / 1000 Ang^3
#
#
#
# Elastic Constant Matrix: (Units=GPa)
#
#
# Indices 1 2 3 4 5 6 
#
# 1 122.1862 23.3141 44.9375 0.0000 0.0000 0.0000
# 2 23.3141 118.9837 34.4864 0.0000 0.0000 0.0000
# 3 44.9375 34.4864 103.3366 0.0000 0.0000 0.0000
# 4 0.0000 0.0000 0.0000 22.5515 0.0000 0.0000
# 5 0.0000 0.0000 0.0000 0.0000 35.0082 0.0000
# 6 0.0000 0.0000 0.0000 0.0000 0.0000 24.5719
#
#
#
# Elastic Compliance Matrix: (Units=1/GPa)
#
#
# Indices 1 2 3 4 5 6 
#
# 1 0.009804 -0.000759 -0.004010 0.000000 0.000000 0.000000
# 2 -0.000759 0.009363 -0.002795 0.000000 0.000000 0.000000
# 3 -0.004010 -0.002795 0.012354 0.000000 0.000000 0.000000
# 4 0.000000 0.000000 0.000000 0.044343 0.000000 0.000000
# 5 0.000000 0.000000 0.000000 0.000000 0.028565 0.000000
# 6 0.000000 0.000000 0.000000 0.000000 0.000000 0.040697
#
#
# Mechanical properties :
#
#
# Convention : Reuss Voigt Hill
#
# Bulk Modulus (GPa) = 61.00019 61.10918 61.05468
# Shear Modulus (GPa) = 30.17188 32.54422 31.35805
#
# Velocity S-wave (km/s) = 3.76771 3.91303 3.84106
# Velocity P-wave (km/s) = 6.90128 7.01193 6.95682
#
# Compressibility (1/GPa) = 0.01639339
#
# Stress axis : x y z
#
# Youngs Moduli (GPa) = 102.00075 106.80062 80.94727
#
# Poissons Ratio (x) = 0.08103 0.32461
# Poissons Ratio (y) = 0.07739 0.22624
# Poissons Ratio (z) = 0.40904 0.29849
#
# Static dielectric constant tensor:
#      x y z
#    x 4.049810 0.000000 0.000000 
#    y 0.000000 3.856140 0.000000 
#    z 0.000000 0.000000 3.596690 
# 
# 
# High freq. dielectric constant tensor:
#      x y z
#    x 1.836380 0.000000 0.000000 
#    y 0.000000 1.845960 0.000000 
#    z 0.000000 0.000000 1.813460 
# 
# From -- ./inp_files/7046.got.cif
#   From: 2010.03.12/outbox.cif.g09.slc.cpg/sg30_4_cif.got.tgz:7046.got - 2010.04.14 01:38:02.
