data_PCOD8169300
_publ_section_title
;
Structure prediction by ZEFSAII (Michael W. Deem and Ramdas Pophale) SiO2 
 PCOD8169300
Probable space group: P C A 21
;
_chemical_formula_sum "Si O2"
_cell_formula_units_Z 20
_cell_length_a 7.657535
_cell_length_b 11.589167
_cell_length_c 8.550637
_cell_angle_alpha 90.000000
_cell_angle_beta 90.000000
_cell_angle_gamma 90.000000
_cell_volume 758.821594
_symmetry_space_group_name_H-M "P C A 21"
_symmetry_group_IT_number 29
_symmetry_cell_setting 'orthorhombic'
loop_
_space_group_symop_operation_xyz
x,y,z
-x,-y,1/2+z
1/2-x,y,1/2+z
1/2+x,-y,z
loop_
_atom_site_type_symbol
_atom_site_label
_atom_site_fract_x
_atom_site_fract_y
_atom_site_fract_z
Si Si1 0.943029 0.331493 0.438820
Si Si2 0.656292 0.884624 0.059129
Si Si3 0.486733 0.085779 0.889052
Si Si4 0.845367 0.626592 0.495371
Si Si5 0.363624 0.566636 0.749646
O O1 0.890641 0.333278 0.621283
O O2 0.899808 0.202826 0.375005
O O3 0.818833 0.418114 0.341560
O O4 0.147962 0.372047 0.422235
O O5 0.615467 0.934965 0.228267
O O6 0.863526 0.885292 0.037038
O O7 0.585960 0.755163 0.035472
O O8 0.589735 0.969658 0.923229
O O9 0.978239 0.570841 0.372338
O O10 0.856098 0.555193 0.655984
#
# Coordination Sequence:
#
# PCOD8169300 Si02
#       5
#     4   4   4   4   4
#     4  11  32  51  83 122 169 220 289 350 428 504
#     4  11  27  49  82 119 167 216 281 346 426 501
#     4  11  27  49  82 118 163 220 276 354 416 505
#     4  11  32  54  85 126 173 224 286 357 429 510
#     4  12  32  51  86 119 170 228 282 351 431 516
#
# _framework density 26.356656999999998
#
# number of rings (size 3 to 8) (size 9 to 14) (size 15 to 20)
#    0.000    0.800    0.000    1.200   28.000    1.600 
#    0.000    0.000    0.000    0.000    0.000    0.000 
#    0.000    0.000    0.000    0.000    0.000    0.000 
#
# Total GULP energy -247980.195923 kJ/mol
# GULP energy per Si atom -12399.009796 kJ/mol
# Density = 2.629667 g / cm^3
# Si number density = 26.356657 Si / 1000 Ang^3
#
#
#
# Elastic Constant Matrix: (Units=GPa)
#
#
# Indices 1 2 3 4 5 6 
#
# 1 123.4571 81.4526 66.3048 0.0000 0.0000 0.0000
# 2 81.4526 182.8686 67.5251 0.0000 0.0000 0.0000
# 3 66.3048 67.5251 161.7069 0.0000 0.0000 0.0000
# 4 0.0000 0.0000 0.0000 38.2013 0.0000 0.0000
# 5 0.0000 0.0000 0.0000 0.0000 48.9899 0.0000
# 6 0.0000 0.0000 0.0000 0.0000 0.0000 41.6135
#
#
#
# Elastic Compliance Matrix: (Units=1/GPa)
#
#
# Indices 1 2 3 4 5 6 
#
# 1 0.012890 -0.004481 -0.003414 0.000000 0.000000 0.000000
# 2 -0.004481 0.008023 -0.001513 0.000000 0.000000 0.000000
# 3 -0.003414 -0.001513 0.008216 0.000000 0.000000 0.000000
# 4 0.000000 0.000000 0.000000 0.026177 0.000000 0.000000
# 5 0.000000 0.000000 0.000000 0.000000 0.020412 0.000000
# 6 0.000000 0.000000 0.000000 0.000000 0.000000 0.024031
#
#
# Mechanical properties :
#
#
# Convention : Reuss Voigt Hill
#
# Bulk Modulus (GPa) = 96.96698 99.84416 98.40557
# Shear Modulus (GPa) = 40.98307 42.61095 41.79701
#
# Velocity S-wave (km/s) = 3.94755 4.02519 3.98656
# Velocity P-wave (km/s) = 7.59261 7.71797 7.65555
#
# Compressibility (1/GPa) = 0.01031279
#
# Stress axis : x y z
#
# Youngs Moduli (GPa) = 77.58085 124.64471 121.71770
#
# Poissons Ratio (x) = 0.55848 0.41557
# Poissons Ratio (y) = 0.34761 0.18415
# Poissons Ratio (z) = 0.26488 0.18858
#
# Static dielectric constant tensor:
#      x y z
#    x 4.828590 0.000000 0.000000 
#    y 0.000000 5.342570 0.000000 
#    z 0.000000 0.000000 4.859930 
# 
# 
# High freq. dielectric constant tensor:
#      x y z
#    x 2.051980 0.000000 0.000000 
#    y 0.000000 2.079770 0.000000 
#    z 0.000000 0.000000 2.076230 
# 
# From -- ./inp_files/1114.got.cif
#   From: 2010.03.12/outbox.cif.g09.slc.cpg/sg29_1_cif.got.tgz:1114.got - 2010.04.14 03:43:10.
