data_PCOD8169714
_publ_section_title
;
Structure prediction by ZEFSAII (Michael W. Deem and Ramdas Pophale) SiO2 
 PCOD8169714
Probable space group: P M N 21
;
_chemical_formula_sum "Si O2"
_cell_formula_units_Z 32
_cell_length_a 8.863786
_cell_length_b 10.349451
_cell_length_c 19.515941
_cell_angle_alpha 90.000000
_cell_angle_beta 90.000000
_cell_angle_gamma 90.000000
_cell_volume 1790.301071
_symmetry_space_group_name_H-M "P M N 21"
_symmetry_group_IT_number 31
_symmetry_cell_setting 'orthorhombic'
loop_
_space_group_symop_operation_xyz
x,y,z
1/2-x,-y,1/2+z
-x,y,z
1/2+x,-y,1/2+z
loop_
_atom_site_type_symbol
_atom_site_label
_atom_site_fract_x
_atom_site_fract_y
_atom_site_fract_z
Si Si1 0.321114 0.774603 0.806260
Si Si2 0.678173 0.778445 0.958347
Si Si3 0.177263 0.513001 0.308881
Si Si4 0.679244 0.880192 0.665092
Si Si5 0.177566 0.602995 0.165937
Si Si6 0.321584 0.137747 0.591955
Si Si7 0.821276 0.515491 0.456969
Si Si8 0.178754 0.637675 0.593845
O O1 0.500000 0.770753 0.804414
O O2 0.270833 0.824773 0.881823
O O3 0.256410 0.630079 0.793427
O O4 0.262557 0.865203 0.743960
O O5 0.500000 0.790955 0.967194
O O6 0.734167 0.631323 0.970010
O O7 0.756020 0.868544 0.015180
O O8 0.214380 0.611892 0.247492
O O9 0.239592 0.564086 0.382468
O O10 0.000000 0.495377 0.317300
O O11 0.500000 0.871499 0.662141
O O12 0.743830 0.767908 0.617840
O O13 0.738368 0.015987 0.635462
O O14 0.235293 0.733909 0.130926
O O15 0.271719 0.483079 0.139033
O O16 0.000000 0.579177 0.153348
O O17 0.500000 0.135654 0.587276
O O18 0.762488 0.610479 0.516282
O O19 0.000000 0.514286 0.458865
O O20 0.000000 0.653278 0.598198
#
# Coordination Sequence:
#
# PCOD8169714 Si02
#       8
#     4   4   4   4   4   4   4   4
#     4   8  14  27  51  74  92 126 172 207 241 288
#     4   9  16  30  52  74  98 130 166 205 249 294
#     4   8  13  25  48  73  95 123 162 204 247 288
#     4  10  20  36  52  71 103 138 170 208 244 290
#     4  10  18  31  52  75  98 129 165 203 246 297
#     4  10  21  33  49  76 106 134 166 201 250 301
#     4   8  15  27  46  74 102 125 156 205 252 290
#     4  11  20  31  50  77 102 127 163 207 255 300
#
# _framework density 17.874089000000001
#
# number of rings (size 3 to 8) (size 9 to 14) (size 15 to 20)
#    0.000    2.750    2.500    1.875    0.000    0.500 
#    0.000    1.875    0.000    6.000    0.000    0.000 
#    0.000    0.000    0.000    0.000    0.000    0.000 
#
# Total GULP energy -396522.761822 kJ/mol
# GULP energy per Si atom -12391.336307 kJ/mol
# Density = 1.783341 g / cm^3
# Si number density = 17.874089 Si / 1000 Ang^3
#
#
#
# Elastic Constant Matrix: (Units=GPa)
#
#
# Indices 1 2 3 4 5 6 
#
# 1 9.2827 16.4152 16.1785 0.0000 0.0000 0.0000
# 2 16.4152 87.4171 59.4738 0.0000 0.0000 0.0000
# 3 16.1785 59.4738 168.4054 0.0000 0.0000 0.0000
# 4 0.0000 0.0000 0.0000 27.6037 0.0000 0.0000
# 5 0.0000 0.0000 0.0000 0.0000 23.1087 0.0000
# 6 0.0000 0.0000 0.0000 0.0000 0.0000 7.8604
#
#
#
# Elastic Compliance Matrix: (Units=1/GPa)
#
#
# Indices 1 2 3 4 5 6 
#
# 1 0.166554 -0.026838 -0.006523 0.000000 0.000000 0.000000
# 2 -0.026838 0.019382 -0.004267 0.000000 0.000000 0.000000
# 3 -0.006523 -0.004267 0.008071 0.000000 0.000000 0.000000
# 4 0.000000 0.000000 0.000000 0.036227 0.000000 0.000000
# 5 0.000000 0.000000 0.000000 0.000000 0.043274 0.000000
# 6 0.000000 0.000000 0.000000 0.000000 0.000000 0.127220
#
#
# Mechanical properties :
#
#
# Convention : Reuss Voigt Hill
#
# Bulk Modulus (GPa) = 8.42085 49.91556 29.16821
# Shear Modulus (GPa) = 9.69808 23.25041 16.47425
#
# Velocity S-wave (km/s) = 2.33186 3.61056 3.03922
# Velocity P-wave (km/s) = 3.45999 6.73560 5.35443
#
# Compressibility (1/GPa) = 0.11875290
#
# Stress axis : x y z
#
# Youngs Moduli (GPa) = 6.00407 51.59483 123.89370
#
# Poissons Ratio (x) = 1.38470 0.80810
# Poissons Ratio (y) = 0.16114 0.52860
# Poissons Ratio (z) = 0.03916 0.22013
#
# Static dielectric constant tensor:
#      x y z
#    x 2.897910 0.000000 0.000000 
#    y 0.000000 3.240130 0.000000 
#    z 0.000000 0.000000 4.020550 
# 
# 
# High freq. dielectric constant tensor:
#      x y z
#    x 1.649210 0.000000 0.000000 
#    y 0.000000 1.660520 0.000000 
#    z 0.000000 0.000000 1.716840 
# 
# From -- ./inp_files/5843.got.cif
#   From: 2010.03.12/outbox.cif.g09.slc.cpg/sg31_3_cif.got.tgz:5843.got - 2010.04.14 01:42:59.
