data_PCOD8169698
_publ_section_title
;
Structure prediction by ZEFSAII (Michael W. Deem and Ramdas Pophale) SiO2 
 PCOD8169698
Probable space group: P M N 21
;
_chemical_formula_sum "Si O2"
_cell_formula_units_Z 32
_cell_length_a 9.107843
_cell_length_b 10.371737
_cell_length_c 19.229769
_cell_angle_alpha 90.000000
_cell_angle_beta 90.000000
_cell_angle_gamma 90.000000
_cell_volume 1816.523826
_symmetry_space_group_name_H-M "P M N 21"
_symmetry_group_IT_number 31
_symmetry_cell_setting 'orthorhombic'
loop_
_space_group_symop_operation_xyz
x,y,z
1/2-x,-y,1/2+z
-x,y,z
1/2+x,-y,1/2+z
loop_
_atom_site_type_symbol
_atom_site_label
_atom_site_fract_x
_atom_site_fract_y
_atom_site_fract_z
Si Si1 0.328885 0.634389 0.428160
Si Si2 0.328788 0.242661 0.137881
Si Si3 0.330589 0.519119 0.282712
Si Si4 0.169688 0.618053 0.003240
Si Si5 0.329874 0.491096 0.647653
Si Si6 0.672390 0.125663 0.993901
Si Si7 0.675074 0.123157 0.433149
Si Si8 0.672069 0.229795 0.291125
O O1 0.500000 0.657023 0.447200
O O2 0.307340 0.617320 0.345682
O O3 0.262506 0.508343 0.466346
O O4 0.234342 0.755899 0.450179
O O5 0.500000 0.279334 0.138014
O O6 0.240824 0.373638 0.125298
O O7 0.291813 0.143433 0.076065
O O8 0.284990 0.180814 0.213275
O O9 0.500000 0.509757 0.261021
O O10 0.241979 0.571146 0.216137
O O11 0.270357 0.376205 0.301739
O O12 0.195556 0.611225 0.085833
O O13 0.000000 0.616356 0.982281
O O14 0.235092 0.751003 0.974097
O O15 0.500000 0.516585 0.661162
O O16 0.500000 0.115881 0.980556
O O17 0.749352 0.997434 0.968342
O O18 0.500000 0.106136 0.439005
O O19 0.731318 0.137134 0.352733
O O20 0.500000 0.232337 0.301782
#
# Coordination Sequence:
#
# PCOD8169698 Si02
#       8
#     4   4   4   4   4   4   4   4
#     4  10  18  34  58  79 101 136 181 220 254 311
#     4   9  18  33  52  74 103 138 175 213 261 316
#     4   9  17  31  53  79 106 135 174 218 261 312
#     4   9  17  31  54  81 103 130 174 220 259 304
#     4  10  18  29  50  80 112 136 166 217 269 314
#     4  11  23  36  50  77 114 143 170 218 272 317
#     4  10  19  35  57  77 100 137 182 220 256 309
#     4   8  14  29  54  77  95 125 172 220 254 297
#
# _framework density 17.616066
#
# number of rings (size 3 to 8) (size 9 to 14) (size 15 to 20)
#    0.000    2.500    2.500    1.500    0.000    1.000 
#    0.000    5.625    0.000    4.500    0.000    0.000 
#    0.000    0.000    0.000    0.000    0.000    0.000 
#
# Total GULP energy -396638.734053 kJ/mol
# GULP energy per Si atom -12394.960439 kJ/mol
# Density = 1.757597 g / cm^3
# Si number density = 17.616066 Si / 1000 Ang^3
#
#
#
# Elastic Constant Matrix: (Units=GPa)
#
#
# Indices 1 2 3 4 5 6 
#
# 1 58.1215 39.9894 51.7384 0.0000 0.0000 0.0000
# 2 39.9894 114.7135 71.3027 0.0000 0.0000 0.0000
# 3 51.7384 71.3027 147.6420 0.0000 0.0000 0.0000
# 4 0.0000 0.0000 0.0000 26.5082 0.0000 0.0000
# 5 0.0000 0.0000 0.0000 0.0000 27.2277 0.0000
# 6 0.0000 0.0000 0.0000 0.0000 0.0000 17.9206
#
#
#
# Elastic Compliance Matrix: (Units=1/GPa)
#
#
# Indices 1 2 3 4 5 6 
#
# 1 0.026891 -0.005026 -0.006996 0.000000 0.000000 0.000000
# 2 -0.005026 0.013396 -0.004708 0.000000 0.000000 0.000000
# 3 -0.006996 -0.004708 0.011499 0.000000 0.000000 0.000000
# 4 0.000000 0.000000 0.000000 0.037724 0.000000 0.000000
# 5 0.000000 0.000000 0.000000 0.000000 0.036727 0.000000
# 6 0.000000 0.000000 0.000000 0.000000 0.000000 0.055802
#
#
# Mechanical properties :
#
#
# Convention : Reuss Voigt Hill
#
# Bulk Modulus (GPa) = 54.56982 71.83757 63.20370
# Shear Modulus (GPa) = 22.56236 24.82773 23.69505
#
# Velocity S-wave (km/s) = 3.58269 3.75824 3.67151
# Velocity P-wave (km/s) = 6.93965 7.72662 7.34368
#
# Compressibility (1/GPa) = 0.01832515
#
# Stress axis : x y z
#
# Youngs Moduli (GPa) = 37.18691 74.65005 86.96569
#
# Poissons Ratio (x) = 0.37515 0.60845
# Poissons Ratio (y) = 0.18688 0.40946
# Poissons Ratio (z) = 0.26018 0.35148
#
# Static dielectric constant tensor:
#      x y z
#    x 3.055570 0.000000 0.000000 
#    y 0.000000 3.096660 0.000000 
#    z 0.000000 0.000000 3.637030 
# 
# 
# High freq. dielectric constant tensor:
#      x y z
#    x 1.655620 0.000000 0.000000 
#    y 0.000000 1.651830 0.000000 
#    z 0.000000 0.000000 1.701710 
# 
# From -- ./inp_files/6225.got.cif
#   From: 2010.03.12/outbox.cif.g09.slc.cpg/sg31_4_cif.got.tgz:6225.got - 2010.04.14 01:42:59.
