data_PCOD8169740
_publ_section_title
;
Structure prediction by ZEFSAII (Michael W. Deem and Ramdas Pophale) SiO2 
 PCOD8169740
Probable space group: P M N 21
;
_chemical_formula_sum "Si O2"
_cell_formula_units_Z 32
_cell_length_a 9.037510
_cell_length_b 14.445624
_cell_length_c 12.498001
_cell_angle_alpha 90.000000
_cell_angle_beta 90.000000
_cell_angle_gamma 90.000000
_cell_volume 1631.644918
_symmetry_space_group_name_H-M "P M N 21"
_symmetry_group_IT_number 31
_symmetry_cell_setting 'orthorhombic'
loop_
_space_group_symop_operation_xyz
x,y,z
1/2-x,-y,1/2+z
-x,y,z
1/2+x,-y,1/2+z
loop_
_atom_site_type_symbol
_atom_site_label
_atom_site_fract_x
_atom_site_fract_y
_atom_site_fract_z
Si Si1 0.162621 0.655550 0.711130
Si Si2 0.173287 0.059130 0.120973
Si Si3 0.173115 0.739592 0.005683
Si Si4 0.669884 0.365122 0.969564
Si Si5 0.323822 0.825065 0.418200
Si Si6 0.172430 0.862169 0.198489
Si Si7 0.672270 0.815776 0.808950
Si Si8 0.165466 0.545388 0.915592
O O1 0.192913 0.617314 0.594349
O O2 0.294553 0.723816 0.741405
O O3 0.162441 0.569387 0.790710
O O4 0.000000 0.704938 0.716556
O O5 0.232149 0.101142 0.233603
O O6 0.000000 0.077626 0.116059
O O7 0.212367 0.950611 0.123872
O O8 0.239519 0.110354 0.015336
O O9 0.246044 0.812005 0.922826
O O10 0.226205 0.633869 0.984655
O O11 0.000000 0.745211 0.982099
O O12 0.210500 0.771590 0.126669
O O13 0.500000 0.347746 0.936994
O O14 0.764411 0.278574 0.929763
O O15 0.724798 0.459698 0.918098
O O16 0.500000 0.823217 0.416550
O O17 0.267705 0.865424 0.305779
O O18 0.000000 0.863882 0.230489
O O19 0.500000 0.824400 0.833012
O O20 0.000000 0.518758 0.955598
#
# Coordination Sequence:
#
# PCOD8169740 Si02
#       8
#     4   4   4   4   4   4   4   4
#     4   9  19  36  55  79 111 148 193 242 294 347
#     4   9  20  37  58  85 118 153 191 241 295 343
#     4   9  20  38  59  83 117 156 195 242 298 348
#     4  11  22  37  59  86 114 153 198 244 296 355
#     4  11  23  41  61  88 122 156 196 244 299 353
#     4  10  22  41  61  85 122 163 199 243 294 354
#     4  10  18  32  57  84 111 146 191 242 291 343
#     4   9  19  36  56  82 113 151 195 244 299 353
#
# _framework density 19.612110000000001
#
# number of rings (size 3 to 8) (size 9 to 14) (size 15 to 20)
#    0.000    2.250    1.250    1.875    1.750    4.000 
#    0.000    4.375    0.000    0.000    0.000    0.000 
#    0.000    0.000    0.000    0.000    0.000    0.000 
#
# Total GULP energy -396659.940336 kJ/mol
# GULP energy per Si atom -12395.623136 kJ/mol
# Density = 1.956747 g / cm^3
# Si number density = 19.612110 Si / 1000 Ang^3
#
#
#
# Elastic Constant Matrix: (Units=GPa)
#
#
# Indices 1 2 3 4 5 6 
#
# 1 61.1421 32.3771 34.2104 0.0000 0.0000 0.0000
# 2 32.3771 101.9442 45.3554 0.0000 0.0000 0.0000
# 3 34.2104 45.3554 96.4758 0.0000 0.0000 0.0000
# 4 0.0000 0.0000 0.0000 26.1268 0.0000 0.0000
# 5 0.0000 0.0000 0.0000 0.0000 31.8862 0.0000
# 6 0.0000 0.0000 0.0000 0.0000 0.0000 25.0236
#
#
#
# Elastic Compliance Matrix: (Units=1/GPa)
#
#
# Indices 1 2 3 4 5 6 
#
# 1 0.021873 -0.004421 -0.005678 0.000000 0.000000 0.000000
# 2 -0.004421 0.013297 -0.004684 0.000000 0.000000 0.000000
# 3 -0.005678 -0.004684 0.014581 0.000000 0.000000 0.000000
# 4 0.000000 0.000000 0.000000 0.038275 0.000000 0.000000
# 5 0.000000 0.000000 0.000000 0.000000 0.031362 0.000000
# 6 0.000000 0.000000 0.000000 0.000000 0.000000 0.039962
#
#
# Mechanical properties :
#
#
# Convention : Reuss Voigt Hill
#
# Bulk Modulus (GPa) = 49.53878 53.71642 51.62760
# Shear Modulus (GPa) = 25.55674 26.44859 26.00267
#
# Velocity S-wave (km/s) = 3.61378 3.67629 3.64517
# Velocity P-wave (km/s) = 6.53656 6.74307 6.64062
#
# Compressibility (1/GPa) = 0.02018620
#
# Stress axis : x y z
#
# Youngs Moduli (GPa) = 45.71798 75.20453 68.58422
#
# Poissons Ratio (x) = 0.33246 0.38942
# Poissons Ratio (y) = 0.20210 0.32123
# Poissons Ratio (z) = 0.25959 0.35223
#
# Static dielectric constant tensor:
#      x y z
#    x 3.473570 0.000000 0.000000 
#    y 0.000000 3.486140 0.000000 
#    z 0.000000 0.000000 3.721950 
# 
# 
# High freq. dielectric constant tensor:
#      x y z
#    x 1.749620 0.000000 0.000000 
#    y 0.000000 1.756590 0.000000 
#    z 0.000000 0.000000 1.770230 
# 
# From -- ./inp_files/3708.got.cif
#   From: 2010.03.12/outbox.cif.g09.slc.cpg/sg31_2_cif.got.tgz:3708.got - 2010.04.14 01:42:59.
