data_PCOD8169024
_publ_section_title
;
Structure prediction by ZEFSAII (Michael W. Deem and Ramdas Pophale) SiO2 
 PCOD8169024
Probable space group: P C A 21
;
_chemical_formula_sum "Si O2"
_cell_formula_units_Z 32
_cell_length_a 11.313013
_cell_length_b 14.172943
_cell_length_c 9.356134
_cell_angle_alpha 90.000000
_cell_angle_beta 90.000000
_cell_angle_gamma 90.000000
_cell_volume 1500.150254
_symmetry_space_group_name_H-M "P C A 21"
_symmetry_group_IT_number 29
_symmetry_cell_setting 'orthorhombic'
loop_
_space_group_symop_operation_xyz
x,y,z
-x,-y,1/2+z
1/2-x,y,1/2+z
1/2+x,-y,z
loop_
_atom_site_type_symbol
_atom_site_label
_atom_site_fract_x
_atom_site_fract_y
_atom_site_fract_z
Si Si1 0.350170 0.266546 0.163780
Si Si2 0.498985 0.902485 0.574305
Si Si3 0.545726 0.074926 0.395710
Si Si4 0.028384 0.584862 0.536065
Si Si5 0.379689 0.233600 0.482465
Si Si6 0.277784 0.686059 0.194614
Si Si7 0.038764 0.580950 0.214194
Si Si8 0.271794 0.814496 0.450284
O O1 0.434621 0.197007 0.076179
O O2 0.325813 0.236422 0.325105
O O3 0.413299 0.369825 0.170220
O O4 0.222358 0.257990 0.093733
O O5 0.495859 0.944307 0.734120
O O6 0.374662 0.885828 0.495535
O O7 0.569601 0.977236 0.477304
O O8 0.448789 0.133475 0.490605
O O9 0.669459 0.127960 0.370762
O O10 0.142194 0.598520 0.640027
O O11 0.052338 0.544642 0.377555
O O12 0.975831 0.687208 0.511150
O O13 0.943052 0.510791 0.615256
O O14 0.141351 0.656183 0.189618
O O15 0.314897 0.726419 0.350396
O O16 0.290934 0.773914 0.089927
#
# Coordination Sequence:
#
# PCOD8169024 Si02
#       8
#     4   4   4   4   4   4   4   4
#     4  10  23  45  63  90 133 172 213 267 324 390
#     4  11  26  43  68 100 133 175 221 276 336 396
#     4  11  25  44  66  99 135 170 225 277 331 400
#     4  11  26  43  68 100 133 175 221 276 336 396
#     4  10  23  45  63  90 133 172 213 267 324 390
#     4  12  23  46  73  96 132 178 229 283 334 399
#     4  11  25  44  66  99 135 170 225 277 331 400
#     4  12  23  46  73  96 132 178 229 283 334 399
#
# _framework density 21.331195000000001
#
# number of rings (size 3 to 8) (size 9 to 14) (size 15 to 20)
#    0.000    1.000    5.000    0.750    7.000    3.000 
#    0.000    0.000    0.000    0.000    0.000    0.000 
#    0.000    0.000    0.000    0.000    0.000    0.000 
#
# Total GULP energy -396687.042921 kJ/mol
# GULP energy per Si atom -12396.470091 kJ/mol
# Density = 2.128264 g / cm^3
# Si number density = 21.331195 Si / 1000 Ang^3
#
#
#
# Elastic Constant Matrix: (Units=GPa)
#
#
# Indices 1 2 3 4 5 6 
#
# 1 66.6080 4.4296 31.6914 0.0000 0.0000 0.0000
# 2 4.4296 75.0543 40.0193 0.0000 0.0000 0.0000
# 3 31.6914 40.0193 98.7227 0.0000 0.0000 0.0000
# 4 0.0000 0.0000 0.0000 40.6510 0.0000 0.0000
# 5 0.0000 0.0000 0.0000 0.0000 31.0552 0.0000
# 6 0.0000 0.0000 0.0000 0.0000 0.0000 22.0553
#
#
#
# Elastic Compliance Matrix: (Units=1/GPa)
#
#
# Indices 1 2 3 4 5 6 
#
# 1 0.018106 0.002590 -0.006862 0.000000 0.000000 0.000000
# 2 0.002590 0.017368 -0.007872 0.000000 0.000000 0.000000
# 3 -0.006862 -0.007872 0.015523 0.000000 0.000000 0.000000
# 4 0.000000 0.000000 0.000000 0.024600 0.000000 0.000000
# 5 0.000000 0.000000 0.000000 0.000000 0.032201 0.000000
# 6 0.000000 0.000000 0.000000 0.000000 0.000000 0.045340
#
#
# Mechanical properties :
#
#
# Convention : Reuss Voigt Hill
#
# Bulk Modulus (GPa) = 37.43978 43.62950 40.53464
# Shear Modulus (GPa) = 26.83411 29.70195 28.26803
#
# Velocity S-wave (km/s) = 3.55064 3.73556 3.64427
# Velocity P-wave (km/s) = 5.86508 6.25329 6.06229
#
# Compressibility (1/GPa) = 0.02670956
#
# Stress axis : x y z
#
# Youngs Moduli (GPa) = 55.23029 57.57622 64.41862
#
# Poissons Ratio (x) = -0.14915 0.44207
# Poissons Ratio (y) = -0.14307 0.50711
# Poissons Ratio (z) = 0.37901 0.45325
#
# Static dielectric constant tensor:
#      x y z
#    x 3.731180 0.000000 0.000000 
#    y 0.000000 3.797200 0.000000 
#    z 0.000000 0.000000 4.138730 
# 
# 
# High freq. dielectric constant tensor:
#      x y z
#    x 1.827750 0.000000 0.000000 
#    y 0.000000 1.831850 0.000000 
#    z 0.000000 0.000000 1.849110 
# 
# From -- ./inp_files/1565.got.cif
#   From: 2010.03.12/outbox.cif.g09.slc.cpg/sg29_1_cif.got.tgz:1565.got - 2010.04.14 03:43:10.
