data_PCOD8169417
_publ_section_title
;
Structure prediction by ZEFSAII (Michael W. Deem and Ramdas Pophale) SiO2 
 PCOD8169417
Probable space group: P N C 2
;
_chemical_formula_sum "Si O2"
_cell_formula_units_Z 24
_cell_length_a 8.314461
_cell_length_b 15.480057
_cell_length_c 9.083076
_cell_angle_alpha 90.000000
_cell_angle_beta 90.000000
_cell_angle_gamma 90.000000
_cell_volume 1169.067545
_symmetry_space_group_name_H-M "P N C 2"
_symmetry_group_IT_number 30
_symmetry_cell_setting 'orthorhombic'
loop_
_space_group_symop_operation_xyz
x,y,z
-x,-y,z
-x,1/2+y,1/2+z
x,1/2-y,1/2+z
loop_
_atom_site_type_symbol
_atom_site_label
_atom_site_fract_x
_atom_site_fract_y
_atom_site_fract_z
Si Si1 0.721166 0.317308 0.191090
Si Si2 0.330877 0.841804 0.020544
Si Si3 0.608310 0.726619 0.086481
Si Si4 0.205356 0.167142 0.311784
Si Si5 0.090030 0.909695 0.449426
Si Si6 0.320458 0.512364 0.729329
O O1 0.763565 0.220202 0.136222
O O2 0.752890 0.329166 0.363374
O O3 0.529291 0.333712 0.161399
O O4 0.839805 0.381942 0.106714
O O5 0.519794 0.813064 0.022832
O O6 0.316535 0.941598 0.069094
O O7 0.750868 0.753994 0.201209
O O8 0.679662 0.671282 0.953550
O O9 0.230233 0.078656 0.221061
O O10 0.023785 0.164211 0.374919
O O11 0.240599 0.921715 0.342963
O O12 0.000000 0.000000 0.474454
O O13 0.500000 0.500000 0.786061
#
# Coordination Sequence:
#
# PCOD8169417 Si02
#       6
#     4   4   4   4   4   4
#     4  10  19  38  62  92 125 167 220 266 312 408
#     4  10  20  35  68  92 117 161 232 262 318 384
#     4  10  19  39  63  92 120 169 220 263 323 403
#     4  11  22  39  62  92 135 163 214 277 337 395
#     4  10  24  40  60  96 134 179 214 272 352 391
#     4  11  20  40  64  89 123 174 221 268 318 399
#
# _framework density 20.529181000000001
#
# number of rings (size 3 to 8) (size 9 to 14) (size 15 to 20)
#    1.000    0.667    3.333    2.000    0.000    2.667 
#    0.000   10.000    0.000    0.000    0.000    0.000 
#    0.000    0.000    0.000    0.000    0.000    0.000 
#
# Total GULP energy -297381.247836 kJ/mol
# GULP energy per Si atom -12390.885326 kJ/mol
# Density = 2.048246 g / cm^3
# Si number density = 20.529181 Si / 1000 Ang^3
#
#
#
# Elastic Constant Matrix: (Units=GPa)
#
#
# Indices 1 2 3 4 5 6 
#
# 1 89.9455 36.4709 55.0940 0.0000 0.0000 0.0000
# 2 36.4709 73.3997 52.9280 0.0000 0.0000 0.0000
# 3 55.0940 52.9280 137.7430 0.0000 0.0000 0.0000
# 4 0.0000 0.0000 0.0000 36.9655 0.0000 0.0000
# 5 0.0000 0.0000 0.0000 0.0000 25.3869 0.0000
# 6 0.0000 0.0000 0.0000 0.0000 0.0000 30.8403
#
#
#
# Elastic Compliance Matrix: (Units=1/GPa)
#
#
# Indices 1 2 3 4 5 6 
#
# 1 0.015749 -0.004541 -0.004554 0.000000 0.000000 0.000000
# 2 -0.004541 0.020155 -0.005928 0.000000 0.000000 0.000000
# 3 -0.004554 -0.005928 0.011359 0.000000 0.000000 0.000000
# 4 0.000000 0.000000 0.000000 0.027052 0.000000 0.000000
# 5 0.000000 0.000000 0.000000 0.000000 0.039390 0.000000
# 6 0.000000 0.000000 0.000000 0.000000 0.000000 0.032425
#
#
# Mechanical properties :
#
#
# Convention : Reuss Voigt Hill
#
# Bulk Modulus (GPa) = 58.08538 65.56377 61.82458
# Shear Modulus (GPa) = 27.48497 29.07822 28.28159
#
# Velocity S-wave (km/s) = 3.66296 3.76764 3.71567
# Velocity P-wave (km/s) = 6.80038 7.13673 6.97059
#
# Compressibility (1/GPa) = 0.01721604
#
# Stress axis : x y z
#
# Youngs Moduli (GPa) = 63.49703 49.61449 88.03273
#
# Poissons Ratio (x) = 0.22532 0.40091
# Poissons Ratio (y) = 0.28836 0.52189
# Poissons Ratio (z) = 0.28917 0.29413
#
# Static dielectric constant tensor:
#      x y z
#    x 3.724900 0.000000 0.000000 
#    y 0.000000 3.473230 0.000000 
#    z 0.000000 0.000000 3.519390 
# 
# 
# High freq. dielectric constant tensor:
#      x y z
#    x 1.796170 0.000000 0.000000 
#    y 0.000000 1.781220 0.000000 
#    z 0.000000 0.000000 1.794250 
# 
# From -- ./inp_files/1932.got.cif
#   From: 2010.03.12/outbox.cif.g09.slc.cpg/sg30_1_cif.got.tgz:1932.got - 2010.04.14 01:38:02.
