data_PCOD8169011
_publ_section_title
;
Structure prediction by ZEFSAII (Michael W. Deem and Ramdas Pophale) SiO2 
 PCOD8169011
Probable space group: P C A 21
;
_chemical_formula_sum "Si O2"
_cell_formula_units_Z 28
_cell_length_a 10.182430
_cell_length_b 10.921321
_cell_length_c 11.550174
_cell_angle_alpha 90.000000
_cell_angle_beta 90.000000
_cell_angle_gamma 90.000000
_cell_volume 1284.443875
_symmetry_space_group_name_H-M "P C A 21"
_symmetry_group_IT_number 29
_symmetry_cell_setting 'orthorhombic'
loop_
_space_group_symop_operation_xyz
x,y,z
-x,-y,1/2+z
1/2-x,y,1/2+z
1/2+x,-y,z
loop_
_atom_site_type_symbol
_atom_site_label
_atom_site_fract_x
_atom_site_fract_y
_atom_site_fract_z
Si Si1 0.098298 0.525582 0.691230
Si Si2 0.887173 0.270972 0.380217
Si Si3 0.852799 0.487654 0.545122
Si Si4 0.625923 0.839287 0.274488
Si Si5 0.946297 0.887130 0.515881
Si Si6 0.282627 0.950615 0.921226
Si Si7 0.646573 0.676260 0.855681
O O1 0.102679 0.646390 0.767239
O O2 0.244540 0.515683 0.643303
O O3 0.060528 0.403057 0.764531
O O4 0.989182 0.542527 0.592952
O O5 0.882165 0.352342 0.495872
O O6 0.759266 0.184389 0.379685
O O7 0.016023 0.185412 0.373136
O O8 0.796468 0.578242 0.447119
O O9 0.568551 0.836714 0.145514
O O10 0.734551 0.734056 0.283748
O O11 0.686748 0.971476 0.305598
O O12 0.938048 0.778827 0.420875
O O13 0.090334 0.944945 0.504086
O O14 0.833011 0.986706 0.495047
#
# Coordination Sequence:
#
# PCOD8169011 Si02
#       7
#     4   4   4   4   4   4   4
#     4  11  24  42  69 102 135 178 223 281 348 401
#     4  11  25  42  70  99 138 172 233 281 330 415
#     4  11  25  43  69 101 137 177 224 283 348 403
#     4  11  24  47  70  96 138 188 224 285 347 403
#     4  11  25  43  74  95 142 179 232 282 348 400
#     4  11  26  46  64 106 134 179 230 289 327 420
#     4  10  23  43  68 101 138 175 232 277 342 420
#
# _framework density 21.799318
#
# number of rings (size 3 to 8) (size 9 to 14) (size 15 to 20)
#    0.000    1.143    1.429    3.429    8.000    3.429 
#    0.000    0.000    0.000    0.000    0.000    0.000 
#    0.000    0.000    0.000    0.000    0.000    0.000 
#
# Total GULP energy -347265.454999 kJ/mol
# GULP energy per Si atom -12402.337679 kJ/mol
# Density = 2.174970 g / cm^3
# Si number density = 21.799318 Si / 1000 Ang^3
#
#
#
# Elastic Constant Matrix: (Units=GPa)
#
#
# Indices 1 2 3 4 5 6 
#
# 1 118.4157 57.5976 33.4121 0.0000 0.0000 0.0000
# 2 57.5976 128.1183 58.1617 0.0000 0.0000 0.0000
# 3 33.4121 58.1617 97.2648 0.0000 0.0000 0.0000
# 4 0.0000 0.0000 0.0000 31.2849 0.0000 0.0000
# 5 0.0000 0.0000 0.0000 0.0000 32.8890 0.0000
# 6 0.0000 0.0000 0.0000 0.0000 0.0000 35.1610
#
#
#
# Elastic Compliance Matrix: (Units=1/GPa)
#
#
# Indices 1 2 3 4 5 6 
#
# 1 0.010896 -0.004391 -0.001117 0.000000 0.000000 0.000000
# 2 -0.004391 0.012483 -0.005956 0.000000 0.000000 0.000000
# 3 -0.001117 -0.005956 0.014227 0.000000 0.000000 0.000000
# 4 0.000000 0.000000 0.000000 0.031964 0.000000 0.000000
# 5 0.000000 0.000000 0.000000 0.000000 0.030405 0.000000
# 6 0.000000 0.000000 0.000000 0.000000 0.000000 0.028441
#
#
# Mechanical properties :
#
#
# Convention : Reuss Voigt Hill
#
# Bulk Modulus (GPa) = 68.13507 71.34907 69.74207
# Shear Modulus (GPa) = 32.00252 32.84215 32.42233
#
# Velocity S-wave (km/s) = 3.83567 3.88566 3.86075
# Velocity P-wave (km/s) = 7.13722 7.27545 7.20667
#
# Compressibility (1/GPa) = 0.01467673
#
# Stress axis : x y z
#
# Youngs Moduli (GPa) = 91.77701 80.10612 70.29086
#
# Poissons Ratio (x) = 0.35177 0.07852
# Poissons Ratio (y) = 0.40303 0.41867
# Poissons Ratio (z) = 0.10252 0.47713
#
# Static dielectric constant tensor:
#      x y z
#    x 3.846840 0.000000 0.000000 
#    y 0.000000 4.129870 0.000000 
#    z 0.000000 0.000000 3.776040 
# 
# 
# High freq. dielectric constant tensor:
#      x y z
#    x 1.854910 0.000000 0.000000 
#    y 0.000000 1.875700 0.000000 
#    z 0.000000 0.000000 1.852240 
# 
# From -- ./inp_files/2851.got.cif
#   From: 2010.03.12/outbox.cif.g09.slc.cpg/sg29_2_cif.got.tgz:2851.got - 2010.04.14 03:43:10.
