data_PCOD8169248
_publ_section_title
;
Structure prediction by ZEFSAII (Michael W. Deem and Ramdas Pophale) SiO2 
 PCOD8169248
Probable space group: P C A 21
;
_chemical_formula_sum "Si O2"
_cell_formula_units_Z 28
_cell_length_a 9.714016
_cell_length_b 11.195003
_cell_length_c 10.673720
_cell_angle_alpha 90.000000
_cell_angle_beta 90.000000
_cell_angle_gamma 90.000000
_cell_volume 1160.750380
_symmetry_space_group_name_H-M "P C A 21"
_symmetry_group_IT_number 29
_symmetry_cell_setting 'orthorhombic'
loop_
_space_group_symop_operation_xyz
x,y,z
-x,-y,1/2+z
1/2-x,y,1/2+z
1/2+x,-y,z
loop_
_atom_site_type_symbol
_atom_site_label
_atom_site_fract_x
_atom_site_fract_y
_atom_site_fract_z
Si Si1 0.940334 0.010825 0.278640
Si Si2 0.188094 0.174649 0.934109
Si Si3 0.698968 0.461236 0.607760
Si Si4 0.966435 0.878538 0.034150
Si Si5 0.033512 0.613618 0.990862
Si Si6 0.831673 0.626863 0.786077
Si Si7 0.522680 0.232717 0.623916
O O1 0.814307 0.926116 0.323409
O O2 0.018935 0.940162 0.163911
O O3 0.018513 0.042142 0.407848
O O4 0.901980 0.135858 0.212646
O O5 0.227571 0.303584 0.877055
O O6 0.301419 0.141271 0.039148
O O7 0.032855 0.180105 0.991745
O O8 0.583858 0.558584 0.579463
O O9 0.764807 0.503282 0.739315
O O10 0.640103 0.329520 0.608427
O O11 0.822683 0.456325 0.505685
O O12 0.049361 0.754118 0.022390
O O13 0.978415 0.594246 0.850409
O O14 0.878242 0.714436 0.675052
#
# Coordination Sequence:
#
# PCOD8169248 Si02
#       7
#     4   4   4   4   4   4   4
#     4  12  24  47  73 113 152 197 256 320 381 468
#     4  11  24  47  79 104 154 202 258 314 399 458
#     4  12  27  46  75 110 151 193 260 318 382 458
#     4  11  26  46  77 110 151 206 255 318 395 454
#     4  11  26  46  73 109 150 196 253 313 385 455
#     4  11  24  49  75 102 150 210 247 316 388 465
#     4  12  25  47  72 116 144 200 257 315 388 464
#
# _framework density 24.122329000000001
#
# number of rings (size 3 to 8) (size 9 to 14) (size 15 to 20)
#    0.000    0.571    5.714    3.429    2.000    2.286 
#    2.571    0.000    0.000    0.000    0.000    0.000 
#    0.000    0.000    0.000    0.000    0.000    0.000 
#
# Total GULP energy -346883.014505 kJ/mol
# GULP energy per Si atom -12388.679089 kJ/mol
# Density = 2.406743 g / cm^3
# Si number density = 24.122329 Si / 1000 Ang^3
#
#
#
# Elastic Constant Matrix: (Units=GPa)
#
#
# Indices 1 2 3 4 5 6 
#
# 1 83.8474 37.0143 27.8249 0.0000 0.0000 0.0000
# 2 37.0143 108.7389 42.9752 0.0000 0.0000 0.0000
# 3 27.8249 42.9752 104.7678 0.0000 0.0000 0.0000
# 4 0.0000 0.0000 0.0000 46.0191 0.0000 0.0000
# 5 0.0000 0.0000 0.0000 0.0000 29.2385 0.0000
# 6 0.0000 0.0000 0.0000 0.0000 0.0000 27.6328
#
#
#
# Elastic Compliance Matrix: (Units=1/GPa)
#
#
# Indices 1 2 3 4 5 6 
#
# 1 0.014437 -0.004057 -0.002170 0.000000 0.000000 0.000000
# 2 -0.004057 0.012116 -0.003892 0.000000 0.000000 0.000000
# 3 -0.002170 -0.003892 0.011718 0.000000 0.000000 0.000000
# 4 0.000000 0.000000 0.000000 0.021730 0.000000 0.000000
# 5 0.000000 0.000000 0.000000 0.000000 0.034201 0.000000
# 6 0.000000 0.000000 0.000000 0.000000 0.000000 0.036189
#
#
# Mechanical properties :
#
#
# Convention : Reuss Voigt Hill
#
# Bulk Modulus (GPa) = 55.45636 56.99808 56.22722
# Shear Modulus (GPa) = 31.92013 33.21406 32.56710
#
# Velocity S-wave (km/s) = 3.64161 3.71469 3.67833
# Velocity P-wave (km/s) = 6.38133 6.48680 6.43428
#
# Compressibility (1/GPa) = 0.01803220
#
# Stress axis : x y z
#
# Youngs Moduli (GPa) = 69.26409 82.53869 85.33915
#
# Poissons Ratio (x) = 0.33484 0.18522
# Poissons Ratio (y) = 0.28098 0.33217
# Poissons Ratio (z) = 0.15033 0.32127
#
# Static dielectric constant tensor:
#      x y z
#    x 3.993380 0.000000 0.000000 
#    y 0.000000 4.502430 0.000000 
#    z 0.000000 0.000000 4.536500 
# 
# 
# High freq. dielectric constant tensor:
#      x y z
#    x 1.927930 0.000000 0.000000 
#    y 0.000000 1.972720 0.000000 
#    z 0.000000 0.000000 1.965670 
# 
# From -- ./inp_files/2893.got.cif
#   From: 2010.03.12/outbox.cif.g09.slc.cpg/sg29_2_cif.got.tgz:2893.got - 2010.04.14 03:43:10.
