data_PCOD8169967
_publ_section_title
;
Structure prediction by ZEFSAII (Michael W. Deem and Ramdas Pophale) SiO2 
 PCOD8169967
Probable space group: P M N 21
;
_chemical_formula_sum "Si O2"
_cell_formula_units_Z 24
_cell_length_a 9.100564
_cell_length_b 10.014982
_cell_length_c 13.973610
_cell_angle_alpha 90.000000
_cell_angle_beta 90.000000
_cell_angle_gamma 90.000000
_cell_volume 1273.582548
_symmetry_space_group_name_H-M "P M N 21"
_symmetry_group_IT_number 31
_symmetry_cell_setting 'orthorhombic'
loop_
_space_group_symop_operation_xyz
x,y,z
1/2-x,-y,1/2+z
-x,y,z
1/2+x,-y,1/2+z
loop_
_atom_site_type_symbol
_atom_site_label
_atom_site_fract_x
_atom_site_fract_y
_atom_site_fract_z
Si Si1 0.829795 0.581693 0.117650
Si Si2 0.674366 0.351703 0.219938
Si Si3 0.669820 0.484795 0.409746
Si Si4 0.171305 0.845969 0.227159
Si Si5 0.174266 0.214015 0.916645
Si Si6 0.171366 0.116087 0.123494
O O1 0.728406 0.456710 0.141709
O O2 0.775630 0.711384 0.174469
O O3 0.000000 0.548027 0.139566
O O4 0.806164 0.603578 0.004502
O O5 0.500000 0.340077 0.218277
O O6 0.738446 0.401797 0.322053
O O7 0.741366 0.208185 0.197527
O O8 0.500000 0.506391 0.387455
O O9 0.737122 0.634122 0.418263
O O10 0.257015 0.864296 0.326685
O O11 0.000000 0.840196 0.251098
O O12 0.206913 0.965091 0.153849
O O13 0.000000 0.209108 0.906425
O O14 0.224201 0.140442 0.014387
O O15 0.000000 0.150687 0.132601
#
# Coordination Sequence:
#
# PCOD8169967 Si02
#       6
#     4   4   4   4   4   4
#     4  10  19  36  58  80 110 148 184 225 279 335
#     4  11  21  34  56  86 112 140 188 239 275 319
#     4   9  18  33  56  84 111 143 185 228 273 333
#     4  10  22  37  58  86 114 145 187 234 277 330
#     4  10  19  36  60  81 110 152 187 224 280 339
#     4  10  22  40  58  81 115 154 189 222 276 344
#
# _framework density 18.844480999999998
#
# number of rings (size 3 to 8) (size 9 to 14) (size 15 to 20)
#    0.000    2.000    3.333    0.500    0.000    2.667 
#    0.000    5.000    0.000    0.000    0.000    0.000 
#    0.000    0.000    0.000    0.000    0.000    0.000 
#
# Total GULP energy -297606.352361 kJ/mol
# GULP energy per Si atom -12400.264682 kJ/mol
# Density = 1.880159 g / cm^3
# Si number density = 18.844481 Si / 1000 Ang^3
#
#
#
# Elastic Constant Matrix: (Units=GPa)
#
#
# Indices 1 2 3 4 5 6 
#
# 1 33.9950 23.1483 23.2495 0.0000 0.0000 0.0000
# 2 23.1483 76.6009 27.2867 0.0000 0.0000 0.0000
# 3 23.2495 27.2867 119.2255 0.0000 0.0000 0.0000
# 4 0.0000 0.0000 0.0000 36.5841 0.0000 0.0000
# 5 0.0000 0.0000 0.0000 0.0000 27.0648 0.0000
# 6 0.0000 0.0000 0.0000 0.0000 0.0000 22.3858
#
#
#
# Elastic Compliance Matrix: (Units=1/GPa)
#
#
# Indices 1 2 3 4 5 6 
#
# 1 0.040090 -0.010158 -0.005493 0.000000 0.000000 0.000000
# 2 -0.010158 0.016787 -0.001861 0.000000 0.000000 0.000000
# 3 -0.005493 -0.001861 0.009885 0.000000 0.000000 0.000000
# 4 0.000000 0.000000 0.000000 0.027334 0.000000 0.000000
# 5 0.000000 0.000000 0.000000 0.000000 0.036948 0.000000
# 6 0.000000 0.000000 0.000000 0.000000 0.000000 0.044671
#
#
# Mechanical properties :
#
#
# Convention : Reuss Voigt Hill
#
# Bulk Modulus (GPa) = 31.50868 41.91006 36.70937
# Shear Modulus (GPa) = 22.59182 27.61606 25.10394
#
# Velocity S-wave (km/s) = 3.46621 3.83230 3.65384
# Velocity P-wave (km/s) = 5.72504 6.47073 6.10927
#
# Compressibility (1/GPa) = 0.03173729
#
# Stress axis : x y z
#
# Youngs Moduli (GPa) = 24.94404 59.56849 101.16791
#
# Poissons Ratio (x) = 0.60511 0.55570
# Poissons Ratio (y) = 0.25339 0.18829
# Poissons Ratio (z) = 0.13701 0.11087
#
# Static dielectric constant tensor:
#      x y z
#    x 3.228550 0.000000 0.000000 
#    y 0.000000 3.451090 0.000000 
#    z 0.000000 0.000000 3.620820 
# 
# 
# High freq. dielectric constant tensor:
#      x y z
#    x 1.707200 0.000000 0.000000 
#    y 0.000000 1.726720 0.000000 
#    z 0.000000 0.000000 1.745670 
# 
# From -- ./inp_files/3929.got.cif
#   From: 2010.03.12/outbox.cif.g09.slc.cpg/sg31_2_cif.got.tgz:3929.got - 2010.04.14 01:42:59.
