data_PCOD8169301
_publ_section_title
;
Structure prediction by ZEFSAII (Michael W. Deem and Ramdas Pophale) SiO2 
 PCOD8169301
Probable space group: P C A 21
;
_chemical_formula_sum "Si O2"
_cell_formula_units_Z 20
_cell_length_a 10.814410
_cell_length_b 8.876180
_cell_length_c 7.798311
_cell_angle_alpha 90.000000
_cell_angle_beta 90.000000
_cell_angle_gamma 90.000000
_cell_volume 748.564940
_symmetry_space_group_name_H-M "P C A 21"
_symmetry_group_IT_number 29
_symmetry_cell_setting 'orthorhombic'
loop_
_space_group_symop_operation_xyz
x,y,z
-x,-y,1/2+z
1/2-x,y,1/2+z
1/2+x,-y,z
loop_
_atom_site_type_symbol
_atom_site_label
_atom_site_fract_x
_atom_site_fract_y
_atom_site_fract_z
Si Si1 0.290007 0.605848 0.568500
Si Si2 0.547043 0.195683 0.851166
Si Si3 0.630788 0.963274 0.572813
Si Si4 0.408724 0.753904 0.891973
Si Si5 0.648097 0.732241 0.078557
O O1 0.352427 0.674987 0.394694
O O2 0.370086 0.665815 0.724493
O O3 0.148075 0.664704 0.560033
O O4 0.284091 0.426704 0.560574
O O5 0.429688 0.266019 0.753145
O O6 0.608586 0.058903 0.745069
O O7 0.492744 0.134571 0.034004
O O8 0.753117 0.864836 0.586276
O O9 0.645247 0.076409 0.408081
O O10 0.557664 0.755250 0.914061
#
# Coordination Sequence:
#
# PCOD8169301 Si02
#       5
#     4   4   4   4   4
#     4  12  27  51  78 112 166 206 267 334 411 480
#     4  11  27  50  80 115 158 212 268 333 403 478
#     4  11  27  50  80 116 153 210 270 328 396 484
#     4  11  27  50  75 115 157 209 265 332 401 483
#     4  11  28  49  83 116 156 209 272 331 411 477
#
# _framework density 26.717787999999999
#
# number of rings (size 3 to 8) (size 9 to 14) (size 15 to 20)
#    0.000    0.800    0.000    4.800   16.800    1.600 
#    0.000    0.000    0.000    0.000    0.000    0.000 
#    0.000    0.000    0.000    0.000    0.000    0.000 
#
# Total GULP energy -248009.945323 kJ/mol
# GULP energy per Si atom -12400.497266 kJ/mol
# Density = 2.665698 g / cm^3
# Si number density = 26.717788 Si / 1000 Ang^3
#
#
#
# Elastic Constant Matrix: (Units=GPa)
#
#
# Indices 1 2 3 4 5 6 
#
# 1 135.9169 65.2891 3.1538 0.0000 0.0000 0.0000
# 2 65.2891 161.2294 -8.4933 0.0000 0.0000 0.0000
# 3 3.1538 -8.4933 44.6686 0.0000 0.0000 0.0000
# 4 0.0000 0.0000 0.0000 36.1539 0.0000 0.0000
# 5 0.0000 0.0000 0.0000 0.0000 38.5000 0.0000
# 6 0.0000 0.0000 0.0000 0.0000 0.0000 37.2773
#
#
#
# Elastic Compliance Matrix: (Units=1/GPa)
#
#
# Indices 1 2 3 4 5 6 
#
# 1 0.009217 -0.003805 -0.001374 0.000000 0.000000 0.000000
# 2 -0.003805 0.007836 0.001759 0.000000 0.000000 0.000000
# 3 -0.001374 0.001759 0.022818 0.000000 0.000000 0.000000
# 4 0.000000 0.000000 0.000000 0.027660 0.000000 0.000000
# 5 0.000000 0.000000 0.000000 0.000000 0.025974 0.000000
# 6 0.000000 0.000000 0.000000 0.000000 0.000000 0.026826
#
#
# Mechanical properties :
#
#
# Convention : Reuss Voigt Hill
#
# Bulk Modulus (GPa) = 30.27525 51.30155 40.78840
# Shear Modulus (GPa) = 36.18423 41.17725 38.68074
#
# Velocity S-wave (km/s) = 3.68409 3.93006 3.80906
# Velocity P-wave (km/s) = 5.42704 6.31164 5.88598
#
# Compressibility (1/GPa) = 0.03303028
#
# Stress axis : x y z
#
# Youngs Moduli (GPa) = 108.49542 127.62108 43.82411
#
# Poissons Ratio (x) = 0.48557 0.06022
# Poissons Ratio (y) = 0.41280 -0.07707
# Poissons Ratio (z) = 0.14909 -0.22442
#
# Static dielectric constant tensor:
#      x y z
#    x 4.978920 0.000000 0.000000 
#    y 0.000000 4.885450 0.000000 
#    z 0.000000 0.000000 4.972990 
# 
# 
# High freq. dielectric constant tensor:
#      x y z
#    x 2.084550 0.000000 0.000000 
#    y 0.000000 2.074050 0.000000 
#    z 0.000000 0.000000 2.083780 
# 
# From -- ./inp_files/1347.got.cif
#   From: 2010.03.12/outbox.cif.g09.slc.cpg/sg29_1_cif.got.tgz:1347.got - 2010.04.14 03:43:10.
