data_PCOD8169561
_publ_section_title
;
Structure prediction by ZEFSAII (Michael W. Deem and Ramdas Pophale) SiO2 
 PCOD8169561
Probable space group: P N C 2
;
_chemical_formula_sum "Si O2"
_cell_formula_units_Z 22
_cell_length_a 7.930052
_cell_length_b 12.329045
_cell_length_c 8.183908
_cell_angle_alpha 90.000000
_cell_angle_beta 90.000000
_cell_angle_gamma 90.000000
_cell_volume 800.140423
_symmetry_space_group_name_H-M "P N C 2"
_symmetry_group_IT_number 30
_symmetry_cell_setting 'orthorhombic'
loop_
_space_group_symop_operation_xyz
x,y,z
-x,-y,z
-x,1/2+y,1/2+z
x,1/2-y,1/2+z
loop_
_atom_site_type_symbol
_atom_site_label
_atom_site_fract_x
_atom_site_fract_y
_atom_site_fract_z
Si Si1 0.523507 0.653051 0.615430
Si Si2 0.239622 0.161590 0.502769
Si Si3 0.977982 0.871576 0.823902
Si Si4 0.500000 0.500000 0.066784
Si Si5 0.350142 0.675740 0.304104
Si Si6 0.868191 0.904049 0.172012
O O1 0.633300 0.740183 0.515645
O O2 0.382635 0.621940 0.482232
O O3 0.432966 0.704309 0.775278
O O4 0.666083 0.560665 0.658745
O O5 0.148262 0.147952 0.675941
O O6 0.120649 0.172038 0.337162
O O7 0.345607 0.050572 0.463918
O O8 0.151087 0.811651 0.781563
O O9 0.912989 0.833318 0.007254
O O10 0.000000 0.000000 0.847395
O O11 0.426245 0.596772 0.172657
O O12 0.000000 0.000000 0.197104
#
# Coordination Sequence:
#
# PCOD8169561 Si02
#       6
#     4   4   4   2   4   4
#     4  11  24  48  70 107 148 198 246 313 373 450
#     4  11  23  48  75 104 150 193 249 310 377 440
#     4  11  24  46  73 108 142 192 247 312 372 442
#     4  10  22  42  76 100 144 206 238 308 378 448
#     4  11  24  46  74 103 150 197 248 308 382 444
#     4  11  25  45  74 110 146 197 248 310 369 449
#
# _framework density 27.495177000000002
#
# number of rings (size 3 to 8) (size 9 to 14) (size 15 to 20)
#    0.000    1.091    3.636    2.727    2.545    1.455 
#    9.818    0.000    0.000    0.000    0.000    0.000 
#    0.000    0.000    0.000    0.000    0.000    0.000 
#
# Total GULP energy -272574.118119 kJ/mol
# GULP energy per Si atom -12389.732642 kJ/mol
# Density = 2.743260 g / cm^3
# Si number density = 27.495177 Si / 1000 Ang^3
#
#
#
# Elastic Constant Matrix: (Units=GPa)
#
#
# Indices 1 2 3 4 5 6 
#
# 1 139.1736 13.3815 26.3610 0.0000 0.0000 0.0000
# 2 13.3815 27.8616 12.6259 0.0000 0.0000 0.0000
# 3 26.3610 12.6259 196.0070 0.0000 0.0000 0.0000
# 4 0.0000 0.0000 0.0000 111.0061 0.0000 0.0000
# 5 0.0000 0.0000 0.0000 0.0000 121.0021 0.0000
# 6 0.0000 0.0000 0.0000 0.0000 0.0000 43.0390
#
#
#
# Elastic Compliance Matrix: (Units=1/GPa)
#
#
# Indices 1 2 3 4 5 6 
#
# 1 0.007658 -0.003308 -0.000817 0.000000 0.000000 0.000000
# 2 -0.003308 0.038400 -0.002029 0.000000 0.000000 0.000000
# 3 -0.000817 -0.002029 0.005342 0.000000 0.000000 0.000000
# 4 0.000000 0.000000 0.000000 0.009009 0.000000 0.000000
# 5 0.000000 0.000000 0.000000 0.000000 0.008264 0.000000
# 6 0.000000 0.000000 0.000000 0.000000 0.000000 0.023235
#
#
# Mechanical properties :
#
#
# Convention : Reuss Voigt Hill
#
# Bulk Modulus (GPa) = 25.57978 51.97543 38.77760
# Shear Modulus (GPa) = 42.64553 75.72103 59.18328
#
# Velocity S-wave (km/s) = 3.94257 5.25353 4.64453
# Velocity P-wave (km/s) = 5.48167 7.46618 6.54953
#
# Compressibility (1/GPa) = 0.03909338
#
# Stress axis : x y z
#
# Youngs Moduli (GPa) = 130.58168 26.04187 187.18199
#
# Poissons Ratio (x) = 0.08614 0.15290
# Poissons Ratio (y) = 0.43195 0.37973
# Poissons Ratio (z) = 0.10667 0.05283
#
# Static dielectric constant tensor:
#      x y z
#    x 6.122520 0.000000 0.000000 
#    y 0.000000 2.661330 0.000000 
#    z 0.000000 0.000000 5.312800 
# 
# 
# High freq. dielectric constant tensor:
#      x y z
#    x 2.119850 0.000000 0.000000 
#    y 0.000000 2.106820 0.000000 
#    z 0.000000 0.000000 2.133900 
# 
# From -- ./inp_files/1805.got.cif
#   From: 2010.03.12/outbox.cif.g09.slc.cpg/sg30_1_cif.got.tgz:1805.got - 2010.04.14 01:38:02.
