data_PCOD8169693
_publ_section_title
;
Structure prediction by ZEFSAII (Michael W. Deem and Ramdas Pophale) SiO2 
 PCOD8169693
Probable space group: P M N 21
;
_chemical_formula_sum "Si O2"
_cell_formula_units_Z 32
_cell_length_a 22.819965
_cell_length_b 6.841184
_cell_length_c 12.724813
_cell_angle_alpha 90.000000
_cell_angle_beta 90.000000
_cell_angle_gamma 90.000000
_cell_volume 1986.541555
_symmetry_space_group_name_H-M "P M N 21"
_symmetry_group_IT_number 31
_symmetry_cell_setting 'orthorhombic'
loop_
_space_group_symop_operation_xyz
x,y,z
1/2-x,-y,1/2+z
-x,y,z
1/2+x,-y,1/2+z
loop_
_atom_site_type_symbol
_atom_site_label
_atom_site_fract_x
_atom_site_fract_y
_atom_site_fract_z
Si Si1 0.822059 0.480319 0.383320
Si Si2 0.566661 0.316920 0.563893
Si Si3 0.620620 0.912088 0.631050
Si Si4 0.736442 0.846171 0.747366
Si Si5 0.345447 0.589233 0.477913
Si Si6 0.729017 0.483716 0.100708
Si Si7 0.228307 0.258688 0.791394
Si Si8 0.565332 0.594754 0.762561
O O1 0.787967 0.287551 0.342101
O O2 0.819046 0.504341 0.508855
O O3 0.792175 0.669889 0.330600
O O4 0.890256 0.470236 0.353989
O O5 0.500000 0.302251 0.523381
O O6 0.605871 0.416969 0.472046
O O7 0.571877 0.444871 0.667929
O O8 0.590628 0.106793 0.592697
O O9 0.684599 0.946920 0.680617
O O10 0.625364 0.779739 0.527749
O O11 0.580126 0.810226 0.719359
O O12 0.776810 0.713838 0.670420
O O13 0.774613 0.022646 0.796384
O O14 0.293909 0.508480 0.552406
O O15 0.322201 0.645179 0.363070
O O16 0.718175 0.673053 0.172303
O O17 0.500000 0.594126 0.810193
#
# Coordination Sequence:
#
# PCOD8169693 Si02
#       8
#     4   4   4   4   4   4   4   4
#     4   9  18  30  45  68  94 119 148 185 222 267
#     4  10  18  29  47  67  90 120 148 181 225 269
#     4   9  16  28  44  66  93 117 146 180 219 269
#     4   9  17  28  45  66  90 122 149 179 226 268
#     4   9  19  30  44  67  92 118 147 184 223 264
#     4   9  18  30  45  66  92 118 150 185 221 266
#     4  10  18  30  46  66  92 120 150 184 222 268
#     4   9  17  29  45  68  94 118 147 182 222 267
#
# _framework density 16.108397
#
# number of rings (size 3 to 8) (size 9 to 14) (size 15 to 20)
#    0.000    2.750    0.000    4.125    0.000    6.500 
#    0.000    0.000    0.000    0.750    0.000    0.875 
#    0.000    0.000    0.000    0.000    0.000    0.000 
#
# Total GULP energy -396722.308167 kJ/mol
# GULP energy per Si atom -12397.572130 kJ/mol
# Density = 1.607173 g / cm^3
# Si number density = 16.108397 Si / 1000 Ang^3
#
#
#
# Elastic Constant Matrix: (Units=GPa)
#
#
# Indices 1 2 3 4 5 6 
#
# 1 87.4380 37.0779 36.1632 0.0000 0.0000 0.0000
# 2 37.0779 95.2645 28.2607 0.0000 0.0000 0.0000
# 3 36.1632 28.2607 80.8509 0.0000 0.0000 0.0000
# 4 0.0000 0.0000 0.0000 16.2639 0.0000 0.0000
# 5 0.0000 0.0000 0.0000 0.0000 19.1315 0.0000
# 6 0.0000 0.0000 0.0000 0.0000 0.0000 18.3255
#
#
#
# Elastic Compliance Matrix: (Units=1/GPa)
#
#
# Indices 1 2 3 4 5 6 
#
# 1 0.015560 -0.004453 -0.005403 0.000000 0.000000 0.000000
# 2 -0.004453 0.012986 -0.002547 0.000000 0.000000 0.000000
# 3 -0.005403 -0.002547 0.015676 0.000000 0.000000 0.000000
# 4 0.000000 0.000000 0.000000 0.061486 0.000000 0.000000
# 5 0.000000 0.000000 0.000000 0.000000 0.052270 0.000000
# 6 0.000000 0.000000 0.000000 0.000000 0.000000 0.054569
#
#
# Mechanical properties :
#
#
# Convention : Reuss Voigt Hill
#
# Bulk Modulus (GPa) = 51.50870 51.83967 51.67418
# Shear Modulus (GPa) = 20.50659 21.54760 21.02709
#
# Velocity S-wave (km/s) = 3.57184 3.66137 3.61688
# Velocity P-wave (km/s) = 7.00403 7.07996 7.04210
#
# Compressibility (1/GPa) = 0.01941420
#
# Stress axis : x y z
#
# Youngs Moduli (GPa) = 64.26884 77.00611 63.79375
#
# Poissons Ratio (x) = 0.34292 0.34468
# Poissons Ratio (y) = 0.28620 0.16250
# Poissons Ratio (z) = 0.34724 0.19616
#
# Static dielectric constant tensor:
#      x y z
#    x 3.030020 0.000000 0.000000 
#    y 0.000000 3.085170 0.000000 
#    z 0.000000 0.000000 2.948620 
# 
# 
# High freq. dielectric constant tensor:
#      x y z
#    x 1.595440 0.000000 0.000000 
#    y 0.000000 1.627580 0.000000 
#    z 0.000000 0.000000 1.596220 
# 
# From -- ./inp_files/4569.got.cif
#   From: 2010.03.12/outbox.cif.g09.slc.cpg/sg31_3_cif.got.tgz:4569.got - 2010.04.14 01:42:59.
