data_PCOD8169056
_publ_section_title
;
Structure prediction by ZEFSAII (Michael W. Deem and Ramdas Pophale) SiO2 
 PCOD8169056
Probable space group: P C A 21
;
_chemical_formula_sum "Si O2"
_cell_formula_units_Z 28
_cell_length_a 8.625238
_cell_length_b 14.749807
_cell_length_c 10.399924
_cell_angle_alpha 90.000000
_cell_angle_beta 90.000000
_cell_angle_gamma 90.000000
_cell_volume 1323.084528
_symmetry_space_group_name_H-M "P C A 21"
_symmetry_group_IT_number 29
_symmetry_cell_setting 'orthorhombic'
loop_
_space_group_symop_operation_xyz
x,y,z
-x,-y,1/2+z
1/2-x,y,1/2+z
1/2+x,-y,z
loop_
_atom_site_type_symbol
_atom_site_label
_atom_site_fract_x
_atom_site_fract_y
_atom_site_fract_z
Si Si1 0.526471 0.876896 0.798110
Si Si2 0.935834 0.395571 0.436254
Si Si3 0.249585 0.978735 0.691214
Si Si4 0.027577 0.123088 0.084315
Si Si5 0.426302 0.313276 0.684032
Si Si6 0.570086 0.404785 0.435713
Si Si7 0.571860 0.687311 0.689799
O O1 0.353691 0.914331 0.779683
O O2 0.561912 0.796078 0.699336
O O3 0.645842 0.959077 0.782791
O O4 0.542010 0.837259 0.941113
O O5 0.753221 0.403043 0.455343
O O6 0.970461 0.347919 0.301159
O O7 0.013535 0.492984 0.438254
O O8 0.006842 0.336196 0.550285
O O9 0.145461 0.913696 0.603624
O O10 0.353483 0.040559 0.599018
O O11 0.065171 0.203929 0.183199
O O12 0.490361 0.351132 0.550795
O O13 0.249393 0.345417 0.702775
O O14 0.528719 0.361070 0.299018
#
# Coordination Sequence:
#
# PCOD8169056 Si02
#       7
#     4   4   4   4   4   4   4
#     4  11  23  43  68  97 138 176 229 274 341 394
#     4  12  28  46  74 103 136 183 227 285 344 413
#     4  10  24  42  64 100 130 182 224 284 328 402
#     4  11  23  43  68  97 138 176 229 274 341 394
#     4  12  25  44  72 104 142 181 228 285 341 410
#     4  12  26  50  72 101 138 179 233 281 346 409
#     4  12  25  44  72 104 142 181 228 285 341 410
#
# _framework density 21.162669000000001
#
# number of rings (size 3 to 8) (size 9 to 14) (size 15 to 20)
#    0.000    0.571    2.857    5.143    4.000    0.000 
#   10.286    0.000    0.000    0.000    0.000    0.000 
#    0.000    0.000    0.000    0.000    0.000    0.000 
#
# Total GULP energy -347394.797343 kJ/mol
# GULP energy per Si atom -12406.957048 kJ/mol
# Density = 2.111450 g / cm^3
# Si number density = 21.162669 Si / 1000 Ang^3
#
#
#
# Elastic Constant Matrix: (Units=GPa)
#
#
# Indices 1 2 3 4 5 6 
#
# 1 119.5803 38.9578 23.1117 0.0000 0.0000 0.0000
# 2 38.9578 88.6957 23.4167 0.0000 0.0000 0.0000
# 3 23.1117 23.4167 82.2123 0.0000 0.0000 0.0000
# 4 0.0000 0.0000 0.0000 37.3052 0.0000 0.0000
# 5 0.0000 0.0000 0.0000 0.0000 30.5443 0.0000
# 6 0.0000 0.0000 0.0000 0.0000 0.0000 8.4225
#
#
#
# Elastic Compliance Matrix: (Units=1/GPa)
#
#
# Indices 1 2 3 4 5 6 
#
# 1 0.009970 -0.003935 -0.001682 0.000000 0.000000 0.000000
# 2 -0.003935 0.013744 -0.002809 0.000000 0.000000 0.000000
# 3 -0.001682 -0.002809 0.013436 0.000000 0.000000 0.000000
# 4 0.000000 0.000000 0.000000 0.026806 0.000000 0.000000
# 5 0.000000 0.000000 0.000000 0.000000 0.032739 0.000000
# 6 0.000000 0.000000 0.000000 0.000000 0.000000 0.118730
#
#
# Mechanical properties :
#
#
# Convention : Reuss Voigt Hill
#
# Bulk Modulus (GPa) = 49.26228 51.27342 50.26785
# Shear Modulus (GPa) = 20.91676 28.92121 24.91899
#
# Velocity S-wave (km/s) = 3.14726 3.70079 3.43519
# Velocity P-wave (km/s) = 6.04446 6.52242 6.28798
#
# Compressibility (1/GPa) = 0.02029951
#
# Stress axis : x y z
#
# Youngs Moduli (GPa) = 100.30498 72.75715 74.42446
#
# Poissons Ratio (x) = 0.28629 0.12517
# Poissons Ratio (y) = 0.39469 0.20903
# Poissons Ratio (z) = 0.16870 0.20435
#
# Static dielectric constant tensor:
#      x y z
#    x 4.064360 0.000000 0.000000 
#    y 0.000000 3.779430 0.000000 
#    z 0.000000 0.000000 3.742050 
# 
# 
# High freq. dielectric constant tensor:
#      x y z
#    x 1.848040 0.000000 0.000000 
#    y 0.000000 1.843560 0.000000 
#    z 0.000000 0.000000 1.832020 
# 
# From -- ./inp_files/1191.got.cif
#   From: 2010.03.12/outbox.cif.g09.slc.cpg/sg29_1_cif.got.tgz:1191.got - 2010.04.14 03:43:10.
