data_PCOD8169680
_publ_section_title
;
Structure prediction by ZEFSAII (Michael W. Deem and Ramdas Pophale) SiO2 
 PCOD8169680
Probable space group: P M N 21
;
_chemical_formula_sum "Si O2"
_cell_formula_units_Z 32
_cell_length_a 8.883203
_cell_length_b 9.569508
_cell_length_c 21.914112
_cell_angle_alpha 90.000000
_cell_angle_beta 90.000000
_cell_angle_gamma 90.000000
_cell_volume 1862.872251
_symmetry_space_group_name_H-M "P M N 21"
_symmetry_group_IT_number 31
_symmetry_cell_setting 'orthorhombic'
loop_
_space_group_symop_operation_xyz
x,y,z
1/2-x,-y,1/2+z
-x,y,z
1/2+x,-y,1/2+z
loop_
_atom_site_type_symbol
_atom_site_label
_atom_site_fract_x
_atom_site_fract_y
_atom_site_fract_z
Si Si1 0.172542 0.209907 0.755140
Si Si2 0.325583 0.396773 0.850474
Si Si3 0.671659 0.211751 0.198354
Si Si4 0.670996 0.028256 0.354208
Si Si5 0.177638 0.204235 0.945805
Si Si6 0.826725 0.300807 0.310194
Si Si7 0.328590 0.140428 0.069582
Si Si8 0.177041 0.953494 0.158947
O O1 0.250694 0.338888 0.788878
O O2 0.255016 0.186539 0.689661
O O3 0.000000 0.248746 0.742453
O O4 0.187414 0.073189 0.796791
O O5 0.500000 0.355283 0.849906
O O6 0.250906 0.335013 0.911241
O O7 0.300833 0.563401 0.851956
O O8 0.500000 0.172486 0.216412
O O9 0.735503 0.323946 0.246296
O O10 0.677476 0.253256 0.126161
O O11 0.778823 0.076002 0.206989
O O12 0.500000 0.078788 0.362027
O O13 0.772023 0.165623 0.347439
O O14 0.724118 0.942050 0.414043
O O15 0.000000 0.225710 0.943150
O O16 0.233261 0.204468 0.015049
O O17 0.000000 0.282776 0.293206
O O18 0.500000 0.112601 0.048960
O O19 0.255966 0.993536 0.093960
O O20 0.000000 0.938330 0.149268
#
# Coordination Sequence:
#
# PCOD8169680 Si02
#       8
#     4   4   4   4   4   4   4   4
#     4  10  18  31  49  74 101 130 165 202 249 302
#     4  10  22  35  48  72 106 139 171 211 254 305
#     4   9  18  30  48  74 101 129 162 203 249 296
#     4   9  18  30  48  71  98 126 161 205 246 294
#     4  10  20  34  52  75  99 132 172 210 254 306
#     4  11  21  32  50  76 103 135 173 209 254 304
#     4   9  18  31  49  75 102 130 165 209 251 300
#     4  10  17  27  48  75 100 127 159 203 249 293
#
# _framework density 17.177775
#
# number of rings (size 3 to 8) (size 9 to 14) (size 15 to 20)
#    0.750    1.500    1.250    3.750    0.000    4.500 
#    0.000    0.000    0.000    1.500    0.000    7.000 
#    0.000    0.000    0.000    0.000    0.000    0.000 
#
# Total GULP energy -396492.545283 kJ/mol
# GULP energy per Si atom -12390.392040 kJ/mol
# Density = 1.713868 g / cm^3
# Si number density = 17.177775 Si / 1000 Ang^3
#
#
#
# Elastic Constant Matrix: (Units=GPa)
#
#
# Indices 1 2 3 4 5 6 
#
# 1 112.2102 40.3846 35.1011 0.0000 0.0000 0.0000
# 2 40.3846 68.5716 28.4574 0.0000 0.0000 0.0000
# 3 35.1011 28.4574 84.3365 0.0000 0.0000 0.0000
# 4 0.0000 0.0000 0.0000 17.2667 0.0000 0.0000
# 5 0.0000 0.0000 0.0000 0.0000 29.8238 0.0000
# 6 0.0000 0.0000 0.0000 0.0000 0.0000 23.5639
#
#
#
# Elastic Compliance Matrix: (Units=1/GPa)
#
#
# Indices 1 2 3 4 5 6 
#
# 1 0.011935 -0.005776 -0.003018 0.000000 0.000000 0.000000
# 2 -0.005776 0.019754 -0.004261 0.000000 0.000000 0.000000
# 3 -0.003018 -0.004261 0.014551 0.000000 0.000000 0.000000
# 4 0.000000 0.000000 0.000000 0.057915 0.000000 0.000000
# 5 0.000000 0.000000 0.000000 0.000000 0.033530 0.000000
# 6 0.000000 0.000000 0.000000 0.000000 0.000000 0.042438
#
#
# Mechanical properties :
#
#
# Convention : Reuss Voigt Hill
#
# Bulk Modulus (GPa) = 49.68170 52.55605 51.11887
# Shear Modulus (GPa) = 23.48036 24.87592 24.17814
#
# Velocity S-wave (km/s) = 3.70118 3.80958 3.75577
# Velocity P-wave (km/s) = 6.87385 7.07194 6.97360
#
# Compressibility (1/GPa) = 0.02012814
#
# Stress axis : x y z
#
# Youngs Moduli (GPa) = 83.78771 50.62352 68.72226
#
# Poissons Ratio (x) = 0.29242 0.20742
# Poissons Ratio (y) = 0.48399 0.29284
# Poissons Ratio (z) = 0.25289 0.21572
#
# Static dielectric constant tensor:
#      x y z
#    x 3.292270 0.000000 0.000000 
#    y 0.000000 2.895650 0.000000 
#    z 0.000000 0.000000 3.135620 
# 
# 
# High freq. dielectric constant tensor:
#      x y z
#    x 1.681230 0.000000 0.000000 
#    y 0.000000 1.622120 0.000000 
#    z 0.000000 0.000000 1.650220 
# 
# From -- ./inp_files/6502.got.cif
#   From: 2010.03.12/outbox.cif.g09.slc.cpg/sg31_4_cif.got.tgz:6502.got - 2010.04.14 01:42:59.
