data_PCOD8169384
_publ_section_title
;
Structure prediction by ZEFSAII (Michael W. Deem and Ramdas Pophale) SiO2 
 PCOD8169384
Probable space group: P N C 2
;
_chemical_formula_sum "Si O2"
_cell_formula_units_Z 22
_cell_length_a 8.005768
_cell_length_b 17.384721
_cell_length_c 7.884892
_cell_angle_alpha 90.000000
_cell_angle_beta 90.000000
_cell_angle_gamma 90.000000
_cell_volume 1097.403838
_symmetry_space_group_name_H-M "P N C 2"
_symmetry_group_IT_number 30
_symmetry_cell_setting 'orthorhombic'
loop_
_space_group_symop_operation_xyz
x,y,z
-x,-y,z
-x,1/2+y,1/2+z
x,1/2-y,1/2+z
loop_
_atom_site_type_symbol
_atom_site_label
_atom_site_fract_x
_atom_site_fract_y
_atom_site_fract_z
Si Si1 0.150634 0.149557 0.685130
Si Si2 0.033662 0.750368 0.416977
Si Si3 0.664160 0.322165 0.782152
Si Si4 0.000000 0.000000 0.833015
Si Si5 0.733898 0.391797 0.463043
Si Si6 0.466543 0.665107 0.155644
O O1 0.028871 0.187901 0.549948
O O2 0.129106 0.204636 0.848970
O O3 0.340869 0.143456 0.630714
O O4 0.079207 0.064764 0.714123
O O5 0.138832 0.798587 0.277717
O O6 0.168460 0.688575 0.480576
O O7 0.636396 0.392105 0.645119
O O8 0.546439 0.252320 0.720603
O O9 0.618564 0.348512 0.972965
O O10 0.144197 0.964854 0.952657
O O11 0.614484 0.391382 0.297287
#
# Coordination Sequence:
#
# PCOD8169384 Si02
#       6
#     4   4   4   2   4   4
#     4  11  22  38  63  95 125 163 215 263 317 382
#     4  10  18  36  63  88 119 163 215 254 296 379
#     4  11  18  36  61  96 122 162 206 267 309 360
#     4  10  24  42  62  86 128 176 206 260 336 382
#     4  10  21  40  62  89 126 167 208 258 319 376
#     4  11  21  34  63  95 125 157 208 269 316 363
#
# _framework density 20.047312999999999
#
# number of rings (size 3 to 8) (size 9 to 14) (size 15 to 20)
#    0.000    1.455    5.455    3.273    0.000    0.727 
#    0.000    3.636    0.000    4.364    0.000    0.000 
#    0.000    0.000    0.000    0.000    0.000    0.000 
#
# Total GULP energy -272607.043535 kJ/mol
# GULP energy per Si atom -12391.229252 kJ/mol
# Density = 2.000168 g / cm^3
# Si number density = 20.047313 Si / 1000 Ang^3
#
#
#
# Elastic Constant Matrix: (Units=GPa)
#
#
# Indices 1 2 3 4 5 6 
#
# 1 102.9623 35.5079 32.1791 0.0000 0.0000 0.0000
# 2 35.5079 87.8363 37.5414 0.0000 0.0000 0.0000
# 3 32.1791 37.5414 126.1673 0.0000 0.0000 0.0000
# 4 0.0000 0.0000 0.0000 25.6709 0.0000 0.0000
# 5 0.0000 0.0000 0.0000 0.0000 20.8501 0.0000
# 6 0.0000 0.0000 0.0000 0.0000 0.0000 21.5128
#
#
#
# Elastic Compliance Matrix: (Units=1/GPa)
#
#
# Indices 1 2 3 4 5 6 
#
# 1 0.011630 -0.003934 -0.001796 0.000000 0.000000 0.000000
# 2 -0.003934 0.014374 -0.003274 0.000000 0.000000 0.000000
# 3 -0.001796 -0.003274 0.009358 0.000000 0.000000 0.000000
# 4 0.000000 0.000000 0.000000 0.038955 0.000000 0.000000
# 5 0.000000 0.000000 0.000000 0.000000 0.047961 0.000000
# 6 0.000000 0.000000 0.000000 0.000000 0.000000 0.046484
#
#
# Mechanical properties :
#
#
# Convention : Reuss Voigt Hill
#
# Bulk Modulus (GPa) = 57.61804 58.60252 58.11028
# Shear Modulus (GPa) = 25.96664 27.72260 26.84462
#
# Velocity S-wave (km/s) = 3.60289 3.72272 3.66329
# Velocity P-wave (km/s) = 6.79052 6.91185 6.85145
#
# Compressibility (1/GPa) = 0.01735568
#
# Stress axis : x y z
#
# Youngs Moduli (GPa) = 85.98295 69.56834 106.85935
#
# Poissons Ratio (x) = 0.27368 0.19189
# Poissons Ratio (y) = 0.33826 0.34983
# Poissons Ratio (z) = 0.15440 0.22775
#
# Static dielectric constant tensor:
#      x y z
#    x 3.713360 0.000000 0.000000 
#    y 0.000000 3.371800 0.000000 
#    z 0.000000 0.000000 3.865470 
# 
# 
# High freq. dielectric constant tensor:
#      x y z
#    x 1.777580 0.000000 0.000000 
#    y 0.000000 1.748900 0.000000 
#    z 0.000000 0.000000 1.794280 
# 
# From -- ./inp_files/1902.got.cif
#   From: 2010.03.12/outbox.cif.g09.slc.cpg/sg30_1_cif.got.tgz:1902.got - 2010.04.14 01:38:02.
