data_PCOD8169444
_publ_section_title
;
Structure prediction by ZEFSAII (Michael W. Deem and Ramdas Pophale) SiO2 
 PCOD8169444
Probable space group: P N C 2
;
_chemical_formula_sum "Si O2"
_cell_formula_units_Z 32
_cell_length_a 8.336978
_cell_length_b 21.203875
_cell_length_c 8.789069
_cell_angle_alpha 90.000000
_cell_angle_beta 90.000000
_cell_angle_gamma 90.000000
_cell_volume 1553.698566
_symmetry_space_group_name_H-M "P N C 2"
_symmetry_group_IT_number 30
_symmetry_cell_setting 'orthorhombic'
loop_
_space_group_symop_operation_xyz
x,y,z
-x,-y,z
-x,1/2+y,1/2+z
x,1/2-y,1/2+z
loop_
_atom_site_type_symbol
_atom_site_label
_atom_site_fract_x
_atom_site_fract_y
_atom_site_fract_z
Si Si1 0.023483 0.663630 0.486210
Si Si2 0.812369 0.776579 0.426827
Si Si3 0.373149 0.305650 0.203322
Si Si4 0.051922 0.882351 0.498600
Si Si5 0.281978 0.841017 0.762589
Si Si6 0.159489 0.419714 0.261724
Si Si7 0.670451 0.469333 0.421804
Si Si8 0.884238 0.440703 0.696811
O O1 0.895651 0.717903 0.514131
O O2 0.974776 0.607611 0.372339
O O3 0.180770 0.692059 0.399292
O O4 0.049294 0.627509 0.643700
O O5 0.732619 0.751556 0.272599
O O6 0.663129 0.802008 0.524745
O O7 0.946277 0.830475 0.406592
O O8 0.562512 0.297446 0.231102
O O9 0.312665 0.373199 0.264615
O O10 0.925202 0.924291 0.596347
O O11 0.180702 0.847488 0.606576
O O12 0.144278 0.927727 0.377295
O O13 0.347524 0.907482 0.821431
O O14 0.208909 0.487545 0.324005
O O15 0.500000 0.500000 0.443446
O O16 0.728539 0.455927 0.594870
O O17 0.000000 0.500000 0.675956
#
# Coordination Sequence:
#
# PCOD8169444 Si02
#       8
#     4   4   4   4   4   4   4   4
#     4   9  19  37  63  86 116 163 212 252 298 371
#     4  10  21  40  64  82 124 163 205 257 311 379
#     4  10  20  38  59  92 114 162 203 250 309 372
#     4  10  23  38  59  94 125 159 206 268 323 360
#     4  10  22  36  61  91 120 157 215 254 302 380
#     4   9  18  37  61  83 118 161 211 234 298 388
#     4  11  21  39  62  87 124 167 205 254 308 381
#     4  11  22  36  59  93 124 155 205 261 315 368
#
# _framework density 20.596015999999999
#
# number of rings (size 3 to 8) (size 9 to 14) (size 15 to 20)
#    0.000    2.000    2.500    1.500    1.750    1.000 
#    0.000    6.875    0.000    0.000    0.000    0.000 
#    0.000    0.000    0.000    0.000    0.000    0.000 
#
# Total GULP energy -396522.080276 kJ/mol
# GULP energy per Si atom -12391.315009 kJ/mol
# Density = 2.054914 g / cm^3
# Si number density = 20.596016 Si / 1000 Ang^3
#
#
#
# Elastic Constant Matrix: (Units=GPa)
#
#
# Indices 1 2 3 4 5 6 
#
# 1 104.3883 23.7629 35.7701 0.0000 0.0000 0.0000
# 2 23.7629 53.5873 25.8046 0.0000 0.0000 0.0000
# 3 35.7701 25.8046 97.0656 0.0000 0.0000 0.0000
# 4 0.0000 0.0000 0.0000 15.1916 0.0000 0.0000
# 5 0.0000 0.0000 0.0000 0.0000 19.8392 0.0000
# 6 0.0000 0.0000 0.0000 0.0000 0.0000 27.6399
#
#
#
# Elastic Compliance Matrix: (Units=1/GPa)
#
#
# Indices 1 2 3 4 5 6 
#
# 1 0.011513 -0.003512 -0.003309 0.000000 0.000000 0.000000
# 2 -0.003512 0.022472 -0.004680 0.000000 0.000000 0.000000
# 3 -0.003309 -0.004680 0.012766 0.000000 0.000000 0.000000
# 4 0.000000 0.000000 0.000000 0.065826 0.000000 0.000000
# 5 0.000000 0.000000 0.000000 0.000000 0.050405 0.000000
# 6 0.000000 0.000000 0.000000 0.000000 0.000000 0.036180
#
#
# Mechanical properties :
#
#
# Convention : Reuss Voigt Hill
#
# Bulk Modulus (GPa) = 42.10682 47.30182 44.70432
# Shear Modulus (GPa) = 21.73162 23.84773 22.78967
#
# Velocity S-wave (km/s) = 3.25181 3.40646 3.33003
# Velocity P-wave (km/s) = 5.88112 6.20389 6.04466
#
# Compressibility (1/GPa) = 0.02374912
#
# Stress axis : x y z
#
# Youngs Moduli (GPa) = 86.85864 44.49970 78.33373
#
# Poissons Ratio (x) = 0.15628 0.25921
# Poissons Ratio (y) = 0.30504 0.36660
# Poissons Ratio (z) = 0.28742 0.20826
#
# Static dielectric constant tensor:
#      x y z
#    x 3.670250 0.000000 0.000000 
#    y 0.000000 3.599570 0.000000 
#    z 0.000000 0.000000 3.661330 
# 
# 
# High freq. dielectric constant tensor:
#      x y z
#    x 1.795400 0.000000 0.000000 
#    y 0.000000 1.798620 0.000000 
#    z 0.000000 0.000000 1.804720 
# 
# From -- ./inp_files/2157.got.cif
#   From: 2010.03.12/outbox.cif.g09.slc.cpg/sg30_2_cif.got.tgz:2157.got - 2010.04.14 01:38:02.
