data_PCOD8169727
_publ_section_title
;
Structure prediction by ZEFSAII (Michael W. Deem and Ramdas Pophale) SiO2 
 PCOD8169727
Probable space group: P M N 21
;
_chemical_formula_sum "Si O2"
_cell_formula_units_Z 32
_cell_length_a 9.208815
_cell_length_b 11.130381
_cell_length_c 16.559573
_cell_angle_alpha 90.000000
_cell_angle_beta 90.000000
_cell_angle_gamma 90.000000
_cell_volume 1697.316813
_symmetry_space_group_name_H-M "P M N 21"
_symmetry_group_IT_number 31
_symmetry_cell_setting 'orthorhombic'
loop_
_space_group_symop_operation_xyz
x,y,z
1/2-x,-y,1/2+z
-x,y,z
1/2+x,-y,1/2+z
loop_
_atom_site_type_symbol
_atom_site_label
_atom_site_fract_x
_atom_site_fract_y
_atom_site_fract_z
Si Si1 0.828253 0.318867 0.737250
Si Si2 0.167261 0.207287 0.311316
Si Si3 0.331966 0.732543 0.567036
Si Si4 0.672381 0.079928 0.443714
Si Si5 0.831077 0.185115 0.895020
Si Si6 0.160362 0.900938 0.674448
Si Si7 0.660465 0.852953 0.098619
Si Si8 0.834782 0.440534 0.207567
O O1 0.762224 0.245872 0.814677
O O2 0.784294 0.259060 0.651985
O O3 0.767755 0.452577 0.734152
O O4 0.000000 0.326812 0.747183
O O5 0.256358 0.188547 0.393273
O O6 0.232706 0.112166 0.249196
O O7 0.188744 0.339917 0.275880
O O8 0.000000 0.177267 0.326711
O O9 0.500000 0.766850 0.585096
O O10 0.304415 0.723056 0.470741
O O11 0.229655 0.840429 0.595558
O O12 0.293550 0.612188 0.618264
O O13 0.500000 0.086730 0.438006
O O14 0.719686 0.108986 0.534418
O O15 0.731625 0.948554 0.414828
O O16 0.000000 0.166656 0.880220
O O17 0.000000 0.844753 0.691519
O O18 0.142631 0.041445 0.662883
O O19 0.500000 0.827240 0.059927
O O20 0.000000 0.486060 0.206542
#
# Coordination Sequence:
#
# PCOD8169727 Si02
#       8
#     4   4   4   4   4   4   4   4
#     4  10  21  38  58  79 111 154 192 232 280 334
#     4  10  21  37  57  80 113 149 180 226 291 338
#     4   9  17  34  58  81 110 146 184 231 288 335
#     4  11  21  35  59  88 114 141 188 236 277 344
#     4   9  18  35  59  85 112 144 185 233 286 338
#     4  10  18  31  55  84 113 142 184 226 269 337
#     4  10  21  36  53  79 120 155 178 223 289 340
#     4   9  20  38  57  78 109 147 189 233 276 334
#
# _framework density 18.853287000000002
#
# number of rings (size 3 to 8) (size 9 to 14) (size 15 to 20)
#    0.000    2.250    1.250    2.625    0.000    5.500 
#    2.250    3.125    0.000    0.000    0.000    0.000 
#    0.000    0.000    0.000    0.000    0.000    0.000 
#
# Total GULP energy -396619.810603 kJ/mol
# GULP energy per Si atom -12394.369081 kJ/mol
# Density = 1.881038 g / cm^3
# Si number density = 18.853287 Si / 1000 Ang^3
#
#
#
# Elastic Constant Matrix: (Units=GPa)
#
#
# Indices 1 2 3 4 5 6 
#
# 1 74.5177 42.3770 43.5240 0.0000 0.0000 0.0000
# 2 42.3770 85.9752 55.6918 0.0000 0.0000 0.0000
# 3 43.5240 55.6918 103.7898 0.0000 0.0000 0.0000
# 4 0.0000 0.0000 0.0000 25.4107 0.0000 0.0000
# 5 0.0000 0.0000 0.0000 0.0000 28.6990 0.0000
# 6 0.0000 0.0000 0.0000 0.0000 0.0000 26.0434
#
#
#
# Elastic Compliance Matrix: (Units=1/GPa)
#
#
# Indices 1 2 3 4 5 6 
#
# 1 0.020074 -0.006808 -0.004765 0.000000 0.000000 0.000000
# 2 -0.006808 0.020137 -0.007950 0.000000 0.000000 0.000000
# 3 -0.004765 -0.007950 0.015899 0.000000 0.000000 0.000000
# 4 0.000000 0.000000 0.000000 0.039354 0.000000 0.000000
# 5 0.000000 0.000000 0.000000 0.000000 0.034844 0.000000
# 6 0.000000 0.000000 0.000000 0.000000 0.000000 0.038397
#
#
# Mechanical properties :
#
#
# Convention : Reuss Voigt Hill
#
# Bulk Modulus (GPa) = 58.60383 60.82981 59.71682
# Shear Modulus (GPa) = 23.42583 24.20995 23.81789
#
# Velocity S-wave (km/s) = 3.52878 3.58735 3.55819
# Velocity P-wave (km/s) = 6.91048 7.03518 6.97310
#
# Compressibility (1/GPa) = 0.01706373
#
# Stress axis : x y z
#
# Youngs Moduli (GPa) = 49.81466 49.66067 62.89715
#
# Poissons Ratio (x) = 0.33809 0.29971
# Poissons Ratio (y) = 0.33914 0.50004
# Poissons Ratio (z) = 0.23737 0.39481
#
# Static dielectric constant tensor:
#      x y z
#    x 3.408640 0.000000 0.000000 
#    y 0.000000 3.311690 0.000000 
#    z 0.000000 0.000000 3.614860 
# 
# 
# High freq. dielectric constant tensor:
#      x y z
#    x 1.722590 0.000000 0.000000 
#    y 0.000000 1.714260 0.000000 
#    z 0.000000 0.000000 1.737440 
# 
# From -- ./inp_files/5057.got.cif
#   From: 2010.03.12/outbox.cif.g09.slc.cpg/sg31_3_cif.got.tgz:5057.got - 2010.04.14 01:42:59.
