data_PCOD8169194
_publ_section_title
;
Structure prediction by ZEFSAII (Michael W. Deem and Ramdas Pophale) SiO2 
 PCOD8169194
Probable space group: P C A 21
;
_chemical_formula_sum "Si O2"
_cell_formula_units_Z 32
_cell_length_a 8.925667
_cell_length_b 8.762636
_cell_length_c 18.286527
_cell_angle_alpha 90.000000
_cell_angle_beta 90.000000
_cell_angle_gamma 90.000000
_cell_volume 1430.232634
_symmetry_space_group_name_H-M "P C A 21"
_symmetry_group_IT_number 29
_symmetry_cell_setting 'orthorhombic'
loop_
_space_group_symop_operation_xyz
x,y,z
-x,-y,1/2+z
1/2-x,y,1/2+z
1/2+x,-y,z
loop_
_atom_site_type_symbol
_atom_site_label
_atom_site_fract_x
_atom_site_fract_y
_atom_site_fract_z
Si Si1 0.594754 0.129271 0.214740
Si Si2 0.128654 0.678760 0.696057
Si Si3 0.130457 0.356929 0.766785
Si Si4 0.583350 0.584357 0.931286
Si Si5 0.086036 0.919516 0.050232
Si Si6 0.412500 0.289979 0.952197
Si Si7 0.595189 0.830269 0.296355
Si Si8 0.413393 0.791572 0.034797
O O1 0.698820 0.277898 0.206437
O O2 0.437255 0.199519 0.237525
O O3 0.577022 0.052332 0.136351
O O4 0.649817 0.999379 0.272020
O O5 0.106594 0.500321 0.713320
O O6 0.072403 0.711225 0.614009
O O7 0.057237 0.794637 0.754352
O O8 0.060321 0.388377 0.845728
O O9 0.304088 0.314716 0.772926
O O10 0.550565 0.406795 0.943351
O O11 0.749234 0.630379 0.959942
O O12 0.447454 0.667759 0.973068
O O13 0.249806 0.866734 0.023394
O O14 0.044596 0.085624 0.019648
O O15 0.954819 0.802892 0.025257
O O16 0.418272 0.171691 0.884134
#
# Coordination Sequence:
#
# PCOD8169194 Si02
#       8
#     4   4   4   4   4   4   4   4
#     4  11  25  43  70 101 139 186 228 291 351 415
#     4  11  23  44  70 101 139 181 230 287 345 418
#     4  11  25  43  70 101 139 186 228 291 351 415
#     4  11  25  45  68 102 139 186 233 289 349 418
#     4  11  25  45  68 102 139 186 233 289 349 418
#     4  11  25  45  70 102 141 185 235 288 351 418
#     4  11  23  44  70 101 139 181 230 287 345 418
#     4  11  25  45  70 102 141 185 235 288 351 418
#
# _framework density 22.373984
#
# number of rings (size 3 to 8) (size 9 to 14) (size 15 to 20)
#    0.000    1.000    2.500    3.000    7.000    2.000 
#    0.000    0.000    0.000    0.000    0.000    0.000 
#    0.000    0.000    0.000    0.000    0.000    0.000 
#
# Total GULP energy -396746.442480 kJ/mol
# GULP energy per Si atom -12398.326328 kJ/mol
# Density = 2.232306 g / cm^3
# Si number density = 22.373984 Si / 1000 Ang^3
#
#
#
# Elastic Constant Matrix: (Units=GPa)
#
#
# Indices 1 2 3 4 5 6 
#
# 1 72.9500 29.6446 45.3777 0.0000 0.0000 0.0000
# 2 29.6446 123.4481 50.2744 0.0000 0.0000 0.0000
# 3 45.3777 50.2744 79.3236 0.0000 0.0000 0.0000
# 4 0.0000 0.0000 0.0000 42.5547 0.0000 0.0000
# 5 0.0000 0.0000 0.0000 0.0000 26.2314 0.0000
# 6 0.0000 0.0000 0.0000 0.0000 0.0000 39.6466
#
#
#
# Elastic Compliance Matrix: (Units=1/GPa)
#
#
# Indices 1 2 3 4 5 6 
#
# 1 0.021284 -0.000206 -0.012046 0.000000 0.000000 0.000000
# 2 -0.000206 0.010921 -0.006804 0.000000 0.000000 0.000000
# 3 -0.012046 -0.006804 0.023810 0.000000 0.000000 0.000000
# 4 0.000000 0.000000 0.000000 0.023499 0.000000 0.000000
# 5 0.000000 0.000000 0.000000 0.000000 0.038122 0.000000
# 6 0.000000 0.000000 0.000000 0.000000 0.000000 0.025223
#
#
# Mechanical properties :
#
#
# Convention : Reuss Voigt Hill
#
# Bulk Modulus (GPa) = 55.85142 58.47946 57.16544
# Shear Modulus (GPa) = 26.74690 31.71487 29.23089
#
# Velocity S-wave (km/s) = 3.46127 3.76904 3.61843
# Velocity P-wave (km/s) = 6.40240 6.71825 6.56223
#
# Compressibility (1/GPa) = 0.01790465
#
# Stress axis : x y z
#
# Youngs Moduli (GPa) = 46.98272 91.56811 41.99990
#
# Poissons Ratio (x) = 0.01883 0.50591
# Poissons Ratio (y) = 0.00966 0.28576
# Poissons Ratio (z) = 0.56594 0.62302
#
# Static dielectric constant tensor:
#      x y z
#    x 3.955170 0.000000 0.000000 
#    y 0.000000 3.931160 0.000000 
#    z 0.000000 0.000000 3.983850 
# 
# 
# High freq. dielectric constant tensor:
#      x y z
#    x 1.885110 0.000000 0.000000 
#    y 0.000000 1.890600 0.000000 
#    z 0.000000 0.000000 1.878540 
# 
# From -- ./inp_files/5412.got.cif
#   From: 2010.03.12/outbox.cif.g09.slc.cpg/sg29_3_cif.got.tgz:5412.got - 2010.04.14 03:43:10.
