data_PCOD8169942
_publ_section_title
;
Structure prediction by ZEFSAII (Michael W. Deem and Ramdas Pophale) SiO2 
 PCOD8169942
Probable space group: P M N 21
;
_chemical_formula_sum "Si O2"
_cell_formula_units_Z 32
_cell_length_a 8.870598
_cell_length_b 14.654181
_cell_length_c 12.492432
_cell_angle_alpha 90.000000
_cell_angle_beta 90.000000
_cell_angle_gamma 90.000000
_cell_volume 1623.908084
_symmetry_space_group_name_H-M "P M N 21"
_symmetry_group_IT_number 31
_symmetry_cell_setting 'orthorhombic'
loop_
_space_group_symop_operation_xyz
x,y,z
1/2-x,-y,1/2+z
-x,y,z
1/2+x,-y,1/2+z
loop_
_atom_site_type_symbol
_atom_site_label
_atom_site_fract_x
_atom_site_fract_y
_atom_site_fract_z
Si Si1 0.178565 0.830856 0.152160
Si Si2 0.834027 0.638851 0.861000
Si Si3 0.180033 0.629217 0.093006
Si Si4 0.680065 0.443505 0.149551
Si Si5 0.822470 0.941221 0.946212
Si Si6 0.167754 0.825737 0.755703
Si Si7 0.175740 0.136952 0.876816
Si Si8 0.322601 0.728886 0.561039
O O1 0.230733 0.725423 0.142867
O O2 0.237625 0.867773 0.264854
O O3 0.000000 0.838553 0.152070
O O4 0.244710 0.890930 0.052373
O O5 0.751159 0.590823 0.762338
O O6 0.846127 0.745703 0.841989
O O7 0.000000 0.595147 0.869422
O O8 0.752020 0.622895 0.973153
O O9 0.261194 0.545867 0.149758
O O10 0.000000 0.619216 0.097152
O O11 0.500000 0.438611 0.141764
O O12 0.745191 0.371556 0.062482
O O13 0.759637 0.905067 0.830423
O O14 0.000000 0.922550 0.944794
O O15 0.783046 0.048463 0.949210
O O16 0.270010 0.797003 0.655568
O O17 0.000000 0.850545 0.711956
O O18 0.000000 0.137639 0.849257
O O19 0.220597 0.225336 0.947335
O O20 0.500000 0.716005 0.572427
#
# Coordination Sequence:
#
# PCOD8169942 Si02
#       8
#     4   4   4   4   4   4   4   4
#     4  10  21  38  62  87 115 150 195 241 286 346
#     4   8  15  31  53  75 100 137 181 222 276 336
#     4  10  19  35  58  83 111 146 185 234 293 348
#     4  10  21  36  57  83 110 148 195 239 283 344
#     4   9  18  36  60  84 112 151 192 233 286 346
#     4   9  16  32  59  82 104 140 188 238 282 335
#     4  10  23  39  56  82 122 162 193 233 291 347
#     4  10  21  37  55  80 116 154 191 236 287 338
#
# _framework density 19.705549000000001
#
# number of rings (size 3 to 8) (size 9 to 14) (size 15 to 20)
#    0.000    2.500    1.250    1.500    1.750    2.500 
#    0.000    8.125    0.000    0.000    0.000    0.000 
#    0.000    0.000    0.000    0.000    0.000    0.000 
#
# Total GULP energy -396493.768219 kJ/mol
# GULP energy per Si atom -12390.430257 kJ/mol
# Density = 1.966070 g / cm^3
# Si number density = 19.705549 Si / 1000 Ang^3
#
#
#
# Elastic Constant Matrix: (Units=GPa)
#
#
# Indices 1 2 3 4 5 6 
#
# 1 45.3328 29.9557 24.7176 0.0000 0.0000 0.0000
# 2 29.9557 121.9235 44.6512 0.0000 0.0000 0.0000
# 3 24.7176 44.6512 91.2344 0.0000 0.0000 0.0000
# 4 0.0000 0.0000 0.0000 27.3017 0.0000 0.0000
# 5 0.0000 0.0000 0.0000 0.0000 23.5836 0.0000
# 6 0.0000 0.0000 0.0000 0.0000 0.0000 25.2602
#
#
#
# Elastic Compliance Matrix: (Units=1/GPa)
#
#
# Indices 1 2 3 4 5 6 
#
# 1 0.028209 -0.005034 -0.005179 0.000000 0.000000 0.000000
# 2 -0.005034 0.010891 -0.003966 0.000000 0.000000 0.000000
# 3 -0.005179 -0.003966 0.014305 0.000000 0.000000 0.000000
# 4 0.000000 0.000000 0.000000 0.036628 0.000000 0.000000
# 5 0.000000 0.000000 0.000000 0.000000 0.042402 0.000000
# 6 0.000000 0.000000 0.000000 0.000000 0.000000 0.039588
#
#
# Mechanical properties :
#
#
# Convention : Reuss Voigt Hill
#
# Bulk Modulus (GPa) = 39.92521 50.79332 45.35926
# Shear Modulus (GPa) = 23.95419 25.84019 24.89719
#
# Velocity S-wave (km/s) = 3.49034 3.62514 3.55838
# Velocity P-wave (km/s) = 6.04551 6.58440 6.32070
#
# Compressibility (1/GPa) = 0.02504683
#
# Stress axis : x y z
#
# Youngs Moduli (GPa) = 35.44920 91.81593 69.90535
#
# Poissons Ratio (x) = 0.46223 0.36202
# Poissons Ratio (y) = 0.17846 0.27728
# Poissons Ratio (z) = 0.18358 0.36418
#
# Static dielectric constant tensor:
#      x y z
#    x 3.214860 0.000000 0.000000 
#    y 0.000000 3.679370 0.000000 
#    z 0.000000 0.000000 3.653030 
# 
# 
# High freq. dielectric constant tensor:
#      x y z
#    x 1.731410 0.000000 0.000000 
#    y 0.000000 1.773540 0.000000 
#    z 0.000000 0.000000 1.771360 
# 
# From -- ./inp_files/3671.got.cif
#   From: 2010.03.12/outbox.cif.g09.slc.cpg/sg31_2_cif.got.tgz:3671.got - 2010.04.14 01:42:59.
