data_PCOD8169504
_publ_section_title
;
Structure prediction by ZEFSAII (Michael W. Deem and Ramdas Pophale) SiO2 
 PCOD8169504
Probable space group: P N C 2
;
_chemical_formula_sum "Si O2"
_cell_formula_units_Z 16
_cell_length_a 19.035953
_cell_length_b 7.009535
_cell_length_c 5.251920
_cell_angle_alpha 90.000000
_cell_angle_beta 90.000000
_cell_angle_gamma 90.000000
_cell_volume 700.780380
_symmetry_space_group_name_H-M "P N C 2"
_symmetry_group_IT_number 30
_symmetry_cell_setting 'orthorhombic'
loop_
_space_group_symop_operation_xyz
x,y,z
-x,-y,z
-x,1/2+y,1/2+z
x,1/2-y,1/2+z
loop_
_atom_site_type_symbol
_atom_site_label
_atom_site_fract_x
_atom_site_fract_y
_atom_site_fract_z
Si Si1 0.717769 0.626548 0.462410
Si Si2 0.858991 0.045062 0.045458
Si Si3 0.563876 0.865133 0.030827
Si Si4 0.081693 0.527543 0.045981
O O1 0.727649 0.786602 0.680609
O O2 0.774965 0.458039 0.501098
O O3 0.639886 0.534296 0.488225
O O4 0.891551 0.254689 0.082056
O O5 0.896973 0.930780 0.814153
O O6 0.877545 0.933314 0.307343
O O7 0.558517 0.805512 0.325962
O O8 0.500000 0.000000 0.960691
O O9 0.000000 0.500000 0.995728
#
# Coordination Sequence:
#
# PCOD8169504 Si02
#       4
#     4   4   4   4
#     4  10  21  40  61  87 126 162 199 250 303 367
#     4  10  21  40  58  84 111 155 201 237 310 363
#     4  10  21  40  64  96 132 170 213 259 317 376
#     4  10  21  40  59  80 117 145 193 263 302 359
#
# _framework density 22.831689000000001
#
# number of rings (size 3 to 8) (size 9 to 14) (size 15 to 20)
#    0.000    2.000    0.000    3.000    0.000    0.000 
#   36.000    0.000    0.000    0.000    0.000    0.000 
#    0.000    0.000    0.000    0.000    0.000    0.000 
#
# Total GULP energy -198225.683238 kJ/mol
# GULP energy per Si atom -12389.105202 kJ/mol
# Density = 2.277972 g / cm^3
# Si number density = 22.831689 Si / 1000 Ang^3
#
#
#
# Elastic Constant Matrix: (Units=GPa)
#
#
# Indices 1 2 3 4 5 6 
#
# 1 173.0993 30.5196 7.6270 0.0000 0.0000 0.0000
# 2 30.5196 38.6994 -18.3977 0.0000 0.0000 0.0000
# 3 7.6270 -18.3977 181.2583 0.0000 0.0000 0.0000
# 4 0.0000 0.0000 0.0000 -1.3539 0.0000 0.0000
# 5 0.0000 0.0000 0.0000 0.0000 35.9398 0.0000
# 6 0.0000 0.0000 0.0000 0.0000 0.0000 44.4804
#
#
#
# Elastic Compliance Matrix: (Units=1/GPa)
#
#
# Indices 1 2 3 4 5 6 
#
# 1 0.006840 -0.005812 -0.000878 0.000000 0.000000 0.000000
# 2 -0.005812 0.032088 0.003502 0.000000 0.000000 0.000000
# 3 -0.000878 0.003502 0.005909 0.000000 0.000000 0.000000
# 4 0.000000 0.000000 0.000000 -0.738598 0.000000 0.000000
# 5 0.000000 0.000000 0.000000 0.000000 0.027824 0.000000
# 6 0.000000 0.000000 0.000000 0.000000 0.000000 0.022482
#
#
# Mechanical properties :
#
#
# Convention : Reuss Voigt Hill
#
# Bulk Modulus (GPa) = 25.99979 48.06162 37.03071
# Shear Modulus (GPa) = -8.00952 40.70047 16.34547
#
# Velocity S-wave (km/s) = -1.87502 4.22670 2.67856
# Velocity P-wave (km/s) = 2.59321 6.70195 5.08138
#
# Compressibility (1/GPa) = 0.03846185
#
# Stress axis : x y z
#
# Youngs Moduli (GPa) = 146.19018 31.16406 169.22399
#
# Poissons Ratio (x) = 0.18112 0.14853
# Poissons Ratio (y) = 0.84963 -0.59254
# Poissons Ratio (z) = 0.12832 -0.10912
#
# Static dielectric constant tensor:
#      x y z
#    x 4.381400 0.000000 0.000000 
#    y 0.000000 3.424250 0.000000 
#    z 0.000000 0.000000 5.626630 
# 
# 
# High freq. dielectric constant tensor:
#      x y z
#    x 1.915970 0.000000 0.000000 
#    y 0.000000 1.843210 0.000000 
#    z 0.000000 0.000000 1.948020 
# 
# From -- ./inp_files/986.got.cif
#   From: 2010.03.12/outbox.cif.g09.slc.cpg/sg30_1_cif.got.tgz:986.got - 2010.04.14 01:38:02.
