data_PCOD8169314
_publ_section_title
;
Structure prediction by ZEFSAII (Michael W. Deem and Ramdas Pophale) SiO2 
 PCOD8169314
Probable space group: P C A 21
;
_chemical_formula_sum "Si O2"
_cell_formula_units_Z 28
_cell_length_a 10.680774
_cell_length_b 11.467790
_cell_length_c 9.181822
_cell_angle_alpha 90.000000
_cell_angle_beta 90.000000
_cell_angle_gamma 90.000000
_cell_volume 1124.634304
_symmetry_space_group_name_H-M "P C A 21"
_symmetry_group_IT_number 29
_symmetry_cell_setting 'orthorhombic'
loop_
_space_group_symop_operation_xyz
x,y,z
-x,-y,1/2+z
1/2-x,y,1/2+z
1/2+x,-y,z
loop_
_atom_site_type_symbol
_atom_site_label
_atom_site_fract_x
_atom_site_fract_y
_atom_site_fract_z
Si Si1 0.841998 0.670751 0.425920
Si Si2 0.419914 0.057627 0.050828
Si Si3 0.299980 0.687995 0.249468
Si Si4 0.579024 0.294555 0.050249
Si Si5 0.226853 0.120225 0.297490
Si Si6 0.642797 0.556537 0.620278
Si Si7 0.508912 0.813968 0.109267
O O1 0.776402 0.797123 0.427762
O O2 0.763591 0.574801 0.516521
O O3 0.853626 0.641042 0.257902
O O4 0.977119 0.706180 0.493802
O O5 0.503139 0.174351 0.037220
O O6 0.331793 0.063164 0.194398
O O7 0.513450 0.947903 0.056591
O O8 0.345269 0.027297 0.900403
O O9 0.316403 0.688169 0.424016
O O10 0.154620 0.701136 0.203727
O O11 0.361882 0.573740 0.177953
O O12 0.377457 0.798178 0.190689
O O13 0.484442 0.405447 0.036435
O O14 0.128831 0.201849 0.212514
#
# Coordination Sequence:
#
# PCOD8169314 Si02
#       7
#     4   4   4   4   4   4   4
#     4  12  23  49  76 113 142 203 261 303 383 454
#     4  12  28  49  81 109 154 199 254 320 378 459
#     4  12  31  47  76 114 155 200 255 320 380 447
#     4  12  28  53  71 117 155 198 256 313 385 450
#     4  12  23  49  76 109 141 202 252 308 377 455
#     4  12  27  49  83 106 156 200 260 315 379 456
#     4  12  28  46  77 108 155 198 256 313 384 451
#
# _framework density 24.896982000000001
#
# number of rings (size 3 to 8) (size 9 to 14) (size 15 to 20)
#    0.000    0.000    7.143    0.857   10.000    1.143 
#    0.000    0.000    0.000    0.000    0.000    0.000 
#    0.000    0.000    0.000    0.000    0.000    0.000 
#
# Total GULP energy -347085.007417 kJ/mol
# GULP energy per Si atom -12395.893122 kJ/mol
# Density = 2.484031 g / cm^3
# Si number density = 24.896982 Si / 1000 Ang^3
#
#
#
# Elastic Constant Matrix: (Units=GPa)
#
#
# Indices 1 2 3 4 5 6 
#
# 1 96.6719 22.7947 32.5718 0.0000 0.0000 0.0000
# 2 22.7947 70.4751 13.1934 0.0000 0.0000 0.0000
# 3 32.5718 13.1934 121.4519 0.0000 0.0000 0.0000
# 4 0.0000 0.0000 0.0000 20.9445 0.0000 0.0000
# 5 0.0000 0.0000 0.0000 0.0000 42.4232 0.0000
# 6 0.0000 0.0000 0.0000 0.0000 0.0000 28.6631
#
#
#
# Elastic Compliance Matrix: (Units=1/GPa)
#
#
# Indices 1 2 3 4 5 6 
#
# 1 0.012112 -0.003378 -0.002881 0.000000 0.000000 0.000000
# 2 -0.003378 0.015426 -0.000770 0.000000 0.000000 0.000000
# 3 -0.002881 -0.000770 0.009090 0.000000 0.000000 0.000000
# 4 0.000000 0.000000 0.000000 0.047745 0.000000 0.000000
# 5 0.000000 0.000000 0.000000 0.000000 0.023572 0.000000
# 6 0.000000 0.000000 0.000000 0.000000 0.000000 0.034888
#
#
# Mechanical properties :
#
#
# Convention : Reuss Voigt Hill
#
# Bulk Modulus (GPa) = 44.30731 47.30210 45.80471
# Shear Modulus (GPa) = 30.41098 33.07542 31.74320
#
# Velocity S-wave (km/s) = 3.49875 3.64880 3.57456
# Velocity P-wave (km/s) = 5.84436 6.06564 5.95603
#
# Compressibility (1/GPa) = 0.02256964
#
# Stress axis : x y z
#
# Youngs Moduli (GPa) = 82.56578 64.82509 110.01054
#
# Poissons Ratio (x) = 0.21898 0.31696
# Poissons Ratio (y) = 0.27891 0.08469
# Poissons Ratio (z) = 0.23789 0.04990
#
# Static dielectric constant tensor:
#      x y z
#    x 4.395050 0.000000 0.000000 
#    y 0.000000 4.262130 0.000000 
#    z 0.000000 0.000000 4.618450 
# 
# 
# High freq. dielectric constant tensor:
#      x y z
#    x 1.991190 0.000000 0.000000 
#    y 0.000000 1.985490 0.000000 
#    z 0.000000 0.000000 2.004260 
# 
# From -- ./inp_files/1468.got.cif
#   From: 2010.03.12/outbox.cif.g09.slc.cpg/sg29_1_cif.got.tgz:1468.got - 2010.04.14 03:43:10.
