data_PCOD8169386
_publ_section_title
;
Structure prediction by ZEFSAII (Michael W. Deem and Ramdas Pophale) SiO2 
 PCOD8169386
Probable space group: P N C 2
;
_chemical_formula_sum "Si O2"
_cell_formula_units_Z 32
_cell_length_a 11.463789
_cell_length_b 7.975496
_cell_length_c 14.546271
_cell_angle_alpha 90.000000
_cell_angle_beta 90.000000
_cell_angle_gamma 90.000000
_cell_volume 1329.956878
_symmetry_space_group_name_H-M "P N C 2"
_symmetry_group_IT_number 30
_symmetry_cell_setting 'orthorhombic'
loop_
_space_group_symop_operation_xyz
x,y,z
-x,-y,z
-x,1/2+y,1/2+z
x,1/2-y,1/2+z
loop_
_atom_site_type_symbol
_atom_site_label
_atom_site_fract_x
_atom_site_fract_y
_atom_site_fract_z
Si Si1 0.936805 0.180587 0.235640
Si Si2 0.675866 0.903223 0.537650
Si Si3 0.778382 0.365371 0.376213
Si Si4 0.828257 0.750380 0.669981
Si Si5 0.536855 0.319785 0.307683
Si Si6 0.228947 0.923555 0.079917
Si Si7 0.444546 0.727441 0.094223
Si Si8 0.289834 0.253230 0.851932
O O1 0.886996 0.278663 0.323902
O O2 0.832882 0.174392 0.162549
O O3 0.037393 0.294218 0.188802
O O4 0.000000 0.000000 0.257203
O O5 0.761906 0.910317 0.627205
O O6 0.575290 0.760150 0.553816
O O7 0.745320 0.853749 0.444220
O O8 0.622653 0.087707 0.533507
O O9 0.658520 0.262810 0.354758
O O10 0.814789 0.352881 0.482398
O O11 0.753354 0.559447 0.349941
O O12 0.807024 0.616777 0.587528
O O13 0.773371 0.669297 0.762861
O O14 0.500000 0.500000 0.346500
O O15 0.549350 0.329494 0.198868
O O16 0.427739 0.205866 0.338366
O O17 0.370280 0.898963 0.085908
#
# Coordination Sequence:
#
# PCOD8169386 Si02
#       8
#     4   4   4   4   4   4   4   4
#     4  10  25  45  67  95 140 182 234 300 350 407
#     4  11  22  42  64 103 142 180 227 296 347 433
#     4  11  22  43  72 101 134 190 235 283 365 431
#     4  11  24  45  64  97 137 175 235 298 339 407
#     4  10  18  37  65  96 138 182 229 286 352 439
#     4  11  24  44  70  99 134 180 230 295 352 424
#     4  11  21  40  67  95 144 187 223 281 369 426
#     4  11  23  41  69 103 139 183 234 295 361 434
#
# _framework density 24.060929000000002
#
# number of rings (size 3 to 8) (size 9 to 14) (size 15 to 20)
#    0.000    1.250    5.000    1.500    0.000    4.000 
#    6.750    0.000    0.000    0.000    0.000    0.000 
#    0.000    0.000    0.000    0.000    0.000    0.000 
#
# Total GULP energy -396567.557444 kJ/mol
# GULP energy per Si atom -12392.736170 kJ/mol
# Density = 2.400617 g / cm^3
# Si number density = 24.060929 Si / 1000 Ang^3
#
#
#
# Elastic Constant Matrix: (Units=GPa)
#
#
# Indices 1 2 3 4 5 6 
#
# 1 87.4049 9.6760 9.5316 0.0000 0.0000 0.0000
# 2 9.6760 34.2993 15.9155 0.0000 0.0000 0.0000
# 3 9.5316 15.9155 138.5165 0.0000 0.0000 0.0000
# 4 0.0000 0.0000 0.0000 28.6755 0.0000 0.0000
# 5 0.0000 0.0000 0.0000 0.0000 25.2504 0.0000
# 6 0.0000 0.0000 0.0000 0.0000 0.0000 33.5741
#
#
#
# Elastic Compliance Matrix: (Units=1/GPa)
#
#
# Indices 1 2 3 4 5 6 
#
# 1 0.011837 -0.003128 -0.000455 0.000000 0.000000 0.000000
# 2 -0.003128 0.031624 -0.003418 0.000000 0.000000 0.000000
# 3 -0.000455 -0.003418 0.007643 0.000000 0.000000 0.000000
# 4 0.000000 0.000000 0.000000 0.034873 0.000000 0.000000
# 5 0.000000 0.000000 0.000000 0.000000 0.039603 0.000000
# 6 0.000000 0.000000 0.000000 0.000000 0.000000 0.029785
#
#
# Mechanical properties :
#
#
# Convention : Reuss Voigt Hill
#
# Bulk Modulus (GPa) = 26.95336 36.71853 31.83595
# Shear Modulus (GPa) = 27.51253 32.50648 30.00951
#
# Velocity S-wave (km/s) = 3.38517 3.67959 3.53545
# Velocity P-wave (km/s) = 5.14836 5.77463 5.47046
#
# Compressibility (1/GPa) = 0.03710112
#
# Stress axis : x y z
#
# Youngs Moduli (GPa) = 84.48140 31.62184 130.83119
#
# Poissons Ratio (x) = 0.09892 0.05954
# Poissons Ratio (y) = 0.26426 0.44722
# Poissons Ratio (z) = 0.03845 0.10809
#
# Static dielectric constant tensor:
#      x y z
#    x 4.528750 0.000000 0.000000 
#    y 0.000000 3.992220 0.000000 
#    z 0.000000 0.000000 4.329830 
# 
# 
# High freq. dielectric constant tensor:
#      x y z
#    x 1.950260 0.000000 0.000000 
#    y 0.000000 1.926490 0.000000 
#    z 0.000000 0.000000 1.964420 
# 
# From -- ./inp_files/5544.got.cif
#   From: 2010.03.12/outbox.cif.g09.slc.cpg/sg30_3_cif.got.tgz:5544.got - 2010.04.14 01:38:02.
