data_PCOD8169180
_publ_section_title
;
Structure prediction by ZEFSAII (Michael W. Deem and Ramdas Pophale) SiO2 
 PCOD8169180
Probable space group: P C A 21
;
_chemical_formula_sum "Si O2"
_cell_formula_units_Z 32
_cell_length_a 14.125840
_cell_length_b 6.427270
_cell_length_c 15.757300
_cell_angle_alpha 90.000000
_cell_angle_beta 90.000000
_cell_angle_gamma 90.000000
_cell_volume 1430.614527
_symmetry_space_group_name_H-M "P C A 21"
_symmetry_group_IT_number 29
_symmetry_cell_setting 'orthorhombic'
loop_
_space_group_symop_operation_xyz
x,y,z
-x,-y,1/2+z
1/2-x,y,1/2+z
1/2+x,-y,z
loop_
_atom_site_type_symbol
_atom_site_label
_atom_site_fract_x
_atom_site_fract_y
_atom_site_fract_z
Si Si1 0.019866 0.041090 0.001840
Si Si2 0.179772 0.918009 0.217863
Si Si3 0.337174 0.639688 0.269058
Si Si4 0.819794 0.744439 0.161793
Si Si5 0.519865 0.041089 0.700056
Si Si6 0.662827 0.639687 0.932838
Si Si7 0.319793 0.744440 0.540103
Si Si8 0.179771 0.081992 0.484033
O O1 0.000000 0.094997 0.100948
O O2 0.090591 0.847333 0.992758
O O3 0.066896 0.238244 0.955265
O O4 0.924416 0.978863 0.950216
O O5 0.248536 0.799382 0.284953
O O6 0.165431 0.757462 0.140465
O O7 0.224739 0.133453 0.186455
O O8 0.075585 0.978863 0.251680
O O9 0.311819 0.494924 0.188755
O O10 0.433105 0.761756 0.246631
O O11 0.353528 0.500000 0.350948
O O12 0.834570 0.757462 0.061431
O O13 0.909410 0.847332 0.209138
O O14 0.751464 0.799381 0.916943
O O15 0.688182 0.494923 0.013141
O O16 0.224739 0.866548 0.515441
#
# Coordination Sequence:
#
# PCOD8169180 Si02
#       8
#     4   4   4   4   4   4   4   4
#     4   9  20  38  61  87 118 160 208 252 295 354
#     4   9  19  38  62  85 115 161 206 243 293 357
#     4  11  23  38  60  92 127 157 194 254 313 361
#     4   9  19  37  60  86 117 155 204 254 290 345
#     4   9  20  38  61  87 118 160 208 252 295 354
#     4  11  23  38  60  92 127 157 194 254 313 361
#     4   9  19  37  60  86 117 155 204 254 290 345
#     4   9  19  38  62  85 115 161 206 243 293 357
#
# _framework density 22.368010999999999
#
# number of rings (size 3 to 8) (size 9 to 14) (size 15 to 20)
#    0.000    2.500    0.000    2.250    0.000    9.000 
#    0.000    7.500    0.000    0.000    0.000    0.000 
#    0.000    0.000    0.000    0.000    0.000    0.000 
#
# Total GULP energy -396689.975629 kJ/mol
# GULP energy per Si atom -12396.561738 kJ/mol
# Density = 2.231710 g / cm^3
# Si number density = 22.368011 Si / 1000 Ang^3
#
#
#
# Elastic Constant Matrix: (Units=GPa)
#
#
# Indices 1 2 3 4 5 6 
#
# 1 174.6606 56.5005 23.4862 0.0000 0.0000 0.0000
# 2 56.5005 106.5618 23.8625 0.0000 0.0000 0.0000
# 3 23.4862 23.8625 47.9041 0.0000 0.0000 0.0000
# 4 0.0000 0.0000 0.0000 35.1626 0.0000 0.0000
# 5 0.0000 0.0000 0.0000 0.0000 15.5447 0.0000
# 6 0.0000 0.0000 0.0000 0.0000 0.0000 29.4095
#
#
#
# Elastic Compliance Matrix: (Units=1/GPa)
#
#
# Indices 1 2 3 4 5 6 
#
# 1 0.007045 -0.003334 -0.001793 0.000000 0.000000 0.000000
# 2 -0.003334 0.012140 -0.004413 0.000000 0.000000 0.000000
# 3 -0.001793 -0.004413 0.023952 0.000000 0.000000 0.000000
# 4 0.000000 0.000000 0.000000 0.028439 0.000000 0.000000
# 5 0.000000 0.000000 0.000000 0.000000 0.064331 0.000000
# 6 0.000000 0.000000 0.000000 0.000000 0.000000 0.034003
#
#
# Mechanical properties :
#
#
# Convention : Reuss Voigt Hill
#
# Bulk Modulus (GPa) = 41.56700 59.64721 50.60710
# Shear Modulus (GPa) = 25.37953 31.04183 28.21068
#
# Velocity S-wave (km/s) = 3.37209 3.72933 3.55520
# Velocity P-wave (km/s) = 5.81248 6.72815 6.28701
#
# Compressibility (1/GPa) = 0.02405755
#
# Stress axis : x y z
#
# Youngs Moduli (GPa) = 141.94542 82.37228 41.74940
#
# Poissons Ratio (x) = 0.27461 0.07487
# Poissons Ratio (y) = 0.47321 0.18423
# Poissons Ratio (z) = 0.25455 0.36350
#
# Static dielectric constant tensor:
#      x y z
#    x 4.235050 0.000000 0.000000 
#    y 0.000000 3.959740 0.000000 
#    z 0.000000 0.000000 3.628230 
# 
# 
# High freq. dielectric constant tensor:
#      x y z
#    x 1.890770 0.000000 0.000000 
#    y 0.000000 1.879060 0.000000 
#    z 0.000000 0.000000 1.851610 
# 
# From -- ./inp_files/5260.got.cif
#   From: 2010.03.12/outbox.cif.g09.slc.cpg/sg29_3_cif.got.tgz:5260.got - 2010.04.14 03:43:10.
