data_PCOD8169188
_publ_section_title
;
Structure prediction by ZEFSAII (Michael W. Deem and Ramdas Pophale) SiO2 
 PCOD8169188
Probable space group: P C A 21
;
_chemical_formula_sum "Si O2"
_cell_formula_units_Z 32
_cell_length_a 17.600856
_cell_length_b 6.639507
_cell_length_c 13.123701
_cell_angle_alpha 90.000000
_cell_angle_beta 90.000000
_cell_angle_gamma 90.000000
_cell_volume 1533.648909
_symmetry_space_group_name_H-M "P C A 21"
_symmetry_group_IT_number 29
_symmetry_cell_setting 'orthorhombic'
loop_
_space_group_symop_operation_xyz
x,y,z
-x,-y,1/2+z
1/2-x,y,1/2+z
1/2+x,-y,z
loop_
_atom_site_type_symbol
_atom_site_label
_atom_site_fract_x
_atom_site_fract_y
_atom_site_fract_z
Si Si1 0.582988 0.222439 0.676520
Si Si2 0.982249 0.563107 0.306133
Si Si3 0.087145 0.490702 0.494557
Si Si4 0.497707 0.178566 0.120826
Si Si5 0.338725 0.932948 0.558714
Si Si6 0.246927 0.626044 0.427677
Si Si7 0.259264 0.916657 0.248089
Si Si8 0.662971 0.758152 0.882734
O O1 0.556999 0.352775 0.773952
O O2 0.563492 0.331402 0.570667
O O3 0.673187 0.191405 0.686311
O O4 0.537734 0.014553 0.675453
O O5 0.924023 0.728761 0.350028
O O6 0.045743 0.515716 0.387986
O O7 0.021481 0.660995 0.207135
O O8 0.176612 0.503416 0.474369
O O9 0.065127 0.275705 0.544568
O O10 0.573211 0.128215 0.058127
O O11 0.289220 0.751254 0.514712
O O12 0.308487 0.979728 0.672127
O O13 0.330884 0.133539 0.491618
O O14 0.223466 0.772749 0.334821
O O15 0.304655 0.464074 0.385345
O O16 0.292314 0.118748 0.297163
#
# Coordination Sequence:
#
# PCOD8169188 Si02
#       8
#     4   4   4   4   4   4   4   4
#     4  11  23  42  66  94 131 174 209 274 325 386
#     4  11  23  43  65  95 133 168 217 267 335 385
#     4  11  25  41  68  98 128 175 220 270 326 400
#     4  11  25  41  67  97 132 173 218 271 330 390
#     4  11  25  43  67  98 131 174 222 271 324 399
#     4  11  24  42  66  95 132 171 220 273 327 387
#     4  11  23  42  67  93 134 171 218 270 330 383
#     4  11  24  40  68  96 127 176 214 270 329 390
#
# _framework density 20.865269999999999
#
# number of rings (size 3 to 8) (size 9 to 14) (size 15 to 20)
#    0.000    1.000    3.750    2.250    3.500    4.000 
#    0.000    0.000    0.000    0.000    0.000    0.000 
#    0.000    0.000    0.000    0.000    0.000    0.000 
#
# Total GULP energy -396931.334134 kJ/mol
# GULP energy per Si atom -12404.104192 kJ/mol
# Density = 2.081778 g / cm^3
# Si number density = 20.865270 Si / 1000 Ang^3
#
#
#
# Elastic Constant Matrix: (Units=GPa)
#
#
# Indices 1 2 3 4 5 6 
#
# 1 90.2576 21.8740 33.9383 0.0000 0.0000 0.0000
# 2 21.8740 87.1811 30.5107 0.0000 0.0000 0.0000
# 3 33.9383 30.5107 76.9164 0.0000 0.0000 0.0000
# 4 0.0000 0.0000 0.0000 18.4667 0.0000 0.0000
# 5 0.0000 0.0000 0.0000 0.0000 41.3813 0.0000
# 6 0.0000 0.0000 0.0000 0.0000 0.0000 22.5966
#
#
#
# Elastic Compliance Matrix: (Units=1/GPa)
#
#
# Indices 1 2 3 4 5 6 
#
# 1 0.013452 -0.001507 -0.005338 0.000000 0.000000 0.000000
# 2 -0.001507 0.013488 -0.004685 0.000000 0.000000 0.000000
# 3 -0.005338 -0.004685 0.017215 0.000000 0.000000 0.000000
# 4 0.000000 0.000000 0.000000 0.054152 0.000000 0.000000
# 5 0.000000 0.000000 0.000000 0.000000 0.024166 0.000000
# 6 0.000000 0.000000 0.000000 0.000000 0.000000 0.044254
#
#
# Mechanical properties :
#
#
# Convention : Reuss Voigt Hill
#
# Bulk Modulus (GPa) = 47.40551 47.44458 47.42504
# Shear Modulus (GPa) = 25.40418 27.69105 26.54762
#
# Velocity S-wave (km/s) = 3.49310 3.64694 3.57085
# Velocity P-wave (km/s) = 6.24805 6.36565 6.30712
#
# Compressibility (1/GPa) = 0.02109459
#
# Stress axis : x y z
#
# Youngs Moduli (GPa) = 74.34035 74.13844 58.08940
#
# Poissons Ratio (x) = 0.11173 0.31005
# Poissons Ratio (y) = 0.11204 0.27218
# Poissons Ratio (z) = 0.39679 0.34737
#
# Static dielectric constant tensor:
#      x y z
#    x 3.674740 0.000000 0.000000 
#    y 0.000000 3.754020 0.000000 
#    z 0.000000 0.000000 3.835480 
# 
# 
# High freq. dielectric constant tensor:
#      x y z
#    x 1.812950 0.000000 0.000000 
#    y 0.000000 1.821590 0.000000 
#    z 0.000000 0.000000 1.828870 
# 
# From -- ./inp_files/3806.got.cif
#   From: 2010.03.12/outbox.cif.g09.slc.cpg/sg29_2_cif.got.tgz:3806.got - 2010.04.14 03:43:10.
