data_PCOD8169613
_publ_section_title
;
Structure prediction by ZEFSAII (Michael W. Deem and Ramdas Pophale) SiO2 
 PCOD8169613
Probable space group: P N C 2
;
_chemical_formula_sum "Si O2"
_cell_formula_units_Z 16
_cell_length_a 5.034180
_cell_length_b 5.195127
_cell_length_c 26.163177
_cell_angle_alpha 90.000000
_cell_angle_beta 90.000000
_cell_angle_gamma 90.000000
_cell_volume 684.250917
_symmetry_space_group_name_H-M "P N C 2"
_symmetry_group_IT_number 30
_symmetry_cell_setting 'orthorhombic'
loop_
_space_group_symop_operation_xyz
x,y,z
-x,-y,z
-x,1/2+y,1/2+z
x,1/2-y,1/2+z
loop_
_atom_site_type_symbol
_atom_site_label
_atom_site_fract_x
_atom_site_fract_y
_atom_site_fract_z
Si Si1 0.500000 0.000000 0.581831
Si Si2 0.000000 0.500000 0.447856
Si Si3 0.000000 0.500000 0.150838
Si Si4 0.500000 0.000000 0.316486
Si Si5 0.500000 0.500000 0.516141
Si Si6 0.644988 0.258306 0.717617
Si Si7 0.000000 0.000000 0.382893
O O1 0.576715 0.249797 0.548885
O O2 0.754039 0.923707 0.615428
O O3 0.250042 0.420460 0.481828
O O4 0.915683 0.249570 0.415182
O O5 0.065762 0.736111 0.190835
O O6 0.634976 0.217793 0.279583
O O7 0.254733 0.097566 0.350409
O O8 0.500000 0.500000 0.691516
O O9 0.500000 0.000000 0.700078
#
# Coordination Sequence:
#
# PCOD8169613 Si02
#       7
#     2   2   2   2   2   4   2
#     4  12  28  43  78 101 142 179 246 297 342 452
#     4  12  26  47  76  97 142 175 230 297 378 428
#     4  12  26  48  70 110 142 196 246 284 358 410
#     4  10  28  42  70 104 146 184 244 278 354 404
#     4  12  26  51  70 105 136 181 226 303 382 418
#     4  10  26  43  70  97 151 194 231 292 344 418
#     4  12  26  43  74 105 134 183 238 293 340 448
#
# _framework density 23.383230999999999
#
# number of rings (size 3 to 8) (size 9 to 14) (size 15 to 20)
#    0.750    0.000    1.250    4.500    8.750    3.000 
#    0.000    0.000    0.000    0.000    0.000    0.000 
#    0.000    0.000    0.000    0.000    0.000    0.000 
#
# Total GULP energy -198278.159728 kJ/mol
# GULP energy per Si atom -12392.384983 kJ/mol
# Density = 2.333001 g / cm^3
# Si number density = 23.383231 Si / 1000 Ang^3
#
#
#
# Elastic Constant Matrix: (Units=GPa)
#
#
# Indices 1 2 3 4 5 6 
#
# 1 151.2231 23.8461 61.7616 0.0000 0.0000 0.0000
# 2 23.8461 152.1409 45.5422 0.0000 0.0000 0.0000
# 3 61.7616 45.5422 127.4453 0.0000 0.0000 0.0000
# 4 0.0000 0.0000 0.0000 31.2351 0.0000 0.0000
# 5 0.0000 0.0000 0.0000 0.0000 67.0911 0.0000
# 6 0.0000 0.0000 0.0000 0.0000 0.0000 34.8626
#
#
#
# Elastic Compliance Matrix: (Units=1/GPa)
#
#
# Indices 1 2 3 4 5 6 
#
# 1 0.008246 -0.000108 -0.003958 0.000000 0.000000 0.000000
# 2 -0.000108 0.007362 -0.002578 0.000000 0.000000 0.000000
# 3 -0.003958 -0.002578 0.010686 0.000000 0.000000 0.000000
# 4 0.000000 0.000000 0.000000 0.032015 0.000000 0.000000
# 5 0.000000 0.000000 0.000000 0.000000 0.014905 0.000000
# 6 0.000000 0.000000 0.000000 0.000000 0.000000 0.028684
#
#
# Mechanical properties :
#
#
# Convention : Reuss Voigt Hill
#
# Bulk Modulus (GPa) = 76.88863 77.01212 76.95037
# Shear Modulus (GPa) = 41.83372 46.61505 44.22438
#
# Velocity S-wave (km/s) = 4.23430 4.46973 4.35361
# Velocity P-wave (km/s) = 7.54050 7.72297 7.63228
#
# Compressibility (1/GPa) = 0.01300582
#
# Stress axis : x y z
#
# Youngs Moduli (GPa) = 121.26951 135.84049 93.58202
#
# Poissons Ratio (x) = 0.01464 0.37036
# Poissons Ratio (y) = 0.01307 0.24129
# Poissons Ratio (z) = 0.47994 0.35025
#
# Static dielectric constant tensor:
#      x y z
#    x 4.121600 0.000000 0.000000 
#    y 0.000000 3.970400 0.000000 
#    z 0.000000 0.000000 4.421510 
# 
# 
# High freq. dielectric constant tensor:
#      x y z
#    x 1.935450 0.000000 0.000000 
#    y 0.000000 1.918520 0.000000 
#    z 0.000000 0.000000 1.938370 
# 
# From -- ./inp_files/6731.got.cif
#   From: 2010.03.12/outbox.cif.g09.slc.cpg/sg30_4_cif.got.tgz:6731.got - 2010.04.14 01:38:02.
