data_PCOD8169832
_publ_section_title
;
Structure prediction by ZEFSAII (Michael W. Deem and Ramdas Pophale) SiO2 
 PCOD8169832
Probable space group: P M N 21
;
_chemical_formula_sum "Si O2"
_cell_formula_units_Z 32
_cell_length_a 8.896885
_cell_length_b 11.394681
_cell_length_c 16.535778
_cell_angle_alpha 90.000000
_cell_angle_beta 90.000000
_cell_angle_gamma 90.000000
_cell_volume 1676.350319
_symmetry_space_group_name_H-M "P M N 21"
_symmetry_group_IT_number 31
_symmetry_cell_setting 'orthorhombic'
loop_
_space_group_symop_operation_xyz
x,y,z
1/2-x,-y,1/2+z
-x,y,z
1/2+x,-y,1/2+z
loop_
_atom_site_type_symbol
_atom_site_label
_atom_site_fract_x
_atom_site_fract_y
_atom_site_fract_z
Si Si1 0.822451 0.315152 0.721190
Si Si2 0.326907 0.237469 0.293437
Si Si3 0.330776 0.712767 0.548990
Si Si4 0.677889 0.065961 0.431412
Si Si5 0.820009 0.190977 0.885216
Si Si6 0.664689 0.905753 0.672122
Si Si7 0.829220 0.850510 0.102455
Si Si8 0.821585 0.434560 0.199185
O O1 0.762708 0.245252 0.800483
O O2 0.771977 0.252383 0.638708
O O3 0.752718 0.443088 0.719127
O O4 0.000000 0.325825 0.723085
O O5 0.500000 0.276517 0.294161
O O6 0.276716 0.177512 0.376893
O O7 0.301980 0.136754 0.226645
O O8 0.223625 0.348938 0.273044
O O9 0.500000 0.668878 0.537670
O O10 0.258299 0.724982 0.459039
O O11 0.323377 0.844959 0.584230
O O12 0.257856 0.620616 0.613748
O O13 0.500000 0.051420 0.436097
O O14 0.741865 0.101022 0.519238
O O15 0.743573 0.942209 0.397152
O O16 0.000000 0.188723 0.887835
O O17 0.500000 0.870236 0.708627
O O18 0.675312 0.044548 0.666439
O O19 0.000000 0.804583 0.089969
O O20 0.000000 0.446896 0.196550
#
# Coordination Sequence:
#
# PCOD8169832 Si02
#       8
#     4   4   4   4   4   4   4   4
#     4  11  23  37  55  81 114 147 181 233 289 331
#     4  10  19  32  54  83 111 139 177 226 278 324
#     4   8  14  29  55  81 100 131 182 230 260 304
#     4   9  17  31  54  84 112 140 180 225 266 325
#     4   9  16  31  56  84 109 136 180 229 271 320
#     4   9  16  29  53  81 108 140 178 218 268 322
#     4  10  19  34  56  79 110 148 185 223 264 326
#     4  10  21  39  59  77 104 145 193 232 270 328
#
# _framework density 19.089089000000001
#
# number of rings (size 3 to 8) (size 9 to 14) (size 15 to 20)
#    0.000    2.500    1.250    2.625    0.000    1.500 
#    2.250    1.250    0.000    8.250    0.000    0.000 
#    0.000    0.000    0.000    0.000    0.000    0.000 
#
# Total GULP energy -396509.579067 kJ/mol
# GULP energy per Si atom -12390.924346 kJ/mol
# Density = 1.904564 g / cm^3
# Si number density = 19.089089 Si / 1000 Ang^3
#
#
#
# Elastic Constant Matrix: (Units=GPa)
#
#
# Indices 1 2 3 4 5 6 
#
# 1 42.7116 32.4014 25.8565 0.0000 0.0000 0.0000
# 2 32.4014 121.8952 68.9568 0.0000 0.0000 0.0000
# 3 25.8565 68.9568 111.4185 0.0000 0.0000 0.0000
# 4 0.0000 0.0000 0.0000 25.9202 0.0000 0.0000
# 5 0.0000 0.0000 0.0000 0.0000 22.8463 0.0000
# 6 0.0000 0.0000 0.0000 0.0000 0.0000 28.7685
#
#
#
# Elastic Compliance Matrix: (Units=1/GPa)
#
#
# Indices 1 2 3 4 5 6 
#
# 1 0.030015 -0.006213 -0.003120 0.000000 0.000000 0.000000
# 2 -0.006213 0.013910 -0.007167 0.000000 0.000000 0.000000
# 3 -0.003120 -0.007167 0.014135 0.000000 0.000000 0.000000
# 4 0.000000 0.000000 0.000000 0.038580 0.000000 0.000000
# 5 0.000000 0.000000 0.000000 0.000000 0.043771 0.000000
# 6 0.000000 0.000000 0.000000 0.000000 0.000000 0.034760
#
#
# Mechanical properties :
#
#
# Convention : Reuss Voigt Hill
#
# Bulk Modulus (GPa) = 39.90562 58.93941 49.42251
# Shear Modulus (GPa) = 23.09213 25.42770 24.25992
#
# Velocity S-wave (km/s) = 3.48185 3.65369 3.56881
# Velocity P-wave (km/s) = 6.09218 6.98157 6.55198
#
# Compressibility (1/GPa) = 0.02505913
#
# Stress axis : x y z
#
# Youngs Moduli (GPa) = 33.31651 71.89268 70.74786
#
# Poissons Ratio (x) = 0.44670 0.22074
# Poissons Ratio (y) = 0.20701 0.50703
# Poissons Ratio (z) = 0.10395 0.51523
#
# Static dielectric constant tensor:
#      x y z
#    x 3.135010 0.000000 0.000000 
#    y 0.000000 3.474090 0.000000 
#    z 0.000000 0.000000 3.724730 
# 
# 
# High freq. dielectric constant tensor:
#      x y z
#    x 1.700090 0.000000 0.000000 
#    y 0.000000 1.738540 0.000000 
#    z 0.000000 0.000000 1.743630 
# 
# From -- ./inp_files/5056.got.cif
#   From: 2010.03.12/outbox.cif.g09.slc.cpg/sg31_3_cif.got.tgz:5056.got - 2010.04.14 01:42:59.
