data_PCOD8169080
_publ_section_title
;
Structure prediction by ZEFSAII (Michael W. Deem and Ramdas Pophale) SiO2 
 PCOD8169080
Probable space group: P C A 21
;
_chemical_formula_sum "Si O2"
_cell_formula_units_Z 28
_cell_length_a 8.726244
_cell_length_b 11.325242
_cell_length_c 12.222342
_cell_angle_alpha 90.000000
_cell_angle_beta 90.000000
_cell_angle_gamma 90.000000
_cell_volume 1207.895255
_symmetry_space_group_name_H-M "P C A 21"
_symmetry_group_IT_number 29
_symmetry_cell_setting 'orthorhombic'
loop_
_space_group_symop_operation_xyz
x,y,z
-x,-y,1/2+z
1/2-x,y,1/2+z
1/2+x,-y,z
loop_
_atom_site_type_symbol
_atom_site_label
_atom_site_fract_x
_atom_site_fract_y
_atom_site_fract_z
Si Si1 0.042018 0.077885 0.489140
Si Si2 0.581620 0.372974 0.464187
Si Si3 0.469186 0.450536 0.145592
Si Si4 0.011191 0.809384 0.208920
Si Si5 0.803315 0.533418 0.785875
Si Si6 0.715820 0.145835 0.410083
Si Si7 0.283666 0.249905 0.391817
O O1 0.998532 0.087315 0.617893
O O2 0.188968 0.159772 0.465064
O O3 0.892722 0.105793 0.414357
O O4 0.095752 0.946604 0.461670
O O5 0.608330 0.486740 0.541306
O O6 0.636659 0.416712 0.345578
O O7 0.695739 0.262717 0.486854
O O8 0.408926 0.322267 0.463031
O O9 0.506414 0.311372 0.135207
O O10 0.376895 0.470008 0.259723
O O11 0.620348 0.529592 0.165413
O O12 0.864642 0.816329 0.289755
O O13 0.163878 0.826918 0.283846
O O14 0.840532 0.655085 0.848268
#
# Coordination Sequence:
#
# PCOD8169080 Si02
#       7
#     4   4   4   4   4   4   4
#     4  12  27  48  77 100 136 193 236 294 362 410
#     4  11  24  43  66  99 147 176 232 283 346 418
#     4  11  25  39  70 101 139 187 225 277 357 414
#     4  10  24  51  69 104 147 179 235 293 348 425
#     4  11  22  41  63 101 140 178 222 281 340 414
#     4  11  26  48  71 103 140 182 242 295 344 422
#     4  10  24  44  68 102 141 181 230 293 339 425
#
# _framework density 23.180817000000001
#
# number of rings (size 3 to 8) (size 9 to 14) (size 15 to 20)
#    0.000    1.143    4.286    2.571   10.000    2.286 
#    2.571    0.000    0.000    0.000    0.000    0.000 
#    0.000    0.000    0.000    0.000    0.000    0.000 
#
# Total GULP energy -346910.319622 kJ/mol
# GULP energy per Si atom -12389.654272 kJ/mol
# Density = 2.312806 g / cm^3
# Si number density = 23.180817 Si / 1000 Ang^3
#
#
#
# Elastic Constant Matrix: (Units=GPa)
#
#
# Indices 1 2 3 4 5 6 
#
# 1 91.7196 22.4631 24.9180 0.0000 0.0000 0.0000
# 2 22.4631 84.8989 43.6947 0.0000 0.0000 0.0000
# 3 24.9180 43.6947 93.4472 0.0000 0.0000 0.0000
# 4 0.0000 0.0000 0.0000 41.8492 0.0000 0.0000
# 5 0.0000 0.0000 0.0000 0.0000 24.0717 0.0000
# 6 0.0000 0.0000 0.0000 0.0000 0.0000 35.1548
#
#
#
# Elastic Compliance Matrix: (Units=1/GPa)
#
#
# Indices 1 2 3 4 5 6 
#
# 1 0.012010 -0.002014 -0.002261 0.000000 0.000000 0.000000
# 2 -0.002014 0.015849 -0.006874 0.000000 0.000000 0.000000
# 3 -0.002261 -0.006874 0.014518 0.000000 0.000000 0.000000
# 4 0.000000 0.000000 0.000000 0.023895 0.000000 0.000000
# 5 0.000000 0.000000 0.000000 0.000000 0.041543 0.000000
# 6 0.000000 0.000000 0.000000 0.000000 0.000000 0.028446
#
#
# Mechanical properties :
#
#
# Convention : Reuss Voigt Hill
#
# Bulk Modulus (GPa) = 49.80033 50.24637 50.02335
# Shear Modulus (GPa) = 30.25671 32.14779 31.20225
#
# Velocity S-wave (km/s) = 3.61674 3.72805 3.67282
# Velocity P-wave (km/s) = 6.24269 6.34461 6.29385
#
# Compressibility (1/GPa) = 0.02008019
#
# Stress axis : x y z
#
# Youngs Moduli (GPa) = 83.26193 63.09375 68.87907
#
# Poissons Ratio (x) = 0.12709 0.15572
# Poissons Ratio (y) = 0.16771 0.47347
# Poissons Ratio (z) = 0.18823 0.43370
#
# Static dielectric constant tensor:
#      x y z
#    x 4.105920 0.000000 0.000000 
#    y 0.000000 4.250900 0.000000 
#    z 0.000000 0.000000 3.947160 
# 
# 
# High freq. dielectric constant tensor:
#      x y z
#    x 1.917610 0.000000 0.000000 
#    y 0.000000 1.918830 0.000000 
#    z 0.000000 0.000000 1.904520 
# 
# From -- ./inp_files/2882.got.cif
#   From: 2010.03.12/outbox.cif.g09.slc.cpg/sg29_2_cif.got.tgz:2882.got - 2010.04.14 03:43:10.
