data_PCOD8169441
_publ_section_title
;
Structure prediction by ZEFSAII (Michael W. Deem and Ramdas Pophale) SiO2 
 PCOD8169441
Probable space group: P N C 2
;
_chemical_formula_sum "Si O2"
_cell_formula_units_Z 30
_cell_length_a 10.015543
_cell_length_b 16.136703
_cell_length_c 9.412925
_cell_angle_alpha 90.000000
_cell_angle_beta 90.000000
_cell_angle_gamma 90.000000
_cell_volume 1521.296633
_symmetry_space_group_name_H-M "P N C 2"
_symmetry_group_IT_number 30
_symmetry_cell_setting 'orthorhombic'
loop_
_space_group_symop_operation_xyz
x,y,z
-x,-y,z
-x,1/2+y,1/2+z
x,1/2-y,1/2+z
loop_
_atom_site_type_symbol
_atom_site_label
_atom_site_fract_x
_atom_site_fract_y
_atom_site_fract_z
Si Si1 0.442452 0.624822 0.685470
Si Si2 0.765058 0.267389 0.250123
Si Si3 0.534796 0.366454 0.372097
Si Si4 0.206521 0.159453 0.481237
Si Si5 0.500000 0.500000 0.160309
Si Si6 0.696350 0.478448 0.922226
Si Si7 0.100663 0.840107 0.475497
Si Si8 0.335066 0.252026 0.750520
O O1 0.334688 0.697558 0.694279
O O2 0.447858 0.590497 0.525094
O O3 0.400290 0.550052 0.791605
O O4 0.589885 0.663248 0.706240
O O5 0.683921 0.340001 0.327906
O O6 0.876563 0.228799 0.354371
O O7 0.836388 0.308354 0.118902
O O8 0.457060 0.426375 0.263649
O O9 0.437163 0.288135 0.364835
O O10 0.275699 0.076041 0.422584
O O11 0.284680 0.195400 0.619382
O O12 0.209732 0.223522 0.349371
O O13 0.052607 0.142425 0.512327
O O14 0.617885 0.460738 0.067288
O O15 0.832433 0.426002 0.923887
#
# Coordination Sequence:
#
# PCOD8169441 Si02
#       8
#     4   4   4   4   2   4   4   4
#     4  10  22  39  64  90 130 158 203 275 321 374
#     4  10  20  37  65  93 118 165 222 257 313 368
#     4  11  21  38  62  94 126 157 204 272 319 371
#     4  12  24  42  62  91 132 174 210 260 314 389
#     4  12  22  36  64  90 124 156 208 264 312 382
#     4  11  24  40  63  96 123 168 215 259 324 379
#     4  11  22  40  64  92 127 173 219 260 303 383
#     4  11  23  39  62  94 127 162 214 258 326 371
#
# _framework density 19.720019000000001
#
# number of rings (size 3 to 8) (size 9 to 14) (size 15 to 20)
#    0.000    1.067    5.333    2.000    0.000    1.600 
#    0.000    0.000    0.000    0.000    3.467    0.000 
#    0.000    0.000    0.000    0.000    0.000    0.000 
#
# Total GULP energy -371758.663728 kJ/mol
# GULP energy per Si atom -12391.955458 kJ/mol
# Density = 1.967514 g / cm^3
# Si number density = 19.720019 Si / 1000 Ang^3
#
#
#
# Elastic Constant Matrix: (Units=GPa)
#
#
# Indices 1 2 3 4 5 6 
#
# 1 89.7484 21.9629 32.8764 0.0000 0.0000 0.0000
# 2 21.9629 78.7034 49.8465 0.0000 0.0000 0.0000
# 3 32.8764 49.8465 140.5443 0.0000 0.0000 0.0000
# 4 0.0000 0.0000 0.0000 32.0133 0.0000 0.0000
# 5 0.0000 0.0000 0.0000 0.0000 25.5427 0.0000
# 6 0.0000 0.0000 0.0000 0.0000 0.0000 25.6768
#
#
#
# Elastic Compliance Matrix: (Units=1/GPa)
#
#
# Indices 1 2 3 4 5 6 
#
# 1 0.012450 -0.002102 -0.002167 0.000000 0.000000 0.000000
# 2 -0.002102 0.016742 -0.005446 0.000000 0.000000 0.000000
# 3 -0.002167 -0.005446 0.009554 0.000000 0.000000 0.000000
# 4 0.000000 0.000000 0.000000 0.031237 0.000000 0.000000
# 5 0.000000 0.000000 0.000000 0.000000 0.039150 0.000000
# 6 0.000000 0.000000 0.000000 0.000000 0.000000 0.038946
#
#
# Mechanical properties :
#
#
# Convention : Reuss Voigt Hill
#
# Bulk Modulus (GPa) = 51.77092 57.59644 54.68368
# Shear Modulus (GPa) = 28.74435 30.26723 29.50579
#
# Velocity S-wave (km/s) = 3.82202 3.92196 3.87232
# Velocity P-wave (km/s) = 6.76662 7.05546 6.91255
#
# Compressibility (1/GPa) = 0.01931586
#
# Stress axis : x y z
#
# Youngs Moduli (GPa) = 80.31850 59.73085 104.67228
#
# Poissons Ratio (x) = 0.12555 0.22682
# Poissons Ratio (y) = 0.16883 0.57005
# Poissons Ratio (z) = 0.17404 0.32530
#
# Static dielectric constant tensor:
#      x y z
#    x 3.678570 0.000000 0.000000 
#    y 0.000000 3.594140 0.000000 
#    z 0.000000 0.000000 3.652620 
# 
# 
# High freq. dielectric constant tensor:
#      x y z
#    x 1.755980 0.000000 0.000000 
#    y 0.000000 1.768650 0.000000 
#    z 0.000000 0.000000 1.780050 
# 
# From -- ./inp_files/2106.got.cif
#   From: 2010.03.12/outbox.cif.g09.slc.cpg/sg30_2_cif.got.tgz:2106.got - 2010.04.14 01:38:02.
