data_PCOD8169339
_publ_section_title
;
Structure prediction by ZEFSAII (Michael W. Deem and Ramdas Pophale) SiO2 
 PCOD8169339
Probable space group: P C A 21
;
_chemical_formula_sum "Si O2"
_cell_formula_units_Z 20
_cell_length_a 16.671110
_cell_length_b 9.866408
_cell_length_c 4.958842
_cell_angle_alpha 90.000000
_cell_angle_beta 90.000000
_cell_angle_gamma 90.000000
_cell_volume 815.650034
_symmetry_space_group_name_H-M "P C A 21"
_symmetry_group_IT_number 29
_symmetry_cell_setting 'orthorhombic'
loop_
_space_group_symop_operation_xyz
x,y,z
-x,-y,1/2+z
1/2-x,y,1/2+z
1/2+x,-y,z
loop_
_atom_site_type_symbol
_atom_site_label
_atom_site_fract_x
_atom_site_fract_y
_atom_site_fract_z
Si Si1 0.107654 0.409884 0.618720
Si Si2 0.197075 0.153857 0.489573
Si Si3 0.549975 0.037324 0.509416
Si Si4 0.064090 0.677616 0.288425
Si Si5 0.304487 0.607768 0.424099
O O1 0.162431 0.305658 0.452866
O O2 0.090238 0.541077 0.437790
O O3 0.026709 0.331883 0.689583
O O4 0.154336 0.457781 0.893294
O O5 0.271085 0.131529 0.290736
O O6 0.129040 0.044441 0.429817
O O7 0.570597 0.196373 0.490136
O O8 0.477530 0.996435 0.310942
O O9 0.122963 0.703237 0.030010
O O10 0.271100 0.630539 0.121215
#
# Coordination Sequence:
#
# PCOD8169339 Si02
#       5
#     4   4   4   4   4
#     4  12  26  48  79 119 154 203 260 326 391 468
#     4  12  29  52  80 114 158 207 258 319 394 466
#     4  12  29  53  80 112 156 211 261 318 383 472
#     4  12  28  46  83 113 156 204 267 317 392 463
#     4  12  26  45  70 114 158 197 244 322 390 451
#
# _framework density 24.520318
#
# number of rings (size 3 to 8) (size 9 to 14) (size 15 to 20)
#    0.000    0.000    6.000    2.400    8.400    1.600 
#    0.000    0.000    0.000    0.000    0.000    0.000 
#    0.000    0.000    0.000    0.000    0.000    0.000 
#
# Total GULP energy -247951.634169 kJ/mol
# GULP energy per Si atom -12397.581708 kJ/mol
# Density = 2.446451 g / cm^3
# Si number density = 24.520318 Si / 1000 Ang^3
#
#
#
# Elastic Constant Matrix: (Units=GPa)
#
#
# Indices 1 2 3 4 5 6 
#
# 1 98.1908 23.0801 15.7064 0.0000 0.0000 0.0000
# 2 23.0801 111.0056 12.4025 0.0000 0.0000 0.0000
# 3 15.7064 12.4025 84.1248 0.0000 0.0000 0.0000
# 4 0.0000 0.0000 0.0000 29.3927 0.0000 0.0000
# 5 0.0000 0.0000 0.0000 0.0000 41.4262 0.0000
# 6 0.0000 0.0000 0.0000 0.0000 0.0000 31.8690
#
#
#
# Elastic Compliance Matrix: (Units=1/GPa)
#
#
# Indices 1 2 3 4 5 6 
#
# 1 0.010952 -0.002083 -0.001738 0.000000 0.000000 0.000000
# 2 -0.002083 0.009556 -0.001020 0.000000 0.000000 0.000000
# 3 -0.001738 -0.001020 0.012362 0.000000 0.000000 0.000000
# 4 0.000000 0.000000 0.000000 0.034022 0.000000 0.000000
# 5 0.000000 0.000000 0.000000 0.000000 0.024139 0.000000
# 6 0.000000 0.000000 0.000000 0.000000 0.000000 0.031378
#
#
# Mechanical properties :
#
#
# Convention : Reuss Voigt Hill
#
# Bulk Modulus (GPa) = 43.12515 43.96659 43.54587
# Shear Modulus (GPa) = 35.76039 36.67972 36.22006
#
# Velocity S-wave (km/s) = 3.82304 3.87187 3.84753
# Velocity P-wave (km/s) = 6.09206 6.16102 6.12664
#
# Compressibility (1/GPa) = 0.02318833
#
# Stress axis : x y z
#
# Youngs Moduli (GPa) = 91.30911 104.65081 80.89373
#
# Poissons Ratio (x) = 0.21798 0.14057
# Poissons Ratio (y) = 0.19019 0.08250
# Poissons Ratio (z) = 0.15866 0.10673
#
# Static dielectric constant tensor:
#      x y z
#    x 4.851060 0.000000 0.000000 
#    y 0.000000 4.298650 0.000000 
#    z 0.000000 0.000000 4.388590 
# 
# 
# High freq. dielectric constant tensor:
#      x y z
#    x 2.004720 0.000000 0.000000 
#    y 0.000000 1.960720 0.000000 
#    z 0.000000 0.000000 1.976840 
# 
# From -- ./inp_files/354.got.cif
#   From: 2010.03.12/outbox.cif.g09.slc.cpg/sg29_1_cif.got.tgz:354.got - 2010.04.14 03:43:10.
