data_PCOD8169302
_publ_section_title
;
Structure prediction by ZEFSAII (Michael W. Deem and Ramdas Pophale) SiO2 
 PCOD8169302
Probable space group: P C A 21
;
_chemical_formula_sum "Si O2"
_cell_formula_units_Z 20
_cell_length_a 10.061217
_cell_length_b 4.850054
_cell_length_c 13.849290
_cell_angle_alpha 90.000000
_cell_angle_beta 90.000000
_cell_angle_gamma 90.000000
_cell_volume 675.809978
_symmetry_space_group_name_H-M "P C A 21"
_symmetry_group_IT_number 29
_symmetry_cell_setting 'orthorhombic'
loop_
_space_group_symop_operation_xyz
x,y,z
-x,-y,1/2+z
1/2-x,y,1/2+z
1/2+x,-y,z
loop_
_atom_site_type_symbol
_atom_site_label
_atom_site_fract_x
_atom_site_fract_y
_atom_site_fract_z
Si Si1 0.386762 0.933943 0.410410
Si Si2 0.464800 0.338811 0.076019
Si Si3 0.120766 0.687656 0.424730
Si Si4 0.843530 0.591040 0.722463
Si Si5 0.668007 0.103351 0.699551
O O1 0.431911 0.706917 0.487919
O O2 0.225454 0.945212 0.421195
O O3 0.466932 0.213589 0.429277
O O4 0.419749 0.862056 0.297551
O O5 0.521345 0.536919 0.161850
O O6 0.418213 0.039961 0.115010
O O7 0.349663 0.514076 0.022327
O O8 0.142010 0.492427 0.333168
O O9 0.798001 0.908131 0.716929
O O10 0.726934 0.404052 0.672706
#
# Coordination Sequence:
#
# PCOD8169302 Si02
#       5
#     4   4   4   4   4
#     4  11  28  51  81 119 166 216 277 340 415 494
#     4  12  28  48  86 119 164 221 281 344 414 501
#     4  11  28  50  84 120 166 221 273 350 412 503
#     4  11  28  50  80 118 170 216 278 339 419 493
#     4  11  28  51  77 120 168 220 273 345 412 497
#
# _framework density 29.594118000000002
#
# number of rings (size 3 to 8) (size 9 to 14) (size 15 to 20)
#    0.000    0.800    2.000    1.200   19.600    0.000 
#    0.000    0.000    0.000    0.000    0.000    0.000 
#    0.000    0.000    0.000    0.000    0.000    0.000 
#
# Total GULP energy -247932.014815 kJ/mol
# GULP energy per Si atom -12396.600741 kJ/mol
# Density = 2.952676 g / cm^3
# Si number density = 29.594118 Si / 1000 Ang^3
#
#
#
# Elastic Constant Matrix: (Units=GPa)
#
#
# Indices 1 2 3 4 5 6 
#
# 1 101.0189 -11.2827 35.3790 0.0000 0.0000 0.0000
# 2 -11.2827 52.4193 1.4491 0.0000 0.0000 0.0000
# 3 35.3790 1.4491 198.3776 0.0000 0.0000 0.0000
# 4 0.0000 0.0000 0.0000 48.6793 0.0000 0.0000
# 5 0.0000 0.0000 0.0000 0.0000 46.6816 0.0000
# 6 0.0000 0.0000 0.0000 0.0000 0.0000 39.9854
#
#
#
# Elastic Compliance Matrix: (Units=1/GPa)
#
#
# Indices 1 2 3 4 5 6 
#
# 1 0.010850 0.002389 -0.001952 0.000000 0.000000 0.000000
# 2 0.002389 0.019607 -0.000569 0.000000 0.000000 0.000000
# 3 -0.001952 -0.000569 0.005393 0.000000 0.000000 0.000000
# 4 0.000000 0.000000 0.000000 0.020543 0.000000 0.000000
# 5 0.000000 0.000000 0.000000 0.000000 0.021422 0.000000
# 6 0.000000 0.000000 0.000000 0.000000 0.000000 0.025009
#
#
# Mechanical properties :
#
#
# Convention : Reuss Voigt Hill
#
# Bulk Modulus (GPa) = 28.10172 44.76740 36.43456
# Shear Modulus (GPa) = 43.49713 48.82060 46.15887
#
# Velocity S-wave (km/s) = 3.83794 4.06602 3.95363
# Velocity P-wave (km/s) = 5.39964 6.09946 5.76018
#
# Compressibility (1/GPa) = 0.03558501
#
# Stress axis : x y z
#
# Youngs Moduli (GPa) = 92.16784 51.00233 185.41705
#
# Poissons Ratio (x) = -0.12186 0.36201
# Poissons Ratio (y) = -0.22021 0.10556
# Poissons Ratio (z) = 0.17995 0.02904
#
# Static dielectric constant tensor:
#      x y z
#    x 5.426520 0.000000 0.000000 
#    y 0.000000 5.166400 0.000000 
#    z 0.000000 0.000000 5.872610 
# 
# 
# High freq. dielectric constant tensor:
#      x y z
#    x 2.206280 0.000000 0.000000 
#    y 0.000000 2.201980 0.000000 
#    z 0.000000 0.000000 2.243680 
# 
# From -- ./inp_files/4395.got.cif
#   From: 2010.03.12/outbox.cif.g09.slc.cpg/sg29_3_cif.got.tgz:4395.got - 2010.04.14 03:43:10.
