data_PCOD8169512
_publ_section_title
;
Structure prediction by ZEFSAII (Michael W. Deem and Ramdas Pophale) SiO2 
 PCOD8169512
Probable space group: P N C 2
;
_chemical_formula_sum "Si O2"
_cell_formula_units_Z 24
_cell_length_a 7.923859
_cell_length_b 15.776608
_cell_length_c 8.810828
_cell_angle_alpha 90.000000
_cell_angle_beta 90.000000
_cell_angle_gamma 90.000000
_cell_volume 1101.455858
_symmetry_space_group_name_H-M "P N C 2"
_symmetry_group_IT_number 30
_symmetry_cell_setting 'orthorhombic'
loop_
_space_group_symop_operation_xyz
x,y,z
-x,-y,z
-x,1/2+y,1/2+z
x,1/2-y,1/2+z
loop_
_atom_site_type_symbol
_atom_site_label
_atom_site_fract_x
_atom_site_fract_y
_atom_site_fract_z
Si Si1 0.000000 0.000000 0.300830
Si Si2 0.581643 0.175663 0.771006
Si Si3 0.045673 0.672852 0.341245
Si Si4 0.500000 0.500000 0.352231
Si Si5 0.205958 0.078419 0.046654
Si Si6 0.937502 0.659468 0.999893
Si Si7 0.380901 0.247602 0.032542
O O1 0.158306 0.020046 0.191203
O O2 0.983348 0.080127 0.411552
O O3 0.754405 0.183156 0.863786
O O4 0.558366 0.227424 0.614595
O O5 0.549655 0.076455 0.741858
O O6 0.427242 0.214429 0.866971
O O7 0.959670 0.597409 0.439915
O O8 0.026437 0.658942 0.162136
O O9 0.968063 0.760205 0.394152
O O10 0.657964 0.523902 0.456842
O O11 0.281395 0.167872 0.109370
O O12 0.735040 0.666830 0.028402
#
# Coordination Sequence:
#
# PCOD8169512 Si02
#       7
#     2   4   4   2   4   4   4
#     4  12  24  38  62  94 122 160 210 262 308 358
#     4  11  22  38  62  89 119 158 205 250 304 368
#     4  11  23  42  65  91 124 166 208 251 306 375
#     4  10  22  38  62  90 120 160 202 252 310 358
#     4  10  22  41  64  88 125 165 204 254 311 366
#     4  11  23  40  63  91 123 163 207 254 310 367
#     4  10  21  41  62  85 122 165 202 246 310 378
#
# _framework density 21.789342999999999
#
# number of rings (size 3 to 8) (size 9 to 14) (size 15 to 20)
#    0.000    1.333    0.000    8.000    0.000    6.000 
#    0.000    1.667    0.000    2.000    0.000    0.000 
#    0.000    0.000    0.000    0.000    0.000    0.000 
#
# Total GULP energy -297384.267699 kJ/mol
# GULP energy per Si atom -12391.011154 kJ/mol
# Density = 2.173975 g / cm^3
# Si number density = 21.789343 Si / 1000 Ang^3
#
#
#
# Elastic Constant Matrix: (Units=GPa)
#
#
# Indices 1 2 3 4 5 6 
#
# 1 100.5863 29.7186 17.8692 0.0000 0.0000 0.0000
# 2 29.7186 105.6530 51.7486 0.0000 0.0000 0.0000
# 3 17.8692 51.7486 96.8928 0.0000 0.0000 0.0000
# 4 0.0000 0.0000 0.0000 40.4510 0.0000 0.0000
# 5 0.0000 0.0000 0.0000 0.0000 20.0251 0.0000
# 6 0.0000 0.0000 0.0000 0.0000 0.0000 34.7483
#
#
#
# Elastic Compliance Matrix: (Units=1/GPa)
#
#
# Indices 1 2 3 4 5 6 
#
# 1 0.010861 -0.002809 -0.000503 0.000000 0.000000 0.000000
# 2 -0.002809 0.013544 -0.006716 0.000000 0.000000 0.000000
# 3 -0.000503 -0.006716 0.014000 0.000000 0.000000 0.000000
# 4 0.000000 0.000000 0.000000 0.024721 0.000000 0.000000
# 5 0.000000 0.000000 0.000000 0.000000 0.049937 0.000000
# 6 0.000000 0.000000 0.000000 0.000000 0.000000 0.028778
#
#
# Mechanical properties :
#
#
# Convention : Reuss Voigt Hill
#
# Bulk Modulus (GPa) = 54.49397 55.75612 55.12505
# Shear Modulus (GPa) = 29.75939 32.63125 31.19532
#
# Velocity S-wave (km/s) = 3.69965 3.87405 3.78786
# Velocity P-wave (km/s) = 6.58131 6.75687 6.66967
#
# Compressibility (1/GPa) = 0.01835065
#
# Stress axis : x y z
#
# Youngs Moduli (GPa) = 92.07342 73.83139 71.42736
#
# Poissons Ratio (x) = 0.20737 0.03592
# Poissons Ratio (y) = 0.25860 0.47969
# Poissons Ratio (z) = 0.04631 0.49584
#
# Static dielectric constant tensor:
#      x y z
#    x 4.147690 0.000000 0.000000 
#    y 0.000000 4.077920 0.000000 
#    z 0.000000 0.000000 3.772790 
# 
# 
# High freq. dielectric constant tensor:
#      x y z
#    x 1.859520 0.000000 0.000000 
#    y 0.000000 1.856190 0.000000 
#    z 0.000000 0.000000 1.852600 
# 
# From -- ./inp_files/1862.got.cif
#   From: 2010.03.12/outbox.cif.g09.slc.cpg/sg30_1_cif.got.tgz:1862.got - 2010.04.14 01:38:02.
