data_PCOD8169046
_publ_section_title
;
Structure prediction by ZEFSAII (Michael W. Deem and Ramdas Pophale) SiO2 
 PCOD8169046
Probable space group: P C A 21
;
_chemical_formula_sum "Si O2"
_cell_formula_units_Z 20
_cell_length_a 18.996660
_cell_length_b 5.059680
_cell_length_c 8.702176
_cell_angle_alpha 90.000000
_cell_angle_beta 90.000000
_cell_angle_gamma 90.000000
_cell_volume 836.427230
_symmetry_space_group_name_H-M "P C A 21"
_symmetry_group_IT_number 29
_symmetry_cell_setting 'orthorhombic'
loop_
_space_group_symop_operation_xyz
x,y,z
-x,-y,1/2+z
1/2-x,y,1/2+z
1/2+x,-y,z
loop_
_atom_site_type_symbol
_atom_site_label
_atom_site_fract_x
_atom_site_fract_y
_atom_site_fract_z
Si Si1 0.828543 0.958454 0.496300
Si Si2 0.310873 0.549872 0.320613
Si Si3 0.547665 0.765975 0.182637
Si Si4 0.541888 0.237498 0.380528
Si Si5 0.191506 0.767981 0.496306
O O1 0.837000 0.739023 0.364579
O O2 0.873631 0.873660 0.644112
O O3 0.855736 0.233854 0.420474
O O4 0.745797 0.994878 0.545652
O O5 0.228237 0.592655 0.362097
O O6 0.323715 0.580110 0.140963
O O7 0.550771 0.503494 0.283386
O O8 0.509194 0.001581 0.277139
O O9 0.507483 0.705197 0.025025
O O10 0.617474 0.126257 0.435856
#
# Coordination Sequence:
#
# PCOD8169046 Si02
#       5
#     4   4   4   4   4
#     4  10  25  41  73 100 148 176 247 302 368 417
#     4  10  24  39  72 100 144 184 237 304 361 434
#     4  12  28  51  74 112 148 204 244 320 364 466
#     4  12  29  47  80 103 157 194 263 292 393 443
#     4  10  26  42  73 105 143 192 247 298 374 434
#
# _framework density 23.911224000000001
#
# number of rings (size 3 to 8) (size 9 to 14) (size 15 to 20)
#    1.200    0.000    0.000    3.600   14.000    0.000 
#    0.000    0.000    0.000    0.000    0.000    0.000 
#    0.000    0.000    0.000    0.000    0.000    0.000 
#
# Total GULP energy -247923.944274 kJ/mol
# GULP energy per Si atom -12396.197214 kJ/mol
# Density = 2.385680 g / cm^3
# Si number density = 23.911224 Si / 1000 Ang^3
#
#
#
# Elastic Constant Matrix: (Units=GPa)
#
#
# Indices 1 2 3 4 5 6 
#
# 1 103.2998 33.3898 39.4530 0.0000 0.0000 0.0000
# 2 33.3898 134.6170 41.6091 0.0000 0.0000 0.0000
# 3 39.4530 41.6091 122.0156 0.0000 0.0000 0.0000
# 4 0.0000 0.0000 0.0000 43.3309 0.0000 0.0000
# 5 0.0000 0.0000 0.0000 0.0000 29.3080 0.0000
# 6 0.0000 0.0000 0.0000 0.0000 0.0000 19.5021
#
#
#
# Elastic Compliance Matrix: (Units=1/GPa)
#
#
# Indices 1 2 3 4 5 6 
#
# 1 0.011462 -0.001897 -0.003059 0.000000 0.000000 0.000000
# 2 -0.001897 0.008618 -0.002325 0.000000 0.000000 0.000000
# 3 -0.003059 -0.002325 0.009978 0.000000 0.000000 0.000000
# 4 0.000000 0.000000 0.000000 0.023078 0.000000 0.000000
# 5 0.000000 0.000000 0.000000 0.000000 0.034120 0.000000
# 6 0.000000 0.000000 0.000000 0.000000 0.000000 0.051276
#
#
# Mechanical properties :
#
#
# Convention : Reuss Voigt Hill
#
# Bulk Modulus (GPa) = 64.54097 65.42626 64.98361
# Shear Modulus (GPa) = 31.59325 34.79355 33.19340
#
# Velocity S-wave (km/s) = 3.63888 3.81873 3.72989
# Velocity P-wave (km/s) = 6.68623 6.84582 6.76650
#
# Compressibility (1/GPa) = 0.01549403
#
# Stress axis : x y z
#
# Youngs Moduli (GPa) = 87.24272 116.03819 100.22255
#
# Poissons Ratio (x) = 0.22018 0.30660
# Poissons Ratio (y) = 0.16554 0.23305
# Poissons Ratio (z) = 0.26689 0.26982
#
# Static dielectric constant tensor:
#      x y z
#    x 4.220660 0.000000 0.000000 
#    y 0.000000 4.121340 0.000000 
#    z 0.000000 0.000000 4.205080 
# 
# 
# High freq. dielectric constant tensor:
#      x y z
#    x 1.929680 0.000000 0.000000 
#    y 0.000000 1.947810 0.000000 
#    z 0.000000 0.000000 1.956260 
# 
# From -- ./inp_files/1976.got.cif
#   From: 2010.03.12/outbox.cif.g09.slc.cpg/sg29_1_cif.got.tgz:1976.got - 2010.04.14 03:43:10.
