data_PCOD8169313
_publ_section_title
;
Structure prediction by ZEFSAII (Michael W. Deem and Ramdas Pophale) SiO2 
 PCOD8169313
Probable space group: P C A 21
;
_chemical_formula_sum "Si O2"
_cell_formula_units_Z 32
_cell_length_a 8.953989
_cell_length_b 11.352932
_cell_length_c 13.965689
_cell_angle_alpha 90.000000
_cell_angle_beta 90.000000
_cell_angle_gamma 90.000000
_cell_volume 1419.668544
_symmetry_space_group_name_H-M "P C A 21"
_symmetry_group_IT_number 29
_symmetry_cell_setting 'orthorhombic'
loop_
_space_group_symop_operation_xyz
x,y,z
-x,-y,1/2+z
1/2-x,y,1/2+z
1/2+x,-y,z
loop_
_atom_site_type_symbol
_atom_site_label
_atom_site_fract_x
_atom_site_fract_y
_atom_site_fract_z
Si Si1 0.454943 0.614805 0.986110
Si Si2 0.658944 0.243940 0.664453
Si Si3 0.118778 0.600966 0.281840
Si Si4 0.163675 0.979917 0.104077
Si Si5 0.714427 0.621367 0.524250
Si Si6 0.111445 0.123438 0.490055
Si Si7 0.720999 0.628839 0.741225
Si Si8 0.103991 0.152294 0.277003
O O1 0.378462 0.659870 0.887330
O O2 0.398421 0.485746 0.012245
O O3 0.632794 0.608516 0.963068
O O4 0.416137 0.705291 0.069243
O O5 0.788180 0.327776 0.703567
O O6 0.718859 0.117407 0.635320
O O7 0.538774 0.231325 0.749012
O O8 0.181006 0.468879 0.295897
O O9 0.951838 0.595564 0.242455
O O10 0.123457 0.051225 0.199000
O O11 0.018464 0.920388 0.059500
O O12 0.233690 0.065933 0.024520
O O13 0.621029 0.735962 0.495229
O O14 0.774552 0.629742 0.631942
O O15 0.080348 0.089336 0.379526
O O16 0.753991 0.758907 0.784179
#
# Coordination Sequence:
#
# PCOD8169313 Si02
#       8
#     4   4   4   4   4   4   4   4
#     4  12  26  46  73 107 151 187 236 291 363 442
#     4  12  27  47  70 107 146 190 236 301 361 432
#     4  12  26  42  74 109 146 191 239 290 369 440
#     4  12  28  51  70 108 144 189 249 302 361 428
#     4  12  25  49  73 107 147 192 235 303 364 429
#     4  12  28  49  79 105 143 196 247 303 368 434
#     4  12  23  48  71 109 146 189 237 303 363 431
#     4  12  27  50  76 102 149 190 247 307 363 432
#
# _framework density 22.540471
#
# number of rings (size 3 to 8) (size 9 to 14) (size 15 to 20)
#    0.000    0.000    5.000    4.500    5.250    0.000 
#    0.000    0.000    0.000    0.000    0.000    0.000 
#    0.000    0.000    0.000    0.000    0.000    0.000 
#
# Total GULP energy -397034.505689 kJ/mol
# GULP energy per Si atom -12407.328303 kJ/mol
# Density = 2.248917 g / cm^3
# Si number density = 22.540471 Si / 1000 Ang^3
#
#
#
# Elastic Constant Matrix: (Units=GPa)
#
#
# Indices 1 2 3 4 5 6 
#
# 1 120.5567 42.0219 26.9975 0.0000 0.0000 0.0000
# 2 42.0219 104.5067 24.6134 0.0000 0.0000 0.0000
# 3 26.9975 24.6134 134.4747 0.0000 0.0000 0.0000
# 4 0.0000 0.0000 0.0000 28.4497 0.0000 0.0000
# 5 0.0000 0.0000 0.0000 0.0000 26.6780 0.0000
# 6 0.0000 0.0000 0.0000 0.0000 0.0000 37.5050
#
#
#
# Elastic Compliance Matrix: (Units=1/GPa)
#
#
# Indices 1 2 3 4 5 6 
#
# 1 0.009863 -0.003657 -0.001311 0.000000 0.000000 0.000000
# 2 -0.003657 0.011356 -0.001344 0.000000 0.000000 0.000000
# 3 -0.001311 -0.001344 0.007946 0.000000 0.000000 0.000000
# 4 0.000000 0.000000 0.000000 0.035150 0.000000 0.000000
# 5 0.000000 0.000000 0.000000 0.000000 0.037484 0.000000
# 6 0.000000 0.000000 0.000000 0.000000 0.000000 0.026663
#
#
# Mechanical properties :
#
#
# Convention : Reuss Voigt Hill
#
# Bulk Modulus (GPa) = 60.45918 60.75596 60.60757
# Shear Modulus (GPa) = 34.10653 36.25357 35.18005
#
# Velocity S-wave (km/s) = 3.89411 4.01481 3.95492
# Velocity P-wave (km/s) = 6.86291 6.96450 6.91389
#
# Compressibility (1/GPa) = 0.01654008
#
# Stress axis : x y z
#
# Youngs Moduli (GPa) = 101.38722 88.05968 125.85673
#
# Poissons Ratio (x) = 0.32206 0.16497
# Poissons Ratio (y) = 0.37080 0.16919
# Poissons Ratio (z) = 0.13289 0.11838
#
# Static dielectric constant tensor:
#      x y z
#    x 4.137660 0.000000 0.000000 
#    y 0.000000 4.044150 0.000000 
#    z 0.000000 0.000000 4.309830 
# 
# 
# High freq. dielectric constant tensor:
#      x y z
#    x 1.897750 0.000000 0.000000 
#    y 0.000000 1.889480 0.000000 
#    z 0.000000 0.000000 1.907410 
# 
# From -- ./inp_files/4269.got.cif
#   From: 2010.03.12/outbox.cif.g09.slc.cpg/sg29_3_cif.got.tgz:4269.got - 2010.04.14 03:43:10.
