data_PCOD8169619
_publ_section_title
;
Structure prediction by ZEFSAII (Michael W. Deem and Ramdas Pophale) SiO2 
 PCOD8169619
Probable space group: P N C 2
;
_chemical_formula_sum "Si O2"
_cell_formula_units_Z 12
_cell_length_a 5.040216
_cell_length_b 5.687681
_cell_length_c 16.921556
_cell_angle_alpha 90.000000
_cell_angle_beta 90.000000
_cell_angle_gamma 90.000000
_cell_volume 485.092628
_symmetry_space_group_name_H-M "P N C 2"
_symmetry_group_IT_number 30
_symmetry_cell_setting 'orthorhombic'
loop_
_space_group_symop_operation_xyz
x,y,z
-x,-y,z
-x,1/2+y,1/2+z
x,1/2-y,1/2+z
loop_
_atom_site_type_symbol
_atom_site_label
_atom_site_fract_x
_atom_site_fract_y
_atom_site_fract_z
Si Si1 0.500000 0.000000 0.434090
Si Si2 0.243746 0.340749 0.555295
Si Si3 0.262965 0.854359 0.283163
Si Si4 0.000000 0.500000 0.182149
O O1 0.694270 0.844685 0.486844
O O2 0.328282 0.825172 0.377141
O O3 0.500000 0.500000 0.575598
O O4 0.000000 0.500000 0.525532
O O5 0.147671 0.198042 0.631603
O O6 0.227634 0.606705 0.239127
O O7 0.500000 0.000000 0.241398
O O8 0.000000 0.000000 0.270566
#
# Coordination Sequence:
#
# PCOD8169619 Si02
#       4
#     2   4   4   2
#     4  10  28  56  78 116 160 206 270 318 398 456
#     4  12  29  49  82 116 160 211 262 324 387 476
#     4  10  27  49  79 115 153 202 264 324 389 464
#     4  12  28  54  80 118 162 206 264 324 398 460
#
# _framework density 24.737544
#
# number of rings (size 3 to 8) (size 9 to 14) (size 15 to 20)
#    1.000    0.000    0.000    3.000    7.000   17.333 
#    0.000    3.333    0.000    0.000    0.000    0.000 
#    0.000    0.000    0.000    0.000    0.000    0.000 
#
# Total GULP energy -148760.047728 kJ/mol
# GULP energy per Si atom -12396.670644 kJ/mol
# Density = 2.468124 g / cm^3
# Si number density = 24.737544 Si / 1000 Ang^3
#
#
#
# Elastic Constant Matrix: (Units=GPa)
#
#
# Indices 1 2 3 4 5 6 
#
# 1 192.1511 73.4869 64.3173 0.0000 0.0000 0.0000
# 2 73.4869 129.5290 91.4040 0.0000 0.0000 0.0000
# 3 64.3173 91.4040 181.6927 0.0000 0.0000 0.0000
# 4 0.0000 0.0000 0.0000 16.4173 0.0000 0.0000
# 5 0.0000 0.0000 0.0000 0.0000 5.9815 0.0000
# 6 0.0000 0.0000 0.0000 0.0000 0.0000 61.5256
#
#
#
# Elastic Compliance Matrix: (Units=1/GPa)
#
#
# Indices 1 2 3 4 5 6 
#
# 1 0.006705 -0.003301 -0.000713 0.000000 0.000000 0.000000
# 2 -0.003301 0.013595 -0.005670 0.000000 0.000000 0.000000
# 3 -0.000713 -0.005670 0.008609 0.000000 0.000000 0.000000
# 4 0.000000 0.000000 0.000000 0.060911 0.000000 0.000000
# 5 0.000000 0.000000 0.000000 0.000000 0.167182 0.000000
# 6 0.000000 0.000000 0.000000 0.000000 0.000000 0.016253
#
#
# Mechanical properties :
#
#
# Convention : Reuss Voigt Hill
#
# Bulk Modulus (GPa) = 104.82488 106.86547 105.84518
# Shear Modulus (GPa) = 16.90309 35.06253 25.98281
#
# Velocity S-wave (km/s) = 2.61683 3.76890 3.24441
# Velocity P-wave (km/s) = 7.18312 7.88879 7.54421
#
# Compressibility (1/GPa) = 0.00953972
#
# Stress axis : x y z
#
# Youngs Moduli (GPa) = 149.13423 73.55875 116.16027
#
# Poissons Ratio (x) = 0.24283 0.08281
# Poissons Ratio (y) = 0.49231 0.65868
# Poissons Ratio (z) = 0.10632 0.41711
#
# Static dielectric constant tensor:
#      x y z
#    x 3.845520 0.000000 0.000000 
#    y 0.000000 4.308350 0.000000 
#    z 0.000000 0.000000 4.613330 
# 
# 
# High freq. dielectric constant tensor:
#      x y z
#    x 2.001650 0.000000 0.000000 
#    y 0.000000 1.979970 0.000000 
#    z 0.000000 0.000000 1.993830 
# 
# From -- ./inp_files/5696.got.cif
#   From: 2010.03.12/outbox.cif.g09.slc.cpg/sg30_3_cif.got.tgz:5696.got - 2010.04.14 01:38:02.
