data_PCOD8169878
_publ_section_title
;
Structure prediction by ZEFSAII (Michael W. Deem and Ramdas Pophale) SiO2 
 PCOD8169878
Probable space group: P M N 21
;
_chemical_formula_sum "Si O2"
_cell_formula_units_Z 32
_cell_length_a 8.710569
_cell_length_b 12.216966
_cell_length_c 14.672066
_cell_angle_alpha 90.000000
_cell_angle_beta 90.000000
_cell_angle_gamma 90.000000
_cell_volume 1561.353217
_symmetry_space_group_name_H-M "P M N 21"
_symmetry_group_IT_number 31
_symmetry_cell_setting 'orthorhombic'
loop_
_space_group_symop_operation_xyz
x,y,z
1/2-x,-y,1/2+z
-x,y,z
1/2+x,-y,1/2+z
loop_
_atom_site_type_symbol
_atom_site_label
_atom_site_fract_x
_atom_site_fract_y
_atom_site_fract_z
Si Si1 0.318286 0.878896 0.693120
Si Si2 0.181916 0.591431 0.911204
Si Si3 0.172681 0.439636 0.608067
Si Si4 0.179651 0.602190 0.291523
Si Si5 0.181046 0.015046 0.011954
Si Si6 0.680926 0.161999 0.375520
Si Si7 0.179760 0.235217 0.920844
Si Si8 0.327446 0.313372 0.093836
O O1 0.500000 0.867537 0.691615
O O2 0.260968 0.967303 0.616514
O O3 0.260169 0.907358 0.794122
O O4 0.242299 0.762308 0.671954
O O5 0.237495 0.499603 0.840752
O O6 0.233757 0.712076 0.877257
O O7 0.000000 0.583973 0.919699
O O8 0.254178 0.576166 0.009859
O O9 0.274079 0.383280 0.686125
O O10 0.168366 0.566461 0.635251
O O11 0.000000 0.391368 0.608043
O O12 0.227263 0.718251 0.335149
O O13 0.000000 0.582911 0.301339
O O14 0.000000 0.024355 0.014317
O O15 0.239670 0.113859 0.946910
O O16 0.233180 0.898820 0.969686
O O17 0.500000 0.151671 0.362418
O O18 0.000000 0.239696 0.898970
O O19 0.217232 0.313838 0.006057
O O20 0.500000 0.275242 0.067292
#
# Coordination Sequence:
#
# PCOD8169878 Si02
#       8
#     4   4   4   4   4   4   4   4
#     4  10  20  35  59  89 116 152 200 247 294 348
#     4  11  23  39  61  88 121 161 199 243 300 358
#     4  11  23  38  57  84 120 158 197 242 295 357
#     4  12  24  38  58  86 121 159 199 243 295 358
#     4   8  18  38  61  84 115 152 191 241 300 351
#     4  10  21  40  62  85 119 158 196 242 299 359
#     4  10  19  35  60  84 112 147 190 242 296 347
#     4  10  19  33  56  84 114 149 192 240 289 344
#
# _framework density 20.495042999999999
#
# number of rings (size 3 to 8) (size 9 to 14) (size 15 to 20)
#    0.000    1.750    1.250    4.500    0.000    5.500 
#    2.250    3.750    0.000    0.000    0.000    0.000 
#    0.000    0.000    0.000    0.000    0.000    0.000 
#
# Total GULP energy -396699.873289 kJ/mol
# GULP energy per Si atom -12396.871040 kJ/mol
# Density = 2.044840 g / cm^3
# Si number density = 20.495043 Si / 1000 Ang^3
#
#
#
# Elastic Constant Matrix: (Units=GPa)
#
#
# Indices 1 2 3 4 5 6 
#
# 1 77.8352 20.6769 21.4175 0.0000 0.0000 0.0000
# 2 20.6769 50.9513 19.0361 0.0000 0.0000 0.0000
# 3 21.4175 19.0361 105.4294 0.0000 0.0000 0.0000
# 4 0.0000 0.0000 0.0000 24.5365 0.0000 0.0000
# 5 0.0000 0.0000 0.0000 0.0000 33.8884 0.0000
# 6 0.0000 0.0000 0.0000 0.0000 0.0000 17.0769
#
#
#
# Elastic Compliance Matrix: (Units=1/GPa)
#
#
# Indices 1 2 3 4 5 6 
#
# 1 0.014807 -0.005238 -0.002062 0.000000 0.000000 0.000000
# 2 -0.005238 0.022900 -0.003071 0.000000 0.000000 0.000000
# 3 -0.002062 -0.003071 0.010458 0.000000 0.000000 0.000000
# 4 0.000000 0.000000 0.000000 0.040756 0.000000 0.000000
# 5 0.000000 0.000000 0.000000 0.000000 0.029509 0.000000
# 6 0.000000 0.000000 0.000000 0.000000 0.000000 0.058559
#
#
# Mechanical properties :
#
#
# Convention : Reuss Voigt Hill
#
# Bulk Modulus (GPa) = 36.46627 39.60854 38.03741
# Shear Modulus (GPa) = 24.16976 26.63941 25.40458
#
# Velocity S-wave (km/s) = 3.43782 3.60918 3.52454
# Velocity P-wave (km/s) = 5.79564 6.06103 5.92982
#
# Compressibility (1/GPa) = 0.02742260
#
# Stress axis : x y z
#
# Youngs Moduli (GPa) = 67.53735 43.66889 95.61757
#
# Poissons Ratio (x) = 0.22875 0.19717
# Poissons Ratio (y) = 0.35378 0.29360
# Poissons Ratio (z) = 0.13927 0.13409
#
# Static dielectric constant tensor:
#      x y z
#    x 3.671350 0.000000 0.000000 
#    y 0.000000 3.813450 0.000000 
#    z 0.000000 0.000000 3.825350 
# 
# 
# High freq. dielectric constant tensor:
#      x y z
#    x 1.796870 0.000000 0.000000 
#    y 0.000000 1.784320 0.000000 
#    z 0.000000 0.000000 1.807340 
# 
# From -- ./inp_files/4927.got.cif
#   From: 2010.03.12/outbox.cif.g09.slc.cpg/sg31_3_cif.got.tgz:4927.got - 2010.04.14 01:42:59.
