data_PCOD8169640
_publ_section_title
;
Structure prediction by ZEFSAII (Michael W. Deem and Ramdas Pophale) SiO2 
 PCOD8169640
Probable space group: P N C 2
;
_chemical_formula_sum "Si O2"
_cell_formula_units_Z 32
_cell_length_a 14.524084
_cell_length_b 10.384633
_cell_length_c 8.920563
_cell_angle_alpha 90.000000
_cell_angle_beta 90.000000
_cell_angle_gamma 90.000000
_cell_volume 1345.464271
_symmetry_space_group_name_H-M "P N C 2"
_symmetry_group_IT_number 30
_symmetry_cell_setting 'orthorhombic'
loop_
_space_group_symop_operation_xyz
x,y,z
-x,-y,z
-x,1/2+y,1/2+z
x,1/2-y,1/2+z
loop_
_atom_site_type_symbol
_atom_site_label
_atom_site_fract_x
_atom_site_fract_y
_atom_site_fract_z
Si Si1 0.760344 0.612308 0.413430
Si Si2 0.440647 0.124794 0.053341
Si Si3 0.224158 0.903758 0.689703
Si Si4 0.284650 0.834657 0.363218
Si Si5 0.138846 0.968054 0.167812
Si Si6 0.491001 0.638962 0.872973
Si Si7 0.034186 0.702223 0.151824
Si Si8 0.088282 0.306456 0.876394
O O1 0.662433 0.621394 0.492870
O O2 0.748875 0.545678 0.249418
O O3 0.830331 0.527822 0.510994
O O4 0.807099 0.753118 0.393838
O O5 0.489549 0.250841 0.990630
O O6 0.500000 0.000000 0.003642
O O7 0.438280 0.139866 0.232958
O O8 0.280478 0.864815 0.540905
O O9 0.246164 0.807243 0.827397
O O10 0.115911 0.901780 0.649785
O O11 0.388926 0.843577 0.306936
O O12 0.227307 0.936693 0.268725
O O13 0.083020 0.072925 0.263795
O O14 0.078151 0.844041 0.127741
O O15 0.500000 0.500000 0.954804
O O16 0.979160 0.697292 0.307861
O O17 0.957868 0.658004 0.032726
#
# Coordination Sequence:
#
# PCOD8169640 Si02
#       8
#     4   4   4   4   4   4   4   4
#     4  12  27  44  71 104 149 189 246 309 382 432
#     4  11  26  47  74 106 148 190 245 308 377 452
#     4  11  24  44  72 106 140 196 242 313 353 460
#     4  11  23  43  74 102 143 185 253 292 377 435
#     4  11  24  46  69  98 143 192 242 310 356 447
#     4  11  25  45  74 106 143 193 236 309 375 455
#     4  11  24  45  69  98 140 192 251 293 372 427
#     4  12  26  42  68  99 141 190 237 308 361 435
#
# _framework density 23.783614
#
# number of rings (size 3 to 8) (size 9 to 14) (size 15 to 20)
#    0.000    0.750    1.250    7.125    5.250    3.000 
#    0.000    0.000    0.000    0.000    0.000    0.000 
#    0.000    0.000    0.000    0.000    0.000    0.000 
#
# Total GULP energy -396864.262870 kJ/mol
# GULP energy per Si atom -12402.008215 kJ/mol
# Density = 2.372948 g / cm^3
# Si number density = 23.783614 Si / 1000 Ang^3
#
#
#
# Elastic Constant Matrix: (Units=GPa)
#
#
# Indices 1 2 3 4 5 6 
#
# 1 92.5646 4.6862 -4.5363 0.0000 0.0000 0.0000
# 2 4.6862 88.1523 19.1896 0.0000 0.0000 0.0000
# 3 -4.5363 19.1896 76.0102 0.0000 0.0000 0.0000
# 4 0.0000 0.0000 0.0000 28.7438 0.0000 0.0000
# 5 0.0000 0.0000 0.0000 0.0000 33.2068 0.0000
# 6 0.0000 0.0000 0.0000 0.0000 0.0000 28.3346
#
#
#
# Elastic Compliance Matrix: (Units=1/GPa)
#
#
# Indices 1 2 3 4 5 6 
#
# 1 0.010883 -0.000762 0.000842 0.000000 0.000000 0.000000
# 2 -0.000762 0.012057 -0.003089 0.000000 0.000000 0.000000
# 3 0.000842 -0.003089 0.013986 0.000000 0.000000 0.000000
# 4 0.000000 0.000000 0.000000 0.034790 0.000000 0.000000
# 5 0.000000 0.000000 0.000000 0.000000 0.030114 0.000000
# 6 0.000000 0.000000 0.000000 0.000000 0.000000 0.035293
#
#
# Mechanical properties :
#
#
# Convention : Reuss Voigt Hill
#
# Bulk Modulus (GPa) = 32.35439 32.82290 32.58865
# Shear Modulus (GPa) = 32.58503 33.88288 33.23395
#
# Velocity S-wave (km/s) = 3.70545 3.77852 3.74217
# Velocity P-wave (km/s) = 5.65158 5.73297 5.69242
#
# Compressibility (1/GPa) = 0.03090770
#
# Stress axis : x y z
#
# Youngs Moduli (GPa) = 91.88567 82.93920 71.49844
#
# Poissons Ratio (x) = 0.06318 -0.06019
# Poissons Ratio (y) = 0.07000 0.22089
# Poissons Ratio (z) = -0.07735 0.25623
#
# Static dielectric constant tensor:
#      x y z
#    x 4.468470 0.000000 0.000000 
#    y 0.000000 4.307410 0.000000 
#    z 0.000000 0.000000 4.212500 
# 
# 
# High freq. dielectric constant tensor:
#      x y z
#    x 1.951450 0.000000 0.000000 
#    y 0.000000 1.941910 0.000000 
#    z 0.000000 0.000000 1.942410 
# 
# From -- ./inp_files/2707.got.cif
#   From: 2010.03.12/outbox.cif.g09.slc.cpg/sg30_2_cif.got.tgz:2707.got - 2010.04.14 01:38:02.
