data_PCOD8169023
_publ_section_title
;
Structure prediction by ZEFSAII (Michael W. Deem and Ramdas Pophale) SiO2 
 PCOD8169023
Probable space group: P C A 21
;
_chemical_formula_sum "Si O2"
_cell_formula_units_Z 32
_cell_length_a 9.465993
_cell_length_b 13.203241
_cell_length_c 12.709852
_cell_angle_alpha 90.000000
_cell_angle_beta 90.000000
_cell_angle_gamma 90.000000
_cell_volume 1588.500014
_symmetry_space_group_name_H-M "P C A 21"
_symmetry_group_IT_number 29
_symmetry_cell_setting 'orthorhombic'
loop_
_space_group_symop_operation_xyz
x,y,z
-x,-y,1/2+z
1/2-x,y,1/2+z
1/2+x,-y,z
loop_
_atom_site_type_symbol
_atom_site_label
_atom_site_fract_x
_atom_site_fract_y
_atom_site_fract_z
Si Si1 0.279313 0.714625 0.265030
Si Si2 0.864332 0.471457 0.663445
Si Si3 0.220688 0.214625 0.162831
Si Si4 0.075350 0.853481 0.609721
Si Si5 0.363721 0.895087 0.875900
Si Si6 0.135667 0.028543 0.764415
Si Si7 0.636278 0.604913 0.551961
Si Si8 0.424649 0.353482 0.818139
O O1 0.200686 0.610605 0.241781
O O2 0.318609 0.768542 0.154893
O O3 0.175988 0.784473 0.333207
O O4 0.420286 0.694437 0.333596
O O5 0.744988 0.519576 0.589514
O O6 0.938652 0.555827 0.734817
O O7 0.979528 0.420820 0.589062
O O8 0.299313 0.110604 0.186080
O O9 0.324014 0.284473 0.094654
O O10 0.181392 0.268543 0.272968
O O11 0.079715 0.194438 0.094264
O O12 0.139586 0.893675 0.501655
O O13 0.061348 0.944173 0.693043
O O14 0.520471 0.920820 0.838797
O O15 0.255011 0.980424 0.838348
O O16 0.639587 0.606325 0.426206
#
# Coordination Sequence:
#
# PCOD8169023 Si02
#       8
#     4   4   4   4   4   4   4   4
#     4  10  23  45  62  95 134 163 213 269 313 379
#     4  11  23  45  64  99 128 165 216 265 317 380
#     4  10  23  45  62  95 134 163 213 269 313 379
#     4  10  24  43  65  94 134 165 210 272 314 381
#     4  11  25  39  70  96 124 177 211 257 328 380
#     4  11  23  45  64  99 128 165 216 265 317 380
#     4  11  25  39  70  96 124 177 211 257 328 380
#     4  10  24  43  65  94 134 165 210 272 314 381
#
# _framework density 20.144788999999999
#
# number of rings (size 3 to 8) (size 9 to 14) (size 15 to 20)
#    0.000    1.500    2.500    0.750    7.000    0.000 
#    0.000    0.000    0.000    0.000    0.000    0.000 
#    0.000    0.000    0.000    0.000    0.000    0.000 
#
# Total GULP energy -397018.968897 kJ/mol
# GULP energy per Si atom -12406.842778 kJ/mol
# Density = 2.009894 g / cm^3
# Si number density = 20.144789 Si / 1000 Ang^3
#
#
#
# Elastic Constant Matrix: (Units=GPa)
#
#
# Indices 1 2 3 4 5 6 
#
# 1 83.6355 25.9714 34.2080 0.0000 0.0000 0.0000
# 2 25.9714 94.6483 19.9749 0.0000 0.0000 0.0000
# 3 34.2080 19.9749 98.1896 0.0000 0.0000 0.0000
# 4 0.0000 0.0000 0.0000 19.1654 0.0000 0.0000
# 5 0.0000 0.0000 0.0000 0.0000 15.1795 0.0000
# 6 0.0000 0.0000 0.0000 0.0000 0.0000 -151.4047
#
#
#
# Elastic Compliance Matrix: (Units=1/GPa)
#
#
# Indices 1 2 3 4 5 6 
#
# 1 0.014765 -0.003099 -0.004514 0.000000 0.000000 0.000000
# 2 -0.003099 0.011690 -0.001298 0.000000 0.000000 0.000000
# 3 -0.004514 -0.001298 0.012021 0.000000 0.000000 0.000000
# 4 0.000000 0.000000 0.000000 0.052177 0.000000 0.000000
# 5 0.000000 0.000000 0.000000 0.000000 0.065879 0.000000
# 6 0.000000 0.000000 0.000000 0.000000 0.000000 -0.006605
#
#
# Mechanical properties :
#
#
# Convention : Reuss Voigt Hill
#
# Bulk Modulus (GPa) = 48.41682 48.53132 48.47407
# Shear Modulus (GPa) = 28.63142 -10.32401 9.15371
#
# Velocity S-wave (km/s) = 3.77408 -2.26628 2.13397
# Velocity P-wave (km/s) = 6.56339 4.15879 5.49425
#
# Compressibility (1/GPa) = 0.02065398
#
# Stress axis : x y z
#
# Youngs Moduli (GPa) = 67.72745 85.54463 83.18792
#
# Poissons Ratio (x) = 0.26510 0.37547
# Poissons Ratio (y) = 0.20988 0.10802
# Poissons Ratio (z) = 0.30569 0.11108
#
# Static dielectric constant tensor:
#      x y z
#    x 3.647350 0.000000 0.000000 
#    y 0.000000 3.802390 0.000000 
#    z 0.000000 0.000000 3.419660 
# 
# 
# High freq. dielectric constant tensor:
#      x y z
#    x 1.795850 0.000000 0.000000 
#    y 0.000000 1.802380 0.000000 
#    z 0.000000 0.000000 1.775690 
# 
# From -- ./inp_files/1819.got.cif
#   From: 2010.03.12/outbox.cif.g09.slc.cpg/sg29_1_cif.got.tgz:1819.got - 2010.04.14 03:43:10.
