data_PCOD8169486
_publ_section_title
;
Structure prediction by ZEFSAII (Michael W. Deem and Ramdas Pophale) SiO2 
 PCOD8169486
Probable space group: P N C 2
;
_chemical_formula_sum "Si O2"
_cell_formula_units_Z 32
_cell_length_a 8.857424
_cell_length_b 34.281325
_cell_length_c 4.981229
_cell_angle_alpha 90.000000
_cell_angle_beta 90.000000
_cell_angle_gamma 90.000000
_cell_volume 1512.521448
_symmetry_space_group_name_H-M "P N C 2"
_symmetry_group_IT_number 30
_symmetry_cell_setting 'orthorhombic'
loop_
_space_group_symop_operation_xyz
x,y,z
-x,-y,z
-x,1/2+y,1/2+z
x,1/2-y,1/2+z
loop_
_atom_site_type_symbol
_atom_site_label
_atom_site_fract_x
_atom_site_fract_y
_atom_site_fract_z
Si Si1 0.759779 0.644660 0.345770
Si Si2 0.261061 0.774186 0.865337
Si Si3 0.595486 0.143821 0.873288
Si Si4 0.238995 0.097499 0.338316
Si Si5 0.666034 0.486733 0.080900
Si Si6 0.906003 0.774001 0.860193
Si Si7 0.593700 0.403848 0.884776
Si Si8 0.163973 0.017580 0.097288
O O1 0.581744 0.648843 0.347222
O O2 0.802146 0.633858 0.649017
O O3 0.831414 0.685716 0.271894
O O4 0.815728 0.610836 0.135162
O O5 0.314361 0.758492 0.577683
O O6 0.333728 0.815020 0.948300
O O7 0.083526 0.780769 0.861696
O O8 0.646027 0.131229 0.577189
O O9 0.644976 0.110072 0.087955
O O10 0.415646 0.087086 0.365698
O O11 0.151522 0.062809 0.183835
O O12 0.500000 0.500000 0.171399
O O13 0.783707 0.505614 0.295417
O O14 0.675487 0.440454 0.027965
O O15 0.705463 0.502039 0.788413
O O16 0.853652 0.740867 0.650397
O O17 0.000000 0.000000 0.152174
#
# Coordination Sequence:
#
# PCOD8169486 Si02
#       8
#     4   4   4   4   4   4   4   4
#     4  10  21  37  61  88 115 159 204 245 309 364
#     4  10  21  38  59  84 120 160 192 244 312 366
#     4  10  21  37  59  89 123 149 196 261 307 356
#     4  10  21  40  62  85 126 164 196 260 320 369
#     4  12  24  42  72  93 122 178 224 258 314 394
#     4  10  21  38  59  83 117 156 202 245 290 375
#     4  10  21  39  62  91 119 158 211 258 299 370
#     4  12  26  44  64  96 136 166 213 276 329 377
#
# _framework density 21.156725000000002
#
# number of rings (size 3 to 8) (size 9 to 14) (size 15 to 20)
#    0.000    1.500    1.250    3.750    3.500    1.000 
#    6.750    0.000    0.000    0.000    0.000    0.000 
#    0.000    0.000    0.000    0.000    0.000    0.000 
#
# Total GULP energy -396484.633236 kJ/mol
# GULP energy per Si atom -12390.144789 kJ/mol
# Density = 2.110857 g / cm^3
# Si number density = 21.156725 Si / 1000 Ang^3
#
#
#
# Elastic Constant Matrix: (Units=GPa)
#
#
# Indices 1 2 3 4 5 6 
#
# 1 35.3468 31.9646 28.1476 0.0000 0.0000 0.0000
# 2 31.9646 130.1964 34.1027 0.0000 0.0000 0.0000
# 3 28.1476 34.1027 112.2761 0.0000 0.0000 0.0000
# 4 0.0000 0.0000 0.0000 22.0996 0.0000 0.0000
# 5 0.0000 0.0000 0.0000 0.0000 19.9290 0.0000
# 6 0.0000 0.0000 0.0000 0.0000 0.0000 21.1436
#
#
#
# Elastic Compliance Matrix: (Units=1/GPa)
#
#
# Indices 1 2 3 4 5 6 
#
# 1 0.042167 -0.008239 -0.008069 0.000000 0.000000 0.000000
# 2 -0.008239 0.009954 -0.000958 0.000000 0.000000 0.000000
# 3 -0.008069 -0.000958 0.011220 0.000000 0.000000 0.000000
# 4 0.000000 0.000000 0.000000 0.045250 0.000000 0.000000
# 5 0.000000 0.000000 0.000000 0.000000 0.050178 0.000000
# 6 0.000000 0.000000 0.000000 0.000000 0.000000 0.047296
#
#
# Mechanical properties :
#
#
# Convention : Reuss Voigt Hill
#
# Bulk Modulus (GPa) = 34.70973 51.80546 43.25759
# Shear Modulus (GPa) = 19.98396 24.87473 22.42934
#
# Velocity S-wave (km/s) = 3.07672 3.43262 3.25953
# Velocity P-wave (km/s) = 5.39103 6.34430 5.88699
#
# Compressibility (1/GPa) = 0.02881037
#
# Stress axis : x y z
#
# Youngs Moduli (GPa) = 23.71512 100.45800 89.12300
#
# Poissons Ratio (x) = 0.82768 0.71912
# Poissons Ratio (y) = 0.19539 0.08538
# Poissons Ratio (z) = 0.19135 0.09624
#
# Static dielectric constant tensor:
#      x y z
#    x 3.477340 0.000000 0.000000 
#    y 0.000000 3.883270 0.000000 
#    z 0.000000 0.000000 4.153620 
# 
# 
# High freq. dielectric constant tensor:
#      x y z
#    x 1.795620 0.000000 0.000000 
#    y 0.000000 1.838590 0.000000 
#    z 0.000000 0.000000 1.850530 
# 
# From -- ./inp_files/585.got.cif
#   From: 2010.03.12/outbox.cif.g09.slc.cpg/sg30_1_cif.got.tgz:585.got - 2010.04.14 01:38:02.
