data_PCOD8169398
_publ_section_title
;
Structure prediction by ZEFSAII (Michael W. Deem and Ramdas Pophale) SiO2 
 PCOD8169398
Probable space group: P N C 2
;
_chemical_formula_sum "Si O2"
_cell_formula_units_Z 30
_cell_length_a 11.357402
_cell_length_b 15.233567
_cell_length_c 8.731637
_cell_angle_alpha 90.000000
_cell_angle_beta 90.000000
_cell_angle_gamma 90.000000
_cell_volume 1510.693211
_symmetry_space_group_name_H-M "P N C 2"
_symmetry_group_IT_number 30
_symmetry_cell_setting 'orthorhombic'
loop_
_space_group_symop_operation_xyz
x,y,z
-x,-y,z
-x,1/2+y,1/2+z
x,1/2-y,1/2+z
loop_
_atom_site_type_symbol
_atom_site_label
_atom_site_fract_x
_atom_site_fract_y
_atom_site_fract_z
Si Si1 0.719856 0.738120 0.297030
Si Si2 0.839236 0.639039 0.553540
Si Si3 0.081884 0.670877 0.686121
Si Si4 0.165931 0.031154 0.525466
Si Si5 0.383590 0.364813 0.048933
Si Si6 0.051271 0.644997 0.041957
Si Si7 0.250193 0.519154 0.709397
Si Si8 0.500000 0.500000 0.869082
O O1 0.808726 0.671720 0.382719
O O2 0.797824 0.788147 0.174110
O O3 0.610291 0.689131 0.207916
O O4 0.661004 0.804106 0.412764
O O5 0.768708 0.547632 0.569030
O O6 0.979256 0.627534 0.580668
O O7 0.054093 0.669944 0.864677
O O8 0.095323 0.772595 0.639878
O O9 0.204153 0.616211 0.660042
O O10 0.294134 0.055498 0.583845
O O11 0.081676 0.111907 0.574084
O O12 0.132789 0.936482 0.593741
O O13 0.164364 0.019221 0.341262
O O14 0.497721 0.414003 0.981115
O O15 0.386581 0.515831 0.761412
#
# Coordination Sequence:
#
# PCOD8169398 Si02
#       8
#     4   4   4   4   4   4   4   2
#     4  10  20  32  62  89 116 140 204 252 302 359
#     4  11  18  34  57  91 116 149 191 253 302 367
#     4  11  20  33  55  84 119 157 191 240 297 369
#     4   9  17  33  55  76 110 155 193 230 299 365
#     4  10  19  37  58  86 109 155 198 256 295 350
#     4  10  19  32  53  79 116 155 190 233 296 374
#     4  10  20  36  58  83 112 164 206 243 294 362
#     4  10  20  40  62  78 118 166 214 246 310 352
#
# _framework density 19.858433000000002
#
# number of rings (size 3 to 8) (size 9 to 14) (size 15 to 20)
#    0.000    1.867    4.000    2.800    0.000    0.000 
#    2.400    4.667    0.000    0.000    0.000    0.000 
#    0.000    0.000    0.000    0.000    0.000    0.000 
#
# Total GULP energy -371675.414095 kJ/mol
# GULP energy per Si atom -12389.180470 kJ/mol
# Density = 1.981323 g / cm^3
# Si number density = 19.858433 Si / 1000 Ang^3
#
#
#
# Elastic Constant Matrix: (Units=GPa)
#
#
# Indices 1 2 3 4 5 6 
#
# 1 83.1860 52.9782 22.8825 0.0000 0.0000 0.0000
# 2 52.9782 131.9164 31.6576 0.0000 0.0000 0.0000
# 3 22.8825 31.6576 55.2519 0.0000 0.0000 0.0000
# 4 0.0000 0.0000 0.0000 32.4042 0.0000 0.0000
# 5 0.0000 0.0000 0.0000 0.0000 17.4000 0.0000
# 6 0.0000 0.0000 0.0000 0.0000 0.0000 29.0436
#
#
#
# Elastic Compliance Matrix: (Units=1/GPa)
#
#
# Indices 1 2 3 4 5 6 
#
# 1 0.016739 -0.005865 -0.003572 0.000000 0.000000 0.000000
# 2 -0.005865 0.010844 -0.003784 0.000000 0.000000 0.000000
# 3 -0.003572 -0.003784 0.021746 0.000000 0.000000 0.000000
# 4 0.000000 0.000000 0.000000 0.030860 0.000000 0.000000
# 5 0.000000 0.000000 0.000000 0.000000 0.057471 0.000000
# 6 0.000000 0.000000 0.000000 0.000000 0.000000 0.034431
#
#
# Mechanical properties :
#
#
# Convention : Reuss Voigt Hill
#
# Bulk Modulus (GPa) = 43.69304 53.93235 48.81270
# Shear Modulus (GPa) = 24.25246 26.62528 25.43887
#
# Velocity S-wave (km/s) = 3.49846 3.66560 3.58300
# Velocity P-wave (km/s) = 6.19427 6.71810 6.46150
#
# Compressibility (1/GPa) = 0.02288694
#
# Stress axis : x y z
#
# Youngs Moduli (GPa) = 59.73988 92.21444 45.98443
#
# Poissons Ratio (x) = 0.54087 0.16425
# Poissons Ratio (y) = 0.35040 0.17402
# Poissons Ratio (z) = 0.21338 0.34897
#
# Static dielectric constant tensor:
#      x y z
#    x 3.458840 0.000000 0.000000 
#    y 0.000000 4.014040 0.000000 
#    z 0.000000 0.000000 3.599820 
# 
# 
# High freq. dielectric constant tensor:
#      x y z
#    x 1.739830 0.000000 0.000000 
#    y 0.000000 1.789260 0.000000 
#    z 0.000000 0.000000 1.757120 
# 
# From -- ./inp_files/2473.got.cif
#   From: 2010.03.12/outbox.cif.g09.slc.cpg/sg30_2_cif.got.tgz:2473.got - 2010.04.14 01:38:02.
