data_PCOD8169052
_publ_section_title
;
Structure prediction by ZEFSAII (Michael W. Deem and Ramdas Pophale) SiO2 
 PCOD8169052
Probable space group: P C A 21
;
_chemical_formula_sum "Si O2"
_cell_formula_units_Z 20
_cell_length_a 5.335636
_cell_length_b 16.498276
_cell_length_c 9.759414
_cell_angle_alpha 90.000000
_cell_angle_beta 90.000000
_cell_angle_gamma 90.000000
_cell_volume 859.109458
_symmetry_space_group_name_H-M "P C A 21"
_symmetry_group_IT_number 29
_symmetry_cell_setting 'orthorhombic'
loop_
_space_group_symop_operation_xyz
x,y,z
-x,-y,1/2+z
1/2-x,y,1/2+z
1/2+x,-y,z
loop_
_atom_site_type_symbol
_atom_site_label
_atom_site_fract_x
_atom_site_fract_y
_atom_site_fract_z
Si Si1 0.776640 0.550545 0.940470
Si Si2 0.917197 0.982677 0.577393
Si Si3 0.775736 0.659582 0.689677
Si Si4 0.285946 0.760128 0.688792
Si Si5 0.265827 0.867148 0.941936
O O1 0.535462 0.495439 0.971766
O O2 0.780497 0.579805 0.784014
O O3 0.759964 0.630309 0.034420
O O4 0.909141 0.053302 0.458170
O O5 0.662912 0.989416 0.666684
O O6 0.960036 0.895569 0.503572
O O7 0.534392 0.712087 0.733248
O O8 0.035748 0.707319 0.706802
O O9 0.268511 0.839916 0.784737
O O10 0.320172 0.790320 0.533280
#
# Coordination Sequence:
#
# PCOD8169052 Si02
#       5
#     4   4   4   4   4
#     4  12  24  45  73  92 128 160 206 248 304 356
#     4   8  20  38  60  86 120 154 230 252 308 354
#     4  12  26  43  63 102 124 164 202 252 300 390
#     4  12  26  39  67  86 140 156 210 244 332 358
#     4  10  24  41  61  92 118 178 200 274 302 364
#
# _framework density 23.279921000000002
#
# number of rings (size 3 to 8) (size 9 to 14) (size 15 to 20)
#    1.200    0.000    0.000    6.000    5.600    1.600 
#    0.000    0.000    0.000    0.000    0.000    0.000 
#    0.000    0.000    0.000    0.000    0.000    0.000 
#
# Total GULP energy -247765.925036 kJ/mol
# GULP energy per Si atom -12388.296252 kJ/mol
# Density = 2.322693 g / cm^3
# Si number density = 23.279921 Si / 1000 Ang^3
#
#
#
# Elastic Constant Matrix: (Units=GPa)
#
#
# Indices 1 2 3 4 5 6 
#
# 1 159.7295 23.6739 6.3952 0.0000 0.0000 0.0000
# 2 23.6739 84.9756 11.4339 0.0000 0.0000 0.0000
# 3 6.3952 11.4339 65.9067 0.0000 0.0000 0.0000
# 4 0.0000 0.0000 0.0000 30.9324 0.0000 0.0000
# 5 0.0000 0.0000 0.0000 0.0000 18.6910 0.0000
# 6 0.0000 0.0000 0.0000 0.0000 0.0000 37.0763
#
#
#
# Elastic Compliance Matrix: (Units=1/GPa)
#
#
# Indices 1 2 3 4 5 6 
#
# 1 0.006537 -0.001777 -0.000326 0.000000 0.000000 0.000000
# 2 -0.001777 0.012533 -0.002002 0.000000 0.000000 0.000000
# 3 -0.000326 -0.002002 0.015552 0.000000 0.000000 0.000000
# 4 0.000000 0.000000 0.000000 0.032329 0.000000 0.000000
# 5 0.000000 0.000000 0.000000 0.000000 0.053502 0.000000
# 6 0.000000 0.000000 0.000000 0.000000 0.000000 0.026971
#
#
# Mechanical properties :
#
#
# Convention : Reuss Voigt Hill
#
# Bulk Modulus (GPa) = 37.86250 43.73532 40.79891
# Shear Modulus (GPa) = 30.40677 35.28052 32.84365
#
# Velocity S-wave (km/s) = 3.61797 3.89715 3.76016
# Velocity P-wave (km/s) = 5.80967 6.25123 6.03449
#
# Compressibility (1/GPa) = 0.02641136
#
# Stress axis : x y z
#
# Youngs Moduli (GPa) = 152.97396 79.79194 64.30094
#
# Poissons Ratio (x) = 0.14182 0.02096
# Poissons Ratio (y) = 0.27189 0.12872
# Poissons Ratio (z) = 0.04987 0.15972
#
# Static dielectric constant tensor:
#      x y z
#    x 4.352000 0.000000 0.000000 
#    y 0.000000 4.052210 0.000000 
#    z 0.000000 0.000000 3.756150 
# 
# 
# High freq. dielectric constant tensor:
#      x y z
#    x 1.934450 0.000000 0.000000 
#    y 0.000000 1.926820 0.000000 
#    z 0.000000 0.000000 1.900230 
# 
# From -- ./inp_files/985.got.cif
#   From: 2010.03.12/outbox.cif.g09.slc.cpg/sg29_1_cif.got.tgz:985.got - 2010.04.14 03:43:10.
