data_PCOD8169181
_publ_section_title
;
Structure prediction by ZEFSAII (Michael W. Deem and Ramdas Pophale) SiO2 
 PCOD8169181
Probable space group: P C A 21
;
_chemical_formula_sum "Si O2"
_cell_formula_units_Z 32
_cell_length_a 10.231199
_cell_length_b 6.551542
_cell_length_c 21.310789
_cell_angle_alpha 90.000000
_cell_angle_beta 90.000000
_cell_angle_gamma 90.000000
_cell_volume 1428.464956
_symmetry_space_group_name_H-M "P C A 21"
_symmetry_group_IT_number 29
_symmetry_cell_setting 'orthorhombic'
loop_
_space_group_symop_operation_xyz
x,y,z
-x,-y,1/2+z
1/2-x,y,1/2+z
1/2+x,-y,z
loop_
_atom_site_type_symbol
_atom_site_label
_atom_site_fract_x
_atom_site_fract_y
_atom_site_fract_z
Si Si1 0.157787 0.674208 0.678210
Si Si2 0.712010 0.542390 0.292718
Si Si3 0.650746 0.060884 0.108149
Si Si4 0.939187 0.890898 0.733494
Si Si5 0.337463 0.173264 0.385599
Si Si6 0.380090 0.856321 0.847577
Si Si7 0.702060 0.688333 0.022513
Si Si8 0.526061 0.582485 0.579803
O O1 0.241614 0.548759 0.727260
O O2 0.241866 0.764893 0.621004
O O3 0.090995 0.861972 0.715564
O O4 0.049138 0.527079 0.646916
O O5 0.595316 0.692903 0.274441
O O6 0.825238 0.672113 0.326893
O O7 0.660180 0.379778 0.343531
O O8 0.517784 0.183361 0.092095
O O9 0.641077 0.917818 0.169384
O O10 0.688304 0.915579 0.050861
O O11 0.916062 0.087727 0.775874
O O12 0.489791 0.105536 0.389442
O O13 0.297363 0.290837 0.448072
O O14 0.241426 0.980322 0.376318
O O15 0.582499 0.542876 0.041773
O O16 0.838841 0.586812 0.041634
#
# Coordination Sequence:
#
# PCOD8169181 Si02
#       8
#     4   4   4   4   4   4   4   4
#     4  12  22  43  72 108 147 184 232 304 374 436
#     4  11  24  44  70 107 146 186 233 303 367 435
#     4  12  25  44  72 107 146 189 238 306 371 435
#     4  11  23  39  68 106 141 180 231 290 369 434
#     4  11  29  46  75 103 144 196 249 296 365 439
#     4  11  25  48  71 107 144 188 241 304 366 434
#     4  12  29  50  73 106 147 200 252 306 365 448
#     4  12  27  48  73 108 145 191 250 303 377 437
#
# _framework density 22.401672000000001
#
# number of rings (size 3 to 8) (size 9 to 14) (size 15 to 20)
#    0.000    0.500    3.750    3.750    7.000    2.000 
#    0.000    0.000    0.000    0.000    0.000    0.000 
#    0.000    0.000    0.000    0.000    0.000    0.000 
#
# Total GULP energy -396887.880489 kJ/mol
# GULP energy per Si atom -12402.746265 kJ/mol
# Density = 2.235069 g / cm^3
# Si number density = 22.401672 Si / 1000 Ang^3
#
#
#
# Elastic Constant Matrix: (Units=GPa)
#
#
# Indices 1 2 3 4 5 6 
#
# 1 129.4245 51.8776 27.1740 0.0000 0.0000 0.0000
# 2 51.8776 110.6340 31.2132 0.0000 0.0000 0.0000
# 3 27.1740 31.2132 83.9095 0.0000 0.0000 0.0000
# 4 0.0000 0.0000 0.0000 32.6331 0.0000 0.0000
# 5 0.0000 0.0000 0.0000 0.0000 28.8856 0.0000
# 6 0.0000 0.0000 0.0000 0.0000 0.0000 36.4088
#
#
#
# Elastic Compliance Matrix: (Units=1/GPa)
#
#
# Indices 1 2 3 4 5 6 
#
# 1 0.009708 -0.004095 -0.001621 0.000000 0.000000 0.000000
# 2 -0.004095 0.011826 -0.003073 0.000000 0.000000 0.000000
# 3 -0.001621 -0.003073 0.013586 0.000000 0.000000 0.000000
# 4 0.000000 0.000000 0.000000 0.030644 0.000000 0.000000
# 5 0.000000 0.000000 0.000000 0.000000 0.034619 0.000000
# 6 0.000000 0.000000 0.000000 0.000000 0.000000 0.027466
#
#
# Mechanical properties :
#
#
# Convention : Reuss Voigt Hill
#
# Bulk Modulus (GPa) = 57.00467 60.49970 58.75218
# Shear Modulus (GPa) = 33.05272 33.83240 33.44256
#
# Velocity S-wave (km/s) = 3.84534 3.89043 3.86795
# Velocity P-wave (km/s) = 6.72438 6.87357 6.79939
#
# Compressibility (1/GPa) = 0.01754242
#
# Stress axis : x y z
#
# Youngs Moduli (GPa) = 103.00551 84.55952 73.60762
#
# Poissons Ratio (x) = 0.34628 0.11930
# Poissons Ratio (y) = 0.42181 0.22619
# Poissons Ratio (z) = 0.16694 0.25985
#
# Static dielectric constant tensor:
#      x y z
#    x 4.065690 0.000000 0.000000 
#    y 0.000000 4.161960 0.000000 
#    z 0.000000 0.000000 3.906780 
# 
# 
# High freq. dielectric constant tensor:
#      x y z
#    x 1.890680 0.000000 0.000000 
#    y 0.000000 1.891560 0.000000 
#    z 0.000000 0.000000 1.873980 
# 
# From -- ./inp_files/5724.got.cif
#   From: 2010.03.12/outbox.cif.g09.slc.cpg/sg29_3_cif.got.tgz:5724.got - 2010.04.14 03:43:10.
