data_PCOD8169042
_publ_section_title
;
Structure prediction by ZEFSAII (Michael W. Deem and Ramdas Pophale) SiO2 
 PCOD8169042
Probable space group: P C A 21
;
_chemical_formula_sum "Si O2"
_cell_formula_units_Z 20
_cell_length_a 10.410832
_cell_length_b 5.291555
_cell_length_c 15.092685
_cell_angle_alpha 90.000000
_cell_angle_beta 90.000000
_cell_angle_gamma 90.000000
_cell_volume 831.448321
_symmetry_space_group_name_H-M "P C A 21"
_symmetry_group_IT_number 29
_symmetry_cell_setting 'orthorhombic'
loop_
_space_group_symop_operation_xyz
x,y,z
-x,-y,1/2+z
1/2-x,y,1/2+z
1/2+x,-y,z
loop_
_atom_site_type_symbol
_atom_site_label
_atom_site_fract_x
_atom_site_fract_y
_atom_site_fract_z
Si Si1 0.803838 0.667015 0.837510
Si Si2 0.669436 0.447398 0.990171
Si Si3 0.488635 0.942757 0.568588
Si Si4 0.387552 0.823094 0.914114
Si Si5 0.749427 0.798591 0.142239
O O1 0.902572 0.429543 0.853479
O O2 0.751979 0.670535 0.738366
O O3 0.882642 0.922986 0.856047
O O4 0.679187 0.629349 0.902727
O O5 0.531364 0.333042 0.020478
O O6 0.740234 0.578126 0.071511
O O7 0.752919 0.194512 0.967812
O O8 0.614844 0.938619 0.629388
O O9 0.500959 0.154419 0.489841
O O10 0.369450 0.007932 0.631887
#
# Coordination Sequence:
#
# PCOD8169042 Si02
#       5
#     4   4   4   4   4
#     4  10  24  51  72 112 154 204 265 318 395 464
#     4  10  24  48  76 108 160 205 258 321 399 462
#     4  12  24  49  80 112 164 209 268 322 413 468
#     4  10  23  50  74 108 152 206 253 320 389 468
#     4  12  27  48  78 120 154 214 262 339 388 490
#
# _framework density 24.054410000000001
#
# number of rings (size 3 to 8) (size 9 to 14) (size 15 to 20)
#    1.200    0.000    4.000    0.000    8.400    0.000 
#   10.800    0.000    0.000    0.000    0.000    0.000 
#    0.000    0.000    0.000    0.000    0.000    0.000 
#
# Total GULP energy -247810.900242 kJ/mol
# GULP energy per Si atom -12390.545012 kJ/mol
# Density = 2.399966 g / cm^3
# Si number density = 24.054410 Si / 1000 Ang^3
#
#
#
# Elastic Constant Matrix: (Units=GPa)
#
#
# Indices 1 2 3 4 5 6 
#
# 1 115.7819 29.6608 49.4551 0.0000 0.0000 0.0000
# 2 29.6608 138.3100 53.4065 0.0000 0.0000 0.0000
# 3 49.4551 53.4065 189.5914 0.0000 0.0000 0.0000
# 4 0.0000 0.0000 0.0000 26.1928 0.0000 0.0000
# 5 0.0000 0.0000 0.0000 0.0000 20.7318 0.0000
# 6 0.0000 0.0000 0.0000 0.0000 0.0000 35.5656
#
#
#
# Elastic Compliance Matrix: (Units=1/GPa)
#
#
# Indices 1 2 3 4 5 6 
#
# 1 0.009913 -0.001265 -0.002230 0.000000 0.000000 0.000000
# 2 -0.001265 0.008274 -0.002001 0.000000 0.000000 0.000000
# 3 -0.002230 -0.002001 0.006420 0.000000 0.000000 0.000000
# 4 0.000000 0.000000 0.000000 0.038178 0.000000 0.000000
# 5 0.000000 0.000000 0.000000 0.000000 0.048235 0.000000
# 6 0.000000 0.000000 0.000000 0.000000 0.000000 0.028117
#
#
# Mechanical properties :
#
#
# Convention : Reuss Voigt Hill
#
# Bulk Modulus (GPa) = 73.44103 78.74754 76.09428
# Shear Modulus (GPa) = 32.32752 37.24210 34.78481
#
# Velocity S-wave (km/s) = 3.66995 3.93904 3.80687
# Velocity P-wave (km/s) = 6.96818 7.31412 7.14324
#
# Compressibility (1/GPa) = 0.01361637
#
# Stress axis : x y z
#
# Youngs Moduli (GPa) = 100.87425 120.86088 155.77113
#
# Poissons Ratio (x) = 0.15289 0.34730
# Poissons Ratio (y) = 0.12761 0.31166
# Poissons Ratio (z) = 0.22490 0.24181
#
# Static dielectric constant tensor:
#      x y z
#    x 4.005650 0.000000 0.000000 
#    y 0.000000 4.294540 0.000000 
#    z 0.000000 0.000000 4.105610 
# 
# 
# High freq. dielectric constant tensor:
#      x y z
#    x 1.942000 0.000000 0.000000 
#    y 0.000000 1.965600 0.000000 
#    z 0.000000 0.000000 1.942570 
# 
# From -- ./inp_files/4430.got.cif
#   From: 2010.03.12/outbox.cif.g09.slc.cpg/sg29_3_cif.got.tgz:4430.got - 2010.04.14 03:43:10.
