data_PCOD8169916
_publ_section_title
;
Structure prediction by ZEFSAII (Michael W. Deem and Ramdas Pophale) SiO2 
 PCOD8169916
Probable space group: P M N 21
;
_chemical_formula_sum "Si O2"
_cell_formula_units_Z 32
_cell_length_a 9.409089
_cell_length_b 15.944954
_cell_length_c 10.760918
_cell_angle_alpha 90.000000
_cell_angle_beta 90.000000
_cell_angle_gamma 90.000000
_cell_volume 1614.433531
_symmetry_space_group_name_H-M "P M N 21"
_symmetry_group_IT_number 31
_symmetry_cell_setting 'orthorhombic'
loop_
_space_group_symop_operation_xyz
x,y,z
1/2-x,-y,1/2+z
-x,y,z
1/2+x,-y,1/2+z
loop_
_atom_site_type_symbol
_atom_site_label
_atom_site_fract_x
_atom_site_fract_y
_atom_site_fract_z
Si Si1 0.667027 0.051781 0.181710
Si Si2 0.163306 0.527117 0.987752
Si Si3 0.845152 0.219848 0.539689
Si Si4 0.667809 0.953776 0.930869
Si Si5 0.661725 0.330576 0.691734
Si Si6 0.660955 0.373168 0.959564
Si Si7 0.659386 0.244254 0.161685
Si Si8 0.343085 0.642910 0.836341
O O1 0.500000 0.038782 0.205589
O O2 0.749635 0.017695 0.304925
O O3 0.708058 0.148354 0.158825
O O4 0.714075 0.005071 0.054540
O O5 0.237829 0.440265 0.029463
O O6 0.246368 0.561957 0.866215
O O7 0.000000 0.511454 0.951523
O O8 0.177665 0.592302 0.098769
O O9 0.786664 0.142522 0.458023
O O10 0.740503 0.244997 0.650909
O O11 0.861056 0.302646 0.458994
O O12 0.000000 0.194155 0.594258
O O13 0.500000 0.963723 0.905105
O O14 0.500000 0.302696 0.707846
O O15 0.724600 0.360700 0.822417
O O16 0.500000 0.409231 0.957161
O O17 0.662901 0.282161 0.023619
O O18 0.500000 0.252007 0.218840
O O19 0.769493 0.299089 0.236537
O O20 0.500000 0.613826 0.789654
#
# Coordination Sequence:
#
# PCOD8169916 Si02
#       8
#     4   4   4   4   4   4   4   4
#     4  10  22  39  61  89 123 161 205 252 304 367
#     4  10  21  36  55  82 110 143 188 236 281 338
#     4   9  18  34  57  82 108 142 183 230 283 337
#     4  10  21  39  61  90 124 158 200 252 304 362
#     4   9  20  37  55  78 110 144 186 234 283 347
#     4  10  22  38  54  78 114 151 187 237 293 346
#     4  10  21  37  57  83 115 152 192 235 288 347
#     4  10  19  34  58  82 108 145 185 228 280 334
#
# _framework density 19.821193000000001
#
# number of rings (size 3 to 8) (size 9 to 14) (size 15 to 20)
#    0.000    2.250    1.250    0.750    1.750    4.000 
#    0.000    1.250    0.000    0.000    0.000    0.000 
#    0.000    0.000    0.000    0.000    0.000    0.000 
#
# Total GULP energy -396681.003281 kJ/mol
# GULP energy per Si atom -12396.281353 kJ/mol
# Density = 1.977608 g / cm^3
# Si number density = 19.821193 Si / 1000 Ang^3
#
#
#
# Elastic Constant Matrix: (Units=GPa)
#
#
# Indices 1 2 3 4 5 6 
#
# 1 91.1482 31.3472 57.9096 0.0000 0.0000 0.0000
# 2 31.3472 67.2275 35.4050 0.0000 0.0000 0.0000
# 3 57.9096 35.4050 91.7698 0.0000 0.0000 0.0000
# 4 0.0000 0.0000 0.0000 27.3428 0.0000 0.0000
# 5 0.0000 0.0000 0.0000 0.0000 28.5284 0.0000
# 6 0.0000 0.0000 0.0000 0.0000 0.0000 24.8671
#
#
#
# Elastic Compliance Matrix: (Units=1/GPa)
#
#
# Indices 1 2 3 4 5 6 
#
# 1 0.018835 -0.003167 -0.010664 0.000000 0.000000 0.000000
# 2 -0.003167 0.019200 -0.005409 0.000000 0.000000 0.000000
# 3 -0.010664 -0.005409 0.019713 0.000000 0.000000 0.000000
# 4 0.000000 0.000000 0.000000 0.036573 0.000000 0.000000
# 5 0.000000 0.000000 0.000000 0.000000 0.035053 0.000000
# 6 0.000000 0.000000 0.000000 0.000000 0.000000 0.040214
#
#
# Mechanical properties :
#
#
# Convention : Reuss Voigt Hill
#
# Bulk Modulus (GPa) = 51.89710 55.49657 53.69683
# Shear Modulus (GPa) = 23.31104 24.51324 23.91214
#
# Velocity S-wave (km/s) = 3.43310 3.52052 3.47708
# Velocity P-wave (km/s) = 6.47722 6.67718 6.57796
#
# Compressibility (1/GPa) = 0.01926890
#
# Stress axis : x y z
#
# Youngs Moduli (GPa) = 53.09138 52.08304 50.72760
#
# Poissons Ratio (x) = 0.16492 0.54097
# Poissons Ratio (y) = 0.16811 0.27440
# Poissons Ratio (z) = 0.56617 0.28173
#
# Static dielectric constant tensor:
#      x y z
#    x 3.779990 0.000000 0.000000 
#    y 0.000000 3.625600 0.000000 
#    z 0.000000 0.000000 3.563940 
# 
# 
# High freq. dielectric constant tensor:
#      x y z
#    x 1.771520 0.000000 0.000000 
#    y 0.000000 1.767460 0.000000 
#    z 0.000000 0.000000 1.764000 
# 
# From -- ./inp_files/3632.got.cif
#   From: 2010.03.12/outbox.cif.g09.slc.cpg/sg31_2_cif.got.tgz:3632.got - 2010.04.14 01:42:59.
