data_PCOD8169890
_publ_section_title
;
Structure prediction by ZEFSAII (Michael W. Deem and Ramdas Pophale) SiO2 
 PCOD8169890
Probable space group: P M N 21
;
_chemical_formula_sum "Si O2"
_cell_formula_units_Z 32
_cell_length_a 8.839298
_cell_length_b 16.195187
_cell_length_c 10.937121
_cell_angle_alpha 90.000000
_cell_angle_beta 90.000000
_cell_angle_gamma 90.000000
_cell_volume 1565.693539
_symmetry_space_group_name_H-M "P M N 21"
_symmetry_group_IT_number 31
_symmetry_cell_setting 'orthorhombic'
loop_
_space_group_symop_operation_xyz
x,y,z
1/2-x,-y,1/2+z
-x,y,z
1/2+x,-y,1/2+z
loop_
_atom_site_type_symbol
_atom_site_label
_atom_site_fract_x
_atom_site_fract_y
_atom_site_fract_z
Si Si1 0.322560 0.968573 0.400380
Si Si2 0.669761 0.273459 0.548948
Si Si3 0.829731 0.156693 0.114092
Si Si4 0.331637 0.164530 0.771430
Si Si5 0.177657 0.539439 0.373462
Si Si6 0.329389 0.706068 0.430109
Si Si7 0.678750 0.560085 0.114240
Si Si8 0.176720 0.850621 0.863329
O O1 0.500000 0.966436 0.369971
O O2 0.282519 0.913705 0.518117
O O3 0.231341 0.928670 0.285822
O O4 0.264026 0.062276 0.418757
O O5 0.500000 0.310524 0.531382
O O6 0.660875 0.191323 0.631541
O O7 0.774291 0.344159 0.606648
O O8 0.743603 0.232948 0.426603
O O9 0.710956 0.151450 0.221386
O O10 0.000000 0.140518 0.161133
O O11 0.817897 0.249704 0.061358
O O12 0.500000 0.171327 0.830231
O O13 0.211165 0.224897 0.832708
O O14 0.212749 0.631513 0.418124
O O15 0.253287 0.520226 0.240140
O O16 0.235392 0.481841 0.486554
O O17 0.000000 0.528742 0.353892
O O18 0.500000 0.673864 0.405233
O O19 0.500000 0.551686 0.125329
O O20 0.000000 0.844923 0.885863
#
# Coordination Sequence:
#
# PCOD8169890 Si02
#       8
#     4   4   4   4   4   4   4   4
#     4   9  20  37  56  80 114 154 195 245 300 353
#     4  10  22  39  60  86 119 159 198 249 306 359
#     4   9  20  37  56  81 115 152 193 246 302 361
#     4  10  19  33  59  87 112 147 194 241 288 349
#     4  11  24  42  65  96 128 163 209 261 313 375
#     4  10  20  37  62  87 114 151 192 240 300 358
#     4  11  25  43  66  95 128 166 211 259 316 382
#     4  10  22  38  56  82 118 158 200 249 305 361
#
# _framework density 20.438226
#
# number of rings (size 3 to 8) (size 9 to 14) (size 15 to 20)
#    0.000    2.000    1.250    2.250    1.750    7.000 
#    0.000    5.000    0.000    0.000    0.000    0.000 
#    0.000    0.000    0.000    0.000    0.000    0.000 
#
# Total GULP energy -396557.712527 kJ/mol
# GULP energy per Si atom -12392.428516 kJ/mol
# Density = 2.039171 g / cm^3
# Si number density = 20.438226 Si / 1000 Ang^3
#
#
#
# Elastic Constant Matrix: (Units=GPa)
#
#
# Indices 1 2 3 4 5 6 
#
# 1 50.3192 21.7782 36.2296 0.0000 0.0000 0.0000
# 2 21.7782 69.1870 42.0179 0.0000 0.0000 0.0000
# 3 36.2296 42.0179 116.3685 0.0000 0.0000 0.0000
# 4 0.0000 0.0000 0.0000 29.4287 0.0000 0.0000
# 5 0.0000 0.0000 0.0000 0.0000 31.2151 0.0000
# 6 0.0000 0.0000 0.0000 0.0000 0.0000 23.6668
#
#
#
# Elastic Compliance Matrix: (Units=1/GPa)
#
#
# Indices 1 2 3 4 5 6 
#
# 1 0.026568 -0.004277 -0.006727 0.000000 0.000000 0.000000
# 2 -0.004277 0.019202 -0.005602 0.000000 0.000000 0.000000
# 3 -0.006727 -0.005602 0.012710 0.000000 0.000000 0.000000
# 4 0.000000 0.000000 0.000000 0.033980 0.000000 0.000000
# 5 0.000000 0.000000 0.000000 0.000000 0.032036 0.000000
# 6 0.000000 0.000000 0.000000 0.000000 0.000000 0.042253
#
#
# Mechanical properties :
#
#
# Convention : Reuss Voigt Hill
#
# Bulk Modulus (GPa) = 39.57589 48.43624 44.00606
# Shear Modulus (GPa) = 23.99411 25.91873 24.95642
#
# Velocity S-wave (km/s) = 3.43006 3.56497 3.49817
# Velocity P-wave (km/s) = 5.92392 6.37932 6.15583
#
# Compressibility (1/GPa) = 0.02526791
#
# Stress axis : x y z
#
# Youngs Moduli (GPa) = 37.63949 52.07807 78.67597
#
# Poissons Ratio (x) = 0.22276 0.52925
# Poissons Ratio (y) = 0.16100 0.44071
# Poissons Ratio (z) = 0.25320 0.29172
#
# Static dielectric constant tensor:
#      x y z
#    x 3.604910 0.000000 0.000000 
#    y 0.000000 3.869050 0.000000 
#    z 0.000000 0.000000 3.800640 
# 
# 
# High freq. dielectric constant tensor:
#      x y z
#    x 1.792640 0.000000 0.000000 
#    y 0.000000 1.795590 0.000000 
#    z 0.000000 0.000000 1.796730 
# 
# From -- ./inp_files/3704.got.cif
#   From: 2010.03.12/outbox.cif.g09.slc.cpg/sg31_2_cif.got.tgz:3704.got - 2010.04.14 01:42:59.
