data_PCOD8169982
_publ_section_title
;
Structure prediction by ZEFSAII (Michael W. Deem and Ramdas Pophale) SiO2 
 PCOD8169982
Probable space group: P M N 21
;
_chemical_formula_sum "Si O2"
_cell_formula_units_Z 32
_cell_length_a 9.137272
_cell_length_b 15.829885
_cell_length_c 10.835171
_cell_angle_alpha 90.000000
_cell_angle_beta 90.000000
_cell_angle_gamma 90.000000
_cell_volume 1567.220424
_symmetry_space_group_name_H-M "P M N 21"
_symmetry_group_IT_number 31
_symmetry_cell_setting 'orthorhombic'
loop_
_space_group_symop_operation_xyz
x,y,z
1/2-x,-y,1/2+z
-x,y,z
1/2+x,-y,1/2+z
loop_
_atom_site_type_symbol
_atom_site_label
_atom_site_fract_x
_atom_site_fract_y
_atom_site_fract_z
Si Si1 0.162874 0.715873 0.621470
Si Si2 0.161943 0.861482 0.422776
Si Si3 0.832794 0.146425 0.555470
Si Si4 0.827355 0.550173 0.286126
Si Si5 0.834885 0.164522 0.272017
Si Si6 0.171909 0.736797 0.212438
Si Si7 0.329549 0.980141 0.582675
Si Si8 0.826051 0.447472 0.038445
O O1 0.152753 0.793764 0.530515
O O2 0.235224 0.752975 0.745830
O O3 0.263814 0.645447 0.559891
O O4 0.000000 0.679715 0.648862
O O5 0.219911 0.811499 0.304501
O O6 0.268619 0.938723 0.456027
O O7 0.000000 0.899555 0.398400
O O8 0.816003 0.136141 0.410673
O O9 0.759980 0.236948 0.589872
O O10 0.000000 0.145171 0.599232
O O11 0.748042 0.067886 0.616485
O O12 0.778237 0.646778 0.264906
O O13 0.744292 0.516225 0.409946
O O14 0.000000 0.542035 0.311523
O O15 0.782438 0.501222 0.160542
O O16 0.790642 0.082868 0.193335
O O17 0.000000 0.192110 0.240199
O O18 0.000000 0.734693 0.185314
O O19 0.500000 0.997507 0.566162
O O20 0.000000 0.445758 0.021283
#
# Coordination Sequence:
#
# PCOD8169982 Si02
#       8
#     4   4   4   4   4   4   4   4
#     4  10  19  36  63  89 115 152 196 241 297 362
#     4   9  18  35  60  84 111 149 190 241 292 346
#     4  11  24  39  56  84 121 157 199 250 306 365
#     4  10  23  44  65  91 129 168 212 263 319 382
#     4   9  21  40  57  80 118 155 195 250 303 356
#     4  10  21  40  62  84 117 159 200 246 303 363
#     4  10  21  37  58  84 113 153 197 243 297 357
#     4  11  23  39  65  98 130 165 209 262 317 379
#
# _framework density 20.418316000000001
#
# number of rings (size 3 to 8) (size 9 to 14) (size 15 to 20)
#    0.000    2.000    1.250    1.500    1.750    5.000 
#    0.000    2.500    0.000    0.000    0.000    0.000 
#    0.000    0.000    0.000    0.000    0.000    0.000 
#
# Total GULP energy -396715.860626 kJ/mol
# GULP energy per Si atom -12397.370645 kJ/mol
# Density = 2.037184 g / cm^3
# Si number density = 20.418316 Si / 1000 Ang^3
#
#
#
# Elastic Constant Matrix: (Units=GPa)
#
#
# Indices 1 2 3 4 5 6 
#
# 1 93.8261 41.4648 48.7520 0.0000 0.0000 0.0000
# 2 41.4648 62.7675 38.3173 0.0000 0.0000 0.0000
# 3 48.7520 38.3173 93.4193 0.0000 0.0000 0.0000
# 4 0.0000 0.0000 0.0000 23.5922 0.0000 0.0000
# 5 0.0000 0.0000 0.0000 0.0000 31.6941 0.0000
# 6 0.0000 0.0000 0.0000 0.0000 0.0000 25.1636
#
#
#
# Elastic Compliance Matrix: (Units=1/GPa)
#
#
# Indices 1 2 3 4 5 6 
#
# 1 0.017068 -0.007788 -0.005713 0.000000 0.000000 0.000000
# 2 -0.007788 0.024807 -0.006111 0.000000 0.000000 0.000000
# 3 -0.005713 -0.006111 0.016192 0.000000 0.000000 0.000000
# 4 0.000000 0.000000 0.000000 0.042387 0.000000 0.000000
# 5 0.000000 0.000000 0.000000 0.000000 0.031552 0.000000
# 6 0.000000 0.000000 0.000000 0.000000 0.000000 0.039740
#
#
# Mechanical properties :
#
#
# Convention : Reuss Voigt Hill
#
# Bulk Modulus (GPa) = 53.06659 56.34235 54.70447
# Shear Modulus (GPa) = 23.01493 24.18856 23.60174
#
# Velocity S-wave (km/s) = 3.36098 3.44561 3.40356
# Velocity P-wave (km/s) = 6.41153 6.59421 6.50351
#
# Compressibility (1/GPa) = 0.01884425
#
# Stress axis : x y z
#
# Youngs Moduli (GPa) = 58.58867 40.31125 61.75818
#
# Poissons Ratio (x) = 0.31394 0.35282
# Poissons Ratio (y) = 0.45628 0.37739
# Poissons Ratio (z) = 0.33471 0.24633
#
# Static dielectric constant tensor:
#      x y z
#    x 3.897180 0.000000 0.000000 
#    y 0.000000 3.602830 0.000000 
#    z 0.000000 0.000000 3.807790 
# 
# 
# High freq. dielectric constant tensor:
#      x y z
#    x 1.798000 0.000000 0.000000 
#    y 0.000000 1.790580 0.000000 
#    z 0.000000 0.000000 1.799780 
# 
# From -- ./inp_files/3659.got.cif
#   From: 2010.03.12/outbox.cif.g09.slc.cpg/sg31_2_cif.got.tgz:3659.got - 2010.04.14 01:42:59.
