data_PCOD8169739
_publ_section_title
;
Structure prediction by ZEFSAII (Michael W. Deem and Ramdas Pophale) SiO2 
 PCOD8169739
Probable space group: P M N 21
;
_chemical_formula_sum "Si O2"
_cell_formula_units_Z 32
_cell_length_a 9.075658
_cell_length_b 11.279774
_cell_length_c 16.363217
_cell_angle_alpha 90.000000
_cell_angle_beta 90.000000
_cell_angle_gamma 90.000000
_cell_volume 1675.124961
_symmetry_space_group_name_H-M "P M N 21"
_symmetry_group_IT_number 31
_symmetry_cell_setting 'orthorhombic'
loop_
_space_group_symop_operation_xyz
x,y,z
1/2-x,-y,1/2+z
-x,y,z
1/2+x,-y,1/2+z
loop_
_atom_site_type_symbol
_atom_site_label
_atom_site_fract_x
_atom_site_fract_y
_atom_site_fract_z
Si Si1 0.832571 0.179319 0.019670
Si Si2 0.331287 0.423056 0.733502
Si Si3 0.324690 0.935765 0.994545
Si Si4 0.664684 0.784622 0.845001
Si Si5 0.333051 0.621193 0.396596
Si Si6 0.833467 0.742976 0.085953
Si Si7 0.825003 0.316958 0.180602
Si Si8 0.835304 0.418117 0.468730
O O1 0.772466 0.261310 0.094455
O O2 0.000000 0.137974 0.038522
O O3 0.726531 0.068516 0.007723
O O4 0.827466 0.247095 0.933413
O O5 0.500000 0.440194 0.764498
O O6 0.221715 0.384845 0.804586
O O7 0.322070 0.307349 0.676763
O O8 0.275027 0.545055 0.689794
O O9 0.500000 0.927470 0.994571
O O10 0.266880 0.858664 0.071255
O O11 0.261188 0.878870 0.908738
O O12 0.500000 0.831473 0.830551
O O13 0.740197 0.765028 0.755666
O O14 0.664500 0.653710 0.883935
O O15 0.500000 0.571399 0.401089
O O16 0.221816 0.548894 0.453126
O O17 0.000000 0.777359 0.063295
O O18 0.780505 0.636641 0.029874
O O19 0.000000 0.314658 0.185277
O O20 0.000000 0.420741 0.506345
#
# Coordination Sequence:
#
# PCOD8169739 Si02
#       8
#     4   4   4   4   4   4   4   4
#     4  10  22  39  58  80 112 155 194 238 289 339
#     4  10  20  36  59  86 114 147 188 235 289 356
#     4  10  21  38  58  81 112 149 192 236 285 343
#     4   8  15  30  56  83 104 137 183 232 273 323
#     4  11  22  35  53  82 120 154 188 236 293 345
#     4  10  20  35  58  86 113 145 188 235 287 343
#     4   9  16  33  60  84 108 140 189 237 280 338
#     4  10  18  32  56  84 115 149 186 225 282 345
#
# _framework density 19.103052000000002
#
# number of rings (size 3 to 8) (size 9 to 14) (size 15 to 20)
#    0.000    2.250    1.250    3.000    0.000    4.000 
#    2.250    0.625    0.000    0.000    0.000    0.000 
#    0.000    0.000    0.000    0.000    0.000    0.000 
#
# Total GULP energy -396552.206753 kJ/mol
# GULP energy per Si atom -12392.256461 kJ/mol
# Density = 1.905957 g / cm^3
# Si number density = 19.103052 Si / 1000 Ang^3
#
#
#
# Elastic Constant Matrix: (Units=GPa)
#
#
# Indices 1 2 3 4 5 6 
#
# 1 69.1413 43.9170 36.8931 0.0000 0.0000 0.0000
# 2 43.9170 104.1871 49.7062 0.0000 0.0000 0.0000
# 3 36.8931 49.7062 83.3024 0.0000 0.0000 0.0000
# 4 0.0000 0.0000 0.0000 23.8895 0.0000 0.0000
# 5 0.0000 0.0000 0.0000 0.0000 24.6252 0.0000
# 6 0.0000 0.0000 0.0000 0.0000 0.0000 30.8188
#
#
#
# Elastic Compliance Matrix: (Units=1/GPa)
#
#
# Indices 1 2 3 4 5 6 
#
# 1 0.021568 -0.006339 -0.005770 0.000000 0.000000 0.000000
# 2 -0.006339 0.015281 -0.006311 0.000000 0.000000 0.000000
# 3 -0.005770 -0.006311 0.018325 0.000000 0.000000 0.000000
# 4 0.000000 0.000000 0.000000 0.041859 0.000000 0.000000
# 5 0.000000 0.000000 0.000000 0.000000 0.040609 0.000000
# 6 0.000000 0.000000 0.000000 0.000000 0.000000 0.032448
#
#
# Mechanical properties :
#
#
# Convention : Reuss Voigt Hill
#
# Bulk Modulus (GPa) = 54.53813 57.51815 56.02814
# Shear Modulus (GPa) = 23.46972 24.27431 23.87202
#
# Velocity S-wave (km/s) = 3.50892 3.56856 3.53887
# Velocity P-wave (km/s) = 6.71030 6.86690 6.78905
#
# Compressibility (1/GPa) = 0.01833579
#
# Stress axis : x y z
#
# Youngs Moduli (GPa) = 46.36491 65.44181 54.56919
#
# Poissons Ratio (x) = 0.41481 0.31485
# Poissons Ratio (y) = 0.29389 0.34437
# Poissons Ratio (z) = 0.26752 0.41298
#
# Static dielectric constant tensor:
#      x y z
#    x 3.360330 0.000000 0.000000 
#    y 0.000000 3.384080 0.000000 
#    z 0.000000 0.000000 3.675560 
# 
# 
# High freq. dielectric constant tensor:
#      x y z
#    x 1.721910 0.000000 0.000000 
#    y 0.000000 1.731860 0.000000 
#    z 0.000000 0.000000 1.742360 
# 
# From -- ./inp_files/5909.got.cif
#   From: 2010.03.12/outbox.cif.g09.slc.cpg/sg31_3_cif.got.tgz:5909.got - 2010.04.14 01:42:59.
