data_PCOD8169027
_publ_section_title
;
Structure prediction by ZEFSAII (Michael W. Deem and Ramdas Pophale) SiO2 
 PCOD8169027
Probable space group: P C A 21
;
_chemical_formula_sum "Si O2"
_cell_formula_units_Z 28
_cell_length_a 9.284881
_cell_length_b 14.596022
_cell_length_c 8.662254
_cell_angle_alpha 90.000000
_cell_angle_beta 90.000000
_cell_angle_gamma 90.000000
_cell_volume 1173.928822
_symmetry_space_group_name_H-M "P C A 21"
_symmetry_group_IT_number 29
_symmetry_cell_setting 'orthorhombic'
loop_
_space_group_symop_operation_xyz
x,y,z
-x,-y,1/2+z
1/2-x,y,1/2+z
1/2+x,-y,z
loop_
_atom_site_type_symbol
_atom_site_label
_atom_site_fract_x
_atom_site_fract_y
_atom_site_fract_z
Si Si1 0.076557 0.780271 0.465330
Si Si2 0.767348 0.727974 0.352650
Si Si3 0.051796 0.028290 0.000757
Si Si4 0.701082 0.314840 0.755966
Si Si5 0.705658 0.599294 0.593737
Si Si6 0.834041 0.924428 0.824291
Si Si7 0.892230 0.432970 0.533591
O O1 0.214604 0.761330 0.357065
O O2 0.094185 0.732567 0.633320
O O3 0.935983 0.745328 0.377072
O O4 0.061807 0.888384 0.492166
O O5 0.693960 0.699973 0.513619
O O6 0.747180 0.632196 0.262311
O O7 0.682088 0.816277 0.286463
O O8 0.118544 0.020228 0.171567
O O9 0.180292 0.038317 0.878600
O O10 0.956865 0.939007 0.956007
O O11 0.815049 0.377482 0.668455
O O12 0.610295 0.379778 0.870560
O O13 0.823291 0.533126 0.517386
O O14 0.553929 0.547818 0.588228
#
# Coordination Sequence:
#
# PCOD8169027 Si02
#       7
#     4   4   4   4   4   4   4
#     4  10  23  45  71 106 142 190 238 300 364 436
#     4  11  25  46  73 101 148 191 243 295 371 436
#     4  11  25  47  75 109 150 189 246 297 371 442
#     4  10  23  45  69 103 146 182 245 302 363 429
#     4  12  27  44  70 103 143 194 244 302 361 434
#     4  11  25  48  75 111 146 194 241 306 364 447
#     4  11  26  43  71 101 143 192 245 300 366 430
#
# _framework density 23.851531999999999
#
# number of rings (size 3 to 8) (size 9 to 14) (size 15 to 20)
#    0.000    1.143    1.429    3.429    8.000    5.714 
#    2.571    0.000    0.000    0.000    0.000    0.000 
#    0.000    0.000    0.000    0.000    0.000    0.000 
#
# Total GULP energy -347207.996007 kJ/mol
# GULP energy per Si atom -12400.285572 kJ/mol
# Density = 2.379725 g / cm^3
# Si number density = 23.851532 Si / 1000 Ang^3
#
#
#
# Elastic Constant Matrix: (Units=GPa)
#
#
# Indices 1 2 3 4 5 6 
#
# 1 93.7162 65.7598 19.7058 0.0000 0.0000 0.0000
# 2 65.7598 96.4243 46.6163 0.0000 0.0000 0.0000
# 3 19.7058 46.6163 101.4727 0.0000 0.0000 0.0000
# 4 0.0000 0.0000 0.0000 28.9276 0.0000 0.0000
# 5 0.0000 0.0000 0.0000 0.0000 39.6107 0.0000
# 6 0.0000 0.0000 0.0000 0.0000 0.0000 40.3399
#
#
#
# Elastic Compliance Matrix: (Units=1/GPa)
#
#
# Indices 1 2 3 4 5 6 
#
# 1 0.021268 -0.016079 0.003256 0.000000 0.000000 0.000000
# 2 -0.016079 0.025487 -0.008586 0.000000 0.000000 0.000000
# 3 0.003256 -0.008586 0.013167 0.000000 0.000000 0.000000
# 4 0.000000 0.000000 0.000000 0.034569 0.000000 0.000000
# 5 0.000000 0.000000 0.000000 0.000000 0.025246 0.000000
# 6 0.000000 0.000000 0.000000 0.000000 0.000000 0.024789
#
#
# Mechanical properties :
#
#
# Convention : Reuss Voigt Hill
#
# Bulk Modulus (GPa) = 58.46278 61.75300 60.10789
# Shear Modulus (GPa) = 25.90056 32.41107 29.15581
#
# Velocity S-wave (km/s) = 3.29889 3.69028 3.50006
# Velocity P-wave (km/s) = 6.25096 6.64111 6.44899
#
# Compressibility (1/GPa) = 0.01710490
#
# Stress axis : x y z
#
# Youngs Moduli (GPa) = 47.01863 39.23507 75.94721
#
# Poissons Ratio (x) = 0.63085 -0.24731
# Poissons Ratio (y) = 0.75600 0.65211
# Poissons Ratio (z) = -0.15311 0.33689
#
# Static dielectric constant tensor:
#      x y z
#    x 4.178290 0.000000 0.000000 
#    y 0.000000 4.178500 0.000000 
#    z 0.000000 0.000000 4.367960 
# 
# 
# High freq. dielectric constant tensor:
#      x y z
#    x 1.949310 0.000000 0.000000 
#    y 0.000000 1.939200 0.000000 
#    z 0.000000 0.000000 1.959480 
# 
# From -- ./inp_files/1194.got.cif
#   From: 2010.03.12/outbox.cif.g09.slc.cpg/sg29_1_cif.got.tgz:1194.got - 2010.04.14 03:43:10.
