data_PCOD8169988
_publ_section_title
;
Structure prediction by ZEFSAII (Michael W. Deem and Ramdas Pophale) SiO2 
 PCOD8169988
Probable space group: P M N 21
;
_chemical_formula_sum "Si O2"
_cell_formula_units_Z 24
_cell_length_a 8.735601
_cell_length_b 10.141816
_cell_length_c 14.029485
_cell_angle_alpha 90.000000
_cell_angle_beta 90.000000
_cell_angle_gamma 90.000000
_cell_volume 1242.940231
_symmetry_space_group_name_H-M "P M N 21"
_symmetry_group_IT_number 31
_symmetry_cell_setting 'orthorhombic'
loop_
_space_group_symop_operation_xyz
x,y,z
1/2-x,-y,1/2+z
-x,y,z
1/2+x,-y,1/2+z
loop_
_atom_site_type_symbol
_atom_site_label
_atom_site_fract_x
_atom_site_fract_y
_atom_site_fract_z
Si Si1 0.680768 0.280109 0.534290
Si Si2 0.325021 0.099743 0.847111
Si Si3 0.318519 0.359816 0.741894
Si Si4 0.819126 0.376370 0.340786
Si Si5 0.178627 0.868094 0.742042
Si Si6 0.174242 0.997944 0.548689
O O1 0.500000 0.289481 0.525937
O O2 0.740497 0.345762 0.632963
O O3 0.751151 0.359651 0.446172
O O4 0.725251 0.126972 0.530899
O O5 0.500000 0.072960 0.813246
O O6 0.261237 0.235182 0.803415
O O7 0.213985 0.983003 0.816136
O O8 0.315681 0.104237 0.961288
O O9 0.500000 0.364761 0.742233
O O10 0.253101 0.490541 0.792438
O O11 0.774137 0.259604 0.270026
O O12 0.000000 0.380891 0.351578
O O13 0.235151 0.916328 0.638773
O O14 0.000000 0.833069 0.744703
O O15 0.000000 0.045441 0.565381
#
# Coordination Sequence:
#
# PCOD8169988 Si02
#       6
#     4   4   4   4   4   4
#     4  11  21  37  61  88 116 151 197 248 298 350
#     4  10  19  37  61  84 112 154 198 241 292 348
#     4   9  21  39  60  85 116 156 199 238 291 356
#     4  11  23  40  60  85 120 162 199 236 294 360
#     4  11  22  36  56  89 121 150 196 247 288 340
#     4  10  21  35  58  89 119 151 195 242 293 352
#
# _framework density 19.309052000000001
#
# number of rings (size 3 to 8) (size 9 to 14) (size 15 to 20)
#    0.000    1.667    3.333    1.500    0.000    2.000 
#    0.000    6.667    0.000    0.000    0.000    0.000 
#    0.000    0.000    0.000    0.000    0.000    0.000 
#
# Total GULP energy -297634.049139 kJ/mol
# GULP energy per Si atom -12401.418714 kJ/mol
# Density = 1.926510 g / cm^3
# Si number density = 19.309052 Si / 1000 Ang^3
#
#
#
# Elastic Constant Matrix: (Units=GPa)
#
#
# Indices 1 2 3 4 5 6 
#
# 1 50.1434 26.8435 35.4705 0.0000 0.0000 0.0000
# 2 26.8435 138.8321 63.8853 0.0000 0.0000 0.0000
# 3 35.4705 63.8853 138.7402 0.0000 0.0000 0.0000
# 4 0.0000 0.0000 0.0000 32.4561 0.0000 0.0000
# 5 0.0000 0.0000 0.0000 0.0000 23.5979 0.0000
# 6 0.0000 0.0000 0.0000 0.0000 0.0000 0.8667
#
#
#
# Elastic Compliance Matrix: (Units=1/GPa)
#
#
# Indices 1 2 3 4 5 6 
#
# 1 0.024959 -0.002398 -0.005277 0.000000 0.000000 0.000000
# 2 -0.002398 0.009370 -0.003702 0.000000 0.000000 0.000000
# 3 -0.005277 -0.003702 0.010261 0.000000 0.000000 0.000000
# 4 0.000000 0.000000 0.000000 0.030811 0.000000 0.000000
# 5 0.000000 0.000000 0.000000 0.000000 0.042377 0.000000
# 6 0.000000 0.000000 0.000000 0.000000 0.000000 1.153813
#
#
# Mechanical properties :
#
#
# Convention : Reuss Voigt Hill
#
# Bulk Modulus (GPa) = 45.79192 64.45713 55.12452
# Shear Modulus (GPa) = 3.84136 24.81858 14.32997
#
# Velocity S-wave (km/s) = 1.41199 3.58904 2.72718
# Velocity P-wave (km/s) = 5.14053 7.11543 6.20703
#
# Compressibility (1/GPa) = 0.02183792
#
# Stress axis : x y z
#
# Youngs Moduli (GPa) = 40.06534 106.72547 97.45365
#
# Poissons Ratio (x) = 0.25589 0.51427
# Poissons Ratio (y) = 0.09606 0.36073
# Poissons Ratio (z) = 0.21143 0.39505
#
# Static dielectric constant tensor:
#      x y z
#    x 3.386870 0.000000 0.000000 
#    y 0.000000 3.637400 0.000000 
#    z 0.000000 0.000000 3.849700 
# 
# 
# High freq. dielectric constant tensor:
#      x y z
#    x 1.737780 0.000000 0.000000 
#    y 0.000000 1.744450 0.000000 
#    z 0.000000 0.000000 1.770330 
# 
# From -- ./inp_files/4759.got.cif
#   From: 2010.03.12/outbox.cif.g09.slc.cpg/sg31_3_cif.got.tgz:4759.got - 2010.04.14 01:42:59.
