data_PCOD8169925
_publ_section_title
;
Structure prediction by ZEFSAII (Michael W. Deem and Ramdas Pophale) SiO2 
 PCOD8169925
Probable space group: P M N 21
;
_chemical_formula_sum "Si O2"
_cell_formula_units_Z 32
_cell_length_a 8.561971
_cell_length_b 11.232631
_cell_length_c 16.192046
_cell_angle_alpha 90.000000
_cell_angle_beta 90.000000
_cell_angle_gamma 90.000000
_cell_volume 1557.245102
_symmetry_space_group_name_H-M "P M N 21"
_symmetry_group_IT_number 31
_symmetry_cell_setting 'orthorhombic'
loop_
_space_group_symop_operation_xyz
x,y,z
1/2-x,-y,1/2+z
-x,y,z
1/2+x,-y,1/2+z
loop_
_atom_site_type_symbol
_atom_site_label
_atom_site_fract_x
_atom_site_fract_y
_atom_site_fract_z
Si Si1 0.182314 0.311696 0.716820
Si Si2 0.674933 0.239360 0.299002
Si Si3 0.316904 0.731035 0.545858
Si Si4 0.818483 0.069232 0.424000
Si Si5 0.315108 0.197495 0.881681
Si Si6 0.825911 0.932687 0.650179
Si Si7 0.820946 0.855369 0.092400
Si Si8 0.819630 0.437021 0.193921
O O1 0.265989 0.247037 0.792952
O O2 0.254060 0.266274 0.629999
O O3 0.210831 0.452198 0.715542
O O4 0.000000 0.283936 0.721935
O O5 0.500000 0.291376 0.309943
O O6 0.733189 0.182555 0.383655
O O7 0.676981 0.130766 0.236819
O O8 0.789701 0.341674 0.266352
O O9 0.500000 0.756349 0.552017
O O10 0.263730 0.715387 0.450745
O O11 0.224049 0.845573 0.576755
O O12 0.274557 0.617308 0.603739
O O13 0.783611 0.090029 0.519660
O O14 0.000000 0.078527 0.404417
O O15 0.756624 0.939358 0.394021
O O16 0.500000 0.206330 0.891131
O O17 0.000000 0.979274 0.629792
O O18 0.703972 0.041785 0.661282
O O19 0.000000 0.838130 0.066459
O O20 0.000000 0.475616 0.196120
#
# Coordination Sequence:
#
# PCOD8169925 Si02
#       8
#     4   4   4   4   4   4   4   4
#     4  12  26  44  65  90 125 166 214 263 317 377
#     4  10  21  37  61  91 122 160 203 251 305 363
#     4  10  20  36  63  94 124 161 205 255 307 367
#     4  11  23  39  61  93 129 163 204 253 312 375
#     4  11  23  40  65  95 130 165 208 259 314 377
#     4  10  19  34  58  89 124 159 199 246 304 368
#     4  12  24  39  61  88 125 164 204 254 314 375
#     4  10  22  43  66  90 123 162 211 259 309 372
#
# _framework density 20.549109999999999
#
# number of rings (size 3 to 8) (size 9 to 14) (size 15 to 20)
#    0.000    1.250    1.250    5.250    0.000    6.500 
#    2.250    0.000    0.000    0.000    0.000    0.000 
#    0.000    0.000    0.000    0.000    0.000    0.000 
#
# Total GULP energy -396808.346366 kJ/mol
# GULP energy per Si atom -12400.260824 kJ/mol
# Density = 2.050234 g / cm^3
# Si number density = 20.549110 Si / 1000 Ang^3
#
#
#
# Elastic Constant Matrix: (Units=GPa)
#
#
# Indices 1 2 3 4 5 6 
#
# 1 69.4095 19.0449 20.6874 0.0000 0.0000 0.0000
# 2 19.0449 91.8131 42.8718 0.0000 0.0000 0.0000
# 3 20.6874 42.8718 76.9398 0.0000 0.0000 0.0000
# 4 0.0000 0.0000 0.0000 26.5802 0.0000 0.0000
# 5 0.0000 0.0000 0.0000 0.0000 32.6125 0.0000
# 6 0.0000 0.0000 0.0000 0.0000 0.0000 32.5342
#
#
#
# Elastic Compliance Matrix: (Units=1/GPa)
#
#
# Indices 1 2 3 4 5 6 
#
# 1 0.015869 -0.001756 -0.003288 0.000000 0.000000 0.000000
# 2 -0.001756 0.014917 -0.007839 0.000000 0.000000 0.000000
# 3 -0.003288 -0.007839 0.018250 0.000000 0.000000 0.000000
# 4 0.000000 0.000000 0.000000 0.037622 0.000000 0.000000
# 5 0.000000 0.000000 0.000000 0.000000 0.030663 0.000000
# 6 0.000000 0.000000 0.000000 0.000000 0.000000 0.030737
#
#
# Mechanical properties :
#
#
# Convention : Reuss Voigt Hill
#
# Bulk Modulus (GPa) = 42.97879 44.81896 43.89887
# Shear Modulus (GPa) = 27.53588 28.71593 28.12591
#
# Velocity S-wave (km/s) = 3.66458 3.74228 3.70363
# Velocity P-wave (km/s) = 6.23427 6.36638 6.30067
#
# Compressibility (1/GPa) = 0.02326729
#
# Stress axis : x y z
#
# Youngs Moduli (GPa) = 63.01510 67.03929 54.79588
#
# Poissons Ratio (x) = 0.11774 0.18018
# Poissons Ratio (y) = 0.11068 0.42957
# Poissons Ratio (z) = 0.20721 0.52555
#
# Static dielectric constant tensor:
#      x y z
#    x 3.774250 0.000000 0.000000 
#    y 0.000000 3.614430 0.000000 
#    z 0.000000 0.000000 3.778330 
# 
# 
# High freq. dielectric constant tensor:
#      x y z
#    x 1.813490 0.000000 0.000000 
#    y 0.000000 1.792020 0.000000 
#    z 0.000000 0.000000 1.805330 
# 
# From -- ./inp_files/5054.got.cif
#   From: 2010.03.12/outbox.cif.g09.slc.cpg/sg31_3_cif.got.tgz:5054.got - 2010.04.14 01:42:59.
