data_PCOD8169240
_publ_section_title
;
Structure prediction by ZEFSAII (Michael W. Deem and Ramdas Pophale) SiO2 
 PCOD8169240
Probable space group: P C A 21
;
_chemical_formula_sum "Si O2"
_cell_formula_units_Z 20
_cell_length_a 14.600920
_cell_length_b 5.072237
_cell_length_c 9.940005
_cell_angle_alpha 90.000000
_cell_angle_beta 90.000000
_cell_angle_gamma 90.000000
_cell_volume 736.150077
_symmetry_space_group_name_H-M "P C A 21"
_symmetry_group_IT_number 29
_symmetry_cell_setting 'orthorhombic'
loop_
_space_group_symop_operation_xyz
x,y,z
-x,-y,1/2+z
1/2-x,y,1/2+z
1/2+x,-y,z
loop_
_atom_site_type_symbol
_atom_site_label
_atom_site_fract_x
_atom_site_fract_y
_atom_site_fract_z
Si Si1 0.528269 0.439013 0.552490
Si Si2 0.772101 0.857037 0.633902
Si Si3 0.706623 0.519262 0.390140
Si Si4 0.125509 0.790588 0.960508
Si Si5 0.924124 0.949988 0.207748
O O1 0.607098 0.424440 0.439337
O O2 0.432120 0.524307 0.487387
O O3 0.515502 0.151763 0.618629
O O4 0.553696 0.648573 0.670859
O O5 0.851594 0.072117 0.604070
O O6 0.682018 0.011475 0.679372
O O7 0.751233 0.725735 0.491147
O O8 0.806508 0.645888 0.743035
O O9 0.779102 0.279029 0.383672
O O10 0.063569 0.986545 0.866708
#
# Coordination Sequence:
#
# PCOD8169240 Si02
#       5
#     4   4   4   4   4
#     4  11  28  46  75 110 154 193 259 320 381 463
#     4  11  24  46  76 103 149 207 245 315 388 453
#     4  11  25  47  74 110 151 198 258 310 384 461
#     4  12  26  46  79 108 151 207 251 324 393 457
#     4  11  25  51  68 113 151 191 259 317 374 470
#
# _framework density 27.168375000000001
#
# number of rings (size 3 to 8) (size 9 to 14) (size 15 to 20)
#    0.000    0.800    4.000    2.400    5.600    0.000 
#    3.600    0.000    0.000    0.000    0.000    0.000 
#    0.000    0.000    0.000    0.000    0.000    0.000 
#
# Total GULP energy -248051.441737 kJ/mol
# GULP energy per Si atom -12402.572087 kJ/mol
# Density = 2.710654 g / cm^3
# Si number density = 27.168375 Si / 1000 Ang^3
#
#
#
# Elastic Constant Matrix: (Units=GPa)
#
#
# Indices 1 2 3 4 5 6 
#
# 1 97.3196 -11.0956 3.2428 0.0000 0.0000 0.0000
# 2 -11.0956 55.4998 4.8167 0.0000 0.0000 0.0000
# 3 3.2428 4.8167 95.1797 0.0000 0.0000 0.0000
# 4 0.0000 0.0000 0.0000 47.8982 0.0000 0.0000
# 5 0.0000 0.0000 0.0000 0.0000 24.5228 0.0000
# 6 0.0000 0.0000 0.0000 0.0000 0.0000 45.8746
#
#
#
# Elastic Compliance Matrix: (Units=1/GPa)
#
#
# Indices 1 2 3 4 5 6 
#
# 1 0.010536 0.002147 -0.000468 0.000000 0.000000 0.000000
# 2 0.002147 0.018535 -0.001011 0.000000 0.000000 0.000000
# 3 -0.000468 -0.001011 0.010574 0.000000 0.000000 0.000000
# 4 0.000000 0.000000 0.000000 0.020878 0.000000 0.000000
# 5 0.000000 0.000000 0.000000 0.000000 0.040778 0.000000
# 6 0.000000 0.000000 0.000000 0.000000 0.000000 0.021799
#
#
# Mechanical properties :
#
#
# Convention : Reuss Voigt Hill
#
# Bulk Modulus (GPa) = 24.40172 26.88076 25.64124
# Shear Modulus (GPa) = 36.92140 40.39479 38.65810
#
# Velocity S-wave (km/s) = 3.69044 3.86013 3.77624
# Velocity P-wave (km/s) = 5.21155 5.45739 5.33589
#
# Compressibility (1/GPa) = 0.04098072
#
# Stress axis : x y z
#
# Youngs Moduli (GPa) = 94.91464 53.95180 94.57562
#
# Poissons Ratio (x) = -0.11583 0.04422
# Poissons Ratio (y) = -0.20377 0.09563
# Poissons Ratio (z) = 0.04438 0.05455
#
# Static dielectric constant tensor:
#      x y z
#    x 4.915140 0.000000 0.000000 
#    y 0.000000 4.684580 0.000000 
#    z 0.000000 0.000000 4.878270 
# 
# 
# High freq. dielectric constant tensor:
#      x y z
#    x 2.095720 0.000000 0.000000 
#    y 0.000000 2.091710 0.000000 
#    z 0.000000 0.000000 2.095170 
# 
# From -- ./inp_files/1942.got.cif
#   From: 2010.03.12/outbox.cif.g09.slc.cpg/sg29_1_cif.got.tgz:1942.got - 2010.04.14 03:43:10.
