data_PCOD8169273
_publ_section_title
;
Structure prediction by ZEFSAII (Michael W. Deem and Ramdas Pophale) SiO2 
 PCOD8169273
Probable space group: P C A 21
;
_chemical_formula_sum "Si O2"
_cell_formula_units_Z 20
_cell_length_a 7.797584
_cell_length_b 11.002833
_cell_length_c 8.654979
_cell_angle_alpha 90.000000
_cell_angle_beta 90.000000
_cell_angle_gamma 90.000000
_cell_volume 742.558377
_symmetry_space_group_name_H-M "P C A 21"
_symmetry_group_IT_number 29
_symmetry_cell_setting 'orthorhombic'
loop_
_space_group_symop_operation_xyz
x,y,z
-x,-y,1/2+z
1/2-x,y,1/2+z
1/2+x,-y,z
loop_
_atom_site_type_symbol
_atom_site_label
_atom_site_fract_x
_atom_site_fract_y
_atom_site_fract_z
Si Si1 0.136264 0.274914 0.552000
Si Si2 0.315891 0.888030 0.875506
Si Si3 0.408737 0.019442 0.171064
Si Si4 0.573112 0.620309 0.238385
Si Si5 0.317209 0.639284 0.742495
O O1 0.188881 0.140507 0.611640
O O2 0.296029 0.360976 0.596621
O O3 0.118628 0.277764 0.366805
O O4 0.950899 0.320930 0.610310
O O5 0.401596 0.934592 0.712601
O O6 0.311541 0.742025 0.876216
O O7 0.138287 0.958198 0.839929
O O8 0.406101 0.919133 0.036508
O O9 0.613489 0.487439 0.312125
O O10 0.377370 0.626406 0.178706
#
# Coordination Sequence:
#
# PCOD8169273 Si02
#       5
#     4   4   4   4   4
#     4  11  28  49  76 113 146 203 250 309 385 438
#     4  11  26  46  75 107 146 193 247 303 374 447
#     4  11  25  47  71 107 145 190 243 304 370 445
#     4  12  27  49  77 108 156 193 255 316 369 456
#     4  11  28  47  75 113 149 201 251 308 380 446
#
# _framework density 26.933907999999999
#
# number of rings (size 3 to 8) (size 9 to 14) (size 15 to 20)
#    0.000    0.800    2.000    2.400   14.000    3.200 
#    0.000    0.000    0.000    0.000    0.000    0.000 
#    0.000    0.000    0.000    0.000    0.000    0.000 
#
# Total GULP energy -247864.471440 kJ/mol
# GULP energy per Si atom -12393.223572 kJ/mol
# Density = 2.687261 g / cm^3
# Si number density = 26.933908 Si / 1000 Ang^3
#
#
#
# Elastic Constant Matrix: (Units=GPa)
#
#
# Indices 1 2 3 4 5 6 
#
# 1 165.0727 21.9915 24.2280 0.0000 0.0000 0.0000
# 2 21.9915 104.6390 -16.6471 0.0000 0.0000 0.0000
# 3 24.2280 -16.6471 52.4382 0.0000 0.0000 0.0000
# 4 0.0000 0.0000 0.0000 31.0244 0.0000 0.0000
# 5 0.0000 0.0000 0.0000 0.0000 35.4639 0.0000
# 6 0.0000 0.0000 0.0000 0.0000 0.0000 30.8958
#
#
#
# Elastic Compliance Matrix: (Units=1/GPa)
#
#
# Indices 1 2 3 4 5 6 
#
# 1 0.006896 -0.002060 -0.003840 0.000000 0.000000 0.000000
# 2 -0.002060 0.010681 0.004343 0.000000 0.000000 0.000000
# 3 -0.003840 0.004343 0.022223 0.000000 0.000000 0.000000
# 4 0.000000 0.000000 0.000000 0.032233 0.000000 0.000000
# 5 0.000000 0.000000 0.000000 0.000000 0.028198 0.000000
# 6 0.000000 0.000000 0.000000 0.000000 0.000000 0.032367
#
#
# Mechanical properties :
#
#
# Convention : Reuss Voigt Hill
#
# Bulk Modulus (GPa) = 27.26010 42.36607 34.81309
# Shear Modulus (GPa) = 33.79739 38.98201 36.38970
#
# Velocity S-wave (km/s) = 3.54620 3.80849 3.67968
# Velocity P-wave (km/s) = 5.18753 5.92480 5.56838
#
# Compressibility (1/GPa) = 0.03668365
#
# Stress axis : x y z
#
# Youngs Moduli (GPa) = 145.01066 93.62843 44.99855
#
# Poissons Ratio (x) = 0.19290 0.17280
# Poissons Ratio (y) = 0.29876 -0.19541
# Poissons Ratio (z) = 0.55687 -0.40659
#
# Static dielectric constant tensor:
#      x y z
#    x 4.954610 0.000000 0.000000 
#    y 0.000000 5.268750 0.000000 
#    z 0.000000 0.000000 4.168040 
# 
# 
# High freq. dielectric constant tensor:
#      x y z
#    x 2.093750 0.000000 0.000000 
#    y 0.000000 2.096990 0.000000 
#    z 0.000000 0.000000 2.060590 
# 
# From -- ./inp_files/1069.got.cif
#   From: 2010.03.12/outbox.cif.g09.slc.cpg/sg29_1_cif.got.tgz:1069.got - 2010.04.14 03:43:10.
