data_PCOD8169416
_publ_section_title
;
Structure prediction by ZEFSAII (Michael W. Deem and Ramdas Pophale) SiO2 
 PCOD8169416
Probable space group: P N C 2
;
_chemical_formula_sum "Si O2"
_cell_formula_units_Z 32
_cell_length_a 6.219373
_cell_length_b 27.113362
_cell_length_c 8.901686
_cell_angle_alpha 90.000000
_cell_angle_beta 90.000000
_cell_angle_gamma 90.000000
_cell_volume 1501.074500
_symmetry_space_group_name_H-M "P N C 2"
_symmetry_group_IT_number 30
_symmetry_cell_setting 'orthorhombic'
loop_
_space_group_symop_operation_xyz
x,y,z
-x,-y,z
-x,1/2+y,1/2+z
x,1/2-y,1/2+z
loop_
_atom_site_type_symbol
_atom_site_label
_atom_site_fract_x
_atom_site_fract_y
_atom_site_fract_z
Si Si1 0.301304 0.374398 0.013330
Si Si2 0.090477 0.051077 0.021231
Si Si3 0.403975 0.801473 0.331581
Si Si4 0.616781 0.622752 0.347762
Si Si5 0.011303 0.707060 0.043750
Si Si6 0.610678 0.951646 0.289913
Si Si7 0.768226 0.729550 0.323608
Si Si8 0.702425 0.382003 0.609141
O O1 0.430152 0.381651 0.169887
O O2 0.065692 0.350314 0.042015
O O3 0.434206 0.340262 0.902319
O O4 0.268530 0.426394 0.930540
O O5 0.235780 0.076656 0.895063
O O6 0.930551 0.092712 0.083683
O O7 0.000000 0.000000 0.949971
O O8 0.222889 0.031858 0.163538
O O9 0.241781 0.785475 0.466675
O O10 0.541095 0.754528 0.266131
O O11 0.278142 0.828309 0.192213
O O12 0.732502 0.674323 0.380672
O O13 0.397813 0.622938 0.442759
O O14 0.977267 0.728656 0.211808
O O15 0.828373 0.738153 0.963519
O O16 0.437749 0.915810 0.216513
O O17 0.500000 0.000000 0.356730
#
# Coordination Sequence:
#
# PCOD8169416 Si02
#       8
#     4   4   4   4   4   4   4   4
#     4   9  21  40  56  88 123 156 196 252 308 369
#     4  11  22  39  62  87 116 153 207 255 305 374
#     4  10  21  38  63  88 118 165 210 248 304 382
#     4  10  23  39  58  85 127 158 190 255 315 364
#     4  10  21  37  60  85 126 158 203 252 303 367
#     4  10  19  38  62  83 112 151 198 253 299 352
#     4  10  22  38  56  89 124 160 203 253 306 373
#     4  10  21  38  63  87 115 156 206 247 303 366
#
# _framework density 21.318062000000001
#
# number of rings (size 3 to 8) (size 9 to 14) (size 15 to 20)
#    0.000    2.000    1.250    1.500    0.000   10.000 
#    2.250    0.625    0.000    0.000    0.000    0.000 
#    0.000    0.000    0.000    0.000    0.000    0.000 
#
# Total GULP energy -396540.458330 kJ/mol
# GULP energy per Si atom -12391.889323 kJ/mol
# Density = 2.126954 g / cm^3
# Si number density = 21.318062 Si / 1000 Ang^3
#
#
#
# Elastic Constant Matrix: (Units=GPa)
#
#
# Indices 1 2 3 4 5 6 
#
# 1 55.0656 9.9551 -4.6251 0.0000 0.0000 0.0000
# 2 9.9551 104.5979 27.0046 0.0000 0.0000 0.0000
# 3 -4.6251 27.0046 67.1208 0.0000 0.0000 0.0000
# 4 0.0000 0.0000 0.0000 26.8107 0.0000 0.0000
# 5 0.0000 0.0000 0.0000 0.0000 19.5945 0.0000
# 6 0.0000 0.0000 0.0000 0.0000 0.0000 26.8065
#
#
#
# Elastic Compliance Matrix: (Units=1/GPa)
#
#
# Indices 1 2 3 4 5 6 
#
# 1 0.018777 -0.002367 0.002246 0.000000 0.000000 0.000000
# 2 -0.002367 0.010967 -0.004575 0.000000 0.000000 0.000000
# 3 0.002246 -0.004575 0.016894 0.000000 0.000000 0.000000
# 4 0.000000 0.000000 0.000000 0.037299 0.000000 0.000000
# 5 0.000000 0.000000 0.000000 0.000000 0.051035 0.000000
# 6 0.000000 0.000000 0.000000 0.000000 0.000000 0.037304
#
#
# Mechanical properties :
#
#
# Convention : Reuss Voigt Hill
#
# Bulk Modulus (GPa) = 26.84902 32.38372 29.61637
# Shear Modulus (GPa) = 25.76219 27.60567 26.68393
#
# Velocity S-wave (km/s) = 3.48007 3.60244 3.54178
# Velocity P-wave (km/s) = 5.36374 5.70325 5.53610
#
# Compressibility (1/GPa) = 0.03724531
#
# Stress axis : x y z
#
# Youngs Moduli (GPa) = 53.25742 91.18301 59.19225
#
# Poissons Ratio (x) = 0.21583 -0.13295
# Poissons Ratio (y) = 0.12606 0.27083
# Poissons Ratio (z) = -0.11962 0.41720
#
# Static dielectric constant tensor:
#      x y z
#    x 3.686820 0.000000 0.000000 
#    y 0.000000 4.055710 0.000000 
#    z 0.000000 0.000000 3.849240 
# 
# 
# High freq. dielectric constant tensor:
#      x y z
#    x 1.821480 0.000000 0.000000 
#    y 0.000000 1.841270 0.000000 
#    z 0.000000 0.000000 1.830790 
# 
# From -- ./inp_files/1476.got.cif
#   From: 2010.03.12/outbox.cif.g09.slc.cpg/sg30_1_cif.got.tgz:1476.got - 2010.04.14 01:38:02.
