data_PCOD8169918
_publ_section_title
;
Structure prediction by ZEFSAII (Michael W. Deem and Ramdas Pophale) SiO2 
 PCOD8169918
Probable space group: P M N 21
;
_chemical_formula_sum "Si O2"
_cell_formula_units_Z 32
_cell_length_a 8.463181
_cell_length_b 14.633886
_cell_length_c 12.596876
_cell_angle_alpha 90.000000
_cell_angle_beta 90.000000
_cell_angle_gamma 90.000000
_cell_volume 1560.113342
_symmetry_space_group_name_H-M "P M N 21"
_symmetry_group_IT_number 31
_symmetry_cell_setting 'orthorhombic'
loop_
_space_group_symop_operation_xyz
x,y,z
1/2-x,-y,1/2+z
-x,y,z
1/2+x,-y,1/2+z
loop_
_atom_site_type_symbol
_atom_site_label
_atom_site_fract_x
_atom_site_fract_y
_atom_site_fract_z
Si Si1 0.816775 0.445633 0.878140
Si Si2 0.320029 0.624966 0.795179
Si Si3 0.679123 0.367618 0.078957
Si Si4 0.812598 0.169726 0.346590
Si Si5 0.817683 0.192450 0.988322
Si Si6 0.186483 0.140936 0.584101
Si Si7 0.183711 0.266332 0.765064
Si Si8 0.315126 0.059194 0.146998
O O1 0.794351 0.549270 0.844195
O O2 0.753489 0.368790 0.793323
O O3 0.000000 0.424904 0.901299
O O4 0.715554 0.436531 0.984240
O O5 0.500000 0.608335 0.831037
O O6 0.304750 0.611674 0.670044
O O7 0.260640 0.725552 0.827617
O O8 0.500000 0.382184 0.118809
O O9 0.701845 0.263886 0.043712
O O10 0.746680 0.142845 0.463580
O O11 0.737472 0.104131 0.257921
O O12 0.000000 0.159461 0.336887
O O13 0.784214 0.195410 0.862191
O O14 0.000000 0.217963 0.010834
O O15 0.775729 0.096829 0.042896
O O16 0.259592 0.223106 0.657480
O O17 0.000000 0.153324 0.574658
O O18 0.228472 0.047661 0.645628
O O19 0.000000 0.274265 0.742761
O O20 0.500000 0.075421 0.131803
#
# Coordination Sequence:
#
# PCOD8169918 Si02
#       8
#     4   4   4   4   4   4   4   4
#     4  10  21  37  60  89 121 158 203 254 305 367
#     4  11  22  37  59  87 120 160 202 250 307 367
#     4  11  21  36  58  84 116 154 199 251 304 357
#     4  10  22  40  61  84 120 160 199 246 305 369
#     4  10  19  34  58  83 112 150 195 245 298 356
#     4   9  20  38  58  85 118 156 198 245 301 365
#     4   8  17  35  58  83 115 155 196 240 297 359
#     4  11  22  35  58  87 116 149 196 251 299 354
#
# _framework density 20.511329
#
# number of rings (size 3 to 8) (size 9 to 14) (size 15 to 20)
#    0.000    2.000    1.250    3.375    1.750    1.500 
#    0.000    3.125    0.000    6.750    0.000    0.000 
#    0.000    0.000    0.000    0.000    0.000    0.000 
#
# Total GULP energy -396623.407408 kJ/mol
# GULP energy per Si atom -12394.481482 kJ/mol
# Density = 2.046464 g / cm^3
# Si number density = 20.511329 Si / 1000 Ang^3
#
#
#
# Elastic Constant Matrix: (Units=GPa)
#
#
# Indices 1 2 3 4 5 6 
#
# 1 49.0977 25.5841 21.6231 0.0000 0.0000 0.0000
# 2 25.5841 110.7943 58.1847 0.0000 0.0000 0.0000
# 3 21.6231 58.1847 117.7694 0.0000 0.0000 0.0000
# 4 0.0000 0.0000 0.0000 19.2027 0.0000 0.0000
# 5 0.0000 0.0000 0.0000 0.0000 21.7548 0.0000
# 6 0.0000 0.0000 0.0000 0.0000 0.0000 25.1510
#
#
#
# Elastic Compliance Matrix: (Units=1/GPa)
#
#
# Indices 1 2 3 4 5 6 
#
# 1 0.023573 -0.004281 -0.002213 0.000000 0.000000 0.000000
# 2 -0.004281 0.012966 -0.005620 0.000000 0.000000 0.000000
# 3 -0.002213 -0.005620 0.011674 0.000000 0.000000 0.000000
# 4 0.000000 0.000000 0.000000 0.052076 0.000000 0.000000
# 5 0.000000 0.000000 0.000000 0.000000 0.045967 0.000000
# 6 0.000000 0.000000 0.000000 0.000000 0.000000 0.039760
#
#
# Mechanical properties :
#
#
# Convention : Reuss Voigt Hill
#
# Bulk Modulus (GPa) = 41.69302 54.27168 47.98235
# Shear Modulus (GPa) = 22.91080 24.70635 23.80857
#
# Velocity S-wave (km/s) = 3.34575 3.47439 3.41068
# Velocity P-wave (km/s) = 5.94108 6.52778 6.24133
#
# Compressibility (1/GPa) = 0.02398483
#
# Stress axis : x y z
#
# Youngs Moduli (GPa) = 42.42129 77.12746 85.66115
#
# Poissons Ratio (x) = 0.33020 0.18957
# Poissons Ratio (y) = 0.18161 0.48139
# Poissons Ratio (z) = 0.09388 0.43343
#
# Static dielectric constant tensor:
#      x y z
#    x 3.444020 0.000000 0.000000 
#    y 0.000000 3.748040 0.000000 
#    z 0.000000 0.000000 4.079810 
# 
# 
# High freq. dielectric constant tensor:
#      x y z
#    x 1.776690 0.000000 0.000000 
#    y 0.000000 1.800690 0.000000 
#    z 0.000000 0.000000 1.806830 
# 
# From -- ./inp_files/3682.got.cif
#   From: 2010.03.12/outbox.cif.g09.slc.cpg/sg31_2_cif.got.tgz:3682.got - 2010.04.14 01:42:59.
