data_PCOD8169860
_publ_section_title
;
Structure prediction by ZEFSAII (Michael W. Deem and Ramdas Pophale) SiO2 
 PCOD8169860
Probable space group: P M N 21
;
_chemical_formula_sum "Si O2"
_cell_formula_units_Z 24
_cell_length_a 9.088709
_cell_length_b 9.045211
_cell_length_c 16.398945
_cell_angle_alpha 90.000000
_cell_angle_beta 90.000000
_cell_angle_gamma 90.000000
_cell_volume 1348.145635
_symmetry_space_group_name_H-M "P M N 21"
_symmetry_group_IT_number 31
_symmetry_cell_setting 'orthorhombic'
loop_
_space_group_symop_operation_xyz
x,y,z
1/2-x,-y,1/2+z
-x,y,z
1/2+x,-y,1/2+z
loop_
_atom_site_type_symbol
_atom_site_label
_atom_site_fract_x
_atom_site_fract_y
_atom_site_fract_z
Si Si1 0.164981 0.355565 0.464240
Si Si2 0.671189 0.648924 0.495614
Si Si3 0.831765 0.802370 0.644542
Si Si4 0.834939 0.063862 0.537384
Si Si5 0.330735 0.843428 0.805669
Si Si6 0.331353 0.922412 0.396433
O O1 0.283086 0.483832 0.472461
O O2 0.182176 0.242214 0.541469
O O3 0.196680 0.263892 0.381976
O O4 0.000000 0.422314 0.462337
O O5 0.500000 0.653095 0.519448
O O6 0.764015 0.703968 0.572639
O O7 0.700248 0.749091 0.414603
O O8 0.748578 0.770848 0.728356
O O9 0.000000 0.753180 0.655115
O O10 0.819903 0.978684 0.623476
O O11 0.706054 0.003736 0.480588
O O12 0.000000 0.030520 0.500590
O O13 0.500000 0.862470 0.783849
O O14 0.266377 0.007648 0.824207
O O15 0.500000 0.951032 0.373342
#
# Coordination Sequence:
#
# PCOD8169860 Si02
#       6
#     4   4   4   4   4   4
#     4   9  18  33  52  73 100 134 167 202 248 300
#     4  10  20  33  51  76 104 133 168 207 246 297
#     4  10  19  33  54  76 100 131 167 208 255 301
#     4   8  16  31  50  72  96 125 162 202 243 291
#     4  10  20  34  52  75 102 130 166 211 254 297
#     4   9  17  30  49  72  96 125 162 200 240 290
#
# _framework density 17.802230000000002
#
# number of rings (size 3 to 8) (size 9 to 14) (size 15 to 20)
#    0.000    2.667    0.000    3.000    0.000    6.000 
#    0.000    1.667    0.000    2.000    0.000    0.000 
#    0.000    0.000    0.000    0.000    0.000    0.000 
#
# Total GULP energy -297414.302151 kJ/mol
# GULP energy per Si atom -12392.262590 kJ/mol
# Density = 1.776171 g / cm^3
# Si number density = 17.802230 Si / 1000 Ang^3
#
#
#
# Elastic Constant Matrix: (Units=GPa)
#
#
# Indices 1 2 3 4 5 6 
#
# 1 110.9845 50.0245 38.3881 0.0000 0.0000 0.0000
# 2 50.0245 97.7344 24.8055 0.0000 0.0000 0.0000
# 3 38.3881 24.8055 62.0391 0.0000 0.0000 0.0000
# 4 0.0000 0.0000 0.0000 15.8581 0.0000 0.0000
# 5 0.0000 0.0000 0.0000 0.0000 29.8733 0.0000
# 6 0.0000 0.0000 0.0000 0.0000 0.0000 27.8129
#
#
#
# Elastic Compliance Matrix: (Units=1/GPa)
#
#
# Indices 1 2 3 4 5 6 
#
# 1 0.013598 -0.005369 -0.006267 0.000000 0.000000 0.000000
# 2 -0.005369 0.013508 -0.002078 0.000000 0.000000 0.000000
# 3 -0.006267 -0.002078 0.020828 0.000000 0.000000 0.000000
# 4 0.000000 0.000000 0.000000 0.063059 0.000000 0.000000
# 5 0.000000 0.000000 0.000000 0.000000 0.033475 0.000000
# 6 0.000000 0.000000 0.000000 0.000000 0.000000 0.035955
#
#
# Mechanical properties :
#
#
# Convention : Reuss Voigt Hill
#
# Bulk Modulus (GPa) = 48.77216 55.24380 52.00798
# Shear Modulus (GPa) = 23.28973 25.21153 24.25063
#
# Velocity S-wave (km/s) = 3.62090 3.76733 3.69484
# Velocity P-wave (km/s) = 6.70353 7.07269 6.89058
#
# Compressibility (1/GPa) = 0.02050350
#
# Stress axis : x y z
#
# Youngs Moduli (GPa) = 73.53891 74.03224 48.01257
#
# Poissons Ratio (x) = 0.39751 0.30091
# Poissons Ratio (y) = 0.39487 0.09979
# Poissons Ratio (z) = 0.46089 0.15387
#
# Static dielectric constant tensor:
#      x y z
#    x 3.384480 0.000000 0.000000 
#    y 0.000000 3.313780 0.000000 
#    z 0.000000 0.000000 3.098890 
# 
# 
# High freq. dielectric constant tensor:
#      x y z
#    x 1.703420 0.000000 0.000000 
#    y 0.000000 1.677010 0.000000 
#    z 0.000000 0.000000 1.659910 
# 
# From -- ./inp_files/4739.got.cif
#   From: 2010.03.12/outbox.cif.g09.slc.cpg/sg31_3_cif.got.tgz:4739.got - 2010.04.14 01:42:59.
