data_PCOD8169687
_publ_section_title
;
Structure prediction by ZEFSAII (Michael W. Deem and Ramdas Pophale) SiO2 
 PCOD8169687
Probable space group: P M N 21
;
_chemical_formula_sum "Si O2"
_cell_formula_units_Z 20
_cell_length_a 24.412897
_cell_length_b 8.710124
_cell_length_c 4.943944
_cell_angle_alpha 90.000000
_cell_angle_beta 90.000000
_cell_angle_gamma 90.000000
_cell_volume 1051.277088
_symmetry_space_group_name_H-M "P M N 21"
_symmetry_group_IT_number 31
_symmetry_cell_setting 'orthorhombic'
loop_
_space_group_symop_operation_xyz
x,y,z
1/2-x,-y,1/2+z
-x,y,z
1/2+x,-y,1/2+z
loop_
_atom_site_type_symbol
_atom_site_label
_atom_site_fract_x
_atom_site_fract_y
_atom_site_fract_z
Si Si1 0.726355 0.420888 0.663290
Si Si2 0.000000 0.423205 0.190150
Si Si3 0.116298 0.432300 0.077412
Si Si4 0.382921 0.780360 0.077438
Si Si5 0.269805 0.913001 0.157616
Si Si6 0.500000 0.776397 0.190407
O O1 0.756523 0.542663 0.469435
O O2 0.660999 0.436956 0.631931
O O3 0.743357 0.250013 0.583353
O O4 0.943637 0.512674 0.117973
O O5 0.000000 0.378561 0.505821
O O6 0.000000 0.267896 0.006046
O O7 0.122642 0.286441 0.276470
O O8 0.123572 0.365351 0.777117
O O9 0.335636 0.905309 0.127515
O O10 0.442646 0.863343 0.120847
O O11 0.254704 0.957710 0.462287
#
# Coordination Sequence:
#
# PCOD8169687 Si02
#       6
#     4   2   4   4   4   2
#     4  12  21  36  57  79 105 146 181 222 264 321
#     4   8  16  26  48  78 104 124 164 232 274 294
#     4  10  17  32  53  79 103 133 179 224 265 313
#     4  10  18  33  53  77 107 134 178 224 261 319
#     4  12  24  36  52  80 116 146 176 222 276 317
#     4   8  16  28  50  76  98 134 172 220 266 298
#
# _framework density 19.024481000000002
#
# number of rings (size 3 to 8) (size 9 to 14) (size 15 to 20)
#    0.000    1.600    4.000    2.400    0.000    0.000 
#    0.000    0.000    0.000    2.400    0.000    0.000 
#    0.000    0.000    0.000    0.000    0.000    0.000 
#
# Total GULP energy -247929.128039 kJ/mol
# GULP energy per Si atom -12396.456402 kJ/mol
# Density = 1.898118 g / cm^3
# Si number density = 19.024481 Si / 1000 Ang^3
#
#
#
# Elastic Constant Matrix: (Units=GPa)
#
#
# Indices 1 2 3 4 5 6 
#
# 1 184.8577 39.9185 7.0283 0.0000 0.0000 0.0000
# 2 39.9185 42.5519 5.7025 0.0000 0.0000 0.0000
# 3 7.0283 5.7025 70.9614 0.0000 0.0000 0.0000
# 4 0.0000 0.0000 0.0000 22.9818 0.0000 0.0000
# 5 0.0000 0.0000 0.0000 0.0000 27.9711 0.0000
# 6 0.0000 0.0000 0.0000 0.0000 0.0000 24.1627
#
#
#
# Elastic Compliance Matrix: (Units=1/GPa)
#
#
# Indices 1 2 3 4 5 6 
#
# 1 0.006786 -0.006344 -0.000162 0.000000 0.000000 0.000000
# 2 -0.006344 0.029688 -0.001757 0.000000 0.000000 0.000000
# 3 -0.000162 -0.001757 0.014249 0.000000 0.000000 0.000000
# 4 0.000000 0.000000 0.000000 0.043513 0.000000 0.000000
# 5 0.000000 0.000000 0.000000 0.000000 0.035751 0.000000
# 6 0.000000 0.000000 0.000000 0.000000 0.000000 0.041386
#
#
# Mechanical properties :
#
#
# Convention : Reuss Voigt Hill
#
# Bulk Modulus (GPa) = 29.24366 44.85217 37.04791
# Shear Modulus (GPa) = 25.08800 31.40456 28.24628
#
# Velocity S-wave (km/s) = 3.63536 4.06734 3.85740
# Velocity P-wave (km/s) = 5.74683 6.75906 6.27340
#
# Compressibility (1/GPa) = 0.03419544
#
# Stress axis : x y z
#
# Youngs Moduli (GPa) = 147.36961 33.68417 70.17805
#
# Poissons Ratio (x) = 0.21369 0.01139
# Poissons Ratio (y) = 0.93491 0.12333
# Poissons Ratio (z) = 0.02391 0.05920
#
# Static dielectric constant tensor:
#      x y z
#    x 4.146920 0.000000 0.000000 
#    y 0.000000 2.767800 0.000000 
#    z 0.000000 0.000000 3.603460 
# 
# 
# High freq. dielectric constant tensor:
#      x y z
#    x 1.772220 0.000000 0.000000 
#    y 0.000000 1.649390 0.000000 
#    z 0.000000 0.000000 1.765670 
# 
# From -- ./inp_files/1076.got.cif
#   From: 2010.03.12/outbox.cif.g09.slc.cpg/sg31_1_cif.got.tgz:1076.got - 2010.04.14 01:42:59.
