data_PCOD8169108
_publ_section_title
;
Structure prediction by ZEFSAII (Michael W. Deem and Ramdas Pophale) SiO2 
 PCOD8169108
Probable space group: P C A 21
;
_chemical_formula_sum "Si O2"
_cell_formula_units_Z 28
_cell_length_a 9.163697
_cell_length_b 6.180761
_cell_length_c 22.696314
_cell_angle_alpha 90.000000
_cell_angle_beta 90.000000
_cell_angle_gamma 90.000000
_cell_volume 1285.487928
_symmetry_space_group_name_H-M "P C A 21"
_symmetry_group_IT_number 29
_symmetry_cell_setting 'orthorhombic'
loop_
_space_group_symop_operation_xyz
x,y,z
-x,-y,1/2+z
1/2-x,y,1/2+z
1/2+x,-y,z
loop_
_atom_site_type_symbol
_atom_site_label
_atom_site_fract_x
_atom_site_fract_y
_atom_site_fract_z
Si Si1 0.889487 0.004793 0.077760
Si Si2 0.360333 0.699012 0.535663
Si Si3 0.703422 0.685238 0.258010
Si Si4 0.480414 0.392363 0.314851
Si Si5 0.139399 0.290452 0.124701
Si Si6 0.896400 0.274074 0.405166
Si Si7 0.637552 0.998520 0.358742
O O1 0.788124 0.161021 0.038577
O O2 0.989749 0.158906 0.117596
O O3 0.782497 0.855075 0.115686
O O4 0.997562 0.851101 0.041429
O O5 0.359126 0.502811 0.582769
O O6 0.368826 0.614766 0.468776
O O7 0.630853 0.493244 0.294683
O O8 0.878039 0.654782 0.258167
O O9 0.640374 0.655226 0.193141
O O10 0.669488 0.909041 0.292466
O O11 0.380222 0.538196 0.357420
O O12 0.515490 0.180394 0.351569
O O13 0.780722 0.084627 0.391457
O O14 0.061431 0.180150 0.400674
#
# Coordination Sequence:
#
# PCOD8169108 Si02
#       7
#     4   4   4   4   4   4   4
#     4  10  25  45  64 103 126 182 231 264 348 396
#     4  11  24  45  69  99 136 178 226 286 336 405
#     4  11  26  42  69  97 137 171 223 276 334 406
#     4  11  24  42  66 102 130 174 218 271 341 389
#     4  11  26  44  69  97 138 180 226 281 336 403
#     4  11  24  42  69  97 134 173 222 277 337 403
#     4  11  23  44  64 101 133 176 220 277 340 394
#
# _framework density 21.781613
#
# number of rings (size 3 to 8) (size 9 to 14) (size 15 to 20)
#    0.000    1.143    2.857    1.714    6.000    5.714 
#    0.000    0.000    0.000    0.000    0.000    0.000 
#    0.000    0.000    0.000    0.000    0.000    0.000 
#
# Total GULP energy -347040.290972 kJ/mol
# GULP energy per Si atom -12394.296106 kJ/mol
# Density = 2.173204 g / cm^3
# Si number density = 21.781613 Si / 1000 Ang^3
#
#
#
# Elastic Constant Matrix: (Units=GPa)
#
#
# Indices 1 2 3 4 5 6 
#
# 1 124.2565 32.7577 19.9050 0.0000 0.0000 0.0000
# 2 32.7577 92.3308 31.0876 0.0000 0.0000 0.0000
# 3 19.9050 31.0876 122.3698 0.0000 0.0000 0.0000
# 4 0.0000 0.0000 0.0000 28.2183 0.0000 0.0000
# 5 0.0000 0.0000 0.0000 0.0000 18.2180 0.0000
# 6 0.0000 0.0000 0.0000 0.0000 0.0000 22.7696
#
#
#
# Elastic Compliance Matrix: (Units=1/GPa)
#
#
# Indices 1 2 3 4 5 6 
#
# 1 0.008934 -0.002931 -0.000709 0.000000 0.000000 0.000000
# 2 -0.002931 0.012805 -0.002776 0.000000 0.000000 0.000000
# 3 -0.000709 -0.002776 0.008993 0.000000 0.000000 0.000000
# 4 0.000000 0.000000 0.000000 0.035438 0.000000 0.000000
# 5 0.000000 0.000000 0.000000 0.000000 0.054891 0.000000
# 6 0.000000 0.000000 0.000000 0.000000 0.000000 0.043918
#
#
# Mechanical properties :
#
#
# Convention : Reuss Voigt Hill
#
# Bulk Modulus (GPa) = 55.86649 56.27307 56.06978
# Shear Modulus (GPa) = 27.20677 30.85497 29.03087
#
# Velocity S-wave (km/s) = 3.53805 3.76780 3.65473
# Velocity P-wave (km/s) = 6.51111 6.69475 6.60357
#
# Compressibility (1/GPa) = 0.01789982
#
# Stress axis : x y z
#
# Youngs Moduli (GPa) = 111.93054 78.09244 111.20330
#
# Poissons Ratio (x) = 0.22890 0.07880
# Poissons Ratio (y) = 0.32808 0.30874
# Poissons Ratio (z) = 0.07931 0.21681
#
# Static dielectric constant tensor:
#      x y z
#    x 4.127350 0.000000 0.000000 
#    y 0.000000 3.995000 0.000000 
#    z 0.000000 0.000000 3.684480 
# 
# 
# High freq. dielectric constant tensor:
#      x y z
#    x 1.880300 0.000000 0.000000 
#    y 0.000000 1.860110 0.000000 
#    z 0.000000 0.000000 1.840290 
# 
# From -- ./inp_files/5657.got.cif
#   From: 2010.03.12/outbox.cif.g09.slc.cpg/sg29_3_cif.got.tgz:5657.got - 2010.04.14 03:43:10.
