data_PCOD8169882
_publ_section_title
;
Structure prediction by ZEFSAII (Michael W. Deem and Ramdas Pophale) SiO2 
 PCOD8169882
Probable space group: P M N 21
;
_chemical_formula_sum "Si O2"
_cell_formula_units_Z 32
_cell_length_a 9.047911
_cell_length_b 10.685752
_cell_length_c 16.594887
_cell_angle_alpha 90.000000
_cell_angle_beta 90.000000
_cell_angle_gamma 90.000000
_cell_volume 1604.455625
_symmetry_space_group_name_H-M "P M N 21"
_symmetry_group_IT_number 31
_symmetry_cell_setting 'orthorhombic'
loop_
_space_group_symop_operation_xyz
x,y,z
1/2-x,-y,1/2+z
-x,y,z
1/2+x,-y,1/2+z
loop_
_atom_site_type_symbol
_atom_site_label
_atom_site_fract_x
_atom_site_fract_y
_atom_site_fract_z
Si Si1 0.832608 0.396873 0.933550
Si Si2 0.330945 0.297399 0.793064
Si Si3 0.173152 0.684732 0.915888
Si Si4 0.165111 0.174331 0.556222
Si Si5 0.673054 0.198558 0.244034
Si Si6 0.165932 0.356141 0.113314
Si Si7 0.170975 0.953260 0.194637
Si Si8 0.662548 0.581481 0.161165
O O1 0.723911 0.305285 0.884549
O O2 0.774658 0.541631 0.932612
O O3 0.000000 0.396037 0.899496
O O4 0.828940 0.326420 0.019092
O O5 0.500000 0.339841 0.785811
O O6 0.308310 0.161468 0.755505
O O7 0.226332 0.398760 0.750130
O O8 0.213607 0.723643 0.824398
O O9 0.000000 0.697712 0.933503
O O10 0.254259 0.783441 0.974509
O O11 0.254769 0.068967 0.606618
O O12 0.151362 0.289775 0.615447
O O13 0.000000 0.124482 0.535239
O O14 0.500000 0.172593 0.238912
O O15 0.722717 0.273885 0.165152
O O16 0.755980 0.066790 0.242845
O O17 0.219115 0.498797 0.114765
O O18 0.000000 0.341934 0.147625
O O19 0.000000 0.982510 0.177713
O O20 0.500000 0.518156 0.168054
#
# Coordination Sequence:
#
# PCOD8169882 Si02
#       8
#     4   4   4   4   4   4   4   4
#     4  10  21  37  59  89 124 157 195 242 299 364
#     4  10  21  36  59  87 114 152 197 246 297 350
#     4  10  21  39  61  88 122 158 198 247 304 363
#     4  10  20  35  61  92 118 152 197 248 298 353
#     4  11  24  41  62  88 120 162 205 253 304 357
#     4  11  22  37  59  86 120 161 198 243 298 358
#     4  10  22  42  63  84 117 158 204 251 297 358
#     4  10  19  33  56  86 119 152 190 240 297 355
#
# _framework density 19.944458999999998
#
# number of rings (size 3 to 8) (size 9 to 14) (size 15 to 20)
#    0.000    1.750    1.250    3.000    0.000    6.000 
#    2.250    0.000    0.000    0.000    0.000    0.000 
#    0.000    0.000    0.000    0.000    0.000    0.000 
#
# Total GULP energy -396727.989757 kJ/mol
# GULP energy per Si atom -12397.749680 kJ/mol
# Density = 1.989906 g / cm^3
# Si number density = 19.944459 Si / 1000 Ang^3
#
#
#
# Elastic Constant Matrix: (Units=GPa)
#
#
# Indices 1 2 3 4 5 6 
#
# 1 108.5745 41.0442 59.3619 0.0000 0.0000 0.0000
# 2 41.0442 49.8720 34.4940 0.0000 0.0000 0.0000
# 3 59.3619 34.4940 107.2799 0.0000 0.0000 0.0000
# 4 0.0000 0.0000 0.0000 27.4144 0.0000 0.0000
# 5 0.0000 0.0000 0.0000 0.0000 35.7901 0.0000
# 6 0.0000 0.0000 0.0000 0.0000 0.0000 32.7477
#
#
#
# Elastic Compliance Matrix: (Units=1/GPa)
#
#
# Indices 1 2 3 4 5 6 
#
# 1 0.015799 -0.008945 -0.005866 0.000000 0.000000 0.000000
# 2 -0.008945 0.030850 -0.004970 0.000000 0.000000 0.000000
# 3 -0.005866 -0.004970 0.014165 0.000000 0.000000 0.000000
# 4 0.000000 0.000000 0.000000 0.036477 0.000000 0.000000
# 5 0.000000 0.000000 0.000000 0.000000 0.027941 0.000000
# 6 0.000000 0.000000 0.000000 0.000000 0.000000 0.030537
#
#
# Mechanical properties :
#
#
# Convention : Reuss Voigt Hill
#
# Bulk Modulus (GPa) = 47.05258 59.50293 53.27775
# Shear Modulus (GPa) = 24.70174 27.91220 26.30697
#
# Velocity S-wave (km/s) = 3.52309 3.74504 3.63576
# Velocity P-wave (km/s) = 6.33976 6.97134 6.66304
#
# Compressibility (1/GPa) = 0.02125282
#
# Stress axis : x y z
#
# Youngs Moduli (GPa) = 63.29535 32.41448 70.59556
#
# Poissons Ratio (x) = 0.28995 0.41411
# Poissons Ratio (y) = 0.56619 0.35084
# Poissons Ratio (z) = 0.37129 0.16109
#
# Static dielectric constant tensor:
#      x y z
#    x 3.884970 0.000000 0.000000 
#    y 0.000000 3.470180 0.000000 
#    z 0.000000 0.000000 3.632570 
# 
# 
# High freq. dielectric constant tensor:
#      x y z
#    x 1.790180 0.000000 0.000000 
#    y 0.000000 1.757870 0.000000 
#    z 0.000000 0.000000 1.781200 
# 
# From -- ./inp_files/5068.got.cif
#   From: 2010.03.12/outbox.cif.g09.slc.cpg/sg31_3_cif.got.tgz:5068.got - 2010.04.14 01:42:59.
