data_PCOD8169599
_publ_section_title
;
Structure prediction by ZEFSAII (Michael W. Deem and Ramdas Pophale) SiO2 
 PCOD8169599
Probable space group: P N C 2
;
_chemical_formula_sum "Si O2"
_cell_formula_units_Z 16
_cell_length_a 5.247349
_cell_length_b 5.400975
_cell_length_c 22.225070
_cell_angle_alpha 90.000000
_cell_angle_beta 90.000000
_cell_angle_gamma 90.000000
_cell_volume 629.876281
_symmetry_space_group_name_H-M "P N C 2"
_symmetry_group_IT_number 30
_symmetry_cell_setting 'orthorhombic'
loop_
_space_group_symop_operation_xyz
x,y,z
-x,-y,z
-x,1/2+y,1/2+z
x,1/2-y,1/2+z
loop_
_atom_site_type_symbol
_atom_site_label
_atom_site_fract_x
_atom_site_fract_y
_atom_site_fract_z
Si Si1 0.500000 0.500000 0.656971
Si Si2 0.749388 0.841726 0.434276
Si Si3 0.250317 0.160083 0.570936
Si Si4 0.000000 0.000000 0.847686
Si Si5 0.864769 0.258368 0.232390
O O1 0.269582 0.398458 0.614676
O O2 0.409690 0.725528 0.700735
O O3 0.746145 0.740240 0.502424
O O4 0.773900 0.611108 0.388861
O O5 0.500000 0.000000 0.418873
O O6 0.000000 0.000000 0.423121
O O7 0.500000 0.000000 0.583084
O O8 0.000000 0.000000 0.584536
O O9 0.144806 0.799457 0.804712
O O10 0.000000 0.500000 0.202244
O O11 0.000000 0.000000 0.217861
#
# Coordination Sequence:
#
# PCOD8169599 Si02
#       5
#     2   4   4   2   4
#     4  12  28  48  82 112 168 216 270 332 410 490
#     4  10  23  49  76 116 160 207 271 342 411 484
#     4  10  26  46  79 117 159 212 270 339 412 486
#     4  10  24  52  80 112 162 216 268 340 404 486
#     4  10  27  52  77 119 159 218 274 332 403 491
#
# _framework density 25.401814999999999
#
# number of rings (size 3 to 8) (size 9 to 14) (size 15 to 20)
#    0.750    1.000    0.000    0.750    7.000    7.000 
#   13.500    2.500    0.000    0.000    0.000    0.000 
#    0.000    0.000    0.000    0.000    0.000    0.000 
#
# Total GULP energy -198329.184201 kJ/mol
# GULP energy per Si atom -12395.574013 kJ/mol
# Density = 2.534400 g / cm^3
# Si number density = 25.401815 Si / 1000 Ang^3
#
#
#
# Elastic Constant Matrix: (Units=GPa)
#
#
# Indices 1 2 3 4 5 6 
#
# 1 167.8925 63.8901 73.5781 0.0000 0.0000 0.0000
# 2 63.8901 148.6368 78.5701 0.0000 0.0000 0.0000
# 3 73.5781 78.5701 196.8152 0.0000 0.0000 0.0000
# 4 0.0000 0.0000 0.0000 58.8202 0.0000 0.0000
# 5 0.0000 0.0000 0.0000 0.0000 33.6157 0.0000
# 6 0.0000 0.0000 0.0000 0.0000 0.0000 43.8062
#
#
#
# Elastic Compliance Matrix: (Units=1/GPa)
#
#
# Indices 1 2 3 4 5 6 
#
# 1 0.007679 -0.002260 -0.001968 0.000000 0.000000 0.000000
# 2 -0.002260 0.009193 -0.002825 0.000000 0.000000 0.000000
# 3 -0.001968 -0.002825 0.006944 0.000000 0.000000 0.000000
# 4 0.000000 0.000000 0.000000 0.017001 0.000000 0.000000
# 5 0.000000 0.000000 0.000000 0.000000 0.029748 0.000000
# 6 0.000000 0.000000 0.000000 0.000000 0.000000 0.022828
#
#
# Mechanical properties :
#
#
# Convention : Reuss Voigt Hill
#
# Bulk Modulus (GPa) = 102.99578 105.04678 104.02128
# Shear Modulus (GPa) = 45.15249 47.06885 46.11067
#
# Velocity S-wave (km/s) = 4.22065 4.30929 4.26520
# Velocity P-wave (km/s) = 8.02412 8.13657 8.08054
#
# Compressibility (1/GPa) = 0.00970914
#
# Stress axis : x y z
#
# Youngs Moduli (GPa) = 130.22616 108.78416 143.99969
#
# Poissons Ratio (x) = 0.24587 0.28345
# Poissons Ratio (y) = 0.29434 0.40676
# Poissons Ratio (z) = 0.25634 0.30729
#
# Static dielectric constant tensor:
#      x y z
#    x 4.358990 0.000000 0.000000 
#    y 0.000000 4.389180 0.000000 
#    z 0.000000 0.000000 4.774400 
# 
# 
# High freq. dielectric constant tensor:
#      x y z
#    x 2.002990 0.000000 0.000000 
#    y 0.000000 2.004620 0.000000 
#    z 0.000000 0.000000 2.037600 
# 
# From -- ./inp_files/7140.got.cif
#   From: 2010.03.12/outbox.cif.g09.slc.cpg/sg30_4_cif.got.tgz:7140.got - 2010.04.14 01:38:02.
