data_PCOD8169396
_publ_section_title
;
Structure prediction by ZEFSAII (Michael W. Deem and Ramdas Pophale) SiO2 
 PCOD8169396
Probable space group: P N C 2
;
_chemical_formula_sum "Si O2"
_cell_formula_units_Z 32
_cell_length_a 6.610419
_cell_length_b 21.553941
_cell_length_c 13.458470
_cell_angle_alpha 90.000000
_cell_angle_beta 90.000000
_cell_angle_gamma 90.000000
_cell_volume 1917.570626
_symmetry_space_group_name_H-M "P N C 2"
_symmetry_group_IT_number 30
_symmetry_cell_setting 'orthorhombic'
loop_
_space_group_symop_operation_xyz
x,y,z
-x,-y,z
-x,1/2+y,1/2+z
x,1/2-y,1/2+z
loop_
_atom_site_type_symbol
_atom_site_label
_atom_site_fract_x
_atom_site_fract_y
_atom_site_fract_z
Si Si1 0.889760 0.347060 0.697210
Si Si2 0.534096 0.570796 0.914866
Si Si3 0.717900 0.674884 0.586257
Si Si4 0.534100 0.070796 0.182794
Si Si5 0.422291 0.762254 0.695760
Si Si6 0.110243 0.347060 0.900448
Si Si7 0.282096 0.674884 0.011402
Si Si8 0.577705 0.762254 0.901898
O O1 0.762468 0.406621 0.658369
O O2 0.737041 0.291477 0.720873
O O3 0.000002 0.365926 0.798829
O O4 0.043975 0.326432 0.610942
O O5 0.500000 0.500000 0.945471
O O6 0.499995 0.582646 0.798830
O O7 0.374508 0.609639 0.978355
O O8 0.762463 0.593380 0.939289
O O9 0.625489 0.609640 0.619306
O O10 0.616537 0.733521 0.640506
O O11 0.682928 0.684277 0.468180
O O12 0.500000 0.000000 0.152189
O O13 0.317065 0.815722 0.629479
O O14 0.499997 0.792293 0.798829
O O15 0.956028 0.326432 0.986716
O O16 0.262958 0.291476 0.876785
O O17 0.383461 0.733520 0.957152
#
# Coordination Sequence:
#
# PCOD8169396 Si02
#       8
#     4   4   4   4   4   4   4   4
#     4  11  17  31  50  73 102 133 165 206 257 308
#     4  10  20  33  47  69 100 131 169 206 250 310
#     4  10  19  32  48  71 101 132 164 208 255 301
#     4  10  20  33  47  69 100 131 169 206 250 310
#     4  10  19  31  49  72 102 130 165 207 255 308
#     4  11  17  31  50  73 102 133 165 206 257 308
#     4  10  19  32  48  71 101 132 164 208 255 301
#     4  10  19  31  49  72 102 130 165 207 255 308
#
# _framework density 16.687783
#
# number of rings (size 3 to 8) (size 9 to 14) (size 15 to 20)
#    0.000    1.750    5.000    2.250    0.000    1.000 
#    0.000    0.000    0.000    0.750    0.000    0.000 
#    0.000    0.000    0.000    0.000    0.000    0.000 
#
# Total GULP energy -396815.442730 kJ/mol
# GULP energy per Si atom -12400.482585 kJ/mol
# Density = 1.664980 g / cm^3
# Si number density = 16.687783 Si / 1000 Ang^3
#
#
#
# Elastic Constant Matrix: (Units=GPa)
#
#
# Indices 1 2 3 4 5 6 
#
# 1 95.8097 17.1846 25.7807 0.0000 0.0000 0.0000
# 2 17.1846 73.4022 30.3630 0.0000 0.0000 0.0000
# 3 25.7807 30.3630 94.9857 0.0000 0.0000 0.0000
# 4 0.0000 0.0000 0.0000 19.6967 0.0000 0.0000
# 5 0.0000 0.0000 0.0000 0.0000 28.8738 0.0000
# 6 0.0000 0.0000 0.0000 0.0000 0.0000 15.8541
#
#
#
# Elastic Compliance Matrix: (Units=1/GPa)
#
#
# Indices 1 2 3 4 5 6 
#
# 1 0.011421 -0.001604 -0.002587 0.000000 0.000000 0.000000
# 2 -0.001604 0.015925 -0.004655 0.000000 0.000000 0.000000
# 3 -0.002587 -0.004655 0.012718 0.000000 0.000000 0.000000
# 4 0.000000 0.000000 0.000000 0.050770 0.000000 0.000000
# 5 0.000000 0.000000 0.000000 0.000000 0.034634 0.000000
# 6 0.000000 0.000000 0.000000 0.000000 0.000000 0.063075
#
#
# Mechanical properties :
#
#
# Convention : Reuss Voigt Hill
#
# Bulk Modulus (GPa) = 44.69916 45.65048 45.17482
# Shear Modulus (GPa) = 23.39815 25.60954 24.50384
#
# Velocity S-wave (km/s) = 3.74854 3.92168 3.83609
# Velocity P-wave (km/s) = 6.75123 6.92251 6.83741
#
# Compressibility (1/GPa) = 0.02237179
#
# Stress axis : x y z
#
# Youngs Moduli (GPa) = 87.55668 62.79580 78.62751
#
# Poissons Ratio (x) = 0.10070 0.20343
# Poissons Ratio (y) = 0.14041 0.36603
# Poissons Ratio (z) = 0.22653 0.29233
#
# Static dielectric constant tensor:
#      x y z
#    x 3.378270 0.000000 0.000000 
#    y 0.000000 2.921090 0.000000 
#    z 0.000000 0.000000 3.106460 
# 
# 
# High freq. dielectric constant tensor:
#      x y z
#    x 1.659300 0.000000 0.000000 
#    y 0.000000 1.610550 0.000000 
#    z 0.000000 0.000000 1.622750 
# 
# From -- ./inp_files/4780.got.cif
#   From: 2010.03.12/outbox.cif.g09.slc.cpg/sg30_3_cif.got.tgz:4780.got - 2010.04.14 01:38:02.
