data_PCOD8169379
_publ_section_title
;
Structure prediction by ZEFSAII (Michael W. Deem and Ramdas Pophale) SiO2 
 PCOD8169379
Probable space group: P N C 2
;
_chemical_formula_sum "Si O2"
_cell_formula_units_Z 20
_cell_length_a 22.682092
_cell_length_b 8.500679
_cell_length_c 5.290072
_cell_angle_alpha 90.000000
_cell_angle_beta 90.000000
_cell_angle_gamma 90.000000
_cell_volume 1019.995621
_symmetry_space_group_name_H-M "P N C 2"
_symmetry_group_IT_number 30
_symmetry_cell_setting 'orthorhombic'
loop_
_space_group_symop_operation_xyz
x,y,z
-x,-y,z
-x,1/2+y,1/2+z
x,1/2-y,1/2+z
loop_
_atom_site_type_symbol
_atom_site_label
_atom_site_fract_x
_atom_site_fract_y
_atom_site_fract_z
Si Si1 0.281401 0.063693 0.540530
Si Si2 0.824959 0.348957 0.039966
Si Si3 0.532659 0.661074 0.534337
Si Si4 0.330199 0.406566 0.540595
Si Si5 0.960616 0.152167 0.549323
O O1 0.287700 0.252660 0.539035
O O2 0.314249 0.993913 0.291274
O O3 0.213627 0.008339 0.542575
O O4 0.315010 0.994482 0.788488
O O5 0.809792 0.248070 0.287964
O O6 0.892752 0.401951 0.040250
O O7 0.500000 0.500000 0.582281
O O8 0.512449 0.773327 0.763383
O O9 0.602567 0.644006 0.544783
O O10 0.975370 0.266190 0.315518
O O11 0.000000 0.000000 0.519848
#
# Coordination Sequence:
#
# PCOD8169379 Si02
#       5
#     4   4   4   4   4
#     4  10  18  35  59  81 107 151 189 230 297 345
#     4  10  21  37  56  85 122 155 190 246 303 351
#     4  12  23  43  66  89 123 161 201 251 309 360
#     4  10  19  37  61  77 116 145 186 249 285 339
#     4  10  21  40  61  86 127 165 204 255 303 357
#
# _framework density 19.60793
#
# number of rings (size 3 to 8) (size 9 to 14) (size 15 to 20)
#    0.000    1.600    4.000    2.400    0.000    0.000 
#    7.200    6.000    0.000    0.000    0.000    0.000 
#    0.000    0.000    0.000    0.000    0.000    0.000 
#
# Total GULP energy -247909.818110 kJ/mol
# GULP energy per Si atom -12395.490905 kJ/mol
# Density = 1.956330 g / cm^3
# Si number density = 19.607930 Si / 1000 Ang^3
#
#
#
# Elastic Constant Matrix: (Units=GPa)
#
#
# Indices 1 2 3 4 5 6 
#
# 1 79.5616 62.0623 29.2419 0.0000 0.0000 0.0000
# 2 62.0623 65.6612 13.6358 0.0000 0.0000 0.0000
# 3 29.2419 13.6358 180.3551 0.0000 0.0000 0.0000
# 4 0.0000 0.0000 0.0000 22.7424 0.0000 0.0000
# 5 0.0000 0.0000 0.0000 0.0000 15.5922 0.0000
# 6 0.0000 0.0000 0.0000 0.0000 0.0000 36.6762
#
#
#
# Elastic Compliance Matrix: (Units=1/GPa)
#
#
# Indices 1 2 3 4 5 6 
#
# 1 0.051561 -0.047749 -0.004750 0.000000 0.000000 0.000000
# 2 -0.047749 0.059691 0.003229 0.000000 0.000000 0.000000
# 3 -0.004750 0.003229 0.006071 0.000000 0.000000 0.000000
# 4 0.000000 0.000000 0.000000 0.043971 0.000000 0.000000
# 5 0.000000 0.000000 0.000000 0.000000 0.064135 0.000000
# 6 0.000000 0.000000 0.000000 0.000000 0.000000 0.027266
#
#
# Mechanical properties :
#
#
# Convention : Reuss Voigt Hill
#
# Bulk Modulus (GPa) = 53.23934 59.49533 56.36733
# Shear Modulus (GPa) = 13.98623 29.71134 21.84878
#
# Velocity S-wave (km/s) = 2.67365 3.89687 3.34171
# Velocity P-wave (km/s) = 6.06153 7.11729 6.61052
#
# Compressibility (1/GPa) = 0.01878310
#
# Stress axis : x y z
#
# Youngs Moduli (GPa) = 19.39441 16.75299 164.72787
#
# Poissons Ratio (x) = 0.79993 0.78243
# Poissons Ratio (y) = 0.92606 -0.53188
# Poissons Ratio (z) = 0.09212 -0.05409
#
# Static dielectric constant tensor:
#      x y z
#    x 3.521790 0.000000 0.000000 
#    y 0.000000 3.146510 0.000000 
#    z 0.000000 0.000000 4.987860 
# 
# 
# High freq. dielectric constant tensor:
#      x y z
#    x 1.756880 0.000000 0.000000 
#    y 0.000000 1.723810 0.000000 
#    z 0.000000 0.000000 1.808330 
# 
# From -- ./inp_files/989.got.cif
#   From: 2010.03.12/outbox.cif.g09.slc.cpg/sg30_1_cif.got.tgz:989.got - 2010.04.14 01:38:02.
