data_PCOD8169201
_publ_section_title
;
Structure prediction by ZEFSAII (Michael W. Deem and Ramdas Pophale) SiO2 
 PCOD8169201
Probable space group: P C A 21
;
_chemical_formula_sum "Si O2"
_cell_formula_units_Z 32
_cell_length_a 18.568663
_cell_length_b 8.974964
_cell_length_c 8.921108
_cell_angle_alpha 90.000000
_cell_angle_beta 90.000000
_cell_angle_gamma 90.000000
_cell_volume 1486.730143
_symmetry_space_group_name_H-M "P C A 21"
_symmetry_group_IT_number 29
_symmetry_cell_setting 'orthorhombic'
loop_
_space_group_symop_operation_xyz
x,y,z
-x,-y,1/2+z
1/2-x,y,1/2+z
1/2+x,-y,z
loop_
_atom_site_type_symbol
_atom_site_label
_atom_site_fract_x
_atom_site_fract_y
_atom_site_fract_z
Si Si1 0.793205 0.768751 0.212220
Si Si2 0.316094 0.073433 0.512896
Si Si3 0.951246 0.830908 0.142448
Si Si4 0.690143 0.429300 0.641164
Si Si5 0.957239 0.391981 0.486511
Si Si6 0.520188 0.913161 0.982139
Si Si7 0.803779 0.270371 0.445472
Si Si8 0.030579 0.634505 0.636115
O O1 0.726891 0.867812 0.155835
O O2 0.798656 0.804824 0.386652
O O3 0.865426 0.822954 0.129296
O O4 0.782001 0.591511 0.193690
O O5 0.400146 0.077156 0.551540
O O6 0.292596 0.905615 0.468939
O O7 0.977692 0.883192 0.305410
O O8 0.985765 0.672119 0.106741
O O9 0.981206 0.930177 0.006534
O O10 0.738463 0.367713 0.507932
O O11 0.694530 0.304740 0.770133
O O12 0.607071 0.439095 0.590111
O O13 0.878420 0.326222 0.519207
O O14 0.981300 0.373221 0.314650
O O15 0.964029 0.563859 0.539228
O O16 0.470603 0.803636 0.079967
#
# Coordination Sequence:
#
# PCOD8169201 Si02
#       8
#     4   4   4   4   4   4   4   4
#     4  11  25  44  69  94 137 174 224 275 335 397
#     4  11  25  45  67  98 132 178 222 276 334 397
#     4  11  23  45  66  98 134 172 221 275 333 398
#     4  11  25  45  67  98 132 178 222 276 334 397
#     4  11  23  45  66  98 134 172 221 275 333 398
#     4  11  25  41  70  98 135 175 221 276 336 397
#     4  11  25  44  69  94 137 174 224 275 335 397
#     4  11  25  41  70  98 135 175 221 276 336 397
#
# _framework density 21.523745000000002
#
# number of rings (size 3 to 8) (size 9 to 14) (size 15 to 20)
#    0.000    1.000    2.500    3.000   14.000    4.000 
#    0.000    0.000    0.000    0.000    0.000    0.000 
#    0.000    0.000    0.000    0.000    0.000    0.000 
#
# Total GULP energy -396823.492532 kJ/mol
# GULP energy per Si atom -12400.734142 kJ/mol
# Density = 2.147476 g / cm^3
# Si number density = 21.523745 Si / 1000 Ang^3
#
#
#
# Elastic Constant Matrix: (Units=GPa)
#
#
# Indices 1 2 3 4 5 6 
#
# 1 74.8445 14.2020 26.7422 0.0000 0.0000 0.0000
# 2 14.2020 94.5388 12.8584 0.0000 0.0000 0.0000
# 3 26.7422 12.8584 56.6669 0.0000 0.0000 0.0000
# 4 0.0000 0.0000 0.0000 42.4835 0.0000 0.0000
# 5 0.0000 0.0000 0.0000 0.0000 36.0927 0.0000
# 6 0.0000 0.0000 0.0000 0.0000 0.0000 39.2779
#
#
#
# Elastic Compliance Matrix: (Units=1/GPa)
#
#
# Indices 1 2 3 4 5 6 
#
# 1 0.016260 -0.001443 -0.007346 0.000000 0.000000 0.000000
# 2 -0.001443 0.011043 -0.001825 0.000000 0.000000 0.000000
# 3 -0.007346 -0.001825 0.021528 0.000000 0.000000 0.000000
# 4 0.000000 0.000000 0.000000 0.023539 0.000000 0.000000
# 5 0.000000 0.000000 0.000000 0.000000 0.027706 0.000000
# 6 0.000000 0.000000 0.000000 0.000000 0.000000 0.025460
#
#
# Mechanical properties :
#
#
# Convention : Reuss Voigt Hill
#
# Bulk Modulus (GPa) = 36.22863 37.07283 36.65073
# Shear Modulus (GPa) = 32.05897 35.05399 33.55648
#
# Velocity S-wave (km/s) = 3.86355 4.03999 3.95276
# Velocity P-wave (km/s) = 6.06392 6.24689 6.15609
#
# Compressibility (1/GPa) = 0.02760248
#
# Stress axis : x y z
#
# Youngs Moduli (GPa) = 61.50218 90.55785 46.45204
#
# Poissons Ratio (x) = 0.13072 0.34122
# Poissons Ratio (y) = 0.08878 0.08475
# Poissons Ratio (z) = 0.45178 0.16522
#
# Static dielectric constant tensor:
#      x y z
#    x 3.999520 0.000000 0.000000 
#    y 0.000000 3.974830 0.000000 
#    z 0.000000 0.000000 3.625410 
# 
# 
# High freq. dielectric constant tensor:
#      x y z
#    x 1.846380 0.000000 0.000000 
#    y 0.000000 1.865980 0.000000 
#    z 0.000000 0.000000 1.838060 
# 
# From -- ./inp_files/1243.got.cif
#   From: 2010.03.12/outbox.cif.g09.slc.cpg/sg29_1_cif.got.tgz:1243.got - 2010.04.14 03:43:10.
