data_PCOD8169074
_publ_section_title
;
Structure prediction by ZEFSAII (Michael W. Deem and Ramdas Pophale) SiO2 
 PCOD8169074
Probable space group: P C A 21
;
_chemical_formula_sum "Si O2"
_cell_formula_units_Z 28
_cell_length_a 9.940014
_cell_length_b 14.348260
_cell_length_c 8.601135
_cell_angle_alpha 90.000000
_cell_angle_beta 90.000000
_cell_angle_gamma 90.000000
_cell_volume 1226.710261
_symmetry_space_group_name_H-M "P C A 21"
_symmetry_group_IT_number 29
_symmetry_cell_setting 'orthorhombic'
loop_
_space_group_symop_operation_xyz
x,y,z
-x,-y,1/2+z
1/2-x,y,1/2+z
1/2+x,-y,z
loop_
_atom_site_type_symbol
_atom_site_label
_atom_site_fract_x
_atom_site_fract_y
_atom_site_fract_z
Si Si1 0.077344 0.105576 0.332840
Si Si2 0.254009 0.502923 0.433941
Si Si3 0.128642 0.627541 0.672433
Si Si4 0.424763 0.890153 0.831550
Si Si5 0.179488 0.826330 0.659947
Si Si6 0.666362 0.630807 0.188292
Si Si7 0.820038 0.818284 0.157329
O O1 0.130251 0.158228 0.485377
O O2 0.189081 0.119733 0.198382
O O3 0.934565 0.146303 0.283158
O O4 0.050363 0.997877 0.369476
O O5 0.148207 0.574925 0.508591
O O6 0.350671 0.556697 0.314704
O O7 0.338576 0.457224 0.572229
O O8 0.180980 0.414972 0.357017
O O9 0.223999 0.718043 0.681632
O O10 0.981163 0.675142 0.678601
O O11 0.314910 0.884211 0.693706
O O12 0.562747 0.839598 0.781490
O O13 0.368736 0.841265 0.984813
O O14 0.780608 0.708739 0.161722
#
# Coordination Sequence:
#
# PCOD8169074 Si02
#       7
#     4   4   4   4   4   4   4
#     4  12  24  46  70 104 144 189 242 294 358 423
#     4  10  24  43  70 102 133 186 220 300 348 432
#     4  11  23  46  68 100 141 176 238 281 362 415
#     4  12  26  45  70 105 142 193 238 295 356 424
#     4  12  26  46  71 102 145 186 241 294 354 433
#     4  11  23  44  70 104 139 176 236 284 359 421
#     4  12  26  44  75 105 144 190 237 302 357 424
#
# _framework density 22.825278000000001
#
# number of rings (size 3 to 8) (size 9 to 14) (size 15 to 20)
#    0.000    0.571    1.429    6.857    2.000    0.000 
#   10.286    0.000    0.000    0.000    0.000    0.000 
#    0.000    0.000    0.000    0.000    0.000    0.000 
#
# Total GULP energy -347259.716736 kJ/mol
# GULP energy per Si atom -12402.132741 kJ/mol
# Density = 2.277333 g / cm^3
# Si number density = 22.825278 Si / 1000 Ang^3
#
#
#
# Elastic Constant Matrix: (Units=GPa)
#
#
# Indices 1 2 3 4 5 6 
#
# 1 105.5173 39.3579 21.5325 0.0000 0.0000 0.0000
# 2 39.3579 147.7951 25.0257 0.0000 0.0000 0.0000
# 3 21.5325 25.0257 72.0860 0.0000 0.0000 0.0000
# 4 0.0000 0.0000 0.0000 32.6154 0.0000 0.0000
# 5 0.0000 0.0000 0.0000 0.0000 34.6316 0.0000
# 6 0.0000 0.0000 0.0000 0.0000 0.0000 39.6488
#
#
#
# Elastic Compliance Matrix: (Units=1/GPa)
#
#
# Indices 1 2 3 4 5 6 
#
# 1 0.010896 -0.002497 -0.002388 0.000000 0.000000 0.000000
# 2 -0.002497 0.007761 -0.001948 0.000000 0.000000 0.000000
# 3 -0.002388 -0.001948 0.015262 0.000000 0.000000 0.000000
# 4 0.000000 0.000000 0.000000 0.030660 0.000000 0.000000
# 5 0.000000 0.000000 0.000000 0.000000 0.028875 0.000000
# 6 0.000000 0.000000 0.000000 0.000000 0.000000 0.025221
#
#
# Mechanical properties :
#
#
# Convention : Reuss Voigt Hill
#
# Bulk Modulus (GPa) = 49.37754 55.24784 52.31269
# Shear Modulus (GPa) = 35.94704 37.34465 36.64584
#
# Velocity S-wave (km/s) = 3.97278 4.04927 4.01121
# Velocity P-wave (km/s) = 6.53634 6.79112 6.66495
#
# Compressibility (1/GPa) = 0.02025212
#
# Stress axis : x y z
#
# Youngs Moduli (GPa) = 91.77807 128.84830 65.52235
#
# Poissons Ratio (x) = 0.32177 0.15645
# Poissons Ratio (y) = 0.22919 0.12767
# Poissons Ratio (z) = 0.21914 0.25105
#
# Static dielectric constant tensor:
#      x y z
#    x 4.059220 0.000000 0.000000 
#    y 0.000000 4.150540 0.000000 
#    z 0.000000 0.000000 4.236870 
# 
# 
# High freq. dielectric constant tensor:
#      x y z
#    x 1.896080 0.000000 0.000000 
#    y 0.000000 1.917850 0.000000 
#    z 0.000000 0.000000 1.911340 
# 
# From -- ./inp_files/1195.got.cif
#   From: 2010.03.12/outbox.cif.g09.slc.cpg/sg29_1_cif.got.tgz:1195.got - 2010.04.14 03:43:10.
