data_PCOD8169243
_publ_section_title
;
Structure prediction by ZEFSAII (Michael W. Deem and Ramdas Pophale) SiO2 
 PCOD8169243
Probable space group: P C A 21
;
_chemical_formula_sum "Si O2"
_cell_formula_units_Z 24
_cell_length_a 9.843445
_cell_length_b 8.533415
_cell_length_c 13.288080
_cell_angle_alpha 90.000000
_cell_angle_beta 90.000000
_cell_angle_gamma 90.000000
_cell_volume 1116.174818
_symmetry_space_group_name_H-M "P C A 21"
_symmetry_group_IT_number 29
_symmetry_cell_setting 'orthorhombic'
loop_
_space_group_symop_operation_xyz
x,y,z
-x,-y,1/2+z
1/2-x,y,1/2+z
1/2+x,-y,z
loop_
_atom_site_type_symbol
_atom_site_label
_atom_site_fract_x
_atom_site_fract_y
_atom_site_fract_z
Si Si1 0.125768 0.653572 0.004470
Si Si2 0.234951 0.458718 0.182799
Si Si3 0.611480 0.837691 0.613923
Si Si4 0.472787 0.621663 0.295262
Si Si5 0.207161 0.942365 0.441833
Si Si6 0.042337 0.989481 0.810903
O O1 0.179415 0.520506 0.077343
O O2 0.004987 0.753499 0.051596
O O3 0.067254 0.563441 0.906731
O O4 0.248260 0.768775 0.974389
O O5 0.285838 0.283325 0.165260
O O6 0.354638 0.572613 0.218456
O O7 0.114153 0.458970 0.264360
O O8 0.695866 0.951231 0.541105
O O9 0.538394 0.934477 0.701447
O O10 0.490347 0.807555 0.296447
O O11 0.314118 0.018354 0.364733
O O12 0.066569 0.927309 0.382612
#
# Coordination Sequence:
#
# PCOD8169243 Si02
#       6
#     4   4   4   4   4   4
#     4  11  27  46  69 105 144 181 240 284 357 418
#     4  12  27  46  73 104 145 192 226 297 350 433
#     4  12  26  46  72 105 140 183 242 282 366 407
#     4  11  26  47  71 105 145 184 241 284 359 418
#     4  11  24  47  73 103 140 181 236 296 343 419
#     4  11  26  44  74 104 138 187 237 297 345 415
#
# _framework density 21.502008
#
# number of rings (size 3 to 8) (size 9 to 14) (size 15 to 20)
#    0.000    0.667    5.000    2.000   11.667    1.333 
#    0.000    0.000    0.000    0.000    0.000    0.000 
#    0.000    0.000    0.000    0.000    0.000    0.000 
#
# Total GULP energy -297761.480783 kJ/mol
# GULP energy per Si atom -12406.728366 kJ/mol
# Density = 2.145307 g / cm^3
# Si number density = 21.502008 Si / 1000 Ang^3
#
#
#
# Elastic Constant Matrix: (Units=GPa)
#
#
# Indices 1 2 3 4 5 6 
#
# 1 80.1081 27.1569 24.8764 0.0000 0.0000 0.0000
# 2 27.1569 51.5441 25.8636 0.0000 0.0000 0.0000
# 3 24.8764 25.8636 115.4161 0.0000 0.0000 0.0000
# 4 0.0000 0.0000 0.0000 36.6097 0.0000 0.0000
# 5 0.0000 0.0000 0.0000 0.0000 46.7357 0.0000
# 6 0.0000 0.0000 0.0000 0.0000 0.0000 23.7007
#
#
#
# Elastic Compliance Matrix: (Units=1/GPa)
#
#
# Indices 1 2 3 4 5 6 
#
# 1 0.015488 -0.007307 -0.001701 0.000000 0.000000 0.000000
# 2 -0.007307 0.025306 -0.004096 0.000000 0.000000 0.000000
# 3 -0.001701 -0.004096 0.009949 0.000000 0.000000 0.000000
# 4 0.000000 0.000000 0.000000 0.027315 0.000000 0.000000
# 5 0.000000 0.000000 0.000000 0.000000 0.021397 0.000000
# 6 0.000000 0.000000 0.000000 0.000000 0.000000 0.042193
#
#
# Mechanical properties :
#
#
# Convention : Reuss Voigt Hill
#
# Bulk Modulus (GPa) = 40.75702 44.76246 42.75974
# Shear Modulus (GPa) = 28.40364 32.68730 30.54547
#
# Velocity S-wave (km/s) = 3.63847 3.90320 3.77316
# Velocity P-wave (km/s) = 6.05371 6.41688 6.23794
#
# Compressibility (1/GPa) = 0.02453565
#
# Stress axis : x y z
#
# Youngs Moduli (GPa) = 64.56452 39.51661 100.51508
#
# Poissons Ratio (x) = 0.28874 0.17097
# Poissons Ratio (y) = 0.47176 0.41170
# Poissons Ratio (z) = 0.10982 0.16186
#
# Static dielectric constant tensor:
#      x y z
#    x 4.006240 0.000000 0.000000 
#    y 0.000000 3.774190 0.000000 
#    z 0.000000 0.000000 4.286040 
# 
# 
# High freq. dielectric constant tensor:
#      x y z
#    x 1.857160 0.000000 0.000000 
#    y 0.000000 1.837430 0.000000 
#    z 0.000000 0.000000 1.865260 
# 
# From -- ./inp_files/2804.got.cif
#   From: 2010.03.12/outbox.cif.g09.slc.cpg/sg29_2_cif.got.tgz:2804.got - 2010.04.14 03:43:10.
