data_PCOD8169712
_publ_section_title
;
Structure prediction by ZEFSAII (Michael W. Deem and Ramdas Pophale) SiO2 
 PCOD8169712
Probable space group: P M N 21
;
_chemical_formula_sum "Si O2"
_cell_formula_units_Z 32
_cell_length_a 9.062812
_cell_length_b 10.478271
_cell_length_c 19.136282
_cell_angle_alpha 90.000000
_cell_angle_beta 90.000000
_cell_angle_gamma 90.000000
_cell_volume 1817.231096
_symmetry_space_group_name_H-M "P M N 21"
_symmetry_group_IT_number 31
_symmetry_cell_setting 'orthorhombic'
loop_
_space_group_symop_operation_xyz
x,y,z
1/2-x,-y,1/2+z
-x,y,z
1/2+x,-y,1/2+z
loop_
_atom_site_type_symbol
_atom_site_label
_atom_site_fract_x
_atom_site_fract_y
_atom_site_fract_z
Si Si1 0.830453 0.005174 0.256980
Si Si2 0.826345 0.621127 0.463678
Si Si3 0.325356 0.882091 0.976495
Si Si4 0.172691 0.731649 0.761788
Si Si5 0.829234 0.992934 0.099558
Si Si6 0.172688 0.872791 0.393149
Si Si7 0.671448 0.257876 0.104720
Si Si8 0.675217 0.633819 0.892318
O O1 0.803615 0.951113 0.179715
O O2 0.792421 0.891357 0.310930
O O3 0.000000 0.050995 0.267252
O O4 0.727327 0.124632 0.273733
O O5 0.756235 0.741164 0.421189
O O6 0.789847 0.635192 0.546437
O O7 0.761142 0.489890 0.433007
O O8 0.000000 0.617702 0.451775
O O9 0.500000 0.881080 0.985230
O O10 0.251768 0.886395 0.052957
O O11 0.271760 0.756244 0.936186
O O12 0.265009 0.004975 0.934585
O O13 0.210111 0.689032 0.681955
O O14 0.255052 0.636765 0.814850
O O15 0.000000 0.725717 0.776878
O O16 0.000000 0.997495 0.079867
O O17 0.762904 0.132377 0.086064
O O18 0.000000 0.866779 0.407912
O O19 0.500000 0.218674 0.100561
O O20 0.500000 0.630785 0.884128
#
# Coordination Sequence:
#
# PCOD8169712 Si02
#       8
#     4   4   4   4   4   4   4   4
#     4   9  17  31  50  74 102 130 164 203 247 295
#     4   9  17  31  53  75  93 123 170 210 236 281
#     4  10  18  31  51  71  95 128 164 202 242 288
#     4  10  19  30  49  75 103 131 160 203 253 299
#     4  10  19  29  47  76 105 129 159 206 252 292
#     4   9  15  28  52  74  92 121 163 207 242 281
#     4   9  17  32  52  74  99 130 168 202 244 301
#     4  10  20  34  52  73  97 130 172 209 240 289
#
# _framework density 17.609207000000001
#
# number of rings (size 3 to 8) (size 9 to 14) (size 15 to 20)
#    0.000    2.500    2.500    0.750    0.000    1.500 
#    0.000    1.875    0.000    0.000    0.000    0.000 
#    0.000    0.000    0.000    0.000    0.000    0.000 
#
# Total GULP energy -396702.062403 kJ/mol
# GULP energy per Si atom -12396.939450 kJ/mol
# Density = 1.756913 g / cm^3
# Si number density = 17.609207 Si / 1000 Ang^3
#
#
#
# Elastic Constant Matrix: (Units=GPa)
#
#
# Indices 1 2 3 4 5 6 
#
# 1 33.9492 24.8175 35.0843 0.0000 0.0000 0.0000
# 2 24.8175 118.0007 77.0884 0.0000 0.0000 0.0000
# 3 35.0843 77.0884 150.8291 0.0000 0.0000 0.0000
# 4 0.0000 0.0000 0.0000 30.5684 0.0000 0.0000
# 5 0.0000 0.0000 0.0000 0.0000 29.0713 0.0000
# 6 0.0000 0.0000 0.0000 0.0000 0.0000 12.7189
#
#
#
# Elastic Compliance Matrix: (Units=1/GPa)
#
#
# Indices 1 2 3 4 5 6 
#
# 1 0.039706 -0.003479 -0.007458 0.000000 0.000000 0.000000
# 2 -0.003479 0.013027 -0.005849 0.000000 0.000000 0.000000
# 3 -0.007458 -0.005849 0.011354 0.000000 0.000000 0.000000
# 4 0.000000 0.000000 0.000000 0.032714 0.000000 0.000000
# 5 0.000000 0.000000 0.000000 0.000000 0.034398 0.000000
# 6 0.000000 0.000000 0.000000 0.000000 0.000000 0.078623
#
#
# Mechanical properties :
#
#
# Convention : Reuss Voigt Hill
#
# Bulk Modulus (GPa) = 32.76944 64.08438 48.42691
# Shear Modulus (GPa) = 19.71871 25.52429 22.62150
#
# Velocity S-wave (km/s) = 3.34996 3.81134 3.58808
# Velocity P-wave (km/s) = 5.79764 7.47262 6.68777
#
# Compressibility (1/GPa) = 0.03051624
#
# Stress axis : x y z
#
# Youngs Moduli (GPa) = 25.18495 76.76233 88.07242
#
# Poissons Ratio (x) = 0.26702 0.65686
# Poissons Ratio (y) = 0.08761 0.51514
# Poissons Ratio (z) = 0.18783 0.44899
#
# Static dielectric constant tensor:
#      x y z
#    x 3.027580 0.000000 0.000000 
#    y 0.000000 3.208310 0.000000 
#    z 0.000000 0.000000 3.563700 
# 
# 
# High freq. dielectric constant tensor:
#      x y z
#    x 1.653590 0.000000 0.000000 
#    y 0.000000 1.649720 0.000000 
#    z 0.000000 0.000000 1.699330 
# 
# From -- ./inp_files/5841.got.cif
#   From: 2010.03.12/outbox.cif.g09.slc.cpg/sg31_3_cif.got.tgz:5841.got - 2010.04.14 01:42:59.
