data_PCOD8169026
_publ_section_title
;
Structure prediction by ZEFSAII (Michael W. Deem and Ramdas Pophale) SiO2 
 PCOD8169026
Probable space group: P C A 21
;
_chemical_formula_sum "Si O2"
_cell_formula_units_Z 28
_cell_length_a 9.294311
_cell_length_b 13.950526
_cell_length_c 8.849790
_cell_angle_alpha 90.000000
_cell_angle_beta 90.000000
_cell_angle_gamma 90.000000
_cell_volume 1147.468438
_symmetry_space_group_name_H-M "P C A 21"
_symmetry_group_IT_number 29
_symmetry_cell_setting 'orthorhombic'
loop_
_space_group_symop_operation_xyz
x,y,z
-x,-y,1/2+z
1/2-x,y,1/2+z
1/2+x,-y,z
loop_
_atom_site_type_symbol
_atom_site_label
_atom_site_fract_x
_atom_site_fract_y
_atom_site_fract_z
Si Si1 0.575865 0.391254 0.614240
Si Si2 0.148421 0.912338 0.319323
Si Si3 0.612703 0.810061 0.497305
Si Si4 0.601942 0.007146 0.638570
Si Si5 0.862145 0.277861 0.645155
Si Si6 0.941490 0.574329 0.303729
Si Si7 0.295912 0.292636 0.730079
O O1 0.708428 0.317523 0.590852
O O2 0.610813 0.473433 0.735296
O O3 0.529351 0.441227 0.458157
O O4 0.446664 0.330843 0.678106
O O5 0.141192 0.798933 0.282985
O O6 0.050309 0.980103 0.212159
O O7 0.307450 0.950953 0.279044
O O8 0.102858 0.918378 0.496602
O O9 0.662544 0.911501 0.560916
O O10 0.442408 0.781775 0.509893
O O11 0.667833 0.803274 0.325924
O O12 0.695973 0.729766 0.590382
O O13 0.953081 0.370494 0.690355
O O14 0.792879 0.631689 0.332924
#
# Coordination Sequence:
#
# PCOD8169026 Si02
#       7
#     4   4   4   4   4   4   4
#     4  12  27  45  74  98 138 182 229 296 361 424
#     4  11  25  45  72 106 147 190 240 296 362 427
#     4  10  23  45  68 100 140 183 235 288 345 419
#     4  11  24  44  70 105 144 188 240 293 352 427
#     4  10  27  45  71 106 145 181 240 294 357 426
#     4  11  27  46  68 102 136 179 234 293 358 432
#     4  11  23  44  69  97 136 183 232 282 351 419
#
# _framework density 24.401541000000002
#
# number of rings (size 3 to 8) (size 9 to 14) (size 15 to 20)
#    0.000    1.143    1.429    2.571    8.000    8.000 
#    0.000    0.000    0.000    0.000    0.000    0.000 
#    0.000    0.000    0.000    0.000    0.000    0.000 
#
# Total GULP energy -347068.368434 kJ/mol
# GULP energy per Si atom -12395.298873 kJ/mol
# Density = 2.434600 g / cm^3
# Si number density = 24.401541 Si / 1000 Ang^3
#
#
#
# Elastic Constant Matrix: (Units=GPa)
#
#
# Indices 1 2 3 4 5 6 
#
# 1 109.5418 18.5925 9.1693 0.0000 0.0000 0.0000
# 2 18.5925 65.5157 -7.7308 0.0000 0.0000 0.0000
# 3 9.1693 -7.7308 78.0750 0.0000 0.0000 0.0000
# 4 0.0000 0.0000 0.0000 41.7434 0.0000 0.0000
# 5 0.0000 0.0000 0.0000 0.0000 19.7089 0.0000
# 6 0.0000 0.0000 0.0000 0.0000 0.0000 16.6490
#
#
#
# Elastic Compliance Matrix: (Units=1/GPa)
#
#
# Indices 1 2 3 4 5 6 
#
# 1 0.009747 -0.002936 -0.001435 0.000000 0.000000 0.000000
# 2 -0.002936 0.016328 0.001962 0.000000 0.000000 0.000000
# 3 -0.001435 0.001962 0.013171 0.000000 0.000000 0.000000
# 4 0.000000 0.000000 0.000000 0.023956 0.000000 0.000000
# 5 0.000000 0.000000 0.000000 0.000000 0.050739 0.000000
# 6 0.000000 0.000000 0.000000 0.000000 0.000000 0.060064
#
#
# Mechanical properties :
#
#
# Convention : Reuss Voigt Hill
#
# Bulk Modulus (GPa) = 29.04653 32.57715 30.81184
# Shear Modulus (GPa) = 26.27440 31.16036 28.71738
#
# Velocity S-wave (km/s) = 3.28495 3.57737 3.43427
# Velocity P-wave (km/s) = 5.13004 5.51750 5.32729
#
# Compressibility (1/GPa) = 0.03442751
#
# Stress axis : x y z
#
# Youngs Moduli (GPa) = 102.59214 61.24432 75.92437
#
# Poissons Ratio (x) = 0.17979 0.10898
# Poissons Ratio (y) = 0.30116 -0.14893
# Poissons Ratio (z) = 0.14726 -0.12013
#
# Static dielectric constant tensor:
#      x y z
#    x 4.905500 0.000000 0.000000 
#    y 0.000000 4.373600 0.000000 
#    z 0.000000 0.000000 4.458430 
# 
# 
# High freq. dielectric constant tensor:
#      x y z
#    x 1.975460 0.000000 0.000000 
#    y 0.000000 1.973650 0.000000 
#    z 0.000000 0.000000 1.964620 
# 
# From -- ./inp_files/1186.got.cif
#   From: 2010.03.12/outbox.cif.g09.slc.cpg/sg29_1_cif.got.tgz:1186.got - 2010.04.14 03:43:10.
