data_PCOD8169552
_publ_section_title
;
Structure prediction by ZEFSAII (Michael W. Deem and Ramdas Pophale) SiO2 
 PCOD8169552
Probable space group: P N C 2
;
_chemical_formula_sum "Si O2"
_cell_formula_units_Z 18
_cell_length_a 5.055038
_cell_length_b 12.651304
_cell_length_c 12.692725
_cell_angle_alpha 90.000000
_cell_angle_beta 90.000000
_cell_angle_gamma 90.000000
_cell_volume 811.735589
_symmetry_space_group_name_H-M "P N C 2"
_symmetry_group_IT_number 30
_symmetry_cell_setting 'orthorhombic'
loop_
_space_group_symop_operation_xyz
x,y,z
-x,-y,z
-x,1/2+y,1/2+z
x,1/2-y,1/2+z
loop_
_atom_site_type_symbol
_atom_site_label
_atom_site_fract_x
_atom_site_fract_y
_atom_site_fract_z
Si Si1 0.558167 0.795287 0.109310
Si Si2 0.500000 0.000000 0.960460
Si Si3 0.000000 0.500000 0.310323
Si Si4 0.755857 0.561573 0.768728
Si Si5 0.041341 0.665014 0.128621
Si Si6 0.000000 0.500000 0.969403
O O1 0.714117 0.823575 0.218988
O O2 0.267439 0.753726 0.139098
O O3 0.768197 0.706184 0.073007
O O4 0.536520 0.894162 0.030321
O O5 0.749012 0.012270 0.884910
O O6 0.983483 0.605807 0.238842
O O7 0.500000 0.500000 0.732370
O O8 0.793386 0.564126 0.894900
O O9 0.000000 0.500000 0.713627
O O10 0.157559 0.581706 0.043353
#
# Coordination Sequence:
#
# PCOD8169552 Si02
#       6
#     4   2   2   4   4   2
#     4  12  25  43  70 102 133 175 229 281 332 403
#     4  12  26  46  68 100 142 180 226 280 346 406
#     4  11  26  49  66  98 144 187 216 285 344 416
#     4  10  22  41  68  92 130 170 216 278 332 383
#     4  11  26  45  69  99 136 178 228 276 336 405
#     4   9  26  43  70  94 138 171 226 273 338 390
#
# _framework density 22.174709
#
# number of rings (size 3 to 8) (size 9 to 14) (size 15 to 20)
#    0.667    0.444    1.111    4.000    4.667    7.111 
#    0.000    0.000    0.000    0.000    0.000    0.000 
#    0.000    0.000    0.000    0.000    0.000    0.000 
#
# Total GULP energy -222987.782136 kJ/mol
# GULP energy per Si atom -12388.210119 kJ/mol
# Density = 2.212424 g / cm^3
# Si number density = 22.174709 Si / 1000 Ang^3
#
#
#
# Elastic Constant Matrix: (Units=GPa)
#
#
# Indices 1 2 3 4 5 6 
#
# 1 157.6407 45.7843 43.4352 0.0000 0.0000 0.0000
# 2 45.7843 112.1421 64.5107 0.0000 0.0000 0.0000
# 3 43.4352 64.5107 133.8812 0.0000 0.0000 0.0000
# 4 0.0000 0.0000 0.0000 31.4841 0.0000 0.0000
# 5 0.0000 0.0000 0.0000 0.0000 40.6417 0.0000
# 6 0.0000 0.0000 0.0000 0.0000 0.0000 39.1689
#
#
#
# Elastic Compliance Matrix: (Units=1/GPa)
#
#
# Indices 1 2 3 4 5 6 
#
# 1 0.007357 -0.002256 -0.001300 0.000000 0.000000 0.000000
# 2 -0.002256 0.013029 -0.005546 0.000000 0.000000 0.000000
# 3 -0.001300 -0.005546 0.010563 0.000000 0.000000 0.000000
# 4 0.000000 0.000000 0.000000 0.031762 0.000000 0.000000
# 5 0.000000 0.000000 0.000000 0.000000 0.024605 0.000000
# 6 0.000000 0.000000 0.000000 0.000000 0.000000 0.025530
#
#
# Mechanical properties :
#
#
# Convention : Reuss Voigt Hill
#
# Bulk Modulus (GPa) = 78.45886 79.01383 78.73635
# Shear Modulus (GPa) = 36.95531 38.92117 37.93824
#
# Velocity S-wave (km/s) = 4.08677 4.19406 4.14076
# Velocity P-wave (km/s) = 7.59789 7.69177 7.64497
#
# Compressibility (1/GPa) = 0.01274553
#
# Stress axis : x y z
#
# Youngs Moduli (GPa) = 135.92760 76.75397 94.66699
#
# Poissons Ratio (x) = 0.17315 0.12305
# Poissons Ratio (y) = 0.30663 0.52502
# Poissons Ratio (z) = 0.17668 0.42568
#
# Static dielectric constant tensor:
#      x y z
#    x 4.135730 0.000000 0.000000 
#    y 0.000000 4.068940 0.000000 
#    z 0.000000 0.000000 4.007810 
# 
# 
# High freq. dielectric constant tensor:
#      x y z
#    x 1.881260 0.000000 0.000000 
#    y 0.000000 1.878360 0.000000 
#    z 0.000000 0.000000 1.875170 
# 
# From -- ./inp_files/3022.got.cif
#   From: 2010.03.12/outbox.cif.g09.slc.cpg/sg30_2_cif.got.tgz:3022.got - 2010.04.14 01:38:02.
