data_PCOD8169833
_publ_section_title
;
Structure prediction by ZEFSAII (Michael W. Deem and Ramdas Pophale) SiO2 
 PCOD8169833
Probable space group: P M N 21
;
_chemical_formula_sum "Si O2"
_cell_formula_units_Z 32
_cell_length_a 8.882838
_cell_length_b 10.332928
_cell_length_c 19.030697
_cell_angle_alpha 90.000000
_cell_angle_beta 90.000000
_cell_angle_gamma 90.000000
_cell_volume 1746.746331
_symmetry_space_group_name_H-M "P M N 21"
_symmetry_group_IT_number 31
_symmetry_cell_setting 'orthorhombic'
loop_
_space_group_symop_operation_xyz
x,y,z
1/2-x,-y,1/2+z
-x,y,z
1/2+x,-y,1/2+z
loop_
_atom_site_type_symbol
_atom_site_label
_atom_site_fract_x
_atom_site_fract_y
_atom_site_fract_z
Si Si1 0.824189 0.986542 0.274790
Si Si2 0.826096 0.633574 0.473820
Si Si3 0.322877 0.889970 0.984802
Si Si4 0.175402 0.738274 0.775291
Si Si5 0.825742 0.982214 0.114939
Si Si6 0.322326 0.873767 0.402724
Si Si7 0.671876 0.249994 0.117991
Si Si8 0.676519 0.632663 0.904276
O O1 0.792443 0.943295 0.195153
O O2 0.743597 0.881742 0.323992
O O3 0.000000 0.991997 0.292287
O O4 0.758818 0.127648 0.291001
O O5 0.723854 0.737188 0.434758
O O6 0.801510 0.641552 0.558309
O O7 0.774251 0.492480 0.448576
O O8 0.000000 0.660269 0.454807
O O9 0.500000 0.910755 0.980198
O O10 0.270135 0.885992 0.065929
O O11 0.272008 0.757090 0.948727
O O12 0.242596 0.010146 0.948602
O O13 0.207469 0.691392 0.695215
O O14 0.239713 0.631348 0.828953
O O15 0.000000 0.759052 0.789135
O O16 0.000000 0.968410 0.095858
O O17 0.779661 0.130283 0.101145
O O18 0.500000 0.884839 0.400376
O O19 0.500000 0.198725 0.116145
O O20 0.500000 0.633558 0.889700
#
# Coordination Sequence:
#
# PCOD8169833 Si02
#       8
#     4   4   4   4   4   4   4   4
#     4  10  20  35  55  81 114 150 186 230 286 338
#     4  10  21  39  59  80 111 152 191 231 279 340
#     4  11  21  35  56  81 113 151 186 227 279 335
#     4  10  19  32  54  83 111 143 186 236 284 331
#     4  10  20  33  54  84 114 143 185 236 281 331
#     4  12  23  35  56  86 113 143 186 235 283 331
#     4   9  18  33  55  80 108 144 185 229 283 338
#     4  10  22  38  57  81 112 154 195 226 277 342
#
# _framework density 18.319773999999999
#
# number of rings (size 3 to 8) (size 9 to 14) (size 15 to 20)
#    0.000    1.750    2.500    2.625    0.000    3.000 
#    0.000    1.250    0.000    1.500    0.000    0.000 
#    0.000    0.000    0.000    0.000    0.000    0.000 
#
# Total GULP energy -396867.630847 kJ/mol
# GULP energy per Si atom -12402.113464 kJ/mol
# Density = 1.827808 g / cm^3
# Si number density = 18.319774 Si / 1000 Ang^3
#
#
#
# Elastic Constant Matrix: (Units=GPa)
#
#
# Indices 1 2 3 4 5 6 
#
# 1 87.8574 43.5931 56.1608 0.0000 0.0000 0.0000
# 2 43.5931 96.0866 65.2891 0.0000 0.0000 0.0000
# 3 56.1608 65.2891 147.8955 0.0000 0.0000 0.0000
# 4 0.0000 0.0000 0.0000 29.9734 0.0000 0.0000
# 5 0.0000 0.0000 0.0000 0.0000 34.0526 0.0000
# 6 0.0000 0.0000 0.0000 0.0000 0.0000 15.2462
#
#
#
# Elastic Compliance Matrix: (Units=1/GPa)
#
#
# Indices 1 2 3 4 5 6 
#
# 1 0.016319 -0.004561 -0.004183 0.000000 0.000000 0.000000
# 2 -0.004561 0.016142 -0.005394 0.000000 0.000000 0.000000
# 3 -0.004183 -0.005394 0.010731 0.000000 0.000000 0.000000
# 4 0.000000 0.000000 0.000000 0.033363 0.000000 0.000000
# 5 0.000000 0.000000 0.000000 0.000000 0.029366 0.000000
# 6 0.000000 0.000000 0.000000 0.000000 0.000000 0.065590
#
#
# Mechanical properties :
#
#
# Convention : Reuss Voigt Hill
#
# Bulk Modulus (GPa) = 67.04500 73.54728 70.29614
# Shear Modulus (GPa) = 24.41877 26.97420 25.69649
#
# Velocity S-wave (km/s) = 3.65488 3.84136 3.74928
# Velocity P-wave (km/s) = 7.38155 7.74004 7.56292
#
# Compressibility (1/GPa) = 0.01491535
#
# Stress axis : x y z
#
# Youngs Moduli (GPa) = 61.27647 61.95166 93.18633
#
# Poissons Ratio (x) = 0.28258 0.38984
# Poissons Ratio (y) = 0.27950 0.50262
# Poissons Ratio (z) = 0.25635 0.33415
#
# Static dielectric constant tensor:
#      x y z
#    x 3.420600 0.000000 0.000000 
#    y 0.000000 3.138350 0.000000 
#    z 0.000000 0.000000 3.806650 
# 
# 
# High freq. dielectric constant tensor:
#      x y z
#    x 1.718100 0.000000 0.000000 
#    y 0.000000 1.672180 0.000000 
#    z 0.000000 0.000000 1.730430 
# 
# From -- ./inp_files/6252.got.cif
#   From: 2010.03.12/outbox.cif.g09.slc.cpg/sg31_4_cif.got.tgz:6252.got - 2010.04.14 01:42:59.
