data_PCOD8169249
_publ_section_title
;
Structure prediction by ZEFSAII (Michael W. Deem and Ramdas Pophale) SiO2 
 PCOD8169249
Probable space group: P C A 21
;
_chemical_formula_sum "Si O2"
_cell_formula_units_Z 20
_cell_length_a 10.463372
_cell_length_b 5.268039
_cell_length_c 14.469638
_cell_angle_alpha 90.000000
_cell_angle_beta 90.000000
_cell_angle_gamma 90.000000
_cell_volume 797.587453
_symmetry_space_group_name_H-M "P C A 21"
_symmetry_group_IT_number 29
_symmetry_cell_setting 'orthorhombic'
loop_
_space_group_symop_operation_xyz
x,y,z
-x,-y,1/2+z
1/2-x,y,1/2+z
1/2+x,-y,z
loop_
_atom_site_type_symbol
_atom_site_label
_atom_site_fract_x
_atom_site_fract_y
_atom_site_fract_z
Si Si1 0.108431 0.751162 0.189960
Si Si2 0.866694 0.465625 0.142919
Si Si3 0.662843 0.064758 0.384260
Si Si4 0.240705 0.418779 0.965989
Si Si5 0.473416 0.114508 0.541353
O O1 0.230210 0.560680 0.193701
O O2 0.120196 0.932605 0.278143
O O3 0.973069 0.608033 0.203884
O O4 0.115141 0.902127 0.091629
O O5 0.919365 0.184162 0.118011
O O6 0.850145 0.608627 0.044467
O O7 0.746570 0.312185 0.413561
O O8 0.536636 0.023994 0.446094
O O9 0.749218 0.814761 0.394706
O O10 0.105506 0.375397 0.018749
#
# Coordination Sequence:
#
# PCOD8169249 Si02
#       5
#     4   4   4   4   4
#     4  12  27  47  80 119 155 215 263 334 395 481
#     4  11  25  47  78 108 158 203 267 322 402 464
#     4  11  28  44  76 116 157 202 266 323 390 470
#     4  11  24  48  71 110 151 209 250 325 390 464
#     4  11  24  48  77 107 159 207 260 324 401 465
#
# _framework density 25.075619
#
# number of rings (size 3 to 8) (size 9 to 14) (size 15 to 20)
#    0.000    0.800    4.000    2.400    5.600    1.600 
#    0.000    0.000    0.000    0.000    0.000    0.000 
#    0.000    0.000    0.000    0.000    0.000    0.000 
#
# Total GULP energy -247923.254544 kJ/mol
# GULP energy per Si atom -12396.162727 kJ/mol
# Density = 2.501855 g / cm^3
# Si number density = 25.075619 Si / 1000 Ang^3
#
#
#
# Elastic Constant Matrix: (Units=GPa)
#
#
# Indices 1 2 3 4 5 6 
#
# 1 114.5616 28.4863 25.2320 0.0000 0.0000 0.0000
# 2 28.4863 106.0852 28.1061 0.0000 0.0000 0.0000
# 3 25.2320 28.1061 114.9932 0.0000 0.0000 0.0000
# 4 0.0000 0.0000 0.0000 33.2760 0.0000 0.0000
# 5 0.0000 0.0000 0.0000 0.0000 28.0285 0.0000
# 6 0.0000 0.0000 0.0000 0.0000 0.0000 37.0613
#
#
#
# Elastic Compliance Matrix: (Units=1/GPa)
#
#
# Indices 1 2 3 4 5 6 
#
# 1 0.009615 -0.002163 -0.001581 0.000000 0.000000 0.000000
# 2 -0.002163 0.010566 -0.002108 0.000000 0.000000 0.000000
# 3 -0.001581 -0.002108 0.009558 0.000000 0.000000 0.000000
# 4 0.000000 0.000000 0.000000 0.030052 0.000000 0.000000
# 5 0.000000 0.000000 0.000000 0.000000 0.035678 0.000000
# 6 0.000000 0.000000 0.000000 0.000000 0.000000 0.026982
#
#
# Mechanical properties :
#
#
# Convention : Reuss Voigt Hill
#
# Bulk Modulus (GPa) = 55.44710 55.47655 55.46183
# Shear Modulus (GPa) = 35.67192 36.59420 36.13306
#
# Velocity S-wave (km/s) = 3.77579 3.82429 3.80012
# Velocity P-wave (km/s) = 6.41629 6.45539 6.43587
#
# Compressibility (1/GPa) = 0.01803521
#
# Stress axis : x y z
#
# Youngs Moduli (GPa) = 104.00427 94.64652 104.62150
#
# Poissons Ratio (x) = 0.20472 0.16541
# Poissons Ratio (y) = 0.22496 0.22052
# Poissons Ratio (z) = 0.16444 0.19950
#
# Static dielectric constant tensor:
#      x y z
#    x 4.558800 0.000000 0.000000 
#    y 0.000000 4.283850 0.000000 
#    z 0.000000 0.000000 4.267040 
# 
# 
# High freq. dielectric constant tensor:
#      x y z
#    x 2.005900 0.000000 0.000000 
#    y 0.000000 1.993240 0.000000 
#    z 0.000000 0.000000 1.984570 
# 
# From -- ./inp_files/4383.got.cif
#   From: 2010.03.12/outbox.cif.g09.slc.cpg/sg29_3_cif.got.tgz:4383.got - 2010.04.14 03:43:10.
