data_PCOD8169555
_publ_section_title
;
Structure prediction by ZEFSAII (Michael W. Deem and Ramdas Pophale) SiO2 
 PCOD8169555
Probable space group: P N C 2
;
_chemical_formula_sum "Si O2"
_cell_formula_units_Z 30
_cell_length_a 11.813096
_cell_length_b 8.294193
_cell_length_c 14.466711
_cell_angle_alpha 90.000000
_cell_angle_beta 90.000000
_cell_angle_gamma 90.000000
_cell_volume 1417.449764
_symmetry_space_group_name_H-M "P N C 2"
_symmetry_group_IT_number 30
_symmetry_cell_setting 'orthorhombic'
loop_
_space_group_symop_operation_xyz
x,y,z
-x,-y,z
-x,1/2+y,1/2+z
x,1/2-y,1/2+z
loop_
_atom_site_type_symbol
_atom_site_label
_atom_site_fract_x
_atom_site_fract_y
_atom_site_fract_z
Si Si1 0.340149 0.377319 0.395460
Si Si2 0.114232 0.587259 0.774462
Si Si3 0.570946 0.306937 0.466392
Si Si4 0.500000 0.500000 0.636155
Si Si5 0.956690 0.318390 0.113018
Si Si6 0.294786 0.322233 0.716651
Si Si7 0.812082 0.739617 0.034021
Si Si8 0.782553 0.392465 0.963217
O O1 0.442983 0.264825 0.434878
O O2 0.380625 0.562726 0.391781
O O3 0.299116 0.309235 0.297815
O O4 0.236301 0.380501 0.468906
O O5 0.082106 0.731889 0.705948
O O6 0.200818 0.459714 0.730431
O O7 0.168273 0.666961 0.865361
O O8 0.000000 0.500000 0.805472
O O9 0.571211 0.380826 0.569830
O O10 0.649612 0.150122 0.467352
O O11 0.416764 0.403780 0.703969
O O12 0.000000 0.500000 0.134396
O O13 0.058648 0.223410 0.062253
O O14 0.849259 0.308802 0.046314
O O15 0.262680 0.220133 0.626170
O O16 0.797743 0.583098 0.969926
#
# Coordination Sequence:
#
# PCOD8169555 Si02
#       8
#     4   4   4   2   4   4   4   4
#     4  10  23  42  65  95 130 174 216 280 325 404
#     4  12  24  43  69  97 128 177 221 271 332 401
#     4  10  22  46  62  91 138 169 222 272 336 399
#     4  10  22  42  66  94 132 170 220 280 328 396
#     4  10  24  42  65  97 135 167 218 277 327 392
#     4  12  23  40  71  97 132 176 227 275 340 400
#     4  11  21  43  65  92 133 171 215 277 330 391
#     4  11  25  42  67  96 132 172 218 275 332 400
#
# _framework density 21.164770999999998
#
# number of rings (size 3 to 8) (size 9 to 14) (size 15 to 20)
#    0.000    1.333    5.333    2.000    1.867    2.667 
#    4.800    0.667    0.000    0.000    0.000    0.000 
#    0.000    0.000    0.000    0.000    0.000    0.000 
#
# Total GULP energy -371988.385876 kJ/mol
# GULP energy per Si atom -12399.612863 kJ/mol
# Density = 2.111660 g / cm^3
# Si number density = 21.164771 Si / 1000 Ang^3
#
#
#
# Elastic Constant Matrix: (Units=GPa)
#
#
# Indices 1 2 3 4 5 6 
#
# 1 79.5245 14.8052 4.9512 0.0000 0.0000 0.0000
# 2 14.8052 38.3861 19.6571 0.0000 0.0000 0.0000
# 3 4.9512 19.6571 95.8034 0.0000 0.0000 0.0000
# 4 0.0000 0.0000 0.0000 32.6291 0.0000 0.0000
# 5 0.0000 0.0000 0.0000 0.0000 27.5175 0.0000
# 6 0.0000 0.0000 0.0000 0.0000 0.0000 40.2383
#
#
#
# Elastic Compliance Matrix: (Units=1/GPa)
#
#
# Indices 1 2 3 4 5 6 
#
# 1 0.013562 -0.005444 0.000416 0.000000 0.000000 0.000000
# 2 -0.005444 0.031295 -0.006140 0.000000 0.000000 0.000000
# 3 0.000416 -0.006140 0.011676 0.000000 0.000000 0.000000
# 4 0.000000 0.000000 0.000000 0.030648 0.000000 0.000000
# 5 0.000000 0.000000 0.000000 0.000000 0.036341 0.000000
# 6 0.000000 0.000000 0.000000 0.000000 0.000000 0.024852
#
#
# Mechanical properties :
#
#
# Convention : Reuss Voigt Hill
#
# Bulk Modulus (GPa) = 29.24127 32.50455 30.87291
# Shear Modulus (GPa) = 27.45622 31.69702 29.57662
#
# Velocity S-wave (km/s) = 3.60566 3.87412 3.74230
# Velocity P-wave (km/s) = 5.58394 5.95004 5.76989
#
# Compressibility (1/GPa) = 0.03419824
#
# Stress axis : x y z
#
# Youngs Moduli (GPa) = 73.73363 31.95415 85.64357
#
# Poissons Ratio (x) = 0.17396 -0.03563
# Poissons Ratio (y) = 0.40140 0.52583
# Poissons Ratio (z) = -0.03068 0.19619
#
# Static dielectric constant tensor:
#      x y z
#    x 4.113090 0.000000 0.000000 
#    y 0.000000 3.537270 0.000000 
#    z 0.000000 0.000000 3.796460 
# 
# 
# High freq. dielectric constant tensor:
#      x y z
#    x 1.846370 0.000000 0.000000 
#    y 0.000000 1.804790 0.000000 
#    z 0.000000 0.000000 1.833670 
# 
# From -- ./inp_files/5492.got.cif
#   From: 2010.03.12/outbox.cif.g09.slc.cpg/sg30_3_cif.got.tgz:5492.got - 2010.04.14 01:38:02.
