data_PCOD8169722
_publ_section_title
;
Structure prediction by ZEFSAII (Michael W. Deem and Ramdas Pophale) SiO2 
 PCOD8169722
Probable space group: P M N 21
;
_chemical_formula_sum "Si O2"
_cell_formula_units_Z 32
_cell_length_a 9.132765
_cell_length_b 11.838660
_cell_length_c 14.437994
_cell_angle_alpha 90.000000
_cell_angle_beta 90.000000
_cell_angle_gamma 90.000000
_cell_volume 1561.031575
_symmetry_space_group_name_H-M "P M N 21"
_symmetry_group_IT_number 31
_symmetry_cell_setting 'orthorhombic'
loop_
_space_group_symop_operation_xyz
x,y,z
1/2-x,-y,1/2+z
-x,y,z
1/2+x,-y,1/2+z
loop_
_atom_site_type_symbol
_atom_site_label
_atom_site_fract_x
_atom_site_fract_y
_atom_site_fract_z
Si Si1 0.667025 0.132914 0.301790
Si Si2 0.172959 0.275774 0.170670
Si Si3 0.672417 0.316536 0.722217
Si Si4 0.670394 0.495480 0.575606
Si Si5 0.326481 0.910703 0.187519
Si Si6 0.334988 0.412386 0.911060
Si Si7 0.330774 0.039332 0.496607
Si Si8 0.332050 0.174304 0.005632
O O1 0.500000 0.158829 0.274074
O O2 0.768542 0.239343 0.271753
O O3 0.683010 0.127915 0.412757
O O4 0.717477 0.016078 0.252388
O O5 0.222014 0.402002 0.142364
O O6 0.254797 0.187135 0.104658
O O7 0.000000 0.260388 0.164421
O O8 0.500000 0.287039 0.728449
O O9 0.711344 0.377893 0.625157
O O10 0.764779 0.203167 0.734580
O O11 0.713017 0.406838 0.803602
O O12 0.500000 0.505652 0.558345
O O13 0.741618 0.501981 0.473731
O O14 0.500000 0.899771 0.177232
O O15 0.254664 0.917831 0.086349
O O16 0.500000 0.455680 0.920560
O O17 0.316230 0.284906 0.945091
O O18 0.500000 0.018036 0.522203
O O19 0.256240 0.925844 0.456124
O O20 0.500000 0.139247 0.021808
#
# Coordination Sequence:
#
# PCOD8169722 Si02
#       8
#     4   4   4   4   4   4   4   4
#     4  10  22  38  56  82 118 152 186 235 288 342
#     4  10  19  33  56  81 107 145 189 232 285 339
#     4  10  21  40  61  83 118 156 192 237 291 347
#     4   9  20  38  59  84 115 148 189 243 290 337
#     4  11  23  39  59  86 119 153 191 240 287 340
#     4   9  19  35  59  87 113 150 196 240 287 341
#     4  11  22  36  55  82 116 156 190 227 289 350
#     4  10  18  31  53  81 112 144 187 240 283 330
#
# _framework density 20.499265000000001
#
# number of rings (size 3 to 8) (size 9 to 14) (size 15 to 20)
#    0.000    2.000    1.250    2.250    0.000    3.500 
#    2.250    0.000    0.000    0.000    0.000    0.000 
#    0.000    0.000    0.000    0.000    0.000    0.000 
#
# Total GULP energy -396736.168180 kJ/mol
# GULP energy per Si atom -12398.005256 kJ/mol
# Density = 2.045261 g / cm^3
# Si number density = 20.499265 Si / 1000 Ang^3
#
#
#
# Elastic Constant Matrix: (Units=GPa)
#
#
# Indices 1 2 3 4 5 6 
#
# 1 75.3673 17.3113 25.8552 0.0000 0.0000 0.0000
# 2 17.3113 34.8670 4.2019 0.0000 0.0000 0.0000
# 3 25.8552 4.2019 83.4826 0.0000 0.0000 0.0000
# 4 0.0000 0.0000 0.0000 24.3897 0.0000 0.0000
# 5 0.0000 0.0000 0.0000 0.0000 34.0011 0.0000
# 6 0.0000 0.0000 0.0000 0.0000 0.0000 24.8093
#
#
#
# Elastic Compliance Matrix: (Units=1/GPa)
#
#
# Indices 1 2 3 4 5 6 
#
# 1 0.016677 -0.007704 -0.004777 0.000000 0.000000 0.000000
# 2 -0.007704 0.032415 0.000755 0.000000 0.000000 0.000000
# 3 -0.004777 0.000755 0.013420 0.000000 0.000000 0.000000
# 4 0.000000 0.000000 0.000000 0.041001 0.000000 0.000000
# 5 0.000000 0.000000 0.000000 0.000000 0.029411 0.000000
# 6 0.000000 0.000000 0.000000 0.000000 0.000000 0.040308
#
#
# Mechanical properties :
#
#
# Convention : Reuss Voigt Hill
#
# Bulk Modulus (GPa) = 25.60309 32.05041 28.82675
# Shear Modulus (GPa) = 23.84318 26.39660 25.11989
#
# Velocity S-wave (km/s) = 3.41416 3.59233 3.50438
# Velocity P-wave (km/s) = 5.29706 5.73369 5.51970
#
# Compressibility (1/GPa) = 0.03905778
#
# Stress axis : x y z
#
# Youngs Moduli (GPa) = 59.96356 30.85032 74.51509
#
# Poissons Ratio (x) = 0.23768 0.35597
# Poissons Ratio (y) = 0.46197 -0.05623
# Poissons Ratio (z) = 0.28646 -0.02328
#
# Static dielectric constant tensor:
#      x y z
#    x 3.698570 0.000000 0.000000 
#    y 0.000000 3.601800 0.000000 
#    z 0.000000 0.000000 3.797980 
# 
# 
# High freq. dielectric constant tensor:
#      x y z
#    x 1.798860 0.000000 0.000000 
#    y 0.000000 1.785730 0.000000 
#    z 0.000000 0.000000 1.805000 
# 
# From -- ./inp_files/4968.got.cif
#   From: 2010.03.12/outbox.cif.g09.slc.cpg/sg31_3_cif.got.tgz:4968.got - 2010.04.14 01:42:59.
