data_PCOD8169611
_publ_section_title
;
Structure prediction by ZEFSAII (Michael W. Deem and Ramdas Pophale) SiO2 
 PCOD8169611
Probable space group: P N C 2
;
_chemical_formula_sum "Si O2"
_cell_formula_units_Z 24
_cell_length_a 9.477238
_cell_length_b 8.169382
_cell_length_c 14.219668
_cell_angle_alpha 90.000000
_cell_angle_beta 90.000000
_cell_angle_gamma 90.000000
_cell_volume 1100.931880
_symmetry_space_group_name_H-M "P N C 2"
_symmetry_group_IT_number 30
_symmetry_cell_setting 'orthorhombic'
loop_
_space_group_symop_operation_xyz
x,y,z
-x,-y,z
-x,1/2+y,1/2+z
x,1/2-y,1/2+z
loop_
_atom_site_type_symbol
_atom_site_label
_atom_site_fract_x
_atom_site_fract_y
_atom_site_fract_z
Si Si1 0.867679 0.403109 0.210660
Si Si2 0.964960 0.189885 0.380239
Si Si3 0.380914 0.123069 0.778547
Si Si4 0.538684 0.820565 0.095311
Si Si5 0.736232 0.784128 0.451634
Si Si6 0.726176 0.347545 0.020843
O O1 0.931748 0.267476 0.279905
O O2 0.764325 0.526190 0.264402
O O3 0.788558 0.318544 0.124711
O O4 0.000000 0.500000 0.167048
O O5 0.830292 0.230894 0.444533
O O6 0.101688 0.264313 0.432122
O O7 0.000000 0.000000 0.364112
O O8 0.438911 0.203197 0.683589
O O9 0.352661 0.263627 0.855411
O O10 0.500000 0.000000 0.816927
O O11 0.423474 0.743647 0.023484
O O12 0.500000 0.000000 0.132714
O O13 0.680695 0.837924 0.032944
O O14 0.708753 0.963463 0.493727
#
# Coordination Sequence:
#
# PCOD8169611 Si02
#       6
#     4   4   4   4   4   4
#     4  12  23  46  73  98 143 185 231 295 355 430
#     4  10  25  43  70 105 135 187 238 288 360 425
#     4  12  25  46  72 103 140 189 239 293 368 428
#     4  12  27  44  67 104 140 189 240 294 364 433
#     4  11  23  45  71 100 140 183 240 292 354 431
#     4  11  25  47  72  99 144 187 235 297 365 423
#
# _framework density 21.799714000000002
#
# number of rings (size 3 to 8) (size 9 to 14) (size 15 to 20)
#    0.000    0.667    5.000    2.500    4.667    4.000 
#    0.000    0.833    0.000    0.000    0.000    0.000 
#    0.000    0.000    0.000    0.000    0.000    0.000 
#
# Total GULP energy -297643.473942 kJ/mol
# GULP energy per Si atom -12401.811414 kJ/mol
# Density = 2.175010 g / cm^3
# Si number density = 21.799714 Si / 1000 Ang^3
#
#
#
# Elastic Constant Matrix: (Units=GPa)
#
#
# Indices 1 2 3 4 5 6 
#
# 1 104.1475 35.2921 22.8360 0.0000 0.0000 0.0000
# 2 35.2921 66.0677 29.9851 0.0000 0.0000 0.0000
# 3 22.8360 29.9851 96.1189 0.0000 0.0000 0.0000
# 4 0.0000 0.0000 0.0000 39.9715 0.0000 0.0000
# 5 0.0000 0.0000 0.0000 0.0000 44.5559 0.0000
# 6 0.0000 0.0000 0.0000 0.0000 0.0000 35.2386
#
#
#
# Elastic Compliance Matrix: (Units=1/GPa)
#
#
# Indices 1 2 3 4 5 6 
#
# 1 0.011802 -0.005862 -0.000975 0.000000 0.000000 0.000000
# 2 -0.005862 0.020544 -0.005016 0.000000 0.000000 0.000000
# 3 -0.000975 -0.005016 0.012200 0.000000 0.000000 0.000000
# 4 0.000000 0.000000 0.000000 0.025018 0.000000 0.000000
# 5 0.000000 0.000000 0.000000 0.000000 0.022444 0.000000
# 6 0.000000 0.000000 0.000000 0.000000 0.000000 0.028378
#
#
# Mechanical properties :
#
#
# Convention : Reuss Voigt Hill
#
# Bulk Modulus (GPa) = 47.98536 49.17339 48.57938
# Shear Modulus (GPa) = 33.10410 35.83459 34.46934
#
# Velocity S-wave (km/s) = 3.90109 4.05879 3.98072
# Velocity P-wave (km/s) = 6.50777 6.67615 6.59250
#
# Compressibility (1/GPa) = 0.02083969
#
# Stress axis : x y z
#
# Youngs Moduli (GPa) = 84.73164 48.67637 81.96493
#
# Poissons Ratio (x) = 0.28533 0.07994
# Poissons Ratio (y) = 0.49668 0.41115
# Poissons Ratio (z) = 0.08264 0.24417
#
# Static dielectric constant tensor:
#      x y z
#    x 4.372900 0.000000 0.000000 
#    y 0.000000 3.749480 0.000000 
#    z 0.000000 0.000000 3.905160 
# 
# 
# High freq. dielectric constant tensor:
#      x y z
#    x 1.878580 0.000000 0.000000 
#    y 0.000000 1.841410 0.000000 
#    z 0.000000 0.000000 1.863280 
# 
# From -- ./inp_files/5020.got.cif
#   From: 2010.03.12/outbox.cif.g09.slc.cpg/sg30_3_cif.got.tgz:5020.got - 2010.04.14 01:38:02.
