data_PCOD8169185
_publ_section_title
;
Structure prediction by ZEFSAII (Michael W. Deem and Ramdas Pophale) SiO2 
 PCOD8169185
Probable space group: P C A 21
;
_chemical_formula_sum "Si O2"
_cell_formula_units_Z 32
_cell_length_a 13.405393
_cell_length_b 11.865298
_cell_length_c 9.229822
_cell_angle_alpha 90.000000
_cell_angle_beta 90.000000
_cell_angle_gamma 90.000000
_cell_volume 1468.086098
_symmetry_space_group_name_H-M "P C A 21"
_symmetry_group_IT_number 29
_symmetry_cell_setting 'orthorhombic'
loop_
_space_group_symop_operation_xyz
x,y,z
-x,-y,1/2+z
1/2-x,y,1/2+z
1/2+x,-y,z
loop_
_atom_site_type_symbol
_atom_site_label
_atom_site_fract_x
_atom_site_fract_y
_atom_site_fract_z
Si Si1 0.083384 0.619709 0.396280
Si Si2 0.814811 0.874854 0.644375
Si Si3 0.981530 0.043846 0.200306
Si Si4 0.583384 0.119709 0.396280
Si Si5 0.981531 0.456154 0.200305
Si Si6 0.292457 0.517815 0.363312
Si Si7 0.207543 0.982185 0.863314
Si Si8 0.314811 0.374853 0.644373
O O1 0.059051 0.750000 0.427627
O O2 0.052490 0.541921 0.532791
O O3 0.201230 0.605396 0.368473
O O4 0.019211 0.579274 0.256950
O O5 0.818867 0.967366 0.518600
O O6 0.732215 0.911878 0.759975
O O7 0.787960 0.750001 0.587909
O O8 0.924322 0.872354 0.719448
O O9 0.888240 0.083828 0.299049
O O10 0.947510 0.041921 0.032791
O O11 0.019209 0.920725 0.256951
O O12 0.701229 0.105395 0.368471
O O13 0.888241 0.416172 0.299048
O O14 0.075679 0.372353 0.219448
O O15 0.318869 0.467363 0.518596
O O16 0.267785 0.411881 0.259971
#
# Coordination Sequence:
#
# PCOD8169185 Si02
#       8
#     4   4   4   4   4   4   4   4
#     4  11  25  45  69  97 136 175 215 277 332 385
#     4  11  23  41  67  95 128 172 217 275 330 380
#     4  11  23  43  66  96 133 171 225 268 321 400
#     4  11  25  45  69  97 136 175 215 277 332 385
#     4  11  23  43  66  96 133 171 225 268 321 400
#     4  11  23  43  64  96 133 168 221 272 321 401
#     4  11  23  43  64  96 133 168 221 272 321 401
#     4  11  23  41  67  95 128 172 217 275 330 380
#
# _framework density 21.797087999999999
#
# number of rings (size 3 to 8) (size 9 to 14) (size 15 to 20)
#    0.000    1.000    5.000    1.500    0.000    3.000 
#    0.000    2.500    0.000    0.000    0.000    0.000 
#    0.000    0.000    0.000    0.000    0.000    0.000 
#
# Total GULP energy -396717.688717 kJ/mol
# GULP energy per Si atom -12397.427772 kJ/mol
# Density = 2.174748 g / cm^3
# Si number density = 21.797088 Si / 1000 Ang^3
#
#
#
# Elastic Constant Matrix: (Units=GPa)
#
#
# Indices 1 2 3 4 5 6 
#
# 1 124.4497 23.3121 45.2577 0.0000 0.0000 0.0000
# 2 23.3121 85.9545 51.2797 0.0000 0.0000 0.0000
# 3 45.2577 51.2797 112.2999 0.0000 0.0000 0.0000
# 4 0.0000 0.0000 0.0000 22.8413 0.0000 0.0000
# 5 0.0000 0.0000 0.0000 0.0000 45.3777 0.0000
# 6 0.0000 0.0000 0.0000 0.0000 0.0000 12.8617
#
#
#
# Elastic Compliance Matrix: (Units=1/GPa)
#
#
# Indices 1 2 3 4 5 6 
#
# 1 0.009425 -0.000399 -0.003616 0.000000 0.000000 0.000000
# 2 -0.000399 0.016007 -0.007149 0.000000 0.000000 0.000000
# 3 -0.003616 -0.007149 0.013626 0.000000 0.000000 0.000000
# 4 0.000000 0.000000 0.000000 0.043780 0.000000 0.000000
# 5 0.000000 0.000000 0.000000 0.000000 0.022037 0.000000
# 6 0.000000 0.000000 0.000000 0.000000 0.000000 0.077750
#
#
# Mechanical properties :
#
#
# Convention : Reuss Voigt Hill
#
# Bulk Modulus (GPa) = 59.76858 62.48925 61.12892
# Shear Modulus (GPa) = 23.74946 29.73978 26.74462
#
# Velocity S-wave (km/s) = 3.30445 3.69778 3.50663
# Velocity P-wave (km/s) = 6.48376 6.85290 6.67088
#
# Compressibility (1/GPa) = 0.01673120
#
# Stress axis : x y z
#
# Youngs Moduli (GPa) = 106.09852 62.47266 73.38683
#
# Poissons Ratio (x) = 0.02491 0.26539
# Poissons Ratio (y) = 0.04231 0.52461
# Poissons Ratio (z) = 0.38369 0.44659
#
# Static dielectric constant tensor:
#      x y z
#    x 4.318730 0.000000 0.000000 
#    y 0.000000 3.417460 0.000000 
#    z 0.000000 0.000000 3.961080 
# 
# 
# High freq. dielectric constant tensor:
#      x y z
#    x 1.884560 0.000000 0.000000 
#    y 0.000000 1.814120 0.000000 
#    z 0.000000 0.000000 1.859950 
# 
# From -- ./inp_files/1831.got.cif
#   From: 2010.03.12/outbox.cif.g09.slc.cpg/sg29_1_cif.got.tgz:1831.got - 2010.04.14 03:43:10.
