data_PCOD8169570
_publ_section_title
;
Structure prediction by ZEFSAII (Michael W. Deem and Ramdas Pophale) SiO2 
 PCOD8169570
Probable space group: P N C 2
;
_chemical_formula_sum "Si O2"
_cell_formula_units_Z 20
_cell_length_a 10.702881
_cell_length_b 8.328656
_cell_length_c 9.273480
_cell_angle_alpha 90.000000
_cell_angle_beta 90.000000
_cell_angle_gamma 90.000000
_cell_volume 826.643702
_symmetry_space_group_name_H-M "P N C 2"
_symmetry_group_IT_number 30
_symmetry_cell_setting 'orthorhombic'
loop_
_space_group_symop_operation_xyz
x,y,z
-x,-y,z
-x,1/2+y,1/2+z
x,1/2-y,1/2+z
loop_
_atom_site_type_symbol
_atom_site_label
_atom_site_fract_x
_atom_site_fract_y
_atom_site_fract_z
Si Si1 0.498445 0.811685 0.550580
Si Si2 0.995737 0.826422 0.877178
Si Si3 0.751993 0.867656 0.427287
Si Si4 0.855120 0.143010 0.605008
Si Si5 0.652068 0.157805 0.273853
O O1 0.632373 0.766962 0.482168
O O2 0.384838 0.789312 0.436031
O O3 0.474246 0.681766 0.678061
O O4 0.500000 0.000000 0.600337
O O5 0.857329 0.754679 0.875555
O O6 0.102559 0.720439 0.953056
O O7 0.000000 0.000000 0.955704
O O8 0.025313 0.853506 0.708589
O O9 0.807881 0.967186 0.562000
O O10 0.708434 0.978491 0.290664
O O11 0.747322 0.226467 0.695200
#
# Coordination Sequence:
#
# PCOD8169570 Si02
#       5
#     4   4   4   4   4
#     4  10  22  44  71 108 150 193 249 311 373 445
#     4  12  28  45  70 109 149 198 253 310 382 448
#     4  11  25  49  75 106 157 196 251 320 373 449
#     4  12  24  46  74 102 145 198 252 314 369 449
#     4  11  21  44  75 103 145 199 245 315 375 436
#
# _framework density 24.194219
#
# number of rings (size 3 to 8) (size 9 to 14) (size 15 to 20)
#    0.000    0.800    6.000    1.800    2.800    3.200 
#    7.200    3.000    0.000    0.000    0.000    0.000 
#    0.000    0.000    0.000    0.000    0.000    0.000 
#
# Total GULP energy -247865.455556 kJ/mol
# GULP energy per Si atom -12393.272778 kJ/mol
# Density = 2.413915 g / cm^3
# Si number density = 24.194219 Si / 1000 Ang^3
#
#
#
# Elastic Constant Matrix: (Units=GPa)
#
#
# Indices 1 2 3 4 5 6 
#
# 1 129.6765 71.4859 40.7030 0.0000 0.0000 0.0000
# 2 71.4859 97.8262 45.5789 0.0000 0.0000 0.0000
# 3 40.7030 45.5789 109.5260 0.0000 0.0000 0.0000
# 4 0.0000 0.0000 0.0000 26.6931 0.0000 0.0000
# 5 0.0000 0.0000 0.0000 0.0000 52.0865 0.0000
# 6 0.0000 0.0000 0.0000 0.0000 0.0000 52.8993
#
#
#
# Elastic Compliance Matrix: (Units=1/GPa)
#
#
# Indices 1 2 3 4 5 6 
#
# 1 0.013018 -0.009004 -0.001091 0.000000 0.000000 0.000000
# 2 -0.009004 0.018909 -0.004523 0.000000 0.000000 0.000000
# 3 -0.001091 -0.004523 0.011418 0.000000 0.000000 0.000000
# 4 0.000000 0.000000 0.000000 0.037463 0.000000 0.000000
# 5 0.000000 0.000000 0.000000 0.000000 0.019199 0.000000
# 6 0.000000 0.000000 0.000000 0.000000 0.000000 0.018904
#
#
# Mechanical properties :
#
#
# Convention : Reuss Voigt Hill
#
# Bulk Modulus (GPa) = 70.87602 72.50715 71.69159
# Shear Modulus (GPa) = 32.71206 38.28650 35.49928
#
# Velocity S-wave (km/s) = 3.68103 3.98234 3.83464
# Velocity P-wave (km/s) = 6.88657 7.15396 7.02154
#
# Compressibility (1/GPa) = 0.01410914
#
# Stress axis : x y z
#
# Youngs Moduli (GPa) = 76.81891 52.88374 87.58358
#
# Poissons Ratio (x) = 0.47619 0.09551
# Poissons Ratio (y) = 0.69171 0.39612
# Poissons Ratio (z) = 0.08377 0.23918
#
# Static dielectric constant tensor:
#      x y z
#    x 4.837100 0.000000 0.000000 
#    y 0.000000 4.123380 0.000000 
#    z 0.000000 0.000000 4.570620 
# 
# 
# High freq. dielectric constant tensor:
#      x y z
#    x 1.993560 0.000000 0.000000 
#    y 0.000000 1.933120 0.000000 
#    z 0.000000 0.000000 1.958980 
# 
# From -- ./inp_files/2285.got.cif
#   From: 2010.03.12/outbox.cif.g09.slc.cpg/sg30_2_cif.got.tgz:2285.got - 2010.04.14 01:38:02.
