data_PCOD8169518
_publ_section_title
;
Structure prediction by ZEFSAII (Michael W. Deem and Ramdas Pophale) SiO2 
 PCOD8169518
Probable space group: P N C 2
;
_chemical_formula_sum "Si O2"
_cell_formula_units_Z 32
_cell_length_a 11.208074
_cell_length_b 8.409019
_cell_length_c 15.052321
_cell_angle_alpha 90.000000
_cell_angle_beta 90.000000
_cell_angle_gamma 90.000000
_cell_volume 1418.664805
_symmetry_space_group_name_H-M "P N C 2"
_symmetry_group_IT_number 30
_symmetry_cell_setting 'orthorhombic'
loop_
_space_group_symop_operation_xyz
x,y,z
-x,-y,z
-x,1/2+y,1/2+z
x,1/2-y,1/2+z
loop_
_atom_site_type_symbol
_atom_site_label
_atom_site_fract_x
_atom_site_fract_y
_atom_site_fract_z
Si Si1 0.434089 0.242287 0.993330
Si Si2 0.678018 0.087991 0.950784
Si Si3 0.704674 0.266076 0.270645
Si Si4 0.466194 0.180290 0.185045
Si Si5 0.934156 0.340931 0.507425
Si Si6 0.046618 0.167347 0.349633
Si Si7 0.309295 0.086499 0.346153
Si Si8 0.047367 0.670658 0.184321
O O1 0.573248 0.208340 0.977916
O O2 0.394180 0.393961 0.933377
O O3 0.353772 0.094292 0.964753
O O4 0.413523 0.271541 0.098818
O O5 0.706076 0.101297 0.846626
O O6 0.792141 0.134108 0.009859
O O7 0.582655 0.275797 0.215888
O O8 0.812323 0.310420 0.205288
O O9 0.714241 0.095230 0.319529
O O10 0.369499 0.178606 0.263543
O O11 0.500000 0.000000 0.156297
O O12 0.980657 0.290196 0.603924
O O13 0.000000 0.500000 0.477155
O O14 0.967862 0.207572 0.435566
O O15 0.185631 0.167845 0.372806
O O16 0.029395 0.292004 0.270995
O O17 0.000000 0.000000 0.312559
O O18 0.000000 0.500000 0.152097
#
# Coordination Sequence:
#
# PCOD8169518 Si02
#       8
#     4   4   4   4   4   4   4   4
#     4  11  23  40  71 100 140 172 239 288 356 433
#     4  11  22  42  70  99 135 188 223 294 355 424
#     4  11  23  45  74  97 145 183 232 293 359 419
#     4  10  21  41  68 102 137 183 233 288 358 427
#     4  12  26  44  71 101 140 193 244 293 363 431
#     4  12  24  45  68 101 144 186 233 295 353 430
#     4  11  24  40  72 101 137 187 231 293 352 429
#     4  12  27  45  70 101 141 191 240 299 360 433
#
# _framework density 22.556419000000002
#
# number of rings (size 3 to 8) (size 9 to 14) (size 15 to 20)
#    0.000    0.750    5.000    2.625    3.500    1.000 
#    0.000    0.000    5.500    0.000    0.000    0.000 
#    0.000    0.000    0.000    0.000    0.000    0.000 
#
# Total GULP energy -396921.020582 kJ/mol
# GULP energy per Si atom -12403.781893 kJ/mol
# Density = 2.250508 g / cm^3
# Si number density = 22.556419 Si / 1000 Ang^3
#
#
#
# Elastic Constant Matrix: (Units=GPa)
#
#
# Indices 1 2 3 4 5 6 
#
# 1 142.9695 39.7176 29.0245 0.0000 0.0000 0.0000
# 2 39.7176 64.5707 22.7457 0.0000 0.0000 0.0000
# 3 29.0245 22.7457 135.3329 0.0000 0.0000 0.0000
# 4 0.0000 0.0000 0.0000 21.8359 0.0000 0.0000
# 5 0.0000 0.0000 0.0000 0.0000 19.2893 0.0000
# 6 0.0000 0.0000 0.0000 0.0000 0.0000 30.8282
#
#
#
# Elastic Compliance Matrix: (Units=1/GPa)
#
#
# Indices 1 2 3 4 5 6 
#
# 1 0.008564 -0.004912 -0.001011 0.000000 0.000000 0.000000
# 2 -0.004912 0.019278 -0.002187 0.000000 0.000000 0.000000
# 3 -0.001011 -0.002187 0.007974 0.000000 0.000000 0.000000
# 4 0.000000 0.000000 0.000000 0.045796 0.000000 0.000000
# 5 0.000000 0.000000 0.000000 0.000000 0.051842 0.000000
# 6 0.000000 0.000000 0.000000 0.000000 0.000000 0.032438
#
#
# Mechanical properties :
#
#
# Convention : Reuss Voigt Hill
#
# Bulk Modulus (GPa) = 51.02852 58.42765 54.72808
# Shear Modulus (GPa) = 26.50494 31.14970 28.82732
#
# Velocity S-wave (km/s) = 3.43162 3.72017 3.57880
# Velocity P-wave (km/s) = 6.19460 6.66423 6.43370
#
# Compressibility (1/GPa) = 0.01959688
#
# Stress axis : x y z
#
# Youngs Moduli (GPa) = 116.76395 51.87153 125.41385
#
# Poissons Ratio (x) = 0.25478 0.12682
# Poissons Ratio (y) = 0.57351 0.27425
# Poissons Ratio (z) = 0.11808 0.11343
#
# Static dielectric constant tensor:
#      x y z
#    x 4.192180 0.000000 0.000000 
#    y 0.000000 3.811750 0.000000 
#    z 0.000000 0.000000 4.097400 
# 
# 
# High freq. dielectric constant tensor:
#      x y z
#    x 1.899990 0.000000 0.000000 
#    y 0.000000 1.872650 0.000000 
#    z 0.000000 0.000000 1.897520 
# 
# From -- ./inp_files/5516.got.cif
#   From: 2010.03.12/outbox.cif.g09.slc.cpg/sg30_3_cif.got.tgz:5516.got - 2010.04.14 01:38:02.
