data_PCOD8169685
_publ_section_title
;
Structure prediction by ZEFSAII (Michael W. Deem and Ramdas Pophale) SiO2 
 PCOD8169685
Probable space group: P M N 21
;
_chemical_formula_sum "Si O2"
_cell_formula_units_Z 32
_cell_length_a 9.092868
_cell_length_b 9.627650
_cell_length_c 21.510468
_cell_angle_alpha 90.000000
_cell_angle_beta 90.000000
_cell_angle_gamma 90.000000
_cell_volume 1883.089838
_symmetry_space_group_name_H-M "P M N 21"
_symmetry_group_IT_number 31
_symmetry_cell_setting 'orthorhombic'
loop_
_space_group_symop_operation_xyz
x,y,z
1/2-x,-y,1/2+z
-x,y,z
1/2+x,-y,1/2+z
loop_
_atom_site_type_symbol
_atom_site_label
_atom_site_fract_x
_atom_site_fract_y
_atom_site_fract_z
Si Si1 0.171098 0.103276 0.805230
Si Si2 0.330604 0.834394 0.824975
Si Si3 0.170311 0.701048 0.393169
Si Si4 0.167481 0.693796 0.073062
Si Si5 0.829472 0.251524 0.457886
Si Si6 0.328848 0.671865 0.201354
Si Si7 0.167963 0.486293 0.973039
Si Si8 0.329672 0.525349 0.788464
O O1 0.258054 0.160667 0.865115
O O2 0.203652 0.196862 0.745261
O O3 0.000000 0.099109 0.821366
O O4 0.230366 0.948777 0.791059
O O5 0.500000 0.859182 0.806896
O O6 0.310174 0.852032 0.899788
O O7 0.279386 0.682337 0.802518
O O8 0.252062 0.660562 0.458202
O O9 0.200660 0.573944 0.346694
O O10 0.000000 0.729793 0.406203
O O11 0.254168 0.706052 0.136361
O O12 0.000000 0.742025 0.083155
O O13 0.243079 0.795547 0.020889
O O14 0.173861 0.534272 0.045900
O O15 0.759871 0.397613 0.434650
O O16 0.000000 0.274148 0.474151
O O17 0.500000 0.647887 0.190483
O O18 0.262501 0.531031 0.229923
O O19 0.000000 0.480149 0.949352
O O20 0.500000 0.520129 0.770002
#
# Coordination Sequence:
#
# PCOD8169685 Si02
#       8
#     4   4   4   4   4   4   4   4
#     4  10  22  34  47  72 105 137 168 207 251 295
#     4  10  19  33  51  75 102 133 169 202 249 304
#     4  10  17  30  50  72  98 130 161 197 246 294
#     4   9  18  30  48  74  99 127 163 205 250 295
#     4   9  16  29  49  74  99 125 160 201 242 292
#     4  10  20  33  49  72  99 131 169 206 247 296
#     4   9  17  27  45  74 100 123 155 199 246 290
#     4   9  17  30  49  71  96 124 161 203 243 290
#
# _framework density 16.993347
#
# number of rings (size 3 to 8) (size 9 to 14) (size 15 to 20)
#    0.750    1.750    1.250    1.875    0.000    3.500 
#    0.000    0.000    0.000    1.500    0.000    7.000 
#    0.000    0.000    0.000    0.000    0.000    0.000 
#
# Total GULP energy -396497.177784 kJ/mol
# GULP energy per Si atom -12390.536806 kJ/mol
# Density = 1.695467 g / cm^3
# Si number density = 16.993347 Si / 1000 Ang^3
#
#
#
# Elastic Constant Matrix: (Units=GPa)
#
#
# Indices 1 2 3 4 5 6 
#
# 1 99.7288 41.7495 42.7955 0.0000 0.0000 0.0000
# 2 41.7495 80.6856 23.9323 0.0000 0.0000 0.0000
# 3 42.7955 23.9323 68.1575 0.0000 0.0000 0.0000
# 4 0.0000 0.0000 0.0000 13.5626 0.0000 0.0000
# 5 0.0000 0.0000 0.0000 0.0000 30.3319 0.0000
# 6 0.0000 0.0000 0.0000 0.0000 0.0000 27.6519
#
#
#
# Elastic Compliance Matrix: (Units=1/GPa)
#
#
# Indices 1 2 3 4 5 6 
#
# 1 0.015878 -0.005870 -0.007909 0.000000 0.000000 0.000000
# 2 -0.005870 0.016005 -0.001934 0.000000 0.000000 0.000000
# 3 -0.007909 -0.001934 0.020317 0.000000 0.000000 0.000000
# 4 0.000000 0.000000 0.000000 0.073732 0.000000 0.000000
# 5 0.000000 0.000000 0.000000 0.000000 0.032969 0.000000
# 6 0.000000 0.000000 0.000000 0.000000 0.000000 0.036164
#
#
# Mechanical properties :
#
#
# Convention : Reuss Voigt Hill
#
# Bulk Modulus (GPa) = 48.13642 51.72517 49.93080
# Shear Modulus (GPa) = 21.42104 23.64891 22.53498
#
# Velocity S-wave (km/s) = 3.55428 3.73454 3.64552
# Velocity P-wave (km/s) = 6.72547 7.00716 6.86776
#
# Compressibility (1/GPa) = 0.02077429
#
# Stress axis : x y z
#
# Youngs Moduli (GPa) = 62.97859 62.48097 49.22043
#
# Poissons Ratio (x) = 0.36678 0.38927
# Poissons Ratio (y) = 0.36970 0.09519
# Poissons Ratio (z) = 0.49808 0.12084
#
# Static dielectric constant tensor:
#      x y z
#    x 3.244270 0.000000 0.000000 
#    y 0.000000 2.946750 0.000000 
#    z 0.000000 0.000000 2.989380 
# 
# 
# High freq. dielectric constant tensor:
#      x y z
#    x 1.671710 0.000000 0.000000 
#    y 0.000000 1.623450 0.000000 
#    z 0.000000 0.000000 1.633570 
# 
# From -- ./inp_files/6489.got.cif
#   From: 2010.03.12/outbox.cif.g09.slc.cpg/sg31_4_cif.got.tgz:6489.got - 2010.04.14 01:42:59.
