data_PCOD8169506
_publ_section_title
;
Structure prediction by ZEFSAII (Michael W. Deem and Ramdas Pophale) SiO2 
 PCOD8169506
Probable space group: P N C 2
;
_chemical_formula_sum "Si O2"
_cell_formula_units_Z 22
_cell_length_a 14.196539
_cell_length_b 6.667757
_cell_length_c 10.389324
_cell_angle_alpha 90.000000
_cell_angle_beta 90.000000
_cell_angle_gamma 90.000000
_cell_volume 983.443772
_symmetry_space_group_name_H-M "P N C 2"
_symmetry_group_IT_number 30
_symmetry_cell_setting 'orthorhombic'
loop_
_space_group_symop_operation_xyz
x,y,z
-x,-y,z
-x,1/2+y,1/2+z
x,1/2-y,1/2+z
loop_
_atom_site_type_symbol
_atom_site_label
_atom_site_fract_x
_atom_site_fract_y
_atom_site_fract_z
Si Si1 0.585091 0.604560 0.027070
Si Si2 0.765398 0.739251 0.166763
Si Si3 0.650507 0.417457 0.779373
Si Si4 0.176551 0.654138 0.281600
Si Si5 0.893175 0.065770 0.055661
Si Si6 0.500000 0.500000 0.574088
O O1 0.500000 0.500000 0.110529
O O2 0.685086 0.609957 0.096078
O O3 0.552447 0.831545 0.989081
O O4 0.590741 0.454373 0.906733
O O5 0.830306 0.579301 0.241357
O O6 0.718112 0.888788 0.268156
O O7 0.827779 0.868007 0.066989
O O8 0.713966 0.218936 0.790514
O O9 0.580142 0.393013 0.660238
O O10 0.121896 0.786927 0.176522
O O11 0.129949 0.680137 0.422286
O O12 0.000000 0.000000 0.054818
#
# Coordination Sequence:
#
# PCOD8169506 Si02
#       6
#     4   4   4   4   4   2
#     4  11  21  37  62  94 135 182 231 279 338 413
#     4  10  23  42  66 100 135 180 227 290 351 415
#     4  10  21  40  61  96 132 180 234 275 343 409
#     4  11  24  47  73  99 143 182 224 298 354 421
#     4  11  27  46  72 107 135 180 238 288 361 429
#     4  10  22  38  54  94 136 172 232 282 330 402
#
# _framework density 22.370367999999999
#
# number of rings (size 3 to 8) (size 9 to 14) (size 15 to 20)
#    0.000    1.455    0.909    3.273    2.545    5.818 
#    6.545    0.000    0.000    0.000    0.000    0.000 
#    0.000    0.000    0.000    0.000    0.000    0.000 
#
# Total GULP energy -272758.971709 kJ/mol
# GULP energy per Si atom -12398.135078 kJ/mol
# Density = 2.231945 g / cm^3
# Si number density = 22.370368 Si / 1000 Ang^3
#
#
#
# Elastic Constant Matrix: (Units=GPa)
#
#
# Indices 1 2 3 4 5 6 
#
# 1 134.0446 32.7169 42.3481 0.0000 0.0000 0.0000
# 2 32.7169 84.9151 39.6687 0.0000 0.0000 0.0000
# 3 42.3481 39.6687 117.7082 0.0000 0.0000 0.0000
# 4 0.0000 0.0000 0.0000 32.7021 0.0000 0.0000
# 5 0.0000 0.0000 0.0000 0.0000 19.8542 0.0000
# 6 0.0000 0.0000 0.0000 0.0000 0.0000 38.0828
#
#
#
# Elastic Compliance Matrix: (Units=1/GPa)
#
#
# Indices 1 2 3 4 5 6 
#
# 1 0.008768 -0.002260 -0.002393 0.000000 0.000000 0.000000
# 2 -0.002260 0.014560 -0.004094 0.000000 0.000000 0.000000
# 3 -0.002393 -0.004094 0.010736 0.000000 0.000000 0.000000
# 4 0.000000 0.000000 0.000000 0.030579 0.000000 0.000000
# 5 0.000000 0.000000 0.000000 0.000000 0.050367 0.000000
# 6 0.000000 0.000000 0.000000 0.000000 0.000000 0.026259
#
#
# Mechanical properties :
#
#
# Convention : Reuss Voigt Hill
#
# Bulk Modulus (GPa) = 60.34883 62.90391 61.62637
# Shear Modulus (GPa) = 30.43498 32.92346 31.67922
#
# Velocity S-wave (km/s) = 3.69250 3.84049 3.76723
# Velocity P-wave (km/s) = 6.72422 6.91710 6.82134
#
# Compressibility (1/GPa) = 0.01657033
#
# Stress axis : x y z
#
# Youngs Moduli (GPa) = 114.05364 68.68277 93.14521
#
# Poissons Ratio (x) = 0.15525 0.22286
# Poissons Ratio (y) = 0.25781 0.38129
# Poissons Ratio (z) = 0.27289 0.28115
#
# Static dielectric constant tensor:
#      x y z
#    x 4.084130 0.000000 0.000000 
#    y 0.000000 4.082840 0.000000 
#    z 0.000000 0.000000 3.793450 
# 
# 
# High freq. dielectric constant tensor:
#      x y z
#    x 1.886920 0.000000 0.000000 
#    y 0.000000 1.889380 0.000000 
#    z 0.000000 0.000000 1.861180 
# 
# From -- ./inp_files/4281.got.cif
#   From: 2010.03.12/outbox.cif.g09.slc.cpg/sg30_3_cif.got.tgz:4281.got - 2010.04.14 01:38:02.
