data_PCOD8169610
_publ_section_title
;
Structure prediction by ZEFSAII (Michael W. Deem and Ramdas Pophale) SiO2 
 PCOD8169610
Probable space group: P N C 2
;
_chemical_formula_sum "Si O2"
_cell_formula_units_Z 14
_cell_length_a 4.915816
_cell_length_b 10.042256
_cell_length_c 10.542322
_cell_angle_alpha 90.000000
_cell_angle_beta 90.000000
_cell_angle_gamma 90.000000
_cell_volume 520.431031
_symmetry_space_group_name_H-M "P N C 2"
_symmetry_group_IT_number 30
_symmetry_cell_setting 'orthorhombic'
loop_
_space_group_symop_operation_xyz
x,y,z
-x,-y,z
-x,1/2+y,1/2+z
x,1/2-y,1/2+z
loop_
_atom_site_type_symbol
_atom_site_label
_atom_site_fract_x
_atom_site_fract_y
_atom_site_fract_z
Si Si1 0.560506 0.145675 0.427220
Si Si2 0.933688 0.713789 0.767770
Si Si3 0.315340 0.609466 0.564633
Si Si4 0.000000 0.000000 0.839869
O O1 0.871461 0.164727 0.382470
O O2 0.510913 0.254265 0.539314
O O3 0.370958 0.169371 0.303573
O O4 0.500000 0.000000 0.484579
O O5 0.036201 0.641707 0.639797
O O6 0.931034 0.873897 0.750754
O O7 0.500000 0.500000 0.638928
O O8 0.249505 0.542940 0.429242
#
# Coordination Sequence:
#
# PCOD8169610 Si02
#       4
#     4   4   4   2
#     4  11  25  46  70 109 149 188 259 320 366 466
#     4  11  25  44  75 106 147 199 257 307 387 455
#     4  11  24  46  76 103 155 207 248 314 397 446
#     4  10  24  48  68 110 154 186 260 318 362 478
#
# _framework density 26.900777000000001
#
# number of rings (size 3 to 8) (size 9 to 14) (size 15 to 20)
#    0.000    1.143    2.857    1.714    8.000    0.000 
#   15.429    0.000    0.000    0.000    0.000    0.000 
#    0.000    0.000    0.000    0.000    0.000    0.000 
#
# Total GULP energy -173625.611958 kJ/mol
# GULP energy per Si atom -12401.829426 kJ/mol
# Density = 2.683955 g / cm^3
# Si number density = 26.900777 Si / 1000 Ang^3
#
#
#
# Elastic Constant Matrix: (Units=GPa)
#
#
# Indices 1 2 3 4 5 6 
#
# 1 79.5027 24.0358 1.7751 0.0000 0.0000 0.0000
# 2 24.0358 198.6038 24.9720 0.0000 0.0000 0.0000
# 3 1.7751 24.9720 63.2972 0.0000 0.0000 0.0000
# 4 0.0000 0.0000 0.0000 37.1664 0.0000 0.0000
# 5 0.0000 0.0000 0.0000 0.0000 36.5892 0.0000
# 6 0.0000 0.0000 0.0000 0.0000 0.0000 41.9212
#
#
#
# Elastic Compliance Matrix: (Units=1/GPa)
#
#
# Indices 1 2 3 4 5 6 
#
# 1 0.013060 -0.001615 0.000271 0.000000 0.000000 0.000000
# 2 -0.001615 0.005498 -0.002124 0.000000 0.000000 0.000000
# 3 0.000271 -0.002124 0.016629 0.000000 0.000000 0.000000
# 4 0.000000 0.000000 0.000000 0.026906 0.000000 0.000000
# 5 0.000000 0.000000 0.000000 0.000000 0.027330 0.000000
# 6 0.000000 0.000000 0.000000 0.000000 0.000000 0.023854
#
#
# Mechanical properties :
#
#
# Convention : Reuss Voigt Hill
#
# Bulk Modulus (GPa) = 35.39628 49.21882 42.30755
# Shear Modulus (GPa) = 38.57143 42.51007 40.54075
#
# Velocity S-wave (km/s) = 3.79072 3.97955 3.88628
# Velocity P-wave (km/s) = 5.68736 6.28108 5.99158
#
# Compressibility (1/GPa) = 0.02825156
#
# Stress axis : x y z
#
# Youngs Moduli (GPa) = 76.56789 181.89818 60.13696
#
# Poissons Ratio (x) = 0.29370 -0.01628
# Poissons Ratio (y) = 0.12363 0.12771
# Poissons Ratio (z) = -0.02073 0.38628
#
# Static dielectric constant tensor:
#      x y z
#    x 4.619390 0.000000 0.000000 
#    y 0.000000 5.456960 0.000000 
#    z 0.000000 0.000000 4.262840 
# 
# 
# High freq. dielectric constant tensor:
#      x y z
#    x 2.079910 0.000000 0.000000 
#    y 0.000000 2.111490 0.000000 
#    z 0.000000 0.000000 2.043470 
# 
# From -- ./inp_files/2931.got.cif
#   From: 2010.03.12/outbox.cif.g09.slc.cpg/sg30_2_cif.got.tgz:2931.got - 2010.04.14 01:38:02.
