data_PCOD8169732
_publ_section_title
;
Structure prediction by ZEFSAII (Michael W. Deem and Ramdas Pophale) SiO2 
 PCOD8169732
Probable space group: P M N 21
;
_chemical_formula_sum "Si O2"
_cell_formula_units_Z 32
_cell_length_a 8.721220
_cell_length_b 12.461468
_cell_length_c 14.643037
_cell_angle_alpha 90.000000
_cell_angle_beta 90.000000
_cell_angle_gamma 90.000000
_cell_volume 1591.393605
_symmetry_space_group_name_H-M "P M N 21"
_symmetry_group_IT_number 31
_symmetry_cell_setting 'orthorhombic'
loop_
_space_group_symop_operation_xyz
x,y,z
1/2-x,-y,1/2+z
-x,y,z
1/2+x,-y,1/2+z
loop_
_atom_site_type_symbol
_atom_site_label
_atom_site_fract_x
_atom_site_fract_y
_atom_site_fract_z
Si Si1 0.670531 0.827273 0.708660
Si Si2 0.181948 0.103665 0.892948
Si Si3 0.320463 0.335182 0.480421
Si Si4 0.320742 0.384224 0.281105
Si Si5 0.816325 0.487938 0.116438
Si Si6 0.822938 0.043354 0.695999
Si Si7 0.180873 0.901908 0.006357
Si Si8 0.169473 0.278896 0.020808
O O1 0.500000 0.855362 0.745483
O O2 0.732641 0.724019 0.759369
O O3 0.660855 0.808025 0.601057
O O4 0.789564 0.922063 0.726825
O O5 0.220285 0.112356 0.785796
O O6 0.000000 0.102026 0.909757
O O7 0.252272 0.212720 0.938773
O O8 0.250677 0.995493 0.941176
O O9 0.500000 0.321853 0.493716
O O10 0.286849 0.403696 0.388417
O O11 0.258732 0.403456 0.567212
O O12 0.248721 0.214952 0.478245
O O13 0.500000 0.370594 0.261671
O O14 0.254861 0.481110 0.218500
O O15 0.748877 0.387710 0.056244
O O16 0.000000 0.479249 0.124579
O O17 0.718529 0.078824 0.612297
O O18 0.000000 0.055811 0.668933
O O19 0.000000 0.899844 0.994635
O O20 0.000000 0.313471 0.988238
#
# Coordination Sequence:
#
# PCOD8169732 Si02
#       8
#     4   4   4   4   4   4   4   4
#     4  10  18  32  55  78 104 143 184 219 263 324
#     4   9  17  31  51  75 102 140 179 214 266 331
#     4   9  19  36  57  79 108 151 191 222 268 339
#     4  10  19  34  57  86 110 138 186 237 278 312
#     4   9  18  35  57  80 105 140 189 231 273 333
#     4  11  21  32  50  81 114 140 176 227 277 322
#     4  10  19  36  57  74 104 148 187 219 266 334
#     4   8  14  28  52  73  91 126 176 219 253 311
#
# _framework density 20.108160000000002
#
# number of rings (size 3 to 8) (size 9 to 14) (size 15 to 20)
#    0.000    2.500    1.250    2.625    0.000    2.000 
#    2.250    5.625    0.000    0.000    0.000    0.000 
#    0.000    0.000    0.000    0.000    0.000    0.000 
#
# Total GULP energy -396519.041883 kJ/mol
# GULP energy per Si atom -12391.220059 kJ/mol
# Density = 2.006239 g / cm^3
# Si number density = 20.108160 Si / 1000 Ang^3
#
#
#
# Elastic Constant Matrix: (Units=GPa)
#
#
# Indices 1 2 3 4 5 6 
#
# 1 27.2588 3.9001 9.2460 0.0000 0.0000 0.0000
# 2 3.9001 52.6303 16.6263 0.0000 0.0000 0.0000
# 3 9.2460 16.6263 85.7025 0.0000 0.0000 0.0000
# 4 0.0000 0.0000 0.0000 26.4169 0.0000 0.0000
# 5 0.0000 0.0000 0.0000 0.0000 26.7234 0.0000
# 6 0.0000 0.0000 0.0000 0.0000 0.0000 16.7305
#
#
#
# Elastic Compliance Matrix: (Units=1/GPa)
#
#
# Indices 1 2 3 4 5 6 
#
# 1 0.038209 -0.001629 -0.003806 0.000000 0.000000 0.000000
# 2 -0.001629 0.020310 -0.003764 0.000000 0.000000 0.000000
# 3 -0.003806 -0.003764 0.012809 0.000000 0.000000 0.000000
# 4 0.000000 0.000000 0.000000 0.037855 0.000000 0.000000
# 5 0.000000 0.000000 0.000000 0.000000 0.037420 0.000000
# 6 0.000000 0.000000 0.000000 0.000000 0.000000 0.059771
#
#
# Mechanical properties :
#
#
# Convention : Reuss Voigt Hill
#
# Bulk Modulus (GPa) = 18.89300 25.01516 21.95408
# Shear Modulus (GPa) = 20.62553 23.02876 21.82714
#
# Velocity S-wave (km/s) = 3.20618 3.38782 3.29825
# Velocity P-wave (km/s) = 4.80855 5.26976 5.04443
#
# Compressibility (1/GPa) = 0.05292966
#
# Stress axis : x y z
#
# Youngs Moduli (GPa) = 26.17150 49.23581 78.06883
#
# Poissons Ratio (x) = 0.08021 0.29714
# Poissons Ratio (y) = 0.04264 0.29389
# Poissons Ratio (z) = 0.09961 0.18535
#
# Static dielectric constant tensor:
#      x y z
#    x 3.256350 0.000000 0.000000 
#    y 0.000000 3.787180 0.000000 
#    z 0.000000 0.000000 3.821020 
# 
# 
# High freq. dielectric constant tensor:
#      x y z
#    x 1.739180 0.000000 0.000000 
#    y 0.000000 1.775970 0.000000 
#    z 0.000000 0.000000 1.788810 
# 
# From -- ./inp_files/5031.got.cif
#   From: 2010.03.12/outbox.cif.g09.slc.cpg/sg31_3_cif.got.tgz:5031.got - 2010.04.14 01:42:59.
