data_PCOD8169799
_publ_section_title
;
Structure prediction by ZEFSAII (Michael W. Deem and Ramdas Pophale) SiO2 
 PCOD8169799
Probable space group: P M N 21
;
_chemical_formula_sum "Si O2"
_cell_formula_units_Z 32
_cell_length_a 9.365687
_cell_length_b 14.568164
_cell_length_c 12.473148
_cell_angle_alpha 90.000000
_cell_angle_beta 90.000000
_cell_angle_gamma 90.000000
_cell_volume 1701.847092
_symmetry_space_group_name_H-M "P M N 21"
_symmetry_group_IT_number 31
_symmetry_cell_setting 'orthorhombic'
loop_
_space_group_symop_operation_xyz
x,y,z
1/2-x,-y,1/2+z
-x,y,z
1/2+x,-y,1/2+z
loop_
_atom_site_type_symbol
_atom_site_label
_atom_site_fract_x
_atom_site_fract_y
_atom_site_fract_z
Si Si1 0.155499 0.651715 0.691050
Si Si2 0.166006 0.061615 0.097267
Si Si3 0.169155 0.741390 0.983929
Si Si4 0.661495 0.377657 0.954435
Si Si5 0.170487 0.829050 0.412920
Si Si6 0.168319 0.866730 0.174376
Si Si7 0.664502 0.803798 0.785322
Si Si8 0.157638 0.547657 0.902675
O O1 0.178647 0.601097 0.579489
O O2 0.283666 0.721724 0.709275
O O3 0.152769 0.573474 0.778947
O O4 0.000000 0.703303 0.689740
O O5 0.187376 0.105104 0.215305
O O6 0.000000 0.066649 0.063063
O O7 0.222298 0.957684 0.112889
O O8 0.258152 0.108501 0.004084
O O9 0.244076 0.805717 0.894602
O O10 0.219263 0.635025 0.970777
O O11 0.000000 0.747737 0.962429
O O12 0.211677 0.778556 0.101672
O O13 0.500000 0.385204 0.912998
O O14 0.719889 0.276064 0.928842
O O15 0.748212 0.457452 0.898508
O O16 0.228875 0.858295 0.295213
O O17 0.000000 0.839138 0.424159
O O18 0.000000 0.872370 0.185281
O O19 0.500000 0.788854 0.816116
O O20 0.000000 0.523545 0.946610
#
# Coordination Sequence:
#
# PCOD8169799 Si02
#       8
#     4   4   4   4   4   4   4   4
#     4   9  18  35  53  75 105 141 185 226 272 330
#     4  10  21  36  55  82 113 142 177 229 285 328
#     4   9  19  37  57  77 109 151 190 224 272 336
#     4  10  20  34  55  81 107 140 184 229 272 325
#     4  10  21  38  60  83 110 147 190 230 272 334
#     4   9  20  38  58  81 113 150 185 228 279 332
#     4  10  19  31  53  82 108 136 178 233 279 320
#     4   9  19  33  53  79 107 143 183 225 275 327
#
# _framework density 18.803099
#
# number of rings (size 3 to 8) (size 9 to 14) (size 15 to 20)
#    0.000    2.500    1.250    1.125    1.750    4.500 
#    0.000    2.500    0.000    0.000    0.000    0.000 
#    0.000    0.000    0.000    0.000    0.000    0.000 
#
# Total GULP energy -396609.453635 kJ/mol
# GULP energy per Si atom -12394.045426 kJ/mol
# Density = 1.876030 g / cm^3
# Si number density = 18.803099 Si / 1000 Ang^3
#
#
#
# Elastic Constant Matrix: (Units=GPa)
#
#
# Indices 1 2 3 4 5 6 
#
# 1 52.1871 36.5156 32.7917 0.0000 0.0000 0.0000
# 2 36.5156 121.8543 51.9261 0.0000 0.0000 0.0000
# 3 32.7917 51.9261 101.3064 0.0000 0.0000 0.0000
# 4 0.0000 0.0000 0.0000 20.9969 0.0000 0.0000
# 5 0.0000 0.0000 0.0000 0.0000 22.9336 0.0000
# 6 0.0000 0.0000 0.0000 0.0000 0.0000 25.1799
#
#
#
# Elastic Compliance Matrix: (Units=1/GPa)
#
#
# Indices 1 2 3 4 5 6 
#
# 1 0.026670 -0.005519 -0.005804 0.000000 0.000000 0.000000
# 2 -0.005519 0.011642 -0.004181 0.000000 0.000000 0.000000
# 3 -0.005804 -0.004181 0.013893 0.000000 0.000000 0.000000
# 4 0.000000 0.000000 0.000000 0.047626 0.000000 0.000000
# 5 0.000000 0.000000 0.000000 0.000000 0.043604 0.000000
# 6 0.000000 0.000000 0.000000 0.000000 0.000000 0.039714
#
#
# Mechanical properties :
#
#
# Convention : Reuss Voigt Hill
#
# Bulk Modulus (GPa) = 47.17564 57.53495 52.35530
# Shear Modulus (GPa) = 22.60164 24.09639 23.34902
#
# Velocity S-wave (km/s) = 3.47077 3.58370 3.52769
# Velocity P-wave (km/s) = 6.41915 6.91296 6.67062
#
# Compressibility (1/GPa) = 0.02119738
#
# Stress axis : x y z
#
# Youngs Moduli (GPa) = 37.49469 85.89630 71.98005
#
# Poissons Ratio (x) = 0.47405 0.41778
# Poissons Ratio (y) = 0.20693 0.30094
# Poissons Ratio (z) = 0.21762 0.35912
#
# Static dielectric constant tensor:
#      x y z
#    x 3.353630 0.000000 0.000000 
#    y 0.000000 3.404770 0.000000 
#    z 0.000000 0.000000 3.575160 
# 
# 
# High freq. dielectric constant tensor:
#      x y z
#    x 1.710250 0.000000 0.000000 
#    y 0.000000 1.724780 0.000000 
#    z 0.000000 0.000000 1.735780 
# 
# From -- ./inp_files/3709.got.cif
#   From: 2010.03.12/outbox.cif.g09.slc.cpg/sg31_2_cif.got.tgz:3709.got - 2010.04.14 01:42:59.
