data_PCOD8169098
_publ_section_title
;
Structure prediction by ZEFSAII (Michael W. Deem and Ramdas Pophale) SiO2 
 PCOD8169098
Probable space group: P C A 21
;
_chemical_formula_sum "Si O2"
_cell_formula_units_Z 32
_cell_length_a 8.045388
_cell_length_b 11.653072
_cell_length_c 16.014308
_cell_angle_alpha 90.000000
_cell_angle_beta 90.000000
_cell_angle_gamma 90.000000
_cell_volume 1501.397195
_symmetry_space_group_name_H-M "P C A 21"
_symmetry_group_IT_number 29
_symmetry_cell_setting 'orthorhombic'
loop_
_space_group_symop_operation_xyz
x,y,z
-x,-y,1/2+z
1/2-x,y,1/2+z
1/2+x,-y,z
loop_
_atom_site_type_symbol
_atom_site_label
_atom_site_fract_x
_atom_site_fract_y
_atom_site_fract_z
Si Si1 0.443326 0.663714 0.344550
Si Si2 0.956195 0.108594 0.446514
Si Si3 0.817027 0.874185 0.399095
Si Si4 0.800227 0.512323 0.915772
Si Si5 0.446938 0.743775 0.161335
Si Si6 0.554235 0.656280 0.992673
Si Si7 0.371889 0.884926 0.636364
Si Si8 0.260878 0.113095 0.207130
O O1 0.390599 0.777015 0.398334
O O2 0.333036 0.552417 0.360038
O O3 0.628750 0.622695 0.366332
O O4 0.437358 0.679260 0.247156
O O5 0.878270 0.089611 0.537731
O O6 0.154010 0.114694 0.456077
O O7 0.913432 0.995174 0.393351
O O8 0.929818 0.778167 0.444018
O O9 0.762313 0.846916 0.303750
O O10 0.719732 0.577898 0.995364
O O11 0.924939 0.414235 0.939355
O O12 0.258784 0.783326 0.145127
O O13 0.601803 0.831901 0.160883
O O14 0.488869 0.660201 0.085930
O O15 0.557879 0.854878 0.668793
O O16 0.279572 0.980018 0.693028
#
# Coordination Sequence:
#
# PCOD8169098 Si02
#       8
#     4   4   4   4   4   4   4   4
#     4  11  24  47  69 101 136 182 240 292 358 429
#     4  12  24  43  67 104 142 187 235 285 361 433
#     4  12  26  43  71 104 141 191 230 293 362 435
#     4  10  24  46  74  93 136 188 235 297 351 433
#     4  12  25  44  68 105 140 179 242 302 357 428
#     4  11  24  46  70 103 136 184 239 292 359 428
#     4  12  25  41  66 103 145 196 230 293 355 430
#     4  12  24  44  65 101 152 185 237 292 353 432
#
# _framework density 21.313480999999999
#
# number of rings (size 3 to 8) (size 9 to 14) (size 15 to 20)
#    0.000    0.500    3.750    4.500    5.250    1.000 
#    0.000    0.000    0.000    0.000    0.000    0.000 
#    0.000    0.000    0.000    0.000    0.000    0.000 
#
# Total GULP energy -396539.722026 kJ/mol
# GULP energy per Si atom -12391.866313 kJ/mol
# Density = 2.126497 g / cm^3
# Si number density = 21.313481 Si / 1000 Ang^3
#
#
#
# Elastic Constant Matrix: (Units=GPa)
#
#
# Indices 1 2 3 4 5 6 
#
# 1 122.1371 34.4472 28.9963 0.0000 0.0000 0.0000
# 2 34.4472 107.9400 37.5780 0.0000 0.0000 0.0000
# 3 28.9963 37.5780 120.1634 0.0000 0.0000 0.0000
# 4 0.0000 0.0000 0.0000 439.6359 0.0000 0.0000
# 5 0.0000 0.0000 0.0000 0.0000 19.4466 0.0000
# 6 0.0000 0.0000 0.0000 0.0000 0.0000 11.0225
#
#
#
# Elastic Compliance Matrix: (Units=1/GPa)
#
#
# Indices 1 2 3 4 5 6 
#
# 1 0.009221 -0.002433 -0.001464 0.000000 0.000000 0.000000
# 2 -0.002433 0.011038 -0.002865 0.000000 0.000000 0.000000
# 3 -0.001464 -0.002865 0.009571 0.000000 0.000000 0.000000
# 4 0.000000 0.000000 0.000000 0.002275 0.000000 0.000000
# 5 0.000000 0.000000 0.000000 0.000000 0.051423 0.000000
# 6 0.000000 0.000000 0.000000 0.000000 0.000000 0.090723
#
#
# Mechanical properties :
#
#
# Convention : Reuss Voigt Hill
#
# Bulk Modulus (GPa) = 61.32527 61.36484 61.34506
# Shear Modulus (GPa) = 25.87839 110.63561 68.25700
#
# Velocity S-wave (km/s) = 3.48829 7.21259 5.66523
# Velocity P-wave (km/s) = 6.71265 9.91040 8.46391
#
# Compressibility (1/GPa) = 0.01630649
#
# Stress axis : x y z
#
# Youngs Moduli (GPa) = 108.44372 90.59431 104.47961
#
# Poissons Ratio (x) = 0.22042 0.15299
# Poissons Ratio (y) = 0.26385 0.29931
# Poissons Ratio (z) = 0.15879 0.25954
#
# Static dielectric constant tensor:
#      x y z
#    x 4.453630 0.000000 0.000000 
#    y 0.000000 3.695100 0.000000 
#    z 0.000000 0.000000 3.863500 
# 
# 
# High freq. dielectric constant tensor:
#      x y z
#    x 1.857200 0.000000 0.000000 
#    y 0.000000 1.835660 0.000000 
#    z 0.000000 0.000000 1.833910 
# 
# From -- ./inp_files/4267.got.cif
#   From: 2010.03.12/outbox.cif.g09.slc.cpg/sg29_3_cif.got.tgz:4267.got - 2010.04.14 03:43:10.
