data_PCOD8169594
_publ_section_title
;
Structure prediction by ZEFSAII (Michael W. Deem and Ramdas Pophale) SiO2 
 PCOD8169594
Probable space group: P N C 2
;
_chemical_formula_sum "Si O2"
_cell_formula_units_Z 24
_cell_length_a 7.994543
_cell_length_b 14.029166
_cell_length_c 9.579017
_cell_angle_alpha 90.000000
_cell_angle_beta 90.000000
_cell_angle_gamma 90.000000
_cell_volume 1074.351615
_symmetry_space_group_name_H-M "P N C 2"
_symmetry_group_IT_number 30
_symmetry_cell_setting 'orthorhombic'
loop_
_space_group_symop_operation_xyz
x,y,z
-x,-y,z
-x,1/2+y,1/2+z
x,1/2-y,1/2+z
loop_
_atom_site_type_symbol
_atom_site_label
_atom_site_fract_x
_atom_site_fract_y
_atom_site_fract_z
Si Si1 0.607328 0.090160 0.112530
Si Si2 0.807098 0.028557 0.552000
Si Si3 0.212856 0.336339 0.934022
Si Si4 0.614249 0.739925 0.186460
Si Si5 0.333819 0.621789 0.305095
Si Si6 0.162551 0.824172 0.335166
O O1 0.500063 0.186270 0.102889
O O2 0.773409 0.109840 0.206324
O O3 0.500000 0.000000 0.169414
O O4 0.658443 0.069228 0.953398
O O5 0.749922 0.040139 0.710592
O O6 0.764406 0.128901 0.476612
O O7 0.722085 0.943501 0.464034
O O8 0.000000 0.000000 0.552393
O O9 0.343878 0.290126 0.831149
O O10 0.036677 0.327690 0.855049
O O11 0.226658 0.284858 0.086954
O O12 0.511261 0.646055 0.232470
O O13 0.220174 0.716217 0.318458
#
# Coordination Sequence:
#
# PCOD8169594 Si02
#       6
#     4   4   4   4   4   4
#     4  11  24  43  65 101 137 185 233 292 350 425
#     4  10  24  44  67 102 132 186 240 288 360 425
#     4  11  25  42  73 101 140 181 239 302 360 435
#     4  11  24  44  66 104 137 183 235 291 361 424
#     4  11  24  43  68  99 140 185 233 289 357 429
#     4  10  23  45  70  95 138 189 230 291 359 428
#
# _framework density 22.339055999999999
#
# number of rings (size 3 to 8) (size 9 to 14) (size 15 to 20)
#    0.000    1.333    1.667    3.000   11.667    0.000 
#    0.000    2.500    0.000    0.000    0.000    0.000 
#    0.000    0.000    0.000    0.000    0.000    0.000 
#
# Total GULP energy -297456.660591 kJ/mol
# GULP energy per Si atom -12394.027525 kJ/mol
# Density = 2.228821 g / cm^3
# Si number density = 22.339056 Si / 1000 Ang^3
#
#
#
# Elastic Constant Matrix: (Units=GPa)
#
#
# Indices 1 2 3 4 5 6 
#
# 1 77.7502 36.3719 54.3124 0.0000 0.0000 0.0000
# 2 36.3719 79.9777 28.1461 0.0000 0.0000 0.0000
# 3 54.3124 28.1461 136.9645 0.0000 0.0000 0.0000
# 4 0.0000 0.0000 0.0000 34.9751 0.0000 0.0000
# 5 0.0000 0.0000 0.0000 0.0000 42.2843 0.0000
# 6 0.0000 0.0000 0.0000 0.0000 0.0000 21.0760
#
#
#
# Elastic Compliance Matrix: (Units=1/GPa)
#
#
# Indices 1 2 3 4 5 6 
#
# 1 0.020988 -0.007132 -0.006857 0.000000 0.000000 0.000000
# 2 -0.007132 0.015902 -0.000440 0.000000 0.000000 0.000000
# 3 -0.006857 -0.000440 0.010111 0.000000 0.000000 0.000000
# 4 0.000000 0.000000 0.000000 0.028592 0.000000 0.000000
# 5 0.000000 0.000000 0.000000 0.000000 0.023649 0.000000
# 6 0.000000 0.000000 0.000000 0.000000 0.000000 0.047447
#
#
# Mechanical properties :
#
#
# Convention : Reuss Voigt Hill
#
# Bulk Modulus (GPa) = 55.11707 59.15037 57.13372
# Shear Modulus (GPa) = 27.53405 31.39122 29.46263
#
# Velocity S-wave (km/s) = 3.51458 3.75269 3.63558
# Velocity P-wave (km/s) = 6.41843 6.73148 6.57682
#
# Compressibility (1/GPa) = 0.01814320
#
# Stress axis : x y z
#
# Youngs Moduli (GPa) = 47.64644 62.88705 98.90551
#
# Poissons Ratio (x) = 0.44849 0.67820
# Poissons Ratio (y) = 0.33980 0.04349
# Poissons Ratio (z) = 0.32672 0.02765
#
# Static dielectric constant tensor:
#      x y z
#    x 3.831340 0.000000 0.000000 
#    y 0.000000 4.189090 0.000000 
#    z 0.000000 0.000000 4.159360 
# 
# 
# High freq. dielectric constant tensor:
#      x y z
#    x 1.864890 0.000000 0.000000 
#    y 0.000000 1.882740 0.000000 
#    z 0.000000 0.000000 1.895870 
# 
# From -- ./inp_files/1824.got.cif
#   From: 2010.03.12/outbox.cif.g09.slc.cpg/sg30_1_cif.got.tgz:1824.got - 2010.04.14 01:38:02.
