data_PCOD8169855
_publ_section_title
;
Structure prediction by ZEFSAII (Michael W. Deem and Ramdas Pophale) SiO2 
 PCOD8169855
Probable space group: P M N 21
;
_chemical_formula_sum "Si O2"
_cell_formula_units_Z 24
_cell_length_a 8.844700
_cell_length_b 9.503840
_cell_length_c 15.384818
_cell_angle_alpha 90.000000
_cell_angle_beta 90.000000
_cell_angle_gamma 90.000000
_cell_volume 1293.226472
_symmetry_space_group_name_H-M "P M N 21"
_symmetry_group_IT_number 31
_symmetry_cell_setting 'orthorhombic'
loop_
_space_group_symop_operation_xyz
x,y,z
1/2-x,-y,1/2+z
-x,y,z
1/2+x,-y,1/2+z
loop_
_atom_site_type_symbol
_atom_site_label
_atom_site_fract_x
_atom_site_fract_y
_atom_site_fract_z
Si Si1 0.329562 0.580184 0.492430
Si Si2 0.666604 0.911364 0.464232
Si Si3 0.677081 0.050793 0.132716
Si Si4 0.680028 0.843156 0.279050
Si Si5 0.679749 0.453760 0.814822
Si Si6 0.820178 0.631879 0.665922
O O1 0.500000 0.519187 0.498423
O O2 0.333918 0.745476 0.478035
O O3 0.243105 0.511371 0.410837
O O4 0.239775 0.546814 0.581430
O O5 0.500000 0.974789 0.477931
O O6 0.773442 0.986856 0.534410
O O7 0.721593 0.934800 0.365200
O O8 0.500000 0.045000 0.137071
O O9 0.732620 0.205747 0.159820
O O10 0.741836 0.933536 0.198085
O O11 0.500000 0.814022 0.276579
O O12 0.765436 0.695654 0.278088
O O13 0.500000 0.456560 0.817797
O O14 0.742330 0.573827 0.751948
O O15 0.000000 0.615029 0.671135
#
# Coordination Sequence:
#
# PCOD8169855 Si02
#       6
#     4   4   4   4   4   4
#     4   9  17  32  52  73  98 132 169 207 249 299
#     4   8  15  28  48  70  95 127 162 198 241 292
#     4   9  18  32  52  74  97 127 164 203 249 298
#     4   9  18  34  52  72  99 131 164 204 250 296
#     4  11  21  33  51  76 102 134 172 208 248 298
#     4  10  19  33  53  77 103 133 167 208 253 301
#
# _framework density 18.558233999999999
#
# number of rings (size 3 to 8) (size 9 to 14) (size 15 to 20)
#    0.000    2.667    0.000    3.500    0.000    5.333 
#    0.000    1.667    0.000    6.000    0.000    0.000 
#    0.000    0.000    0.000    0.000    0.000    0.000 
#
# Total GULP energy -297512.778830 kJ/mol
# GULP energy per Si atom -12396.365785 kJ/mol
# Density = 1.851600 g / cm^3
# Si number density = 18.558234 Si / 1000 Ang^3
#
#
#
# Elastic Constant Matrix: (Units=GPa)
#
#
# Indices 1 2 3 4 5 6 
#
# 1 75.7266 9.3001 7.8485 0.0000 0.0000 0.0000
# 2 9.3001 19.6760 -7.8787 0.0000 0.0000 0.0000
# 3 7.8485 -7.8787 37.4880 0.0000 0.0000 0.0000
# 4 0.0000 0.0000 0.0000 30.2537 0.0000 0.0000
# 5 0.0000 0.0000 0.0000 0.0000 37.6760 0.0000
# 6 0.0000 0.0000 0.0000 0.0000 0.0000 17.8559
#
#
#
# Elastic Compliance Matrix: (Units=1/GPa)
#
#
# Indices 1 2 3 4 5 6 
#
# 1 0.014830 -0.009011 -0.004999 0.000000 0.000000 0.000000
# 2 -0.009011 0.060969 0.014700 0.000000 0.000000 0.000000
# 3 -0.004999 0.014700 0.030811 0.000000 0.000000 0.000000
# 4 0.000000 0.000000 0.000000 0.033054 0.000000 0.000000
# 5 0.000000 0.000000 0.000000 0.000000 0.026542 0.000000
# 6 0.000000 0.000000 0.000000 0.000000 0.000000 0.056004
#
#
# Mechanical properties :
#
#
# Convention : Reuss Voigt Hill
#
# Bulk Modulus (GPa) = 9.26006 16.82559 13.04283
# Shear Modulus (GPa) = 19.46840 25.39850 22.43345
#
# Velocity S-wave (km/s) = 3.24241 3.70345 3.48057
# Velocity P-wave (km/s) = 4.36098 5.23196 4.81620
#
# Compressibility (1/GPa) = 0.10799067
#
# Stress axis : x y z
#
# Youngs Moduli (GPa) = 67.43016 16.40181 32.45573
#
# Poissons Ratio (x) = 0.14780 0.16224
# Poissons Ratio (y) = 0.60763 -0.47710
# Poissons Ratio (z) = 0.33706 -0.24111
#
# Static dielectric constant tensor:
#      x y z
#    x 3.434010 0.000000 0.000000 
#    y 0.000000 3.108360 0.000000 
#    z 0.000000 0.000000 3.892420 
# 
# 
# High freq. dielectric constant tensor:
#      x y z
#    x 1.719820 0.000000 0.000000 
#    y 0.000000 1.675080 0.000000 
#    z 0.000000 0.000000 1.737870 
# 
# From -- ./inp_files/3457.got.cif
#   From: 2010.03.12/outbox.cif.g09.slc.cpg/sg31_2_cif.got.tgz:3457.got - 2010.04.14 01:42:59.
