data_PCOD8169997
_publ_section_title
;
Structure prediction by ZEFSAII (Michael W. Deem and Ramdas Pophale) SiO2 
 PCOD8169997
Probable space group: P M N 21
;
_chemical_formula_sum "Si O2"
_cell_formula_units_Z 32
_cell_length_a 8.869475
_cell_length_b 15.162735
_cell_length_c 12.008236
_cell_angle_alpha 90.000000
_cell_angle_beta 90.000000
_cell_angle_gamma 90.000000
_cell_volume 1614.933611
_symmetry_space_group_name_H-M "P M N 21"
_symmetry_group_IT_number 31
_symmetry_cell_setting 'orthorhombic'
loop_
_space_group_symop_operation_xyz
x,y,z
1/2-x,-y,1/2+z
-x,y,z
1/2+x,-y,1/2+z
loop_
_atom_site_type_symbol
_atom_site_label
_atom_site_fract_x
_atom_site_fract_y
_atom_site_fract_z
Si Si1 0.678890 0.761139 0.391840
Si Si2 0.168474 0.653440 0.781389
Si Si3 0.679425 0.417678 0.510756
Si Si4 0.679058 0.250663 0.649567
Si Si5 0.177597 0.389115 0.058206
Si Si6 0.831384 0.853786 0.792378
Si Si7 0.173738 0.099353 0.506467
Si Si8 0.825288 0.897963 0.547863
O O1 0.500000 0.761405 0.380700
O O2 0.749856 0.755771 0.270750
O O3 0.738659 0.677286 0.463382
O O4 0.729189 0.851459 0.451402
O O5 0.232632 0.596074 0.883490
O O6 0.279581 0.646822 0.678410
O O7 0.164076 0.752242 0.827596
O O8 0.000000 0.623410 0.745560
O O9 0.500000 0.415680 0.514897
O O10 0.740343 0.340761 0.592174
O O11 0.746334 0.512655 0.545512
O O12 0.500000 0.250958 0.660029
O O13 0.725945 0.166536 0.576887
O O14 0.000000 0.393791 0.048764
O O15 0.721044 0.903078 0.877046
O O16 0.769126 0.862194 0.667085
O O17 0.000000 0.894882 0.799743
O O18 0.000000 0.127216 0.517150
O O19 0.203005 0.001898 0.551594
O O20 0.000000 0.874612 0.527130
#
# Coordination Sequence:
#
# PCOD8169997 Si02
#       8
#     4   4   4   4   4   4   4   4
#     4  11  24  40  60  89 124 158 197 251 303 346
#     4  10  19  37  64  86 111 152 201 245 289 349
#     4   9  20  39  60  85 119 158 197 240 293 357
#     4  11  23  42  64  85 119 165 203 239 296 362
#     4  10  22  39  59  87 122 155 193 246 301 347
#     4  10  20  39  64  86 115 157 202 244 293 355
#     4  11  24  40  61  92 123 153 198 252 300 348
#     4  10  23  42  62  88 121 160 201 241 293 360
#
# _framework density 19.815055999999998
#
# number of rings (size 3 to 8) (size 9 to 14) (size 15 to 20)
#    0.000    1.750    2.500    1.125    3.500    2.500 
#    0.000    1.250    0.000    0.000    0.000    0.000 
#    0.000    0.000    0.000    0.000    0.000    0.000 
#
# Total GULP energy -396861.542810 kJ/mol
# GULP energy per Si atom -12401.923213 kJ/mol
# Density = 1.976996 g / cm^3
# Si number density = 19.815056 Si / 1000 Ang^3
#
#
#
# Elastic Constant Matrix: (Units=GPa)
#
#
# Indices 1 2 3 4 5 6 
#
# 1 48.0176 34.7715 32.1244 0.0000 0.0000 0.0000
# 2 34.7715 100.0459 41.1393 0.0000 0.0000 0.0000
# 3 32.1244 41.1393 126.0369 0.0000 0.0000 0.0000
# 4 0.0000 0.0000 0.0000 30.2248 0.0000 0.0000
# 5 0.0000 0.0000 0.0000 0.0000 33.7692 0.0000
# 6 0.0000 0.0000 0.0000 0.0000 0.0000 23.6568
#
#
#
# Elastic Compliance Matrix: (Units=1/GPa)
#
#
# Indices 1 2 3 4 5 6 
#
# 1 0.030284 -0.008491 -0.004947 0.000000 0.000000 0.000000
# 2 -0.008491 0.013926 -0.002381 0.000000 0.000000 0.000000
# 3 -0.004947 -0.002381 0.009972 0.000000 0.000000 0.000000
# 4 0.000000 0.000000 0.000000 0.033085 0.000000 0.000000
# 5 0.000000 0.000000 0.000000 0.000000 0.029613 0.000000
# 6 0.000000 0.000000 0.000000 0.000000 0.000000 0.042271
#
#
# Mechanical properties :
#
#
# Convention : Reuss Voigt Hill
#
# Bulk Modulus (GPa) = 44.35952 54.46342 49.41147
# Shear Modulus (GPa) = 25.21363 28.60117 26.90740
#
# Velocity S-wave (km/s) = 3.57101 3.80334 3.68900
# Velocity P-wave (km/s) = 6.27998 6.84344 6.56776
#
# Compressibility (1/GPa) = 0.02254308
#
# Stress axis : x y z
#
# Youngs Moduli (GPa) = 33.02045 71.80962 100.27664
#
# Poissons Ratio (x) = 0.60974 0.49610
# Poissons Ratio (y) = 0.28038 0.23878
# Poissons Ratio (z) = 0.16336 0.17099
#
# Static dielectric constant tensor:
#      x y z
#    x 3.432300 0.000000 0.000000 
#    y 0.000000 3.807800 0.000000 
#    z 0.000000 0.000000 3.633930 
# 
# 
# High freq. dielectric constant tensor:
#      x y z
#    x 1.754140 0.000000 0.000000 
#    y 0.000000 1.780000 0.000000 
#    z 0.000000 0.000000 1.784440 
# 
# From -- ./inp_files/3606.got.cif
#   From: 2010.03.12/outbox.cif.g09.slc.cpg/sg31_2_cif.got.tgz:3606.got - 2010.04.14 01:42:59.
