data_PCOD8169841
_publ_section_title
;
Structure prediction by ZEFSAII (Michael W. Deem and Ramdas Pophale) SiO2 
 PCOD8169841
Probable space group: P M N 21
;
_chemical_formula_sum "Si O2"
_cell_formula_units_Z 32
_cell_length_a 8.861951
_cell_length_b 11.471125
_cell_length_c 16.252501
_cell_angle_alpha 90.000000
_cell_angle_beta 90.000000
_cell_angle_gamma 90.000000
_cell_volume 1652.173143
_symmetry_space_group_name_H-M "P M N 21"
_symmetry_group_IT_number 31
_symmetry_cell_setting 'orthorhombic'
loop_
_space_group_symop_operation_xyz
x,y,z
1/2-x,-y,1/2+z
-x,y,z
1/2+x,-y,1/2+z
loop_
_atom_site_type_symbol
_atom_site_label
_atom_site_fract_x
_atom_site_fract_y
_atom_site_fract_z
Si Si1 0.179745 0.199106 0.018370
Si Si2 0.831927 0.233826 0.436786
Si Si3 0.821003 0.732544 0.678664
Si Si4 0.325110 0.871488 0.226489
Si Si5 0.677674 0.681690 0.351357
Si Si6 0.331234 0.925149 0.780666
Si Si7 0.823283 0.936623 0.058617
Si Si8 0.678479 0.422078 0.331280
O O1 0.254921 0.284588 0.086979
O O2 0.000000 0.207102 0.026542
O O3 0.235197 0.064477 0.029404
O O4 0.240304 0.249177 0.931077
O O5 0.839167 0.142444 0.364421
O O6 0.750124 0.171267 0.511323
O O7 0.744094 0.347989 0.406772
O O8 0.000000 0.270817 0.464637
O O9 0.743926 0.850819 0.708433
O O10 0.774402 0.628030 0.741272
O O11 0.000000 0.747591 0.675889
O O12 0.500000 0.879146 0.201537
O O13 0.283721 0.746757 0.265667
O O14 0.218112 0.909409 0.152274
O O15 0.279547 0.965128 0.296791
O O16 0.500000 0.674516 0.362356
O O17 0.745374 0.552016 0.341955
O O18 0.500000 0.961123 0.752112
O O19 0.000000 0.929946 0.044688
O O20 0.500000 0.419444 0.339748
#
# Coordination Sequence:
#
# PCOD8169841 Si02
#       8
#     4   4   4   4   4   4   4   4
#     4  10  20  36  59  84 114 148 187 236 287 344
#     4  10  21  36  57  84 112 145 187 237 285 332
#     4  10  19  32  56  85 111 145 186 235 284 333
#     4  11  21  35  57  83 115 151 188 233 286 342
#     4   9  20  39  60  82 112 155 195 233 283 339
#     4  10  19  33  54  81 113 146 182 228 283 340
#     4  11  22  36  56  85 119 150 186 232 288 350
#     4   9  19  39  61  80 110 150 195 234 278 342
#
# _framework density 19.368431000000001
#
# number of rings (size 3 to 8) (size 9 to 14) (size 15 to 20)
#    0.000    2.000    1.250    2.625    0.000    3.500 
#    2.250    3.125    0.000    0.000    0.000    0.000 
#    0.000    0.000    0.000    0.000    0.000    0.000 
#
# Total GULP energy -396654.358276 kJ/mol
# GULP energy per Si atom -12395.448696 kJ/mol
# Density = 1.932435 g / cm^3
# Si number density = 19.368431 Si / 1000 Ang^3
#
#
#
# Elastic Constant Matrix: (Units=GPa)
#
#
# Indices 1 2 3 4 5 6 
#
# 1 47.5832 26.1013 20.8322 0.0000 0.0000 0.0000
# 2 26.1013 138.8662 50.6675 0.0000 0.0000 0.0000
# 3 20.8322 50.6675 79.5807 0.0000 0.0000 0.0000
# 4 0.0000 0.0000 0.0000 24.6774 0.0000 0.0000
# 5 0.0000 0.0000 0.0000 0.0000 31.3735 0.0000
# 6 0.0000 0.0000 0.0000 0.0000 0.0000 19.9305
#
#
#
# Elastic Compliance Matrix: (Units=1/GPa)
#
#
# Indices 1 2 3 4 5 6 
#
# 1 0.024640 -0.002967 -0.004561 0.000000 0.000000 0.000000
# 2 -0.002967 0.009738 -0.005423 0.000000 0.000000 0.000000
# 3 -0.004561 -0.005423 0.017213 0.000000 0.000000 0.000000
# 4 0.000000 0.000000 0.000000 0.040523 0.000000 0.000000
# 5 0.000000 0.000000 0.000000 0.000000 0.031874 0.000000
# 6 0.000000 0.000000 0.000000 0.000000 0.000000 0.050174
#
#
# Mechanical properties :
#
#
# Convention : Reuss Voigt Hill
#
# Bulk Modulus (GPa) = 38.92880 51.24802 45.08841
# Shear Modulus (GPa) = 23.96622 26.42487 25.19555
#
# Velocity S-wave (km/s) = 3.52147 3.69769 3.61065
# Velocity P-wave (km/s) = 6.05616 6.68936 6.38062
#
# Compressibility (1/GPa) = 0.02568792
#
# Stress axis : x y z
#
# Youngs Moduli (GPa) = 40.58390 102.69525 58.09729
#
# Poissons Ratio (x) = 0.30472 0.26498
# Poissons Ratio (y) = 0.12042 0.31506
# Poissons Ratio (z) = 0.18510 0.55691
#
# Static dielectric constant tensor:
#      x y z
#    x 3.684940 0.000000 0.000000 
#    y 0.000000 3.767350 0.000000 
#    z 0.000000 0.000000 3.710330 
# 
# 
# High freq. dielectric constant tensor:
#      x y z
#    x 1.745540 0.000000 0.000000 
#    y 0.000000 1.745540 0.000000 
#    z 0.000000 0.000000 1.755910 
# 
# From -- ./inp_files/5006.got.cif
#   From: 2010.03.12/outbox.cif.g09.slc.cpg/sg31_3_cif.got.tgz:5006.got - 2010.04.14 01:42:59.
