data_PCOD8169489
_publ_section_title
;
Structure prediction by ZEFSAII (Michael W. Deem and Ramdas Pophale) SiO2 
 PCOD8169489
Probable space group: P N C 2
;
_chemical_formula_sum "Si O2"
_cell_formula_units_Z 20
_cell_length_a 18.980034
_cell_length_b 8.214469
_cell_length_c 5.221532
_cell_angle_alpha 90.000000
_cell_angle_beta 90.000000
_cell_angle_gamma 90.000000
_cell_volume 814.093758
_symmetry_space_group_name_H-M "P N C 2"
_symmetry_group_IT_number 30
_symmetry_cell_setting 'orthorhombic'
loop_
_space_group_symop_operation_xyz
x,y,z
-x,-y,z
-x,1/2+y,1/2+z
x,1/2-y,1/2+z
loop_
_atom_site_type_symbol
_atom_site_label
_atom_site_fract_x
_atom_site_fract_y
_atom_site_fract_z
Si Si1 0.328597 0.661310 0.214670
Si Si2 0.162360 0.651070 0.197890
Si Si3 0.939472 0.863882 0.696833
Si Si4 0.358686 0.316873 0.029646
Si Si5 0.511518 0.184108 0.028742
O O1 0.349570 0.695349 0.511810
O O2 0.245760 0.631597 0.191105
O O3 0.366263 0.499100 0.121312
O O4 0.135994 0.749364 0.448279
O O5 0.132972 0.466871 0.196678
O O6 0.944323 0.750044 0.446786
O O7 0.000000 0.000000 0.696966
O O8 0.320223 0.208738 0.253495
O O9 0.436957 0.260147 0.946644
O O10 0.552179 0.284687 0.255920
O O11 0.500000 0.000000 0.109058
#
# Coordination Sequence:
#
# PCOD8169489 Si02
#       5
#     4   4   4   4   4
#     4  10  21  38  61  87 117 153 192 238 295 350
#     4  10  21  39  60  85 118 154 194 243 295 351
#     4  12  24  39  60  87 119 159 202 247 295 346
#     4  10  21  38  58  85 116 149 188 236 284 341
#     4  10  21  40  60  84 114 149 189 234 286 340
#
# _framework density 24.567198000000001
#
# number of rings (size 3 to 8) (size 9 to 14) (size 15 to 20)
#    0.000    1.600    0.000    4.800    0.000    1.600 
#    0.000   24.000    0.000    0.000    0.000    0.000 
#    0.000    0.000    0.000    0.000    0.000    0.000 
#
# Total GULP energy -247994.809853 kJ/mol
# GULP energy per Si atom -12399.740493 kJ/mol
# Density = 2.451128 g / cm^3
# Si number density = 24.567198 Si / 1000 Ang^3
#
#
#
# Elastic Constant Matrix: (Units=GPa)
#
#
# Indices 1 2 3 4 5 6 
#
# 1 38.3651 34.7079 36.3211 0.0000 0.0000 0.0000
# 2 34.7079 160.9669 70.2689 0.0000 0.0000 0.0000
# 3 36.3211 70.2689 226.1265 0.0000 0.0000 0.0000
# 4 0.0000 0.0000 0.0000 58.4424 0.0000 0.0000
# 5 0.0000 0.0000 0.0000 0.0000 25.3360 0.0000
# 6 0.0000 0.0000 0.0000 0.0000 0.0000 38.9539
#
#
#
# Elastic Compliance Matrix: (Units=1/GPa)
#
#
# Indices 1 2 3 4 5 6 
#
# 1 0.034979 -0.005888 -0.003789 0.000000 0.000000 0.000000
# 2 -0.005888 0.008179 -0.001596 0.000000 0.000000 0.000000
# 3 -0.003789 -0.001596 0.005527 0.000000 0.000000 0.000000
# 4 0.000000 0.000000 0.000000 0.017111 0.000000 0.000000
# 5 0.000000 0.000000 0.000000 0.000000 0.039470 0.000000
# 6 0.000000 0.000000 0.000000 0.000000 0.000000 0.025671
#
#
# Mechanical properties :
#
#
# Convention : Reuss Voigt Hill
#
# Bulk Modulus (GPa) = 38.25680 78.67270 58.46475
# Shear Modulus (GPa) = 30.82710 43.49049 37.15879
#
# Velocity S-wave (km/s) = 3.54617 4.21202 3.89335
# Velocity P-wave (km/s) = 5.68975 7.46644 6.63781
#
# Compressibility (1/GPa) = 0.02613914
#
# Stress axis : x y z
#
# Youngs Moduli (GPa) = 28.58844 122.26855 180.93913
#
# Poissons Ratio (x) = 0.71996 0.68551
# Poissons Ratio (y) = 0.16834 0.28873
# Poissons Ratio (z) = 0.10831 0.19511
#
# Static dielectric constant tensor:
#      x y z
#    x 4.567690 0.000000 0.000000 
#    y 0.000000 4.471540 0.000000 
#    z 0.000000 0.000000 5.262560 
# 
# 
# High freq. dielectric constant tensor:
#      x y z
#    x 1.975260 0.000000 0.000000 
#    y 0.000000 1.978250 0.000000 
#    z 0.000000 0.000000 2.022340 
# 
# From -- ./inp_files/1065.got.cif
#   From: 2010.03.12/outbox.cif.g09.slc.cpg/sg30_1_cif.got.tgz:1065.got - 2010.04.14 01:38:02.
