data_PCOD8169566
_publ_section_title
;
Structure prediction by ZEFSAII (Michael W. Deem and Ramdas Pophale) SiO2 
 PCOD8169566
Probable space group: P N C 2
;
_chemical_formula_sum "Si O2"
_cell_formula_units_Z 32
_cell_length_a 15.089782
_cell_length_b 10.138688
_cell_length_c 9.271483
_cell_angle_alpha 90.000000
_cell_angle_beta 90.000000
_cell_angle_gamma 90.000000
_cell_volume 1418.449670
_symmetry_space_group_name_H-M "P N C 2"
_symmetry_group_IT_number 30
_symmetry_cell_setting 'orthorhombic'
loop_
_space_group_symop_operation_xyz
x,y,z
-x,-y,z
-x,1/2+y,1/2+z
x,1/2-y,1/2+z
loop_
_atom_site_type_symbol
_atom_site_label
_atom_site_fract_x
_atom_site_fract_y
_atom_site_fract_z
Si Si1 0.089436 0.847135 0.309390
Si Si2 0.681049 0.283169 0.178023
Si Si3 0.174687 0.636971 0.513948
Si Si4 0.110113 0.138996 0.324005
Si Si5 0.790791 0.730140 0.573305
Si Si6 0.380616 0.387505 0.455897
Si Si7 0.427299 0.817774 0.957958
Si Si8 0.763156 0.965341 0.764266
O O1 0.155590 0.744174 0.386398
O O2 0.098185 0.859372 0.134409
O O3 0.988335 0.799993 0.329595
O O4 0.106897 0.989285 0.383004
O O5 0.736097 0.161524 0.108124
O O6 0.590779 0.287695 0.085029
O O7 0.645246 0.271720 0.339919
O O8 0.746550 0.407307 0.164831
O O9 0.188799 0.500400 0.420769
O O10 0.173703 0.237997 0.413240
O O11 0.150755 0.123529 0.161588
O O12 0.687225 0.687652 0.565532
O O13 0.813849 0.862403 0.665079
O O14 0.468773 0.301859 0.421786
O O15 0.408140 0.532663 0.511655
O O16 0.332544 0.403797 0.302213
#
# Coordination Sequence:
#
# PCOD8169566 Si02
#       8
#     4   4   4   4   4   4   4   4
#     4  11  25  43  68  98 132 170 220 287 329 399
#     4  11  20  39  65  95 127 164 216 271 320 395
#     4  12  21  43  70  96 129 172 224 269 343 388
#     4  11  26  43  66  98 135 169 227 274 337 400
#     4  12  24  45  68  93 135 180 222 267 341 408
#     4  10  22  44  64  91 135 175 215 275 328 399
#     4  10  23  39  67  96 130 170 222 273 335 382
#     4  11  23  40  67  98 126 178 216 268 328 401
#
# _framework density 22.559843000000001
#
# number of rings (size 3 to 8) (size 9 to 14) (size 15 to 20)
#    0.000    1.000    5.000    2.250    1.750    0.000 
#    0.000    0.000    0.000    0.000    0.000    0.000 
#    0.000    0.000    0.000    0.000    0.000    0.000 
#
# Total GULP energy -396424.065516 kJ/mol
# GULP energy per Si atom -12388.252047 kJ/mol
# Density = 2.250850 g / cm^3
# Si number density = 22.559843 Si / 1000 Ang^3
#
#
#
# Elastic Constant Matrix: (Units=GPa)
#
#
# Indices 1 2 3 4 5 6 
#
# 1 127.6311 27.7434 26.2976 0.0000 0.0000 0.0000
# 2 27.7434 32.4204 30.6774 0.0000 0.0000 0.0000
# 3 26.2976 30.6774 94.3205 0.0000 0.0000 0.0000
# 4 0.0000 0.0000 0.0000 36.0938 0.0000 0.0000
# 5 0.0000 0.0000 0.0000 0.0000 35.5196 0.0000
# 6 0.0000 0.0000 0.0000 0.0000 0.0000 29.4908
#
#
#
# Elastic Compliance Matrix: (Units=1/GPa)
#
#
# Indices 1 2 3 4 5 6 
#
# 1 0.009626 -0.008231 -0.000007 0.000000 0.000000 0.000000
# 2 -0.008231 0.051596 -0.014487 0.000000 0.000000 0.000000
# 3 -0.000007 -0.014487 0.015316 0.000000 0.000000 0.000000
# 4 0.000000 0.000000 0.000000 0.027706 0.000000 0.000000
# 5 0.000000 0.000000 0.000000 0.000000 0.028153 0.000000
# 6 0.000000 0.000000 0.000000 0.000000 0.000000 0.033909
#
#
# Mechanical properties :
#
#
# Convention : Reuss Voigt Hill
#
# Bulk Modulus (GPa) = 32.16548 47.08987 39.62767
# Shear Modulus (GPa) = 22.51079 31.53108 27.02093
#
# Velocity S-wave (km/s) = 3.16226 3.74259 3.46460
# Velocity P-wave (km/s) = 5.25567 6.29242 5.79727
#
# Compressibility (1/GPa) = 0.03108923
#
# Stress axis : x y z
#
# Youngs Moduli (GPa) = 103.89005 19.38147 65.29238
#
# Poissons Ratio (x) = 0.15952 0.00044
# Poissons Ratio (y) = 0.85507 0.94586
# Poissons Ratio (z) = 0.00070 0.28077
#
# Static dielectric constant tensor:
#      x y z
#    x 4.113340 0.000000 0.000000 
#    y 0.000000 4.055650 0.000000 
#    z 0.000000 0.000000 4.027280 
# 
# 
# High freq. dielectric constant tensor:
#      x y z
#    x 1.890060 0.000000 0.000000 
#    y 0.000000 1.884000 0.000000 
#    z 0.000000 0.000000 1.887860 
# 
# From -- ./inp_files/2698.got.cif
#   From: 2010.03.12/outbox.cif.g09.slc.cpg/sg30_2_cif.got.tgz:2698.got - 2010.04.14 01:38:02.
