data_PCOD8169286
_publ_section_title
;
Structure prediction by ZEFSAII (Michael W. Deem and Ramdas Pophale) SiO2 
 PCOD8169286
Probable space group: P C A 21
;
_chemical_formula_sum "Si O2"
_cell_formula_units_Z 32
_cell_length_a 9.487331
_cell_length_b 5.163893
_cell_length_c 26.581506
_cell_angle_alpha 90.000000
_cell_angle_beta 90.000000
_cell_angle_gamma 90.000000
_cell_volume 1302.269503
_symmetry_space_group_name_H-M "P C A 21"
_symmetry_group_IT_number 29
_symmetry_cell_setting 'orthorhombic'
loop_
_space_group_symop_operation_xyz
x,y,z
-x,-y,1/2+z
1/2-x,y,1/2+z
1/2+x,-y,z
loop_
_atom_site_type_symbol
_atom_site_label
_atom_site_fract_x
_atom_site_fract_y
_atom_site_fract_z
Si Si1 0.375996 0.607129 0.660970
Si Si2 0.160790 0.895302 0.531579
Si Si3 0.283288 0.561012 0.441467
Si Si4 0.405541 0.115627 0.596857
Si Si5 0.380717 0.608087 0.229384
Si Si6 0.861218 0.116436 0.858569
Si Si7 0.876950 0.874844 0.293736
Si Si8 0.438669 0.195417 0.946881
O O1 0.344115 0.369848 0.623630
O O2 0.480740 0.504597 0.703378
O O3 0.230730 0.688649 0.687052
O O4 0.431279 0.866287 0.632861
O O5 0.291988 0.049647 0.554191
O O6 0.046992 0.071178 0.501538
O O7 0.218120 0.690937 0.491312
O O8 0.058524 0.789021 0.575527
O O9 0.225831 0.666664 0.388353
O O10 0.452312 0.565048 0.443413
O O11 0.227857 0.269229 0.443121
O O12 0.320503 0.372627 0.262920
O O13 0.410866 0.867761 0.261236
O O14 0.974385 0.220867 0.818156
O O15 0.747841 0.927943 0.832976
O O16 0.965956 0.981723 0.898863
#
# Coordination Sequence:
#
# PCOD8169286 Si02
#       8
#     4   4   4   4   4   4   4   4
#     4  12  26  48  72 103 140 183 234 301 370 420
#     4  11  26  43  66 107 142 191 240 288 356 416
#     4  11  26  44  69  99 153 189 238 293 358 419
#     4  12  26  44  76 103 142 185 242 293 350 441
#     4  12  26  48  72 103 140 183 234 301 370 420
#     4  11  26  43  66 107 142 191 240 288 356 416
#     4  12  26  44  76 103 142 185 242 293 350 441
#     4  11  26  44  69  99 153 189 238 297 352 427
#
# _framework density 24.572488
#
# number of rings (size 3 to 8) (size 9 to 14) (size 15 to 20)
#    0.000    0.500    2.500    4.500   10.500    0.000 
#    0.000    0.000    0.000    0.000    0.000    0.000 
#    0.000    0.000    0.000    0.000    0.000    0.000 
#
# Total GULP energy -396613.481338 kJ/mol
# GULP energy per Si atom -12394.171292 kJ/mol
# Density = 2.451656 g / cm^3
# Si number density = 24.572488 Si / 1000 Ang^3
#
#
#
# Elastic Constant Matrix: (Units=GPa)
#
#
# Indices 1 2 3 4 5 6 
#
# 1 78.6744 -22.0674 15.6407 0.0000 0.0000 0.0000
# 2 -22.0674 67.2109 20.1753 0.0000 0.0000 0.0000
# 3 15.6407 20.1753 108.7893 0.0000 0.0000 0.0000
# 4 0.0000 0.0000 0.0000 10.2957 0.0000 0.0000
# 5 0.0000 0.0000 0.0000 0.0000 21.0122 0.0000
# 6 0.0000 0.0000 0.0000 0.0000 0.0000 38.5026
#
#
#
# Elastic Compliance Matrix: (Units=1/GPa)
#
#
# Indices 1 2 3 4 5 6 
#
# 1 0.015014 0.005906 -0.003254 0.000000 0.000000 0.000000
# 2 0.005906 0.018079 -0.004202 0.000000 0.000000 0.000000
# 3 -0.003254 -0.004202 0.010439 0.000000 0.000000 0.000000
# 4 0.000000 0.000000 0.000000 0.097128 0.000000 0.000000
# 5 0.000000 0.000000 0.000000 0.000000 0.047591 0.000000
# 6 0.000000 0.000000 0.000000 0.000000 0.000000 0.025972
#
#
# Mechanical properties :
#
#
# Convention : Reuss Voigt Hill
#
# Bulk Modulus (GPa) = 24.73202 31.35242 28.04222
# Shear Modulus (GPa) = 21.66362 30.02381 25.84372
#
# Velocity S-wave (km/s) = 2.97243 3.49928 3.24656
# Velocity P-wave (km/s) = 4.67624 5.39569 5.04880
#
# Compressibility (1/GPa) = 0.04043342
#
# Stress axis : x y z
#
# Youngs Moduli (GPa) = 66.60359 55.31230 95.79293
#
# Poissons Ratio (x) = -0.32670 0.31171
# Poissons Ratio (y) = -0.39339 0.40252
# Poissons Ratio (z) = 0.21673 0.23242
#
# Static dielectric constant tensor:
#      x y z
#    x 4.311140 0.000000 0.000000 
#    y 0.000000 4.261180 0.000000 
#    z 0.000000 0.000000 4.766330 
# 
# 
# High freq. dielectric constant tensor:
#      x y z
#    x 1.989630 0.000000 0.000000 
#    y 0.000000 1.964420 0.000000 
#    z 0.000000 0.000000 1.999470 
# 
# From -- ./inp_files/5822.got.cif
#   From: 2010.03.12/outbox.cif.g09.slc.cpg/sg29_3_cif.got.tgz:5822.got - 2010.04.14 03:43:10.
