data_PCOD8169575
_publ_section_title
;
Structure prediction by ZEFSAII (Michael W. Deem and Ramdas Pophale) SiO2 
 PCOD8169575
Probable space group: P N C 2
;
_chemical_formula_sum "Si O2"
_cell_formula_units_Z 26
_cell_length_a 8.118924
_cell_length_b 9.953075
_cell_length_c 13.958024
_cell_angle_alpha 90.000000
_cell_angle_beta 90.000000
_cell_angle_gamma 90.000000
_cell_volume 1127.923625
_symmetry_space_group_name_H-M "P N C 2"
_symmetry_group_IT_number 30
_symmetry_cell_setting 'orthorhombic'
loop_
_space_group_symop_operation_xyz
x,y,z
-x,-y,z
-x,1/2+y,1/2+z
x,1/2-y,1/2+z
loop_
_atom_site_type_symbol
_atom_site_label
_atom_site_fract_x
_atom_site_fract_y
_atom_site_fract_z
Si Si1 0.560018 0.765333 0.287780
Si Si2 0.248245 0.076310 0.653517
Si Si3 0.097622 0.807178 0.705020
Si Si4 0.226997 0.734655 0.893527
Si Si5 0.500000 0.000000 0.144199
Si Si6 0.166252 0.919075 0.070176
Si Si7 0.317285 0.051330 0.435879
O O1 0.624076 0.635217 0.230677
O O2 0.407291 0.724749 0.354757
O O3 0.493779 0.868602 0.208979
O O4 0.703913 0.829255 0.356784
O O5 0.300574 0.104838 0.544060
O O6 0.077506 0.151505 0.665805
O O7 0.233520 0.917229 0.672483
O O8 0.092398 0.792513 0.819676
O O9 0.143371 0.659219 0.669399
O O10 0.198687 0.574864 0.912161
O O11 0.194993 0.805732 0.992528
O O12 0.332433 0.008966 0.079847
O O13 0.000000 0.000000 0.045568
O O14 0.500000 0.000000 0.419168
#
# Coordination Sequence:
#
# PCOD8169575 Si02
#       7
#     4   4   4   4   2   4   4
#     4  11  23  44  76 108 139 191 252 304 374 462
#     4  11  26  42  73 108 145 193 246 304 383 450
#     4  11  25  48  66 104 150 190 241 313 370 443
#     4  11  24  46  73 102 147 191 243 313 375 441
#     4  12  24  48  76 104 148 198 254 300 382 454
#     4  12  27  48  74 106 151 197 251 316 371 452
#     4  10  22  45  73 105 140 194 247 305 374 454
#
# _framework density 23.051205
#
# number of rings (size 3 to 8) (size 9 to 14) (size 15 to 20)
#    0.000    0.923    5.385    0.923    8.615    2.462 
#    0.000    0.000    0.000    0.000    0.000    0.000 
#    0.000    0.000    0.000    0.000    0.000    0.000 
#
# Total GULP energy -322377.019172 kJ/mol
# GULP energy per Si atom -12399.116122 kJ/mol
# Density = 2.299874 g / cm^3
# Si number density = 23.051205 Si / 1000 Ang^3
#
#
#
# Elastic Constant Matrix: (Units=GPa)
#
#
# Indices 1 2 3 4 5 6 
#
# 1 87.9909 31.2230 11.5023 0.0000 0.0000 0.0000
# 2 31.2230 73.8123 17.1387 0.0000 0.0000 0.0000
# 3 11.5023 17.1387 108.6872 0.0000 0.0000 0.0000
# 4 0.0000 0.0000 0.0000 48.0867 0.0000 0.0000
# 5 0.0000 0.0000 0.0000 0.0000 -9.8102 0.0000
# 6 0.0000 0.0000 0.0000 0.0000 0.0000 29.5344
#
#
#
# Elastic Compliance Matrix: (Units=1/GPa)
#
#
# Indices 1 2 3 4 5 6 
#
# 1 0.013403 -0.005543 -0.000544 0.000000 0.000000 0.000000
# 2 -0.005543 0.016355 -0.001992 0.000000 0.000000 0.000000
# 3 -0.000544 -0.001992 0.009573 0.000000 0.000000 0.000000
# 4 0.000000 0.000000 0.000000 0.020796 0.000000 0.000000
# 5 0.000000 0.000000 0.000000 0.000000 -0.101934 0.000000
# 6 0.000000 0.000000 0.000000 0.000000 0.000000 0.033859
#
#
# Mechanical properties :
#
#
# Convention : Reuss Voigt Hill
#
# Bulk Modulus (GPa) = 43.15745 43.35758 43.25752
# Shear Modulus (GPa) = 313.79142 27.60396 170.69769
#
# Velocity S-wave (km/s) = 11.68005 3.46425 8.61466
# Velocity P-wave (km/s) = 14.16549 5.90352 10.85156
#
# Compressibility (1/GPa) = 0.02317097
#
# Stress axis : x y z
#
# Youngs Moduli (GPa) = 74.61073 61.14245 104.46591
#
# Poissons Ratio (x) = 0.33892 0.05686
# Poissons Ratio (y) = 0.41357 0.20814
# Poissons Ratio (z) = 0.04061 0.12182
#
# Static dielectric constant tensor:
#      x y z
#    x 4.316220 0.000000 0.000000 
#    y 0.000000 4.336500 0.000000 
#    z 0.000000 0.000000 4.260340 
# 
# 
# High freq. dielectric constant tensor:
#      x y z
#    x 1.903380 0.000000 0.000000 
#    y 0.000000 1.907090 0.000000 
#    z 0.000000 0.000000 1.922590 
# 
# From -- ./inp_files/3671.got.cif
#   From: 2010.03.12/outbox.cif.g09.slc.cpg/sg30_2_cif.got.tgz:3671.got - 2010.04.14 01:38:02.
