data_PCOD8169096
_publ_section_title
;
Structure prediction by ZEFSAII (Michael W. Deem and Ramdas Pophale) SiO2 
 PCOD8169096
Probable space group: P C A 21
;
_chemical_formula_sum "Si O2"
_cell_formula_units_Z 32
_cell_length_a 19.587063
_cell_length_b 12.488177
_cell_length_c 5.382694
_cell_angle_alpha 90.000000
_cell_angle_beta 90.000000
_cell_angle_gamma 90.000000
_cell_volume 1316.643068
_symmetry_space_group_name_H-M "P C A 21"
_symmetry_group_IT_number 29
_symmetry_cell_setting 'orthorhombic'
loop_
_space_group_symop_operation_xyz
x,y,z
-x,-y,1/2+z
1/2-x,y,1/2+z
1/2+x,-y,z
loop_
_atom_site_type_symbol
_atom_site_label
_atom_site_fract_x
_atom_site_fract_y
_atom_site_fract_z
Si Si1 0.906985 0.515253 0.411610
Si Si2 0.023943 0.146441 0.921024
Si Si3 0.793385 0.875420 0.979194
Si Si4 0.290093 0.583234 0.668841
Si Si5 0.006762 0.648898 0.678203
Si Si6 0.900929 0.008800 0.753348
Si Si7 0.790655 0.168767 0.638053
Si Si8 0.394318 0.299283 0.066459
O O1 0.858117 0.488731 0.644181
O O2 0.981422 0.565069 0.469219
O O3 0.869522 0.602429 0.238742
O O4 0.923051 0.399174 0.286386
O O5 0.059832 0.208575 0.698491
O O6 0.973740 0.052094 0.841209
O O7 0.978482 0.232430 0.075855
O O8 0.084950 0.093715 0.078588
O O9 0.749563 0.894241 0.728851
O O10 0.854627 0.963109 0.978564
O O11 0.824925 0.755873 0.969496
O O12 0.241533 0.554428 0.434882
O O13 0.310165 0.707071 0.647644
O O14 0.940445 0.652702 0.851541
O O15 0.861003 0.103411 0.612732
O O16 0.747127 0.137733 0.394988
#
# Coordination Sequence:
#
# PCOD8169096 Si02
#       8
#     4   4   4   4   4   4   4   4
#     4  11  25  42  79 100 145 188 244 299 376 438
#     4  11  27  44  72 107 148 184 235 315 357 439
#     4  12  27  48  75 105 150 198 244 303 356 434
#     4  10  25  45  69 106 146 188 244 304 365 440
#     4  11  24  46  69 110 139 187 242 303 370 434
#     4  12  25  46  73 105 141 191 247 287 377 428
#     4  10  24  46  70 101 143 189 243 298 353 435
#     4  11  25  49  67 108 142 185 245 297 366 440
#
# _framework density 24.304231999999999
#
# number of rings (size 3 to 8) (size 9 to 14) (size 15 to 20)
#    0.000    1.000    2.500    2.250    5.250    6.000 
#    0.000    0.000    0.000    0.000    0.000    0.000 
#    0.000    0.000    0.000    0.000    0.000    0.000 
#
# Total GULP energy -396788.767566 kJ/mol
# GULP energy per Si atom -12399.648986 kJ/mol
# Density = 2.424891 g / cm^3
# Si number density = 24.304232 Si / 1000 Ang^3
#
#
#
# Elastic Constant Matrix: (Units=GPa)
#
#
# Indices 1 2 3 4 5 6 
#
# 1 70.0626 24.7625 14.2532 0.0000 0.0000 0.0000
# 2 24.7625 70.6880 11.2860 0.0000 0.0000 0.0000
# 3 14.2532 11.2860 93.4927 0.0000 0.0000 0.0000
# 4 0.0000 0.0000 0.0000 33.1403 0.0000 0.0000
# 5 0.0000 0.0000 0.0000 0.0000 30.9925 0.0000
# 6 0.0000 0.0000 0.0000 0.0000 0.0000 34.7385
#
#
#
# Elastic Compliance Matrix: (Units=1/GPa)
#
#
# Indices 1 2 3 4 5 6 
#
# 1 0.016603 -0.005518 -0.001865 0.000000 0.000000 0.000000
# 2 -0.005518 0.016259 -0.001121 0.000000 0.000000 0.000000
# 3 -0.001865 -0.001121 0.011116 0.000000 0.000000 0.000000
# 4 0.000000 0.000000 0.000000 0.030175 0.000000 0.000000
# 5 0.000000 0.000000 0.000000 0.000000 0.032266 0.000000
# 6 0.000000 0.000000 0.000000 0.000000 0.000000 0.028786
#
#
# Mechanical properties :
#
#
# Convention : Reuss Voigt Hill
#
# Bulk Modulus (GPa) = 37.08116 37.20519 37.14318
# Shear Modulus (GPa) = 31.01681 32.03704 31.52693
#
# Velocity S-wave (km/s) = 3.57626 3.63460 3.60554
# Velocity P-wave (km/s) = 5.68709 5.74065 5.71393
#
# Compressibility (1/GPa) = 0.02696787
#
# Stress axis : x y z
#
# Youngs Moduli (GPa) = 60.23119 61.50516 89.96269
#
# Poissons Ratio (x) = 0.33940 0.16778
# Poissons Ratio (y) = 0.33237 0.10089
# Poissons Ratio (z) = 0.11233 0.06897
#
# Static dielectric constant tensor:
#      x y z
#    x 4.071350 0.000000 0.000000 
#    y 0.000000 4.565960 0.000000 
#    z 0.000000 0.000000 4.413240 
# 
# 
# High freq. dielectric constant tensor:
#      x y z
#    x 1.954480 0.000000 0.000000 
#    y 0.000000 1.988590 0.000000 
#    z 0.000000 0.000000 1.962980 
# 
# From -- ./inp_files/560.got.cif
#   From: 2010.03.12/outbox.cif.g09.slc.cpg/sg29_1_cif.got.tgz:560.got - 2010.04.14 03:43:10.
