data_PCOD8169945
_publ_section_title
;
Structure prediction by ZEFSAII (Michael W. Deem and Ramdas Pophale) SiO2 
 PCOD8169945
Probable space group: P M N 21
;
_chemical_formula_sum "Si O2"
_cell_formula_units_Z 32
_cell_length_a 9.016547
_cell_length_b 14.585477
_cell_length_c 12.442233
_cell_angle_alpha 90.000000
_cell_angle_beta 90.000000
_cell_angle_gamma 90.000000
_cell_volume 1636.286011
_symmetry_space_group_name_H-M "P M N 21"
_symmetry_group_IT_number 31
_symmetry_cell_setting 'orthorhombic'
loop_
_space_group_symop_operation_xyz
x,y,z
1/2-x,-y,1/2+z
-x,y,z
1/2+x,-y,1/2+z
loop_
_atom_site_type_symbol
_atom_site_label
_atom_site_fract_x
_atom_site_fract_y
_atom_site_fract_z
Si Si1 0.327800 0.623434 0.250000
Si Si2 0.663217 0.842140 0.728759
Si Si3 0.176223 0.326571 0.512726
Si Si4 0.329877 0.874788 0.965259
Si Si5 0.674522 0.321705 0.137172
Si Si6 0.836287 0.052815 0.016606
Si Si7 0.827685 0.244284 0.936080
Si Si8 0.676202 0.555670 0.807118
O O1 0.500000 0.594098 0.250804
O O2 0.268883 0.635294 0.127951
O O3 0.306684 0.719219 0.314911
O O4 0.231369 0.548754 0.313901
O O5 0.500000 0.792842 0.736162
O O6 0.697787 0.891666 0.839749
O O7 0.790309 0.768494 0.706256
O O8 0.659618 0.919991 0.640510
O O9 0.240328 0.223456 0.498813
O O10 0.232034 0.390441 0.414166
O O11 0.000000 0.323281 0.510202
O O12 0.500000 0.875069 0.999286
O O13 0.258424 0.961476 0.021383
O O14 0.500000 0.338963 0.129186
O O15 0.750049 0.406284 0.198201
O O16 0.740295 0.310928 0.017590
O O17 0.769826 0.138655 0.946850
O O18 0.000000 0.029431 0.972777
O O19 0.000000 0.244798 0.972236
O O20 0.500000 0.559496 0.797749
#
# Coordination Sequence:
#
# PCOD8169945 Si02
#       8
#     4   4   4   4   4   4   4   4
#     4  10  22  40  61  88 117 153 198 243 287 348
#     4   9  18  36  56  77 110 151 191 236 297 350
#     4   9  20  39  61  84 116 153 193 239 291 351
#     4  10  19  35  59  83 110 152 195 235 287 347
#     4  11  21  34  58  86 110 143 196 250 286 336
#     4   9  19  34  54  83 116 153 191 235 289 343
#     4   9  20  39  59  81 120 161 192 234 298 353
#     4  11  22  39  60  84 117 156 190 234 301 358
#
# _framework density 19.556483
#
# number of rings (size 3 to 8) (size 9 to 14) (size 15 to 20)
#    0.000    2.250    1.250    2.250    1.750    4.000 
#    0.000    2.500    0.000    0.000    0.000    0.000 
#    0.000    0.000    0.000    0.000    0.000    0.000 
#
# Total GULP energy -396672.070988 kJ/mol
# GULP energy per Si atom -12396.002218 kJ/mol
# Density = 1.951197 g / cm^3
# Si number density = 19.556483 Si / 1000 Ang^3
#
#
#
# Elastic Constant Matrix: (Units=GPa)
#
#
# Indices 1 2 3 4 5 6 
#
# 1 65.5516 32.3462 28.5764 0.0000 0.0000 0.0000
# 2 32.3462 125.5877 49.0471 0.0000 0.0000 0.0000
# 3 28.5764 49.0471 95.8738 0.0000 0.0000 0.0000
# 4 0.0000 0.0000 0.0000 25.6481 0.0000 0.0000
# 5 0.0000 0.0000 0.0000 0.0000 18.8524 0.0000
# 6 0.0000 0.0000 0.0000 0.0000 0.0000 33.7923
#
#
#
# Elastic Compliance Matrix: (Units=1/GPa)
#
#
# Indices 1 2 3 4 5 6 
#
# 1 0.018550 -0.003272 -0.003855 0.000000 0.000000 0.000000
# 2 -0.003272 0.010528 -0.004411 0.000000 0.000000 0.000000
# 3 -0.003855 -0.004411 0.013836 0.000000 0.000000 0.000000
# 4 0.000000 0.000000 0.000000 0.038989 0.000000 0.000000
# 5 0.000000 0.000000 0.000000 0.000000 0.053044 0.000000
# 6 0.000000 0.000000 0.000000 0.000000 0.000000 0.029593
#
#
# Mechanical properties :
#
#
# Convention : Reuss Voigt Hill
#
# Bulk Modulus (GPa) = 50.40767 56.32804 53.36786
# Shear Modulus (GPa) = 25.74295 27.46146 26.60220
#
# Velocity S-wave (km/s) = 3.63207 3.75135 3.69219
# Velocity P-wave (km/s) = 6.58944 6.90136 6.74720
#
# Compressibility (1/GPa) = 0.01983825
#
# Stress axis : x y z
#
# Youngs Moduli (GPa) = 53.90709 94.98633 72.27636
#
# Poissons Ratio (x) = 0.31082 0.27864
# Poissons Ratio (y) = 0.17640 0.31877
# Poissons Ratio (z) = 0.20782 0.41894
#
# Static dielectric constant tensor:
#      x y z
#    x 3.377830 0.000000 0.000000 
#    y 0.000000 3.511090 0.000000 
#    z 0.000000 0.000000 3.639700 
# 
# 
# High freq. dielectric constant tensor:
#      x y z
#    x 1.736310 0.000000 0.000000 
#    y 0.000000 1.760010 0.000000 
#    z 0.000000 0.000000 1.765320 
# 
# From -- ./inp_files/3717.got.cif
#   From: 2010.03.12/outbox.cif.g09.slc.cpg/sg31_2_cif.got.tgz:3717.got - 2010.04.14 01:42:59.
