data_PCOD8169517
_publ_section_title
;
Structure prediction by ZEFSAII (Michael W. Deem and Ramdas Pophale) SiO2 
 PCOD8169517
Probable space group: P N C 2
;
_chemical_formula_sum "Si O2"
_cell_formula_units_Z 30
_cell_length_a 6.505728
_cell_length_b 20.705073
_cell_length_c 10.469812
_cell_angle_alpha 90.000000
_cell_angle_beta 90.000000
_cell_angle_gamma 90.000000
_cell_volume 1410.300147
_symmetry_space_group_name_H-M "P N C 2"
_symmetry_group_IT_number 30
_symmetry_cell_setting 'orthorhombic'
loop_
_space_group_symop_operation_xyz
x,y,z
-x,-y,z
-x,1/2+y,1/2+z
x,1/2-y,1/2+z
loop_
_atom_site_type_symbol
_atom_site_label
_atom_site_fract_x
_atom_site_fract_y
_atom_site_fract_z
Si Si1 0.683905 0.051532 0.095620
Si Si2 0.811458 0.719427 0.569156
Si Si3 0.100090 0.870010 0.902997
Si Si4 0.000000 0.500000 0.799647
Si Si5 0.486609 0.714875 0.355499
Si Si6 0.524171 0.655997 0.747774
Si Si7 0.811760 0.648239 0.177705
Si Si8 0.345179 0.059950 0.458518
O O1 0.584044 0.120640 0.128815
O O2 0.500000 0.000000 0.071198
O O3 0.827098 0.062578 0.970334
O O4 0.828634 0.033400 0.212798
O O5 0.606195 0.731009 0.485907
O O6 0.747276 0.681858 0.699584
O O7 0.907727 0.790727 0.598178
O O8 0.969633 0.673260 0.499381
O O9 0.299485 0.831114 0.872338
O O10 0.978943 0.884724 0.771900
O O11 0.873466 0.546473 0.892186
O O12 0.398744 0.781421 0.295107
O O13 0.630713 0.678356 0.257922
O O14 0.535008 0.608062 0.866408
O O15 0.714214 0.592172 0.092105
O O16 0.500000 0.000000 0.482469
#
# Coordination Sequence:
#
# PCOD8169517 Si02
#       8
#     4   4   4   2   4   4   4   4
#     4  12  25  43  67  99 135 178 232 291 339 403
#     4  10  21  41  68 101 135 167 220 289 345 401
#     4  11  25  42  68 102 133 179 230 272 348 421
#     4  12  24  42  68 100 124 170 244 280 338 394
#     4  10  22  41  68  99 132 176 213 284 351 401
#     4  11  20  42  69  98 131 170 219 288 348 395
#     4  10  25  43  64 101 142 174 222 279 347 422
#     4  12  24  45  67  95 138 185 224 283 346 412
#
# _framework density 21.272067
#
# number of rings (size 3 to 8) (size 9 to 14) (size 15 to 20)
#    0.000    1.067    5.333    0.800    1.867    2.133 
#    0.000    4.000    0.000    0.000    0.000    0.000 
#    0.000    0.000    0.000    0.000    0.000    0.000 
#
# Total GULP energy -371863.412816 kJ/mol
# GULP energy per Si atom -12395.447094 kJ/mol
# Density = 2.122365 g / cm^3
# Si number density = 21.272067 Si / 1000 Ang^3
#
#
#
# Elastic Constant Matrix: (Units=GPa)
#
#
# Indices 1 2 3 4 5 6 
#
# 1 70.1759 34.6336 29.0123 0.0000 0.0000 0.0000
# 2 34.6336 95.8106 51.3499 0.0000 0.0000 0.0000
# 3 29.0123 51.3499 109.9079 0.0000 0.0000 0.0000
# 4 0.0000 0.0000 0.0000 32.3347 0.0000 0.0000
# 5 0.0000 0.0000 0.0000 0.0000 33.5227 0.0000
# 6 0.0000 0.0000 0.0000 0.0000 0.0000 30.1326
#
#
#
# Elastic Compliance Matrix: (Units=1/GPa)
#
#
# Indices 1 2 3 4 5 6 
#
# 1 0.017752 -0.005210 -0.002252 0.000000 0.000000 0.000000
# 2 -0.005210 0.015453 -0.005844 0.000000 0.000000 0.000000
# 3 -0.002252 -0.005844 0.012423 0.000000 0.000000 0.000000
# 4 0.000000 0.000000 0.000000 0.030926 0.000000 0.000000
# 5 0.000000 0.000000 0.000000 0.000000 0.029831 0.000000
# 6 0.000000 0.000000 0.000000 0.000000 0.000000 0.033187
#
#
# Mechanical properties :
#
#
# Convention : Reuss Voigt Hill
#
# Bulk Modulus (GPa) = 52.58774 56.20956 54.39865
# Shear Modulus (GPa) = 28.98150 29.92458 29.45304
#
# Velocity S-wave (km/s) = 3.69510 3.75474 3.72504
# Velocity P-wave (km/s) = 6.55593 6.72896 6.64301
#
# Compressibility (1/GPa) = 0.01901584
#
# Stress axis : x y z
#
# Youngs Moduli (GPa) = 56.33101 64.71241 80.49265
#
# Poissons Ratio (x) = 0.33717 0.18125
# Poissons Ratio (y) = 0.29350 0.47043
# Poissons Ratio (z) = 0.12684 0.37821
#
# Static dielectric constant tensor:
#      x y z
#    x 3.844430 0.000000 0.000000 
#    y 0.000000 4.118450 0.000000 
#    z 0.000000 0.000000 4.202040 
# 
# 
# High freq. dielectric constant tensor:
#      x y z
#    x 1.827820 0.000000 0.000000 
#    y 0.000000 1.836120 0.000000 
#    z 0.000000 0.000000 1.843860 
# 
# From -- ./inp_files/3254.got.cif
#   From: 2010.03.12/outbox.cif.g09.slc.cpg/sg30_2_cif.got.tgz:3254.got - 2010.04.14 01:38:02.
