data_PCOD8169998
_publ_section_title
;
Structure prediction by ZEFSAII (Michael W. Deem and Ramdas Pophale) SiO2 
 PCOD8169998
Probable space group: P M N 21
;
_chemical_formula_sum "Si O2"
_cell_formula_units_Z 32
_cell_length_a 8.768151
_cell_length_b 11.784345
_cell_length_c 15.343306
_cell_angle_alpha 90.000000
_cell_angle_beta 90.000000
_cell_angle_gamma 90.000000
_cell_volume 1585.376496
_symmetry_space_group_name_H-M "P M N 21"
_symmetry_group_IT_number 31
_symmetry_cell_setting 'orthorhombic'
loop_
_space_group_symop_operation_xyz
x,y,z
1/2-x,-y,1/2+z
-x,y,z
1/2+x,-y,1/2+z
loop_
_atom_site_type_symbol
_atom_site_label
_atom_site_fract_x
_atom_site_fract_y
_atom_site_fract_z
Si Si1 0.321160 0.768802 0.941550
Si Si2 0.320836 0.388917 0.782937
Si Si3 0.825546 0.010287 0.680478
Si Si4 0.822779 0.992911 0.880760
Si Si5 0.177721 0.765134 0.120570
Si Si6 0.323726 0.235674 0.112432
Si Si7 0.679838 0.366487 0.283373
Si Si8 0.178301 0.245627 0.933337
O O1 0.500000 0.757972 0.934717
O O2 0.273397 0.900076 0.932942
O O3 0.249418 0.690628 0.868127
O O4 0.267386 0.723025 0.035386
O O5 0.500000 0.413814 0.783959
O O6 0.271288 0.312909 0.700930
O O7 0.229256 0.504524 0.776019
O O8 0.275264 0.325434 0.870848
O O9 0.781236 0.982556 0.779467
O O10 0.800730 0.898355 0.623827
O O11 0.000000 0.053881 0.675582
O O12 0.715051 0.104962 0.642478
O O13 0.000000 0.967554 0.897219
O O14 0.775036 0.116034 0.915134
O O15 0.000000 0.754487 0.101321
O O16 0.500000 0.264978 0.094379
O O17 0.262922 0.300638 0.197603
O O18 0.221942 0.277612 0.031874
O O19 0.500000 0.356495 0.291906
O O20 0.000000 0.266469 0.916796
#
# Coordination Sequence:
#
# PCOD8169998 Si02
#       8
#     4   4   4   4   4   4   4   4
#     4  12  25  40  64  95 128 166 208 255 309 372
#     4  11  25  44  65  91 122 160 209 262 309 367
#     4  10  19  37  64  93 127 163 203 252 312 373
#     4  10  20  38  63  93 129 166 205 251 311 372
#     4  11  24  41  63  92 128 166 207 257 310 368
#     4  10  22  40  63  91 125 163 202 254 312 369
#     4  11  24  45  68  89 120 164 209 260 314 365
#     4  11  23  39  64  94 127 166 205 253 307 368
#
# _framework density 20.184477999999999
#
# number of rings (size 3 to 8) (size 9 to 14) (size 15 to 20)
#    0.000    1.250    2.500    3.375    0.000    7.500 
#    0.000    2.500    0.000    0.000    0.000    0.000 
#    0.000    0.000    0.000    0.000    0.000    0.000 
#
# Total GULP energy -397027.069881 kJ/mol
# GULP energy per Si atom -12407.095934 kJ/mol
# Density = 2.013854 g / cm^3
# Si number density = 20.184478 Si / 1000 Ang^3
#
#
#
# Elastic Constant Matrix: (Units=GPa)
#
#
# Indices 1 2 3 4 5 6 
#
# 1 55.0953 44.5500 -57.0251 0.0000 0.0000 0.0000
# 2 44.5500 88.5993 112.2071 0.0000 0.0000 0.0000
# 3 -57.0251 112.2071 -402.7531 0.0000 0.0000 0.0000
# 4 0.0000 0.0000 0.0000 5.0386 0.0000 0.0000
# 5 0.0000 0.0000 0.0000 0.0000 33.6387 0.0000
# 6 0.0000 0.0000 0.0000 0.0000 0.0000 32.2846
#
#
#
# Elastic Compliance Matrix: (Units=1/GPa)
#
#
# Indices 1 2 3 4 5 6 
#
# 1 0.017757 -0.004246 -0.003697 0.000000 0.000000 0.000000
# 2 -0.004246 0.009359 0.003209 0.000000 0.000000 0.000000
# 3 -0.003697 0.003209 -0.001066 0.000000 0.000000 0.000000
# 4 0.000000 0.000000 0.000000 0.198467 0.000000 0.000000
# 5 0.000000 0.000000 0.000000 0.000000 0.029728 0.000000
# 6 0.000000 0.000000 0.000000 0.000000 0.000000 0.030975
#
#
# Mechanical properties :
#
#
# Convention : Reuss Voigt Hill
#
# Bulk Modulus (GPa) = 60.31367 -6.62163 26.84602
# Shear Modulus (GPa) = 16.65464 -9.72698 3.46383
#
# Velocity S-wave (km/s) = 2.87561 -2.19761 1.31142
# Velocity P-wave (km/s) = 6.40090 3.11882 3.95250
#
# Compressibility (1/GPa) = 0.01657999
#
# Stress axis : x y z
#
# Youngs Moduli (GPa) = 56.31510 106.85462 -938.50184
#
# Poissons Ratio (x) = 0.45374 -3.46988
# Poissons Ratio (y) = 0.23913 3.01120
# Poissons Ratio (z) = 0.20821 -0.34285
#
# Static dielectric constant tensor:
#      x y z
#    x 3.605500 0.000000 0.000000 
#    y 0.000000 3.675960 0.000000 
#    z 0.000000 0.000000 3.938800 
# 
# 
# High freq. dielectric constant tensor:
#      x y z
#    x 1.788190 0.000000 0.000000 
#    y 0.000000 1.785300 0.000000 
#    z 0.000000 0.000000 1.806360 
# 
# From -- ./inp_files/5040.got.cif
#   From: 2010.03.12/outbox.cif.g09.slc.cpg/sg31_3_cif.got.tgz:5040.got - 2010.04.14 01:42:59.
