data_PCOD8169479
_publ_section_title
;
Structure prediction by ZEFSAII (Michael W. Deem and Ramdas Pophale) SiO2 
 PCOD8169479
Probable space group: P N C 2
;
_chemical_formula_sum "Si O2"
_cell_formula_units_Z 32
_cell_length_a 15.853730
_cell_length_b 18.552716
_cell_length_c 5.124355
_cell_angle_alpha 90.000000
_cell_angle_beta 90.000000
_cell_angle_gamma 90.000000
_cell_volume 1507.225256
_symmetry_space_group_name_H-M "P N C 2"
_symmetry_group_IT_number 30
_symmetry_cell_setting 'orthorhombic'
loop_
_space_group_symop_operation_xyz
x,y,z
-x,-y,z
-x,1/2+y,1/2+z
x,1/2-y,1/2+z
loop_
_atom_site_type_symbol
_atom_site_label
_atom_site_fract_x
_atom_site_fract_y
_atom_site_fract_z
Si Si1 0.835931 0.418690 0.861180
Si Si2 0.402900 0.795639 0.864598
Si Si3 0.162042 0.080820 0.387249
Si Si4 0.270677 0.418349 0.388943
Si Si5 0.597975 0.795528 0.887739
Si Si6 0.100631 0.778230 0.552549
Si Si7 0.272109 0.918554 0.859325
Si Si8 0.084309 0.282252 0.695222
O O1 0.874515 0.499324 0.876174
O O2 0.802113 0.404699 0.570366
O O3 0.907120 0.360071 0.945062
O O4 0.760888 0.406318 0.066675
O O5 0.379936 0.762531 0.584961
O O6 0.500507 0.817971 0.875674
O O7 0.350857 0.867841 0.914737
O O8 0.196894 0.095768 0.676413
O O9 0.087512 0.136201 0.305012
O O10 0.235942 0.094422 0.179312
O O11 0.349006 0.367048 0.335721
O O12 0.304958 0.499637 0.375128
O O13 0.620910 0.736988 0.668414
O O14 0.149676 0.729753 0.330589
O O15 0.011908 0.743890 0.654832
O O16 0.129572 0.268787 0.416727
#
# Coordination Sequence:
#
# PCOD8169479 Si02
#       8
#     4   4   4   4   4   4   4   4
#     4  10  21  37  57  82 114 147 185 234 284 335
#     4  10  21  36  54  80 114 150 189 234 285 338
#     4  10  21  37  57  82 114 147 185 234 284 335
#     4  10  21  36  56  83 111 147 192 233 280 336
#     4  10  21  36  54  80 114 150 189 234 285 338
#     4  10  21  37  57  83 111 142 182 227 275 336
#     4  10  21  36  56  83 111 147 192 233 280 336
#     4  10  21  37  57  83 111 142 182 227 275 336
#
# _framework density 21.231065999999998
#
# number of rings (size 3 to 8) (size 9 to 14) (size 15 to 20)
#    0.000    2.000    0.000    3.000    0.000    6.500 
#    0.000    2.500    0.000   15.000    0.000    0.000 
#    0.000    0.000    0.000    0.000    0.000    0.000 
#
# Total GULP energy -396552.228391 kJ/mol
# GULP energy per Si atom -12392.257137 kJ/mol
# Density = 2.118274 g / cm^3
# Si number density = 21.231066 Si / 1000 Ang^3
#
#
#
# Elastic Constant Matrix: (Units=GPa)
#
#
# Indices 1 2 3 4 5 6 
#
# 1 53.4561 64.1877 12.3607 0.0000 0.0000 0.0000
# 2 64.1877 163.5230 38.1157 0.0000 0.0000 0.0000
# 3 12.3607 38.1157 130.3071 0.0000 0.0000 0.0000
# 4 0.0000 0.0000 0.0000 30.5347 0.0000 0.0000
# 5 0.0000 0.0000 0.0000 0.0000 21.2030 0.0000
# 6 0.0000 0.0000 0.0000 0.0000 0.0000 31.0555
#
#
#
# Elastic Compliance Matrix: (Units=1/GPa)
#
#
# Indices 1 2 3 4 5 6 
#
# 1 0.035455 -0.014094 0.000759 0.000000 0.000000 0.000000
# 2 -0.014094 0.012166 -0.002222 0.000000 0.000000 0.000000
# 3 0.000759 -0.002222 0.008252 0.000000 0.000000 0.000000
# 4 0.000000 0.000000 0.000000 0.032750 0.000000 0.000000
# 5 0.000000 0.000000 0.000000 0.000000 0.047163 0.000000
# 6 0.000000 0.000000 0.000000 0.000000 0.000000 0.032200
#
#
# Mechanical properties :
#
#
# Convention : Reuss Voigt Hill
#
# Bulk Modulus (GPa) = 40.38782 64.06827 52.22805
# Shear Modulus (GPa) = 24.11364 32.06679 28.09021
#
# Velocity S-wave (km/s) = 3.37378 3.89057 3.64135
# Velocity P-wave (km/s) = 5.85156 7.10100 6.50634
#
# Compressibility (1/GPa) = 0.02475994
#
# Stress axis : x y z
#
# Youngs Moduli (GPa) = 28.20477 82.19930 121.18333
#
# Poissons Ratio (x) = 1.15853 -0.09203
# Poissons Ratio (y) = 0.39752 0.26922
# Poissons Ratio (z) = -0.02142 0.18261
#
# Static dielectric constant tensor:
#      x y z
#    x 3.531660 0.000000 0.000000 
#    y 0.000000 4.049860 0.000000 
#    z 0.000000 0.000000 5.928920 
# 
# 
# High freq. dielectric constant tensor:
#      x y z
#    x 1.790380 0.000000 0.000000 
#    y 0.000000 1.840680 0.000000 
#    z 0.000000 0.000000 1.870460 
# 
# From -- ./inp_files/1027.got.cif
#   From: 2010.03.12/outbox.cif.g09.slc.cpg/sg30_1_cif.got.tgz:1027.got - 2010.04.14 01:38:02.
