data_PCOD8169601
_publ_section_title
;
Structure prediction by ZEFSAII (Michael W. Deem and Ramdas Pophale) SiO2 
 PCOD8169601
Probable space group: P N C 2
;
_chemical_formula_sum "Si O2"
_cell_formula_units_Z 16
_cell_length_a 5.084464
_cell_length_b 14.738146
_cell_length_c 9.531806
_cell_angle_alpha 90.000000
_cell_angle_beta 90.000000
_cell_angle_gamma 90.000000
_cell_volume 714.271342
_symmetry_space_group_name_H-M "P N C 2"
_symmetry_group_IT_number 30
_symmetry_cell_setting 'orthorhombic'
loop_
_space_group_symop_operation_xyz
x,y,z
-x,-y,z
-x,1/2+y,1/2+z
x,1/2-y,1/2+z
loop_
_atom_site_type_symbol
_atom_site_label
_atom_site_fract_x
_atom_site_fract_y
_atom_site_fract_z
Si Si1 0.176412 0.824061 0.803770
Si Si2 0.976515 0.816736 0.496232
Si Si3 0.500000 0.500000 0.677377
Si Si4 0.000000 0.000000 0.356645
Si Si5 0.317420 0.354874 0.456865
O O1 0.142703 0.818950 0.638373
O O2 0.159163 0.723375 0.871545
O O3 0.460632 0.864603 0.837903
O O4 0.952210 0.886685 0.879716
O O5 0.722969 0.749362 0.512997
O O6 0.893920 0.918057 0.453677
O O7 0.250301 0.533565 0.766978
O O8 0.393941 0.415835 0.587976
#
# Coordination Sequence:
#
# PCOD8169601 Si02
#       5
#     4   4   2   2   4
#     4  10  24  41  73  95 141 181 234 288 367 419
#     4  10  26  44  68 106 140 186 235 298 364 426
#     4  12  26  48  68 108 136 198 244 294 366 450
#     4  12  28  40  76  98 152 178 252 300 366 438
#     4  10  25  41  72  94 141 181 237 290 353 431
#
# _framework density 22.400452000000001
#
# number of rings (size 3 to 8) (size 9 to 14) (size 15 to 20)
#    1.500    0.000    0.000    3.000   10.500    2.000 
#    0.000    0.000    0.000    0.000    0.000    0.000 
#    0.000    0.000    0.000    0.000    0.000    0.000 
#
# Total GULP energy -198281.149735 kJ/mol
# GULP energy per Si atom -12392.571858 kJ/mol
# Density = 2.234947 g / cm^3
# Si number density = 22.400452 Si / 1000 Ang^3
#
#
#
# Elastic Constant Matrix: (Units=GPa)
#
#
# Indices 1 2 3 4 5 6 
#
# 1 130.6558 32.2005 26.7622 0.0000 0.0000 0.0000
# 2 32.2005 128.4645 54.8923 0.0000 0.0000 0.0000
# 3 26.7622 54.8923 127.3933 0.0000 0.0000 0.0000
# 4 0.0000 0.0000 0.0000 24.6670 0.0000 0.0000
# 5 0.0000 0.0000 0.0000 0.0000 27.5623 0.0000
# 6 0.0000 0.0000 0.0000 0.0000 0.0000 22.4760
#
#
#
# Elastic Compliance Matrix: (Units=1/GPa)
#
#
# Indices 1 2 3 4 5 6 
#
# 1 0.008267 -0.001630 -0.001034 0.000000 0.000000 0.000000
# 2 -0.001630 0.009862 -0.003907 0.000000 0.000000 0.000000
# 3 -0.001034 -0.003907 0.009751 0.000000 0.000000 0.000000
# 4 0.000000 0.000000 0.000000 0.040540 0.000000 0.000000
# 5 0.000000 0.000000 0.000000 0.000000 0.036282 0.000000
# 6 0.000000 0.000000 0.000000 0.000000 0.000000 0.044492
#
#
# Mechanical properties :
#
#
# Convention : Reuss Voigt Hill
#
# Bulk Modulus (GPa) = 67.85714 68.24706 68.05210
# Shear Modulus (GPa) = 29.89550 33.11830 31.50690
#
# Velocity S-wave (km/s) = 3.65717 3.84925 3.75444
# Velocity P-wave (km/s) = 6.94203 7.09145 7.01713
#
# Compressibility (1/GPa) = 0.01473684
#
# Stress axis : x y z
#
# Youngs Moduli (GPa) = 120.95782 101.39534 102.55875
#
# Poissons Ratio (x) = 0.16531 0.10607
# Poissons Ratio (y) = 0.19720 0.40071
# Poissons Ratio (z) = 0.12510 0.39616
#
# Static dielectric constant tensor:
#      x y z
#    x 3.988670 0.000000 0.000000 
#    y 0.000000 3.842560 0.000000 
#    z 0.000000 0.000000 3.830850 
# 
# 
# High freq. dielectric constant tensor:
#      x y z
#    x 1.884000 0.000000 0.000000 
#    y 0.000000 1.863340 0.000000 
#    z 0.000000 0.000000 1.883190 
# 
# From -- ./inp_files/1233.got.cif
#   From: 2010.03.12/outbox.cif.g09.slc.cpg/sg30_1_cif.got.tgz:1233.got - 2010.04.14 01:38:02.
