data_PCOD8169562
_publ_section_title
;
Structure prediction by ZEFSAII (Michael W. Deem and Ramdas Pophale) SiO2 
 PCOD8169562
Probable space group: P N C 2
;
_chemical_formula_sum "Si O2"
_cell_formula_units_Z 20
_cell_length_a 8.318937
_cell_length_b 10.645377
_cell_length_c 9.298335
_cell_angle_alpha 90.000000
_cell_angle_beta 90.000000
_cell_angle_gamma 90.000000
_cell_volume 823.444002
_symmetry_space_group_name_H-M "P N C 2"
_symmetry_group_IT_number 30
_symmetry_cell_setting 'orthorhombic'
loop_
_space_group_symop_operation_xyz
x,y,z
-x,-y,z
-x,1/2+y,1/2+z
x,1/2-y,1/2+z
loop_
_atom_site_type_symbol
_atom_site_label
_atom_site_fract_x
_atom_site_fract_y
_atom_site_fract_z
Si Si1 0.601270 0.789570 0.039780
Si Si2 0.070069 0.369704 0.466021
Si Si3 0.903651 0.313395 0.181077
Si Si4 0.326830 0.013486 0.553438
Si Si5 0.608463 0.329986 0.809450
O O1 0.707085 0.661285 0.052788
O O2 0.527694 0.843742 0.187041
O O3 0.737005 0.885338 0.984346
O O4 0.455461 0.769422 0.928665
O O5 0.035784 0.349925 0.298222
O O6 0.991611 0.253989 0.550354
O O7 0.000000 0.500000 0.524871
O O8 0.817833 0.441664 0.130016
O O9 0.772124 0.220751 0.245434
O O10 0.352369 0.961104 0.389964
O O11 0.500000 0.000000 0.635648
#
# Coordination Sequence:
#
# PCOD8169562 Si02
#       5
#     4   4   4   4   4
#     4  11  25  45  71 107 143 185 239 290 358 423
#     4  12  30  46  69 107 147 190 230 291 366 424
#     4  12  24  48  70 103 143 184 241 291 352 430
#     4  10  22  42  77  99 136 186 239 293 354 405
#     4  11  21  45  75 104 134 187 242 289 348 418
#
# _framework density 24.288233000000002
#
# number of rings (size 3 to 8) (size 9 to 14) (size 15 to 20)
#    0.000    0.800    6.000    1.200    5.600    6.400 
#    0.000    2.000    0.000    0.000    0.000    0.000 
#    0.000    0.000    0.000    0.000    0.000    0.000 
#
# Total GULP energy -247966.267452 kJ/mol
# GULP energy per Si atom -12398.313373 kJ/mol
# Density = 2.423295 g / cm^3
# Si number density = 24.288233 Si / 1000 Ang^3
#
#
#
# Elastic Constant Matrix: (Units=GPa)
#
#
# Indices 1 2 3 4 5 6 
#
# 1 66.8737 7.4568 35.3897 0.0000 0.0000 0.0000
# 2 7.4568 56.4643 10.9303 0.0000 0.0000 0.0000
# 3 35.3897 10.9303 134.2981 0.0000 0.0000 0.0000
# 4 0.0000 0.0000 0.0000 24.2896 0.0000 0.0000
# 5 0.0000 0.0000 0.0000 0.0000 45.6033 0.0000
# 6 0.0000 0.0000 0.0000 0.0000 0.0000 41.0853
#
#
#
# Elastic Compliance Matrix: (Units=1/GPa)
#
#
# Indices 1 2 3 4 5 6 
#
# 1 0.017491 -0.001440 -0.004492 0.000000 0.000000 0.000000
# 2 -0.001440 0.018112 -0.001095 0.000000 0.000000 0.000000
# 3 -0.004492 -0.001095 0.008719 0.000000 0.000000 0.000000
# 4 0.000000 0.000000 0.000000 0.041170 0.000000 0.000000
# 5 0.000000 0.000000 0.000000 0.000000 0.021928 0.000000
# 6 0.000000 0.000000 0.000000 0.000000 0.000000 0.024340
#
#
# Mechanical properties :
#
#
# Convention : Reuss Voigt Hill
#
# Bulk Modulus (GPa) = 33.03741 40.57664 36.80703
# Shear Modulus (GPa) = 32.07103 35.78626 33.92864
#
# Velocity S-wave (km/s) = 3.63772 3.84265 3.74159
# Velocity P-wave (km/s) = 5.59247 6.03577 5.81835
#
# Compressibility (1/GPa) = 0.03026872
#
# Stress axis : x y z
#
# Youngs Moduli (GPa) = 57.17105 55.21076 114.69302
#
# Poissons Ratio (x) = 0.07953 0.51520
# Poissons Ratio (y) = 0.08235 0.12554
# Poissons Ratio (z) = 0.25681 0.06043
#
# Static dielectric constant tensor:
#      x y z
#    x 4.532910 0.000000 0.000000 
#    y 0.000000 4.494730 0.000000 
#    z 0.000000 0.000000 4.461660 
# 
# 
# High freq. dielectric constant tensor:
#      x y z
#    x 1.981310 0.000000 0.000000 
#    y 0.000000 1.958230 0.000000 
#    z 0.000000 0.000000 1.961140 
# 
# From -- ./inp_files/1694.got.cif
#   From: 2010.03.12/outbox.cif.g09.slc.cpg/sg30_1_cif.got.tgz:1694.got - 2010.04.14 01:38:02.
