data_PCOD8169334
_publ_section_title
;
Structure prediction by ZEFSAII (Michael W. Deem and Ramdas Pophale) SiO2 
 PCOD8169334
Probable space group: P C A 21
;
_chemical_formula_sum "Si O2"
_cell_formula_units_Z 24
_cell_length_a 12.783486
_cell_length_b 8.544552
_cell_length_c 9.344227
_cell_angle_alpha 90.000000
_cell_angle_beta 90.000000
_cell_angle_gamma 90.000000
_cell_volume 1020.662074
_symmetry_space_group_name_H-M "P C A 21"
_symmetry_group_IT_number 29
_symmetry_cell_setting 'orthorhombic'
loop_
_space_group_symop_operation_xyz
x,y,z
-x,-y,1/2+z
1/2-x,y,1/2+z
1/2+x,-y,z
loop_
_atom_site_type_symbol
_atom_site_label
_atom_site_fract_x
_atom_site_fract_y
_atom_site_fract_z
Si Si1 0.111656 0.699387 0.180650
Si Si2 0.997163 0.157071 0.937940
Si Si3 0.355964 0.356022 0.797163
Si Si4 0.042244 0.824078 0.891900
Si Si5 0.180689 0.879598 0.637794
Si Si6 0.230305 0.207335 0.037835
O O1 0.029831 0.801421 0.273520
O O2 0.118300 0.532172 0.255933
O O3 0.226411 0.766915 0.180341
O O4 0.076375 0.699382 0.014004
O O5 0.902143 0.216974 0.039524
O O6 0.988595 0.971095 0.969036
O O7 0.112173 0.219773 0.976501
O O8 0.465140 0.264045 0.784012
O O9 0.269952 0.280587 0.694592
O O10 0.307912 0.324105 0.953689
O O11 0.131451 0.908759 0.795295
O O12 0.226077 0.031317 0.554570
#
# Coordination Sequence:
#
# PCOD8169334 Si02
#       6
#     4   4   4   4   4   4
#     4  12  30  46  78 113 156 203 251 320 393 459
#     4  12  25  49  78 113 143 199 262 320 376 461
#     4  12  30  47  76 112 160 204 249 327 394 464
#     4  12  25  50  77 113 151 198 262 314 382 460
#     4  12  25  49  80 108 150 202 262 315 374 468
#     4  12  27  51  77 115 152 202 262 320 391 462
#
# _framework density 23.514150999999998
#
# number of rings (size 3 to 8) (size 9 to 14) (size 15 to 20)
#    0.000    0.000    5.000    4.000    9.333    0.000 
#    0.000    0.000    0.000    0.000    0.000    0.000 
#    0.000    0.000    0.000    0.000    0.000    0.000 
#
# Total GULP energy -297501.429927 kJ/mol
# GULP energy per Si atom -12395.892914 kJ/mol
# Density = 2.346063 g / cm^3
# Si number density = 23.514151 Si / 1000 Ang^3
#
#
#
# Elastic Constant Matrix: (Units=GPa)
#
#
# Indices 1 2 3 4 5 6 
#
# 1 111.9910 22.2587 32.3104 0.0000 0.0000 0.0000
# 2 22.2587 102.6936 13.1435 0.0000 0.0000 0.0000
# 3 32.3104 13.1435 112.7343 0.0000 0.0000 0.0000
# 4 0.0000 0.0000 0.0000 43.0371 0.0000 0.0000
# 5 0.0000 0.0000 0.0000 0.0000 43.9580 0.0000
# 6 0.0000 0.0000 0.0000 0.0000 0.0000 26.7116
#
#
#
# Elastic Compliance Matrix: (Units=1/GPa)
#
#
# Indices 1 2 3 4 5 6 
#
# 1 0.010065 -0.001840 -0.002670 0.000000 0.000000 0.000000
# 2 -0.001840 0.010222 -0.000664 0.000000 0.000000 0.000000
# 3 -0.002670 -0.000664 0.009713 0.000000 0.000000 0.000000
# 4 0.000000 0.000000 0.000000 0.023236 0.000000 0.000000
# 5 0.000000 0.000000 0.000000 0.000000 0.022749 0.000000
# 6 0.000000 0.000000 0.000000 0.000000 0.000000 0.037437
#
#
# Mechanical properties :
#
#
# Convention : Reuss Voigt Hill
#
# Bulk Modulus (GPa) = 50.88812 51.42715 51.15763
# Shear Modulus (GPa) = 38.36673 40.05509 39.21091
#
# Velocity S-wave (km/s) = 4.04374 4.13176 4.08799
# Velocity P-wave (km/s) = 6.59477 6.68432 6.63969
#
# Compressibility (1/GPa) = 0.01965095
#
# Stress axis : x y z
#
# Youngs Moduli (GPa) = 99.35047 97.83272 102.95271
#
# Poissons Ratio (x) = 0.18000 0.27491
# Poissons Ratio (y) = 0.18279 0.06840
# Poissons Ratio (z) = 0.26530 0.06500
#
# Static dielectric constant tensor:
#      x y z
#    x 4.405030 0.000000 0.000000 
#    y 0.000000 3.885780 0.000000 
#    z 0.000000 0.000000 4.421720 
# 
# 
# High freq. dielectric constant tensor:
#      x y z
#    x 1.951130 0.000000 0.000000 
#    y 0.000000 1.905400 0.000000 
#    z 0.000000 0.000000 1.949510 
# 
# From -- ./inp_files/1398.got.cif
#   From: 2010.03.12/outbox.cif.g09.slc.cpg/sg29_1_cif.got.tgz:1398.got - 2010.04.14 03:43:10.
