data_PCOD8169114
_publ_section_title
;
Structure prediction by ZEFSAII (Michael W. Deem and Ramdas Pophale) SiO2 
 PCOD8169114
Probable space group: P C A 21
;
_chemical_formula_sum "Si O2"
_cell_formula_units_Z 24
_cell_length_a 11.145622
_cell_length_b 7.887447
_cell_length_c 12.158802
_cell_angle_alpha 90.000000
_cell_angle_beta 90.000000
_cell_angle_gamma 90.000000
_cell_volume 1068.886397
_symmetry_space_group_name_H-M "P C A 21"
_symmetry_group_IT_number 29
_symmetry_cell_setting 'orthorhombic'
loop_
_space_group_symop_operation_xyz
x,y,z
-x,-y,1/2+z
1/2-x,y,1/2+z
1/2+x,-y,z
loop_
_atom_site_type_symbol
_atom_site_label
_atom_site_fract_x
_atom_site_fract_y
_atom_site_fract_z
Si Si1 0.696208 0.182092 0.034220
Si Si2 0.696209 0.817909 0.487063
Si Si3 0.931356 0.331490 0.115293
Si Si4 0.931357 0.668511 0.405991
Si Si5 0.529347 0.716909 0.665409
Si Si6 0.470653 0.716909 0.355874
O O1 0.790623 0.315267 0.086788
O O2 0.582495 0.179457 0.116271
O O3 0.654662 0.237621 0.913417
O O4 0.750000 0.000000 0.010641
O O5 0.790624 0.684733 0.434496
O O6 0.654663 0.762381 0.607866
O O7 0.582495 0.820543 0.405013
O O8 0.983157 0.517815 0.138931
O O9 0.959385 0.230999 0.227918
O O10 0.999999 0.250508 0.010642
O O11 0.959385 0.769002 0.293366
O O12 0.983157 0.482185 0.382353
#
# Coordination Sequence:
#
# PCOD8169114 Si02
#       6
#     4   4   4   4   4   4
#     4  11  25  46  66 102 145 179 229 288 354 417
#     4  11  25  46  66 102 145 179 229 288 354 417
#     4  11  24  43  76  99 135 182 235 290 341 412
#     4  11  24  43  76  99 135 182 235 290 341 412
#     4  10  25  46  70 104 134 182 243 284 345 418
#     4  10  25  46  70 104 134 182 243 284 345 418
#
# _framework density 22.453275000000001
#
# number of rings (size 3 to 8) (size 9 to 14) (size 15 to 20)
#    0.000    1.333    3.333    1.000    9.333    4.000 
#    0.000    0.000    0.000    0.000    0.000    0.000 
#    0.000    0.000    0.000    0.000    0.000    0.000 
#
# Total GULP energy -297427.028429 kJ/mol
# GULP energy per Si atom -12392.792851 kJ/mol
# Density = 2.240217 g / cm^3
# Si number density = 22.453275 Si / 1000 Ang^3
#
#
#
# Elastic Constant Matrix: (Units=GPa)
#
#
# Indices 1 2 3 4 5 6 
#
# 1 135.8670 37.7754 85.5300 0.0000 0.0000 0.0000
# 2 37.7754 66.5400 34.1441 0.0000 0.0000 0.0000
# 3 85.5300 34.1441 251.8605 0.0000 0.0000 0.0000
# 4 0.0000 0.0000 0.0000 25.4972 0.0000 0.0000
# 5 0.0000 0.0000 0.0000 0.0000 36.3277 0.0000
# 6 0.0000 0.0000 0.0000 0.0000 0.0000 39.2961
#
#
#
# Elastic Compliance Matrix: (Units=1/GPa)
#
#
# Indices 1 2 3 4 5 6 
#
# 1 0.010444 -0.004416 -0.002948 0.000000 0.000000 0.000000
# 2 -0.004416 0.018020 -0.000943 0.000000 0.000000 0.000000
# 3 -0.002948 -0.000943 0.005099 0.000000 0.000000 0.000000
# 4 0.000000 0.000000 0.000000 0.039220 0.000000 0.000000
# 5 0.000000 0.000000 0.000000 0.000000 0.027527 0.000000
# 6 0.000000 0.000000 0.000000 0.000000 0.000000 0.025448
#
#
# Mechanical properties :
#
#
# Convention : Reuss Voigt Hill
#
# Bulk Modulus (GPa) = 59.00366 85.46295 72.23331
# Shear Modulus (GPa) = 33.77872 40.01205 36.89538
#
# Velocity S-wave (km/s) = 3.88287 4.22597 4.05805
# Velocity P-wave (km/s) = 6.81452 7.87128 7.36188
#
# Compressibility (1/GPa) = 0.01694810
#
# Stress axis : x y z
#
# Youngs Moduli (GPa) = 95.75077 55.49475 196.10143
#
# Poissons Ratio (x) = 0.24508 0.57809
# Poissons Ratio (y) = 0.42287 0.18495
# Poissons Ratio (z) = 0.28227 0.05234
#
# Static dielectric constant tensor:
#      x y z
#    x 4.104010 0.000000 0.000000 
#    y 0.000000 3.968690 0.000000 
#    z 0.000000 0.000000 5.160190 
# 
# 
# High freq. dielectric constant tensor:
#      x y z
#    x 1.888210 0.000000 0.000000 
#    y 0.000000 1.865380 0.000000 
#    z 0.000000 0.000000 1.905730 
# 
# From -- ./inp_files/3113.got.cif
#   From: 2010.03.12/outbox.cif.g09.slc.cpg/sg29_2_cif.got.tgz:3113.got - 2010.04.14 03:43:10.
