data_PCOD8169424
_publ_section_title
;
Structure prediction by ZEFSAII (Michael W. Deem and Ramdas Pophale) SiO2 
 PCOD8169424
Probable space group: P N C 2
;
_chemical_formula_sum "Si O2"
_cell_formula_units_Z 32
_cell_length_a 6.529709
_cell_length_b 22.160062
_cell_length_c 12.893235
_cell_angle_alpha 90.000000
_cell_angle_beta 90.000000
_cell_angle_gamma 90.000000
_cell_volume 1865.635069
_symmetry_space_group_name_H-M "P N C 2"
_symmetry_group_IT_number 30
_symmetry_cell_setting 'orthorhombic'
loop_
_space_group_symop_operation_xyz
x,y,z
-x,-y,z
-x,1/2+y,1/2+z
x,1/2-y,1/2+z
loop_
_atom_site_type_symbol
_atom_site_label
_atom_site_fract_x
_atom_site_fract_y
_atom_site_fract_z
Si Si1 0.383401 0.562715 0.114530
Si Si2 0.511099 0.324036 0.798835
Si Si3 0.344774 0.149385 0.704115
Si Si4 0.240268 0.278403 0.395816
Si Si5 0.044123 0.406608 0.049765
Si Si6 0.496044 0.235250 0.088826
Si Si7 0.597524 0.936183 0.413675
Si Si8 0.849378 0.288390 0.954041
O O1 0.500000 0.500000 0.133456
O O2 0.440279 0.610841 0.205401
O O3 0.141610 0.552856 0.096178
O O4 0.465837 0.593085 0.007537
O O5 0.341194 0.280467 0.846103
O O6 0.543727 0.314537 0.676475
O O7 0.426322 0.391846 0.816072
O O8 0.726898 0.312176 0.854372
O O9 0.268802 0.164287 0.819849
O O10 0.183472 0.105304 0.649691
O O11 0.370382 0.210167 0.639192
O O12 0.352628 0.295606 0.502719
O O13 0.002573 0.263991 0.414812
O O14 0.168660 0.441547 0.957705
O O15 0.970724 0.342880 0.005776
O O16 0.707303 0.258328 0.040871
O O17 0.500000 0.000000 0.381504
#
# Coordination Sequence:
#
# PCOD8169424 Si02
#       8
#     4   4   4   4   4   4   4   4
#     4  10  20  34  52  75 107 136 174 211 264 312
#     4  10  20  33  49  76 106 136 172 218 261 313
#     4  10  20  31  51  77 103 138 172 215 258 315
#     4  10  20  33  50  75 106 137 173 214 266 311
#     4  11  18  33  52  75 106 138 170 214 258 317
#     4  10  20  32  50  74 109 136 172 216 263 311
#     4  10  20  33  50  76 105 138 174 212 259 314
#     4  11  18  31  51  75 105 139 172 206 265 317
#
# _framework density 17.152335999999998
#
# number of rings (size 3 to 8) (size 9 to 14) (size 15 to 20)
#    0.000    1.750    5.000    1.500    1.750    5.500 
#    0.000    0.000    0.000    0.750    0.000    0.000 
#    0.000    0.000    0.000    0.000    0.000    0.000 
#
# Total GULP energy -396674.422519 kJ/mol
# GULP energy per Si atom -12396.075704 kJ/mol
# Density = 1.711330 g / cm^3
# Si number density = 17.152336 Si / 1000 Ang^3
#
#
#
# Elastic Constant Matrix: (Units=GPa)
#
#
# Indices 1 2 3 4 5 6 
#
# 1 100.9955 29.4960 32.7017 0.0000 0.0000 0.0000
# 2 29.4960 79.1090 41.6317 0.0000 0.0000 0.0000
# 3 32.7017 41.6317 99.1912 0.0000 0.0000 0.0000
# 4 0.0000 0.0000 0.0000 24.2712 0.0000 0.0000
# 5 0.0000 0.0000 0.0000 0.0000 15.8222 0.0000
# 6 0.0000 0.0000 0.0000 0.0000 0.0000 24.0039
#
#
#
# Elastic Compliance Matrix: (Units=1/GPa)
#
#
# Indices 1 2 3 4 5 6 
#
# 1 0.011604 -0.002969 -0.002579 0.000000 0.000000 0.000000
# 2 -0.002969 0.016984 -0.006150 0.000000 0.000000 0.000000
# 3 -0.002579 -0.006150 0.013513 0.000000 0.000000 0.000000
# 4 0.000000 0.000000 0.000000 0.041201 0.000000 0.000000
# 5 0.000000 0.000000 0.000000 0.000000 0.063203 0.000000
# 6 0.000000 0.000000 0.000000 0.000000 0.000000 0.041660
#
#
# Mechanical properties :
#
#
# Convention : Reuss Voigt Hill
#
# Bulk Modulus (GPa) = 53.46247 54.10609 53.78428
# Shear Modulus (GPa) = 22.95734 24.51720 23.73727
#
# Velocity S-wave (km/s) = 3.66244 3.78482 3.72413
# Velocity P-wave (km/s) = 7.00867 7.12128 7.06520
#
# Compressibility (1/GPa) = 0.01870471
#
# Stress axis : x y z
#
# Youngs Moduli (GPa) = 86.17904 58.87875 74.00292
#
# Poissons Ratio (x) = 0.17481 0.19088
# Poissons Ratio (y) = 0.25587 0.45509
# Poissons Ratio (z) = 0.22229 0.36208
#
# Static dielectric constant tensor:
#      x y z
#    x 3.442300 0.000000 0.000000 
#    y 0.000000 3.021740 0.000000 
#    z 0.000000 0.000000 3.194540 
# 
# 
# High freq. dielectric constant tensor:
#      x y z
#    x 1.676270 0.000000 0.000000 
#    y 0.000000 1.643220 0.000000 
#    z 0.000000 0.000000 1.631900 
# 
# From -- ./inp_files/3293.got.cif
#   From: 2010.03.12/outbox.cif.g09.slc.cpg/sg30_2_cif.got.tgz:3293.got - 2010.04.14 01:38:02.
