data_PCOD8169688
_publ_section_title
;
Structure prediction by ZEFSAII (Michael W. Deem and Ramdas Pophale) SiO2 
 PCOD8169688
Probable space group: P M N 21
;
_chemical_formula_sum "Si O2"
_cell_formula_units_Z 28
_cell_length_a 16.613511
_cell_length_b 13.061882
_cell_length_c 7.617223
_cell_angle_alpha 90.000000
_cell_angle_beta 90.000000
_cell_angle_gamma 90.000000
_cell_volume 1652.965729
_symmetry_space_group_name_H-M "P M N 21"
_symmetry_group_IT_number 31
_symmetry_cell_setting 'orthorhombic'
loop_
_space_group_symop_operation_xyz
x,y,z
1/2-x,-y,1/2+z
-x,y,z
1/2+x,-y,1/2+z
loop_
_atom_site_type_symbol
_atom_site_label
_atom_site_fract_x
_atom_site_fract_y
_atom_site_fract_z
Si Si1 0.730434 0.819161 0.726520
Si Si2 0.162887 0.881644 0.422952
Si Si3 0.800293 0.603128 0.112094
Si Si4 0.266827 0.816672 0.109842
Si Si5 0.092515 0.661554 0.417556
Si Si6 0.406569 0.900230 0.924236
Si Si7 0.709498 0.399752 0.209189
O O1 0.775759 0.889669 0.586323
O O2 0.636428 0.852897 0.748803
O O3 0.735035 0.699819 0.671917
O O4 0.773395 0.835573 0.917067
O O5 0.217820 0.883206 0.249179
O O6 0.107334 0.782345 0.437445
O O7 0.103476 0.977579 0.423011
O O8 0.737424 0.695419 0.153567
O O9 0.880036 0.623324 0.225931
O O10 0.762774 0.498462 0.177642
O O11 0.824166 0.598746 0.907633
O O12 0.360802 0.852319 0.096115
O O13 0.136096 0.599724 0.573128
O O14 0.000000 0.636032 0.437661
O O15 0.500000 0.870074 0.927994
#
# Coordination Sequence:
#
# PCOD8169688 Si02
#       7
#     4   4   4   4   4   4   4
#     4   8  19  32  51  76 101 133 170 210 250 304
#     4  10  17  34  57  72  98 142 176 198 255 318
#     4  10  18  34  55  78 100 139 177 207 253 320
#     4   8  19  32  51  76 101 133 170 210 250 304
#     4  10  21  33  52  82 109 127 167 228 266 291
#     4  10  19  33  52  76 107 133 167 216 256 293
#     4  10  18  34  55  78 100 139 177 207 253 320
#
# _framework density 16.939250999999999
#
# number of rings (size 3 to 8) (size 9 to 14) (size 15 to 20)
#    0.857    1.714    1.429    1.286    0.000    0.571 
#    0.000    3.571    0.000    1.714    0.000    0.000 
#    0.000    0.000    0.000    0.000    0.000    0.000 
#
# Total GULP energy -346969.157576 kJ/mol
# GULP energy per Si atom -12391.755628 kJ/mol
# Density = 1.690070 g / cm^3
# Si number density = 16.939251 Si / 1000 Ang^3
#
#
#
# Elastic Constant Matrix: (Units=GPa)
#
#
# Indices 1 2 3 4 5 6 
#
# 1 88.3815 22.1211 19.9236 0.0000 0.0000 0.0000
# 2 22.1211 61.6831 11.3562 0.0000 0.0000 0.0000
# 3 19.9236 11.3562 84.5322 0.0000 0.0000 0.0000
# 4 0.0000 0.0000 0.0000 21.8690 0.0000 0.0000
# 5 0.0000 0.0000 0.0000 0.0000 19.0440 0.0000
# 6 0.0000 0.0000 0.0000 0.0000 0.0000 13.7901
#
#
#
# Elastic Compliance Matrix: (Units=1/GPa)
#
#
# Indices 1 2 3 4 5 6 
#
# 1 0.012920 -0.004176 -0.002484 0.000000 0.000000 0.000000
# 2 -0.004176 0.017973 -0.001430 0.000000 0.000000 0.000000
# 3 -0.002484 -0.001430 0.012607 0.000000 0.000000 0.000000
# 4 0.000000 0.000000 0.000000 0.045727 0.000000 0.000000
# 5 0.000000 0.000000 0.000000 0.000000 0.052510 0.000000
# 6 0.000000 0.000000 0.000000 0.000000 0.000000 0.072516
#
#
# Mechanical properties :
#
#
# Convention : Reuss Voigt Hill
#
# Bulk Modulus (GPa) = 36.60408 37.93318 37.26863
# Shear Modulus (GPa) = 20.87336 23.02034 21.94685
#
# Velocity S-wave (km/s) = 3.51415 3.69045 3.60338
# Velocity P-wave (km/s) = 6.17427 6.37193 6.27388
#
# Compressibility (1/GPa) = 0.02731936
#
# Stress axis : x y z
#
# Youngs Moduli (GPa) = 77.40066 55.63951 79.31824
#
# Poissons Ratio (x) = 0.23235 0.19703
# Poissons Ratio (y) = 0.32323 0.11344
# Poissons Ratio (z) = 0.19227 0.07958
#
# Static dielectric constant tensor:
#      x y z
#    x 2.803520 0.000000 0.000000 
#    y 0.000000 3.216340 0.000000 
#    z 0.000000 0.000000 3.332410 
# 
# 
# High freq. dielectric constant tensor:
#      x y z
#    x 1.614070 0.000000 0.000000 
#    y 0.000000 1.664520 0.000000 
#    z 0.000000 0.000000 1.658100 
# 
# From -- ./inp_files/2614.got.cif
#   From: 2010.03.12/outbox.cif.g09.slc.cpg/sg31_2_cif.got.tgz:2614.got - 2010.04.14 01:42:59.
