data_PCOD8169017
_publ_section_title
;
Structure prediction by ZEFSAII (Michael W. Deem and Ramdas Pophale) SiO2 
 PCOD8169017
Probable space group: P C A 21
;
_chemical_formula_sum "Si O2"
_cell_formula_units_Z 28
_cell_length_a 15.439622
_cell_length_b 7.987123
_cell_length_c 9.117519
_cell_angle_alpha 90.000000
_cell_angle_beta 90.000000
_cell_angle_gamma 90.000000
_cell_volume 1124.355667
_symmetry_space_group_name_H-M "P C A 21"
_symmetry_group_IT_number 29
_symmetry_cell_setting 'orthorhombic'
loop_
_space_group_symop_operation_xyz
x,y,z
-x,-y,1/2+z
1/2-x,y,1/2+z
1/2+x,-y,z
loop_
_atom_site_type_symbol
_atom_site_label
_atom_site_fract_x
_atom_site_fract_y
_atom_site_fract_z
Si Si1 0.294926 0.897644 0.723480
Si Si2 0.330949 0.407295 0.330076
Si Si3 0.688339 0.462814 0.139745
Si Si4 0.980932 0.477773 0.831995
Si Si5 0.251473 0.108694 0.967102
Si Si6 0.483716 0.883472 0.803630
Si Si7 0.555695 0.810151 0.496168
O O1 0.267118 0.713527 0.677021
O O2 0.397511 0.911528 0.711389
O O3 0.255288 0.930627 0.883419
O O4 0.261137 0.056276 0.633056
O O5 0.311806 0.531679 0.465064
O O6 0.257129 0.404891 0.205287
O O7 0.422546 0.464649 0.259758
O O8 0.328066 0.222550 0.406613
O O9 0.592844 0.498753 0.207399
O O10 0.971759 0.288426 0.901279
O O11 0.981138 0.626076 0.952564
O O12 0.344236 0.199439 0.948952
O O13 0.552992 0.850591 0.671236
O O14 0.498572 0.045213 0.907643
#
# Coordination Sequence:
#
# PCOD8169017 Si02
#       7
#     4   4   4   4   4   4   4
#     4  10  23  44  67 101 142 179 235 301 354 439
#     4  12  26  43  77 104 146 198 240 311 368 451
#     4  11  25  47  71 109 146 189 254 298 378 445
#     4  11  25  46  70 106 150 196 243 306 371 449
#     4  11  24  42  72 101 139 187 235 298 368 431
#     4  10  26  43  72 104 141 190 244 303 367 446
#     4  11  25  47  71 107 148 187 249 305 370 449
#
# _framework density 24.903154000000001
#
# number of rings (size 3 to 8) (size 9 to 14) (size 15 to 20)
#    0.000    1.143    1.429    3.429    8.000    3.429 
#    0.000    0.000    0.000    0.000    0.000    0.000 
#    0.000    0.000    0.000    0.000    0.000    0.000 
#
# Total GULP energy -346882.668521 kJ/mol
# GULP energy per Si atom -12388.666733 kJ/mol
# Density = 2.484647 g / cm^3
# Si number density = 24.903154 Si / 1000 Ang^3
#
#
#
# Elastic Constant Matrix: (Units=GPa)
#
#
# Indices 1 2 3 4 5 6 
#
# 1 104.7617 21.7978 13.5973 0.0000 0.0000 0.0000
# 2 21.7978 155.8206 34.9353 0.0000 0.0000 0.0000
# 3 13.5973 34.9353 64.6763 0.0000 0.0000 0.0000
# 4 0.0000 0.0000 0.0000 36.2124 0.0000 0.0000
# 5 0.0000 0.0000 0.0000 0.0000 31.7778 0.0000
# 6 0.0000 0.0000 0.0000 0.0000 0.0000 32.6704
#
#
#
# Elastic Compliance Matrix: (Units=1/GPa)
#
#
# Indices 1 2 3 4 5 6 
#
# 1 0.009962 -0.001051 -0.001527 0.000000 0.000000 0.000000
# 2 -0.001051 0.007413 -0.003783 0.000000 0.000000 0.000000
# 3 -0.001527 -0.003783 0.017826 0.000000 0.000000 0.000000
# 4 0.000000 0.000000 0.000000 0.027615 0.000000 0.000000
# 5 0.000000 0.000000 0.000000 0.000000 0.031469 0.000000
# 6 0.000000 0.000000 0.000000 0.000000 0.000000 0.030609
#
#
# Mechanical properties :
#
#
# Convention : Reuss Voigt Hill
#
# Bulk Modulus (GPa) = 44.48547 51.76883 48.12715
# Shear Modulus (GPa) = 34.45697 37.12732 35.79215
#
# Velocity S-wave (km/s) = 3.72377 3.86537 3.79523
# Velocity P-wave (km/s) = 6.03247 6.38393 6.21069
#
# Compressibility (1/GPa) = 0.02247925
#
# Stress axis : x y z
#
# Youngs Moduli (GPa) = 100.37772 134.90009 56.09784
#
# Poissons Ratio (x) = 0.14183 0.08564
# Poissons Ratio (y) = 0.10554 0.21222
# Poissons Ratio (z) = 0.15323 0.51034
#
# Static dielectric constant tensor:
#      x y z
#    x 4.500900 0.000000 0.000000 
#    y 0.000000 4.744070 0.000000 
#    z 0.000000 0.000000 4.240000 
# 
# 
# High freq. dielectric constant tensor:
#      x y z
#    x 1.990010 0.000000 0.000000 
#    y 0.000000 2.004850 0.000000 
#    z 0.000000 0.000000 1.978550 
# 
# From -- ./inp_files/2066.got.cif
#   From: 2010.03.12/outbox.cif.g09.slc.cpg/sg29_2_cif.got.tgz:2066.got - 2010.04.14 03:43:10.
