data_PCOD8169342
_publ_section_title
;
Structure prediction by ZEFSAII (Michael W. Deem and Ramdas Pophale) SiO2 
 PCOD8169342
Probable space group: P C A 21
;
_chemical_formula_sum "Si O2"
_cell_formula_units_Z 32
_cell_length_a 18.381472
_cell_length_b 6.803032
_cell_length_c 11.705026
_cell_angle_alpha 90.000000
_cell_angle_beta 90.000000
_cell_angle_gamma 90.000000
_cell_volume 1463.710484
_symmetry_space_group_name_H-M "P C A 21"
_symmetry_group_IT_number 29
_symmetry_cell_setting 'orthorhombic'
loop_
_space_group_symop_operation_xyz
x,y,z
-x,-y,1/2+z
1/2-x,y,1/2+z
1/2+x,-y,z
loop_
_atom_site_type_symbol
_atom_site_label
_atom_site_fract_x
_atom_site_fract_y
_atom_site_fract_z
Si Si1 0.555937 0.847432 0.014480
Si Si2 0.864750 0.297498 0.804774
Si Si3 0.575004 0.936691 0.433172
Si Si4 0.027469 0.361629 0.245015
Si Si5 0.802926 0.060654 0.594125
Si Si6 0.894201 0.581682 0.324138
Si Si7 0.185456 0.254363 0.606225
Si Si8 0.758348 0.425287 0.458036
O O1 0.531186 0.697982 0.113082
O O2 0.635823 0.930994 0.034330
O O3 0.555328 0.732731 0.894131
O O4 0.498486 0.026527 0.005683
O O5 0.928129 0.439026 0.762415
O O6 0.835723 0.179197 0.697862
O O7 0.800303 0.429549 0.856563
O O8 0.892454 0.148720 0.901697
O O9 0.558783 0.817176 0.318404
O O10 0.630223 0.811079 0.508039
O O11 0.943656 0.402698 0.278089
O O12 0.768010 0.203827 0.500896
O O13 0.739691 0.919927 0.640852
O O14 0.858553 0.692862 0.218621
O O15 0.834620 0.500574 0.411002
O O16 0.232008 0.439346 0.562468
#
# Coordination Sequence:
#
# PCOD8169342 Si02
#       8
#     4   4   4   4   4   4   4   4
#     4  12  28  48  77 110 148 198 253 309 376 447
#     4  12  26  46  76 108 144 200 243 305 376 441
#     4  12  27  50  75 109 149 196 251 310 378 445
#     4  12  28  51  78 108 152 198 251 315 375 449
#     4  12  27  47  76 107 148 194 249 306 370 445
#     4  12  29  47  78 109 153 197 252 310 379 454
#     4  12  29  47  77 113 153 198 250 314 374 455
#     4  12  26  50  73 110 149 197 249 307 382 444
#
# _framework density 21.862247
#
# number of rings (size 3 to 8) (size 9 to 14) (size 15 to 20)
#    0.000    0.000    6.250    2.250   12.250    1.000 
#    0.000    0.000    0.000    0.000    0.000    0.000 
#    0.000    0.000    0.000    0.000    0.000    0.000 
#
# Total GULP energy -397109.770948 kJ/mol
# GULP energy per Si atom -12409.680342 kJ/mol
# Density = 2.181249 g / cm^3
# Si number density = 21.862247 Si / 1000 Ang^3
#
#
#
# Elastic Constant Matrix: (Units=GPa)
#
#
# Indices 1 2 3 4 5 6 
#
# 1 108.4382 35.1339 37.4631 0.0000 0.0000 0.0000
# 2 35.1339 95.8566 39.6205 0.0000 0.0000 0.0000
# 3 37.4631 39.6205 112.0321 0.0000 0.0000 0.0000
# 4 0.0000 0.0000 0.0000 43.6108 0.0000 0.0000
# 5 0.0000 0.0000 0.0000 0.0000 40.8239 0.0000
# 6 0.0000 0.0000 0.0000 0.0000 0.0000 42.7573
#
#
#
# Elastic Compliance Matrix: (Units=1/GPa)
#
#
# Indices 1 2 3 4 5 6 
#
# 1 0.011104 -0.002969 -0.002663 0.000000 0.000000 0.000000
# 2 -0.002969 0.013012 -0.003609 0.000000 0.000000 0.000000
# 3 -0.002663 -0.003609 0.011093 0.000000 0.000000 0.000000
# 4 0.000000 0.000000 0.000000 0.022930 0.000000 0.000000
# 5 0.000000 0.000000 0.000000 0.000000 0.024495 0.000000
# 6 0.000000 0.000000 0.000000 0.000000 0.000000 0.023388
#
#
# Mechanical properties :
#
#
# Convention : Reuss Voigt Hill
#
# Bulk Modulus (GPa) = 59.78478 60.08466 59.93472
# Shear Modulus (GPa) = 38.43786 39.04569 38.74177
#
# Velocity S-wave (km/s) = 4.19762 4.23068 4.21418
# Velocity P-wave (km/s) = 7.13434 7.16992 7.15216
#
# Compressibility (1/GPa) = 0.01672667
#
# Stress axis : x y z
#
# Youngs Moduli (GPa) = 90.05875 76.85097 90.14818
#
# Poissons Ratio (x) = 0.22818 0.24007
# Poissons Ratio (y) = 0.26740 0.32534
# Poissons Ratio (z) = 0.23983 0.27735
#
# Static dielectric constant tensor:
#      x y z
#    x 4.251190 0.000000 0.000000 
#    y 0.000000 4.061380 0.000000 
#    z 0.000000 0.000000 3.877080 
# 
# 
# High freq. dielectric constant tensor:
#      x y z
#    x 1.879620 0.000000 0.000000 
#    y 0.000000 1.868860 0.000000 
#    z 0.000000 0.000000 1.866070 
# 
# From -- ./inp_files/3833.got.cif
#   From: 2010.03.12/outbox.cif.g09.slc.cpg/sg29_2_cif.got.tgz:3833.got - 2010.04.14 03:43:10.
