data_PCOD8169887
_publ_section_title
;
Structure prediction by ZEFSAII (Michael W. Deem and Ramdas Pophale) SiO2 
 PCOD8169887
Probable space group: P M N 21
;
_chemical_formula_sum "Si O2"
_cell_formula_units_Z 32
_cell_length_a 8.977426
_cell_length_b 12.383556
_cell_length_c 13.937930
_cell_angle_alpha 90.000000
_cell_angle_beta 90.000000
_cell_angle_gamma 90.000000
_cell_volume 1549.513932
_symmetry_space_group_name_H-M "P M N 21"
_symmetry_group_IT_number 31
_symmetry_cell_setting 'orthorhombic'
loop_
_space_group_symop_operation_xyz
x,y,z
1/2-x,-y,1/2+z
-x,y,z
1/2+x,-y,1/2+z
loop_
_atom_site_type_symbol
_atom_site_label
_atom_site_fract_x
_atom_site_fract_y
_atom_site_fract_z
Si Si1 0.828744 0.755579 0.939440
Si Si2 0.174506 0.669573 0.547358
Si Si3 0.824477 0.073622 0.561064
Si Si4 0.826640 0.125088 0.966829
Si Si5 0.833033 0.584193 0.256731
Si Si6 0.666913 0.461676 0.534025
Si Si7 0.174120 0.186291 0.757611
Si Si8 0.829170 0.625601 0.760218
O O1 0.808626 0.730910 0.827018
O O2 0.000000 0.784609 0.964650
O O3 0.723753 0.852228 0.971955
O O4 0.772057 0.650055 0.994019
O O5 0.271059 0.756932 0.493074
O O6 0.220066 0.555304 0.499901
O O7 0.228319 0.665906 0.657499
O O8 0.000000 0.692433 0.534719
O O9 0.765894 0.121914 0.663158
O O10 0.000000 0.061598 0.564521
O O11 0.757833 0.957187 0.536814
O O12 0.796174 0.111766 0.851992
O O13 0.000000 0.112960 0.988805
O O14 0.835111 0.550894 0.146955
O O15 0.752992 0.698500 0.271491
O O16 0.751896 0.480466 0.305232
O O17 0.000000 0.595824 0.298412
O O18 0.500000 0.485131 0.494519
O O19 0.000000 0.210482 0.745235
O O20 0.000000 0.590309 0.751767
#
# Coordination Sequence:
#
# PCOD8169887 Si02
#       8
#     4   4   4   4   4   4   4   4
#     4  10  20  37  60  87 121 163 203 238 291 361
#     4  10  21  38  58  86 123 158 200 251 299 345
#     4  11  24  43  65  90 120 153 199 256 303 350
#     4  11  25  44  65  87 116 160 205 244 299 367
#     4  10  19  33  57  89 122 155 199 252 296 342
#     4   9  18  33  55  85 121 159 196 239 294 354
#     4  10  23  42  63  86 116 156 197 241 298 365
#     4   9  20  36  57  86 125 170 203 237 294 364
#
# _framework density 20.651637000000001
#
# number of rings (size 3 to 8) (size 9 to 14) (size 15 to 20)
#    0.000    2.000    1.250    1.500    1.750    4.500 
#    0.000    5.000    0.000    0.000    0.000    0.000 
#    0.000    0.000    0.000    0.000    0.000    0.000 
#
# Total GULP energy -396702.736235 kJ/mol
# GULP energy per Si atom -12396.960507 kJ/mol
# Density = 2.060463 g / cm^3
# Si number density = 20.651637 Si / 1000 Ang^3
#
#
#
# Elastic Constant Matrix: (Units=GPa)
#
#
# Indices 1 2 3 4 5 6 
#
# 1 70.4492 30.2745 24.6969 0.0000 0.0000 0.0000
# 2 30.2745 75.8713 21.6890 0.0000 0.0000 0.0000
# 3 24.6969 21.6890 61.1667 0.0000 0.0000 0.0000
# 4 0.0000 0.0000 0.0000 22.6924 0.0000 0.0000
# 5 0.0000 0.0000 0.0000 0.0000 23.6089 0.0000
# 6 0.0000 0.0000 0.0000 0.0000 0.0000 42.1448
#
#
#
# Elastic Compliance Matrix: (Units=1/GPa)
#
#
# Indices 1 2 3 4 5 6 
#
# 1 0.018627 -0.005878 -0.005436 0.000000 0.000000 0.000000
# 2 -0.005878 0.016522 -0.003485 0.000000 0.000000 0.000000
# 3 -0.005436 -0.003485 0.019779 0.000000 0.000000 0.000000
# 4 0.000000 0.000000 0.000000 0.044068 0.000000 0.000000
# 5 0.000000 0.000000 0.000000 0.000000 0.042357 0.000000
# 6 0.000000 0.000000 0.000000 0.000000 0.000000 0.023728
#
#
# Mechanical properties :
#
#
# Convention : Reuss Voigt Hill
#
# Bulk Modulus (GPa) = 39.48102 40.08977 39.78540
# Shear Modulus (GPa) = 24.61566 26.41102 25.51334
#
# Velocity S-wave (km/s) = 3.45620 3.58003 3.51866
# Velocity P-wave (km/s) = 5.92337 6.04511 5.98455
#
# Compressibility (1/GPa) = 0.02532862
#
# Stress axis : x y z
#
# Youngs Moduli (GPa) = 53.68688 60.52502 50.55741
#
# Poissons Ratio (x) = 0.35579 0.27485
# Poissons Ratio (y) = 0.31559 0.17620
# Poissons Ratio (z) = 0.29186 0.21093
#
# Static dielectric constant tensor:
#      x y z
#    x 3.823320 0.000000 0.000000 
#    y 0.000000 3.645470 0.000000 
#    z 0.000000 0.000000 3.985800 
# 
# 
# High freq. dielectric constant tensor:
#      x y z
#    x 1.802080 0.000000 0.000000 
#    y 0.000000 1.801050 0.000000 
#    z 0.000000 0.000000 1.818510 
# 
# From -- ./inp_files/5082.got.cif
#   From: 2010.03.12/outbox.cif.g09.slc.cpg/sg31_3_cif.got.tgz:5082.got - 2010.04.14 01:42:59.
