data_PCOD8169884
_publ_section_title
;
Structure prediction by ZEFSAII (Michael W. Deem and Ramdas Pophale) SiO2 
 PCOD8169884
Probable space group: P M N 21
;
_chemical_formula_sum "Si O2"
_cell_formula_units_Z 32
_cell_length_a 8.959626
_cell_length_b 11.979789
_cell_length_c 14.385295
_cell_angle_alpha 90.000000
_cell_angle_beta 90.000000
_cell_angle_gamma 90.000000
_cell_volume 1544.037425
_symmetry_space_group_name_H-M "P M N 21"
_symmetry_group_IT_number 31
_symmetry_cell_setting 'orthorhombic'
loop_
_space_group_symop_operation_xyz
x,y,z
1/2-x,-y,1/2+z
-x,y,z
1/2+x,-y,1/2+z
loop_
_atom_site_type_symbol
_atom_site_label
_atom_site_fract_x
_atom_site_fract_y
_atom_site_fract_z
Si Si1 0.824577 0.587992 0.132870
Si Si2 0.672122 0.818926 0.164761
Si Si3 0.675412 0.789004 0.610206
Si Si4 0.672604 0.004397 0.024995
Si Si5 0.167018 0.682470 0.444232
Si Si6 0.831010 0.531251 0.925081
Si Si7 0.332305 0.095483 0.833156
Si Si8 0.171663 0.622002 0.731377
O O1 0.766797 0.706487 0.170402
O O2 0.745347 0.486514 0.184702
O O3 0.000000 0.580464 0.152553
O O4 0.786015 0.585097 0.023347
O O5 0.500000 0.789511 0.181786
O O6 0.725041 0.907713 0.243711
O O7 0.694302 0.879808 0.064712
O O8 0.500000 0.794619 0.622509
O O9 0.736126 0.912175 0.590691
O O10 0.718764 0.705083 0.527662
O O11 0.747086 0.736833 0.702894
O O12 0.500000 0.043158 0.028428
O O13 0.725505 0.014113 0.916919
O O14 0.220633 0.568860 0.396762
O O15 0.172227 0.777881 0.367990
O O16 0.000000 0.669304 0.484336
O O17 0.813166 0.620975 0.843033
O O18 0.000000 0.485459 0.929034
O O19 0.500000 0.061032 0.803151
O O20 0.000000 0.624650 0.699881
#
# Coordination Sequence:
#
# PCOD8169884 Si02
#       8
#     4   4   4   4   4   4   4   4
#     4  11  23  40  60  87 123 161 199 245 294 351
#     4  11  23  40  62  89 120 157 198 246 299 355
#     4  11  21  35  58  86 114 146 191 244 295 347
#     4   9  21  42  63  84 116 155 198 247 296 350
#     4  10  19  33  57  84 115 154 193 239 291 344
#     4  10  22  37  55  83 120 157 196 240 289 350
#     4   9  19  37  61  88 116 153 198 245 296 351
#     4  11  22  38  60  87 120 159 197 240 296 354
#
# _framework density 20.724888
#
# number of rings (size 3 to 8) (size 9 to 14) (size 15 to 20)
#    0.000    1.750    1.250    4.125    0.000    7.000 
#    2.250    0.000    0.000    0.000    0.000    0.000 
#    0.000    0.000    0.000    0.000    0.000    0.000 
#
# Total GULP energy -396794.020220 kJ/mol
# GULP energy per Si atom -12399.813132 kJ/mol
# Density = 2.067772 g / cm^3
# Si number density = 20.724888 Si / 1000 Ang^3
#
#
#
# Elastic Constant Matrix: (Units=GPa)
#
#
# Indices 1 2 3 4 5 6 
#
# 1 104.6669 19.1087 25.6920 0.0000 0.0000 0.0000
# 2 19.1087 36.0421 1.7867 0.0000 0.0000 0.0000
# 3 25.6920 1.7867 86.2574 0.0000 0.0000 0.0000
# 4 0.0000 0.0000 0.0000 23.0462 0.0000 0.0000
# 5 0.0000 0.0000 0.0000 0.0000 28.9242 0.0000
# 6 0.0000 0.0000 0.0000 0.0000 0.0000 21.0735
#
#
#
# Elastic Compliance Matrix: (Units=1/GPa)
#
#
# Indices 1 2 3 4 5 6 
#
# 1 0.011438 -0.005901 -0.003285 0.000000 0.000000 0.000000
# 2 -0.005901 0.030819 0.001119 0.000000 0.000000 0.000000
# 3 -0.003285 0.001119 0.012548 0.000000 0.000000 0.000000
# 4 0.000000 0.000000 0.000000 0.043391 0.000000 0.000000
# 5 0.000000 0.000000 0.000000 0.000000 0.034573 0.000000
# 6 0.000000 0.000000 0.000000 0.000000 0.000000 0.047453
#
#
# Mechanical properties :
#
#
# Convention : Reuss Voigt Hill
#
# Bulk Modulus (GPa) = 25.85863 35.57122 30.71492
# Shear Modulus (GPa) = 23.89542 26.63405 25.26474
#
# Velocity S-wave (km/s) = 3.39924 3.58875 3.49528
# Velocity P-wave (km/s) = 5.28305 5.86285 5.58048
#
# Compressibility (1/GPa) = 0.03867181
#
# Stress axis : x y z
#
# Youngs Moduli (GPa) = 87.43009 32.44802 79.69188
#
# Poissons Ratio (x) = 0.19148 0.26175
# Poissons Ratio (y) = 0.51594 -0.08920
# Poissons Ratio (z) = 0.28717 -0.03632
#
# Static dielectric constant tensor:
#      x y z
#    x 3.768600 0.000000 0.000000 
#    y 0.000000 3.505300 0.000000 
#    z 0.000000 0.000000 3.873840 
# 
# 
# High freq. dielectric constant tensor:
#      x y z
#    x 1.814140 0.000000 0.000000 
#    y 0.000000 1.791810 0.000000 
#    z 0.000000 0.000000 1.815520 
# 
# From -- ./inp_files/5098.got.cif
#   From: 2010.03.12/outbox.cif.g09.slc.cpg/sg31_3_cif.got.tgz:5098.got - 2010.04.14 01:42:59.
