data_PCOD8169591
_publ_section_title
;
Structure prediction by ZEFSAII (Michael W. Deem and Ramdas Pophale) SiO2 
 PCOD8169591
Probable space group: P N C 2
;
_chemical_formula_sum "Si O2"
_cell_formula_units_Z 30
_cell_length_a 6.075415
_cell_length_b 18.832668
_cell_length_c 11.401304
_cell_angle_alpha 90.000000
_cell_angle_beta 90.000000
_cell_angle_gamma 90.000000
_cell_volume 1304.494719
_symmetry_space_group_name_H-M "P N C 2"
_symmetry_group_IT_number 30
_symmetry_cell_setting 'orthorhombic'
loop_
_space_group_symop_operation_xyz
x,y,z
-x,-y,z
-x,1/2+y,1/2+z
x,1/2-y,1/2+z
loop_
_atom_site_type_symbol
_atom_site_label
_atom_site_fract_x
_atom_site_fract_y
_atom_site_fract_z
Si Si1 0.335786 0.185678 0.724380
Si Si2 0.686462 0.316113 0.040115
Si Si3 0.153785 0.440026 0.729021
Si Si4 0.665089 0.109535 0.888485
Si Si5 0.164978 0.829843 0.110369
Si Si6 0.942742 0.077576 0.680196
Si Si7 0.500000 0.000000 0.059354
Si Si8 0.533667 0.830154 0.296676
O O1 0.443152 0.188452 0.595542
O O2 0.520868 0.164424 0.817065
O O3 0.290418 0.266468 0.768663
O O4 0.136468 0.130629 0.720902
O O5 0.850006 0.256254 0.098024
O O6 0.804566 0.389486 0.073100
O O7 0.639607 0.313291 0.900983
O O8 0.279491 0.489374 0.634646
O O9 0.323638 0.402333 0.820069
O O10 0.000000 0.500000 0.791815
O O11 0.034117 0.372376 0.669483
O O12 0.798200 0.062003 0.795756
O O13 0.509473 0.066195 0.973696
O O14 0.832464 0.150052 0.973476
O O15 0.389686 0.847310 0.180791
O O16 0.000000 0.000000 0.631951
#
# Coordination Sequence:
#
# PCOD8169591 Si02
#       8
#     4   4   4   4   4   4   2   4
#     4  10  23  44  69 100 131 178 226 285 349 405
#     4  10  24  47  68  98 135 181 235 285 337 416
#     4  12  24  40  63 100 142 181 228 283 352 424
#     4  11  22  39  68 101 137 166 220 287 345 412
#     4  11  23  42  68 102 134 176 234 289 348 417
#     4  11  25  44  69 104 136 181 232 278 353 429
#     4  12  24  42  64 102 142 174 210 284 354 410
#     4  11  23  45  69  96 140 181 233 293 348 413
#
# _framework density 22.997408
#
# number of rings (size 3 to 8) (size 9 to 14) (size 15 to 20)
#    0.000    1.067    4.000    1.600    3.733    2.667 
#    2.400    6.667    0.000    0.000    0.000    0.000 
#    0.000    0.000    0.000    0.000    0.000    0.000 
#
# Total GULP energy -371662.880287 kJ/mol
# GULP energy per Si atom -12388.762676 kJ/mol
# Density = 2.294507 g / cm^3
# Si number density = 22.997408 Si / 1000 Ang^3
#
#
#
# Elastic Constant Matrix: (Units=GPa)
#
#
# Indices 1 2 3 4 5 6 
#
# 1 65.3537 43.0255 16.8613 0.0000 0.0000 0.0000
# 2 43.0255 138.9687 35.1552 0.0000 0.0000 0.0000
# 3 16.8613 35.1552 74.1771 0.0000 0.0000 0.0000
# 4 0.0000 0.0000 0.0000 11.1552 0.0000 0.0000
# 5 0.0000 0.0000 0.0000 0.0000 17.9775 0.0000
# 6 0.0000 0.0000 0.0000 0.0000 0.0000 51.4421
#
#
#
# Elastic Compliance Matrix: (Units=1/GPa)
#
#
# Indices 1 2 3 4 5 6 
#
# 1 0.019423 -0.005564 -0.001778 0.000000 0.000000 0.000000
# 2 -0.005564 0.009770 -0.003366 0.000000 0.000000 0.000000
# 3 -0.001778 -0.003366 0.015481 0.000000 0.000000 0.000000
# 4 0.000000 0.000000 0.000000 0.089645 0.000000 0.000000
# 5 0.000000 0.000000 0.000000 0.000000 0.055625 0.000000
# 6 0.000000 0.000000 0.000000 0.000000 0.000000 0.019439
#
#
# Mechanical properties :
#
#
# Convention : Reuss Voigt Hill
#
# Bulk Modulus (GPa) = 42.99528 52.06483 47.53005
# Shear Modulus (GPa) = 20.95998 28.34547 24.65273
#
# Velocity S-wave (km/s) = 3.02223 3.51458 3.27766
# Velocity P-wave (km/s) = 5.56010 6.25766 5.91916
#
# Compressibility (1/GPa) = 0.02325837
#
# Stress axis : x y z
#
# Youngs Moduli (GPa) = 51.48555 102.35636 64.59720
#
# Poissons Ratio (x) = 0.56947 0.11487
# Poissons Ratio (y) = 0.28645 0.21741
# Poissons Ratio (z) = 0.09155 0.34449
#
# Static dielectric constant tensor:
#      x y z
#    x 4.042660 0.000000 0.000000 
#    y 0.000000 4.922010 0.000000 
#    z 0.000000 0.000000 4.006410 
# 
# 
# High freq. dielectric constant tensor:
#      x y z
#    x 1.895840 0.000000 0.000000 
#    y 0.000000 1.927760 0.000000 
#    z 0.000000 0.000000 1.895710 
# 
# From -- ./inp_files/3239.got.cif
#   From: 2010.03.12/outbox.cif.g09.slc.cpg/sg30_2_cif.got.tgz:3239.got - 2010.04.14 01:38:02.
