data_PCOD8169531
_publ_section_title
;
Structure prediction by ZEFSAII (Michael W. Deem and Ramdas Pophale) SiO2 
 PCOD8169531
Probable space group: P N C 2
;
_chemical_formula_sum "Si O2"
_cell_formula_units_Z 30
_cell_length_a 5.868777
_cell_length_b 17.978609
_cell_length_c 14.177458
_cell_angle_alpha 90.000000
_cell_angle_beta 90.000000
_cell_angle_gamma 90.000000
_cell_volume 1495.898286
_symmetry_space_group_name_H-M "P N C 2"
_symmetry_group_IT_number 30
_symmetry_cell_setting 'orthorhombic'
loop_
_space_group_symop_operation_xyz
x,y,z
-x,-y,z
-x,1/2+y,1/2+z
x,1/2-y,1/2+z
loop_
_atom_site_type_symbol
_atom_site_label
_atom_site_fract_x
_atom_site_fract_y
_atom_site_fract_z
Si Si1 0.655943 0.886867 0.987880
Si Si2 0.898832 0.250115 0.277888
Si Si3 0.634385 0.203347 0.112385
Si Si4 0.294343 0.593408 0.329431
Si Si5 0.979620 0.749163 0.979495
Si Si6 0.254546 0.316393 0.145165
Si Si7 0.000000 0.500000 0.456813
Si Si8 0.260212 0.014477 0.652815
O O1 0.520881 0.909653 0.893305
O O2 0.790348 0.811832 0.963190
O O3 0.804039 0.959595 0.018188
O O4 0.511564 0.868896 0.082836
O O5 0.762958 0.190975 0.212155
O O6 0.747205 0.324008 0.291084
O O7 0.953808 0.213067 0.378764
O O8 0.134397 0.267635 0.225333
O O9 0.496689 0.280281 0.122514
O O10 0.801510 0.211864 0.024093
O O11 0.083565 0.569035 0.393904
O O12 0.302620 0.536337 0.243379
O O13 0.893228 0.683778 0.048407
O O14 0.274203 0.399612 0.183396
O O15 0.500000 0.000000 0.591128
O O16 0.000000 0.000000 0.609909
#
# Coordination Sequence:
#
# PCOD8169531 Si02
#       8
#     4   4   4   4   4   4   2   4
#     4  11  22  36  52  83 124 164 207 259 329 397
#     4  11  20  36  60  86 123 165 214 262 316 394
#     4  10  22  37  56  81 124 163 212 267 313 392
#     4  12  22  34  58  88 130 164 202 254 329 405
#     4  10  22  39  57  83 129 164 217 260 314 387
#     4  10  23  38  57  87 134 167 209 263 324 392
#     4  12  20  32  52  80 124 158 204 252 318 410
#     4  12  24  37  57  93 135 170 204 255 333 403
#
# _framework density 20.054841
#
# number of rings (size 3 to 8) (size 9 to 14) (size 15 to 20)
#    0.000    1.067    4.667    2.000    5.600    0.000 
#    0.000    0.000    0.000    0.000    0.000    0.000 
#   82.000    0.000    0.000    0.000    0.000    0.000 
#
# Total GULP energy -371666.413102 kJ/mol
# GULP energy per Si atom -12388.880437 kJ/mol
# Density = 2.000919 g / cm^3
# Si number density = 20.054841 Si / 1000 Ang^3
#
#
#
# Elastic Constant Matrix: (Units=GPa)
#
#
# Indices 1 2 3 4 5 6 
#
# 1 117.1583 18.2565 33.0074 0.0000 0.0000 0.0000
# 2 18.2565 55.1551 22.2564 0.0000 0.0000 0.0000
# 3 33.0074 22.2564 123.2083 0.0000 0.0000 0.0000
# 4 0.0000 0.0000 0.0000 22.0810 0.0000 0.0000
# 5 0.0000 0.0000 0.0000 0.0000 15.6746 0.0000
# 6 0.0000 0.0000 0.0000 0.0000 0.0000 38.9522
#
#
#
# Elastic Compliance Matrix: (Units=1/GPa)
#
#
# Indices 1 2 3 4 5 6 
#
# 1 0.009491 -0.002282 -0.002131 0.000000 0.000000 0.000000
# 2 -0.002282 0.020105 -0.003020 0.000000 0.000000 0.000000
# 3 -0.002131 -0.003020 0.009233 0.000000 0.000000 0.000000
# 4 0.000000 0.000000 0.000000 0.045288 0.000000 0.000000
# 5 0.000000 0.000000 0.000000 0.000000 0.063798 0.000000
# 6 0.000000 0.000000 0.000000 0.000000 0.000000 0.025672
#
#
# Mechanical properties :
#
#
# Convention : Reuss Voigt Hill
#
# Bulk Modulus (GPa) = 41.73080 49.17359 45.45220
# Shear Modulus (GPa) = 25.45306 30.14165 27.79735
#
# Velocity S-wave (km/s) = 3.56641 3.88101 3.72703
# Velocity P-wave (km/s) = 6.14919 6.68250 6.42138
#
# Compressibility (1/GPa) = 0.02396311
#
# Stress axis : x y z
#
# Youngs Moduli (GPa) = 105.35985 49.73932 108.31060
#
# Poissons Ratio (x) = 0.11350 0.23076
# Poissons Ratio (y) = 0.24042 0.32714
# Poissons Ratio (z) = 0.22447 0.15023
#
# Static dielectric constant tensor:
#      x y z
#    x 4.539190 0.000000 0.000000 
#    y 0.000000 3.492190 0.000000 
#    z 0.000000 0.000000 3.584230 
# 
# 
# High freq. dielectric constant tensor:
#      x y z
#    x 1.817340 0.000000 0.000000 
#    y 0.000000 1.751880 0.000000 
#    z 0.000000 0.000000 1.747340 
# 
# From -- ./inp_files/4761.got.cif
#   From: 2010.03.12/outbox.cif.g09.slc.cpg/sg30_3_cif.got.tgz:4761.got - 2010.04.14 01:38:02.
