data_PCOD8169549
_publ_section_title
;
Structure prediction by ZEFSAII (Michael W. Deem and Ramdas Pophale) SiO2 
 PCOD8169549
Probable space group: P N C 2
;
_chemical_formula_sum "Si O2"
_cell_formula_units_Z 24
_cell_length_a 12.811854
_cell_length_b 9.127480
_cell_length_c 9.670433
_cell_angle_alpha 90.000000
_cell_angle_beta 90.000000
_cell_angle_gamma 90.000000
_cell_volume 1130.859866
_symmetry_space_group_name_H-M "P N C 2"
_symmetry_group_IT_number 30
_symmetry_cell_setting 'orthorhombic'
loop_
_space_group_symop_operation_xyz
x,y,z
-x,-y,z
-x,1/2+y,1/2+z
x,1/2-y,1/2+z
loop_
_atom_site_type_symbol
_atom_site_label
_atom_site_fract_x
_atom_site_fract_y
_atom_site_fract_z
Si Si1 0.389815 0.839398 0.690910
Si Si2 0.834080 0.217252 0.635453
Si Si3 0.510978 0.838992 0.411621
Si Si4 0.752204 0.810807 0.435352
Si Si5 0.891508 0.077704 0.364763
Si Si6 0.768918 0.576332 0.226094
O O1 0.289516 0.743280 0.642111
O O2 0.473897 0.842395 0.569803
O O3 0.440662 0.774512 0.827984
O O4 0.348124 0.004417 0.726221
O O5 0.872042 0.206708 0.477145
O O6 0.897087 0.343224 0.715824
O O7 0.852011 0.055765 0.705080
O O8 0.630718 0.795294 0.403128
O O9 0.500000 0.000000 0.345120
O O10 0.800581 0.665931 0.363447
O O11 0.775986 0.808901 0.598325
O O12 0.797403 0.960846 0.370356
O O13 0.000000 0.000000 0.396020
#
# Coordination Sequence:
#
# PCOD8169549 Si02
#       6
#     4   4   4   4   4   4
#     4  10  22  41  64  91 130 178 203 265 330 390
#     4   9  21  44  65  93 125 170 210 269 327 404
#     4  12  21  38  63  92 134 170 218 259 320 392
#     4  11  22  40  60  97 126 171 215 277 309 391
#     4  11  24  44  71  92 130 171 223 278 334 377
#     4   9  22  40  63  85 137 163 213 266 325 380
#
# _framework density 21.222791000000001
#
# number of rings (size 3 to 8) (size 9 to 14) (size 15 to 20)
#    1.000    0.667    1.667    3.000    0.000    4.000 
#    6.000    0.833    0.000    0.000    0.000    0.000 
#    0.000    0.000    0.000    0.000    0.000    0.000 
#
# Total GULP energy -297469.700150 kJ/mol
# GULP energy per Si atom -12394.570840 kJ/mol
# Density = 2.117449 g / cm^3
# Si number density = 21.222791 Si / 1000 Ang^3
#
#
#
# Elastic Constant Matrix: (Units=GPa)
#
#
# Indices 1 2 3 4 5 6 
#
# 1 67.1356 4.5194 19.0053 0.0000 0.0000 0.0000
# 2 4.5194 65.9130 47.5149 0.0000 0.0000 0.0000
# 3 19.0053 47.5149 80.0200 0.0000 0.0000 0.0000
# 4 0.0000 0.0000 0.0000 51.0378 0.0000 0.0000
# 5 0.0000 0.0000 0.0000 0.0000 18.6974 0.0000
# 6 0.0000 0.0000 0.0000 0.0000 0.0000 25.6916
#
#
#
# Elastic Compliance Matrix: (Units=1/GPa)
#
#
# Indices 1 2 3 4 5 6 
#
# 1 0.016285 0.002923 -0.005603 0.000000 0.000000 0.000000
# 2 0.002923 0.027050 -0.016756 0.000000 0.000000 0.000000
# 3 -0.005603 -0.016756 0.023777 0.000000 0.000000 0.000000
# 4 0.000000 0.000000 0.000000 0.019593 0.000000 0.000000
# 5 0.000000 0.000000 0.000000 0.000000 0.053483 0.000000
# 6 0.000000 0.000000 0.000000 0.000000 0.000000 0.038923
#
#
# Mechanical properties :
#
#
# Convention : Reuss Voigt Hill
#
# Bulk Modulus (GPa) = 35.41248 39.46086 37.43667
# Shear Modulus (GPa) = 21.98784 28.55398 25.27091
#
# Velocity S-wave (km/s) = 3.22226 3.67200 3.45446
# Velocity P-wave (km/s) = 5.52868 6.05080 5.79562
#
# Compressibility (1/GPa) = 0.02823863
#
# Stress axis : x y z
#
# Youngs Moduli (GPa) = 61.40753 36.96826 42.05697
#
# Poissons Ratio (x) = -0.10804 0.23565
# Poissons Ratio (y) = -0.17946 0.70472
# Poissons Ratio (z) = 0.34407 0.61945
#
# Static dielectric constant tensor:
#      x y z
#    x 3.609290 0.000000 0.000000 
#    y 0.000000 3.731880 0.000000 
#    z 0.000000 0.000000 3.636550 
# 
# 
# High freq. dielectric constant tensor:
#      x y z
#    x 1.818450 0.000000 0.000000 
#    y 0.000000 1.820690 0.000000 
#    z 0.000000 0.000000 1.824490 
# 
# From -- ./inp_files/2616.got.cif
#   From: 2010.03.12/outbox.cif.g09.slc.cpg/sg30_2_cif.got.tgz:2616.got - 2010.04.14 01:38:02.
