data_PCOD8169279
_publ_section_title
;
Structure prediction by ZEFSAII (Michael W. Deem and Ramdas Pophale) SiO2 
 PCOD8169279
Probable space group: P C A 21
;
_chemical_formula_sum "Si O2"
_cell_formula_units_Z 32
_cell_length_a 12.444757
_cell_length_b 6.646943
_cell_length_c 17.919763
_cell_angle_alpha 90.000000
_cell_angle_beta 90.000000
_cell_angle_gamma 90.000000
_cell_volume 1482.315456
_symmetry_space_group_name_H-M "P C A 21"
_symmetry_group_IT_number 29
_symmetry_cell_setting 'orthorhombic'
loop_
_space_group_symop_operation_xyz
x,y,z
-x,-y,1/2+z
1/2-x,y,1/2+z
1/2+x,-y,z
loop_
_atom_site_type_symbol
_atom_site_label
_atom_site_fract_x
_atom_site_fract_y
_atom_site_fract_z
Si Si1 0.949179 0.567010 0.328940
Si Si2 0.505465 0.175000 0.651122
Si Si3 0.061788 0.900730 0.025950
Si Si4 0.355769 0.512036 0.602744
Si Si5 0.913353 0.772508 0.895951
Si Si6 0.908947 0.094230 0.774648
Si Si7 0.291233 0.665274 0.225941
Si Si8 0.818877 0.743058 0.460116
O O1 0.847189 0.471106 0.288278
O O2 0.913637 0.660729 0.407651
O O3 0.041710 0.402258 0.342689
O O4 0.999831 0.734064 0.274398
O O5 0.459373 0.398318 0.636276
O O6 0.623671 0.191395 0.684576
O O7 0.511303 0.054643 0.573341
O O8 0.426712 0.058463 0.707026
O O9 0.115281 0.739803 0.081134
O O10 0.986584 0.782755 0.969020
O O11 0.154568 0.026687 0.983107
O O12 0.265312 0.519833 0.666367
O O13 0.307282 0.393765 0.533040
O O14 0.791737 0.725020 0.916403
O O15 0.916498 0.983787 0.853686
O O16 0.791226 0.188567 0.767606
#
# Coordination Sequence:
#
# PCOD8169279 Si02
#       8
#     4   4   4   4   4   4   4   4
#     4  12  26  48  69 109 144 187 238 305 352 434
#     4  11  27  46  71 105 140 189 233 299 351 423
#     4  11  25  49  69 104 144 183 242 299 347 432
#     4  11  26  49  70 107 142 186 248 291 358 425
#     4  12  27  44  74 103 144 193 234 297 363 424
#     4  12  27  47  70 107 143 184 246 286 361 438
#     4  12  27  45  76 101 146 191 234 298 365 423
#     4  11  27  44  75 102 141 189 241 293 363 421
#
# _framework density 21.587848000000001
#
# number of rings (size 3 to 8) (size 9 to 14) (size 15 to 20)
#    0.000    0.500    5.000    1.500    8.750    1.000 
#    0.000    0.000    0.000    0.000    0.000    0.000 
#    0.000    0.000    0.000    0.000    0.000    0.000 
#
# Total GULP energy -397070.333630 kJ/mol
# GULP energy per Si atom -12408.447926 kJ/mol
# Density = 2.153871 g / cm^3
# Si number density = 21.587848 Si / 1000 Ang^3
#
#
#
# Elastic Constant Matrix: (Units=GPa)
#
#
# Indices 1 2 3 4 5 6 
#
# 1 103.3269 47.5386 28.7811 0.0000 0.0000 0.0000
# 2 47.5386 123.0597 39.1211 0.0000 0.0000 0.0000
# 3 28.7811 39.1211 87.7232 0.0000 0.0000 0.0000
# 4 0.0000 0.0000 0.0000 47.5733 0.0000 0.0000
# 5 0.0000 0.0000 0.0000 0.0000 44.3270 0.0000
# 6 0.0000 0.0000 0.0000 0.0000 0.0000 34.6154
#
#
#
# Elastic Compliance Matrix: (Units=1/GPa)
#
#
# Indices 1 2 3 4 5 6 
#
# 1 0.012124 -0.003984 -0.002201 0.000000 0.000000 0.000000
# 2 -0.003984 0.010778 -0.003499 0.000000 0.000000 0.000000
# 3 -0.002201 -0.003499 0.013682 0.000000 0.000000 0.000000
# 4 0.000000 0.000000 0.000000 0.021020 0.000000 0.000000
# 5 0.000000 0.000000 0.000000 0.000000 0.022560 0.000000
# 6 0.000000 0.000000 0.000000 0.000000 0.000000 0.028889
#
#
# Mechanical properties :
#
#
# Convention : Reuss Voigt Hill
#
# Bulk Modulus (GPa) = 58.08806 60.55460 59.32133
# Shear Modulus (GPa) = 37.26908 38.54773 37.90840
#
# Velocity S-wave (km/s) = 4.15949 4.23025 4.19502
# Velocity P-wave (km/s) = 7.07352 7.20910 7.14163
#
# Compressibility (1/GPa) = 0.01721524
#
# Stress axis : x y z
#
# Youngs Moduli (GPa) = 82.48101 92.78547 73.08749
#
# Poissons Ratio (x) = 0.36964 0.16088
# Poissons Ratio (y) = 0.32859 0.25576
# Poissons Ratio (z) = 0.18155 0.32469
#
# Static dielectric constant tensor:
#      x y z
#    x 3.733270 0.000000 0.000000 
#    y 0.000000 4.019950 0.000000 
#    z 0.000000 0.000000 4.044410 
# 
# 
# High freq. dielectric constant tensor:
#      x y z
#    x 1.842680 0.000000 0.000000 
#    y 0.000000 1.859240 0.000000 
#    z 0.000000 0.000000 1.867410 
# 
# From -- ./inp_files/5518.got.cif
#   From: 2010.03.12/outbox.cif.g09.slc.cpg/sg29_3_cif.got.tgz:5518.got - 2010.04.14 03:43:10.
