data_PCOD8169515
_publ_section_title
;
Structure prediction by ZEFSAII (Michael W. Deem and Ramdas Pophale) SiO2 
 PCOD8169515
Probable space group: P N C 2
;
_chemical_formula_sum "Si O2"
_cell_formula_units_Z 30
_cell_length_a 16.716139
_cell_length_b 6.230030
_cell_length_c 13.748799
_cell_angle_alpha 90.000000
_cell_angle_beta 90.000000
_cell_angle_gamma 90.000000
_cell_volume 1431.828078
_symmetry_space_group_name_H-M "P N C 2"
_symmetry_group_IT_number 30
_symmetry_cell_setting 'orthorhombic'
loop_
_space_group_symop_operation_xyz
x,y,z
-x,-y,z
-x,1/2+y,1/2+z
x,1/2-y,1/2+z
loop_
_atom_site_type_symbol
_atom_site_label
_atom_site_fract_x
_atom_site_fract_y
_atom_site_fract_z
Si Si1 0.593658 0.980757 0.014950
Si Si2 0.074584 0.367116 0.225185
Si Si3 0.000000 0.500000 0.846986
Si Si4 0.699073 0.259416 0.371538
Si Si5 0.293629 0.782516 0.147237
Si Si6 0.121073 0.649800 0.405750
Si Si7 0.829253 0.615609 0.570449
Si Si8 0.305158 0.399523 0.005254
O O1 0.614012 0.730280 0.030066
O O2 0.500000 0.000000 0.001711
O O3 0.624558 0.108623 0.109599
O O4 0.639018 0.069086 0.919022
O O5 0.114523 0.524450 0.304005
O O6 0.132251 0.300290 0.137440
O O7 0.000000 0.500000 0.180922
O O8 0.052812 0.146999 0.277747
O O9 0.940659 0.350416 0.911407
O O10 0.694884 0.285015 0.257552
O O11 0.787659 0.279323 0.416682
O O12 0.676038 0.017745 0.403446
O O13 0.280673 0.563635 0.089587
O O14 0.217111 0.939914 0.136487
O O15 0.104410 0.497690 0.500246
O O16 0.767062 0.728999 0.496769
#
# Coordination Sequence:
#
# PCOD8169515 Si02
#       8
#     4   4   2   4   4   4   4   4
#     4  10  23  44  61  99 140 166 221 269 325 402
#     4  10  24  45  62  92 130 172 220 284 337 394
#     4  10  24  44  60  88 130 170 216 296 332 394
#     4  11  22  41  68  96 127 174 224 263 334 397
#     4  10  22  39  65  99 125 177 224 267 329 389
#     4  11  22  42  67  94 126 171 227 278 340 400
#     4  11  22  40  67  98 124 171 227 270 330 409
#     4  10  21  41  66  94 129 171 211 274 320 385
#
# _framework density 20.952234000000001
#
# number of rings (size 3 to 8) (size 9 to 14) (size 15 to 20)
#    0.000    1.600    4.000    1.600    3.733    5.333 
#    9.600    0.000    0.000    0.000    0.000    0.000 
#    0.000    0.000    0.000    0.000    0.000    0.000 
#
# Total GULP energy -371916.795500 kJ/mol
# GULP energy per Si atom -12397.226517 kJ/mol
# Density = 2.090455 g / cm^3
# Si number density = 20.952234 Si / 1000 Ang^3
#
#
#
# Elastic Constant Matrix: (Units=GPa)
#
#
# Indices 1 2 3 4 5 6 
#
# 1 126.7479 48.6324 35.2586 0.0000 0.0000 0.0000
# 2 48.6324 120.3002 30.3987 0.0000 0.0000 0.0000
# 3 35.2586 30.3987 98.3080 0.0000 0.0000 0.0000
# 4 0.0000 0.0000 0.0000 23.6963 0.0000 0.0000
# 5 0.0000 0.0000 0.0000 0.0000 20.2181 0.0000
# 6 0.0000 0.0000 0.0000 0.0000 0.0000 27.0340
#
#
#
# Elastic Compliance Matrix: (Units=1/GPa)
#
#
# Indices 1 2 3 4 5 6 
#
# 1 0.009875 -0.003360 -0.002503 0.000000 0.000000 0.000000
# 2 -0.003360 0.010160 -0.001937 0.000000 0.000000 0.000000
# 3 -0.002503 -0.001937 0.011669 0.000000 0.000000 0.000000
# 4 0.000000 0.000000 0.000000 0.042201 0.000000 0.000000
# 5 0.000000 0.000000 0.000000 0.000000 0.049461 0.000000
# 6 0.000000 0.000000 0.000000 0.000000 0.000000 0.036990
#
#
# Mechanical properties :
#
#
# Convention : Reuss Voigt Hill
#
# Bulk Modulus (GPa) = 62.09137 63.77061 62.93099
# Shear Modulus (GPa) = 27.57520 29.59411 28.58465
#
# Velocity S-wave (km/s) = 3.63174 3.76234 3.69762
# Velocity P-wave (km/s) = 6.87642 7.02680 6.95201
#
# Compressibility (1/GPa) = 0.01610530
#
# Stress axis : x y z
#
# Youngs Moduli (GPa) = 101.26609 98.42438 85.69968
#
# Poissons Ratio (x) = 0.33067 0.21449
# Poissons Ratio (y) = 0.34021 0.16598
# Poissons Ratio (z) = 0.25345 0.19062
#
# Static dielectric constant tensor:
#      x y z
#    x 3.635160 0.000000 0.000000 
#    y 0.000000 4.144170 0.000000 
#    z 0.000000 0.000000 3.623130 
# 
# 
# High freq. dielectric constant tensor:
#      x y z
#    x 1.804120 0.000000 0.000000 
#    y 0.000000 1.842900 0.000000 
#    z 0.000000 0.000000 1.810580 
# 
# From -- ./inp_files/5656.got.cif
#   From: 2010.03.12/outbox.cif.g09.slc.cpg/sg30_3_cif.got.tgz:5656.got - 2010.04.14 01:38:02.
