data_PCOD8169933
_publ_section_title
;
Structure prediction by ZEFSAII (Michael W. Deem and Ramdas Pophale) SiO2 
 PCOD8169933
Probable space group: P M N 21
;
_chemical_formula_sum "Si O2"
_cell_formula_units_Z 32
_cell_length_a 8.828048
_cell_length_b 14.467549
_cell_length_c 12.605374
_cell_angle_alpha 90.000000
_cell_angle_beta 90.000000
_cell_angle_gamma 90.000000
_cell_volume 1609.961103
_symmetry_space_group_name_H-M "P M N 21"
_symmetry_group_IT_number 31
_symmetry_cell_setting 'orthorhombic'
loop_
_space_group_symop_operation_xyz
x,y,z
1/2-x,-y,1/2+z
-x,y,z
1/2+x,-y,1/2+z
loop_
_atom_site_type_symbol
_atom_site_label
_atom_site_fract_x
_atom_site_fract_y
_atom_site_fract_z
Si Si1 0.320679 0.356865 0.181020
Si Si2 0.823683 0.873095 0.991375
Si Si3 0.178603 0.766242 0.492778
Si Si4 0.820999 0.669149 0.918660
Si Si5 0.820291 0.443441 0.608896
Si Si6 0.323979 0.042089 0.899894
Si Si7 0.668665 0.882555 0.206604
Si Si8 0.331099 0.683398 0.294321
O O1 0.500000 0.353290 0.190658
O O2 0.254434 0.350269 0.300436
O O3 0.269846 0.450399 0.121677
O O4 0.264167 0.271175 0.107265
O O5 0.775032 0.773783 0.946671
O O6 0.000000 0.873559 0.021557
O O7 0.784304 0.953428 0.908688
O O8 0.718615 0.902706 0.088204
O O9 0.231577 0.872646 0.475931
O O10 0.236308 0.697518 0.400961
O O11 0.000000 0.762032 0.484643
O O12 0.000000 0.655477 0.921619
O O13 0.751108 0.597413 0.001962
O O14 0.759542 0.393550 0.716176
O O15 0.000000 0.430856 0.600688
O O16 0.500000 0.018103 0.918023
O O17 0.296933 0.073207 0.779915
O O18 0.500000 0.924273 0.226179
O O19 0.665585 0.773709 0.222323
O O20 0.500000 0.654440 0.329691
#
# Coordination Sequence:
#
# PCOD8169933 Si02
#       8
#     4   4   4   4   4   4   4   4
#     4   9  20  38  58  82 116 155 189 232 292 350
#     4  11  22  36  57  85 115 151 195 244 294 351
#     4   9  19  36  57  81 112 151 193 234 284 345
#     4  10  22  39  59  84 117 153 193 239 289 350
#     4  10  20  36  58  83 112 147 188 235 287 343
#     4  10  21  36  57  85 115 152 198 245 292 350
#     4  10  19  35  56  79 111 149 189 238 292 346
#     4   9  18  32  54  81 108 142 183 235 288 333
#
# _framework density 19.876256000000001
#
# number of rings (size 3 to 8) (size 9 to 14) (size 15 to 20)
#    0.000    2.250    1.250    1.125    1.750    3.000 
#    0.000    3.750    0.000    0.000    0.000    0.000 
#    0.000    0.000    0.000    0.000    0.000    0.000 
#
# Total GULP energy -396677.666484 kJ/mol
# GULP energy per Si atom -12396.177078 kJ/mol
# Density = 1.983102 g / cm^3
# Si number density = 19.876256 Si / 1000 Ang^3
#
#
#
# Elastic Constant Matrix: (Units=GPa)
#
#
# Indices 1 2 3 4 5 6 
#
# 1 37.5558 26.7381 23.0570 0.0000 0.0000 0.0000
# 2 26.7381 105.5077 55.1300 0.0000 0.0000 0.0000
# 3 23.0570 55.1300 118.5884 0.0000 0.0000 0.0000
# 4 0.0000 0.0000 0.0000 24.7359 0.0000 0.0000
# 5 0.0000 0.0000 0.0000 0.0000 31.9374 0.0000
# 6 0.0000 0.0000 0.0000 0.0000 0.0000 22.1970
#
#
#
# Elastic Compliance Matrix: (Units=1/GPa)
#
#
# Indices 1 2 3 4 5 6 
#
# 1 0.033489 -0.006716 -0.003389 0.000000 0.000000 0.000000
# 2 -0.006716 0.013866 -0.005140 0.000000 0.000000 0.000000
# 3 -0.003389 -0.005140 0.011481 0.000000 0.000000 0.000000
# 4 0.000000 0.000000 0.000000 0.040427 0.000000 0.000000
# 5 0.000000 0.000000 0.000000 0.000000 0.031311 0.000000
# 6 0.000000 0.000000 0.000000 0.000000 0.000000 0.045051
#
#
# Mechanical properties :
#
#
# Convention : Reuss Voigt Hill
#
# Bulk Modulus (GPa) = 35.27907 52.38913 43.83410
# Shear Modulus (GPa) = 23.19485 26.22250 24.70868
#
# Velocity S-wave (km/s) = 3.41979 3.63614 3.52962
# Velocity P-wave (km/s) = 5.77764 6.63653 6.22193
#
# Compressibility (1/GPa) = 0.02834542
#
# Stress axis : x y z
#
# Youngs Moduli (GPa) = 29.86030 72.11943 87.09982
#
# Poissons Ratio (x) = 0.48436 0.29519
# Poissons Ratio (y) = 0.20055 0.44771
# Poissons Ratio (z) = 0.10120 0.37071
#
# Static dielectric constant tensor:
#      x y z
#    x 3.379280 0.000000 0.000000 
#    y 0.000000 3.732230 0.000000 
#    z 0.000000 0.000000 3.683040 
# 
# 
# High freq. dielectric constant tensor:
#      x y z
#    x 1.753430 0.000000 0.000000 
#    y 0.000000 1.776530 0.000000 
#    z 0.000000 0.000000 1.778570 
# 
# From -- ./inp_files/3628.got.cif
#   From: 2010.03.12/outbox.cif.g09.slc.cpg/sg31_2_cif.got.tgz:3628.got - 2010.04.14 01:42:59.
