data_PCOD8169036
_publ_section_title
;
Structure prediction by ZEFSAII (Michael W. Deem and Ramdas Pophale) SiO2 
 PCOD8169036
Probable space group: P C A 21
;
_chemical_formula_sum "Si O2"
_cell_formula_units_Z 28
_cell_length_a 13.749222
_cell_length_b 5.244573
_cell_length_c 14.930935
_cell_angle_alpha 90.000000
_cell_angle_beta 90.000000
_cell_angle_gamma 90.000000
_cell_volume 1076.651783
_symmetry_space_group_name_H-M "P C A 21"
_symmetry_group_IT_number 29
_symmetry_cell_setting 'orthorhombic'
loop_
_space_group_symop_operation_xyz
x,y,z
-x,-y,1/2+z
1/2-x,y,1/2+z
1/2+x,-y,z
loop_
_atom_site_type_symbol
_atom_site_label
_atom_site_fract_x
_atom_site_fract_y
_atom_site_fract_z
Si Si1 0.144813 0.759597 0.400180
Si Si2 0.161923 0.254060 0.284893
Si Si3 0.407060 0.742839 0.593167
Si Si4 0.717649 0.537952 0.641530
Si Si5 0.562683 0.614081 0.923489
Si Si6 0.526557 0.464232 0.723023
Si Si7 0.780541 0.907440 0.504257
O O1 0.161755 0.477005 0.360989
O O2 0.035102 0.782788 0.438235
O O3 0.162044 0.975943 0.326754
O O4 0.222708 0.831459 0.478477
O O5 0.258632 0.273124 0.224814
O O6 0.064238 0.269817 0.222490
O O7 0.306663 0.651087 0.636807
O O8 0.435668 0.595499 0.502064
O O9 0.488812 0.722552 0.670825
O O10 0.375419 0.030772 0.567267
O O11 0.619367 0.378768 0.663651
O O12 0.706577 0.709782 0.551585
O O13 0.558026 0.494911 0.825202
O O14 0.664109 0.773966 0.920895
#
# Coordination Sequence:
#
# PCOD8169036 Si02
#       7
#     4   4   4   4   4   4   4
#     4  11  26  44  76 102 146 194 240 307 370 443
#     4  10  25  46  69 111 143 183 254 303 358 454
#     4  10  25  46  66 108 148 187 254 312 358 458
#     4  10  24  43  69 102 146 196 237 311 374 441
#     4  10  25  45  69 107 139 196 242 305 369 441
#     4  10  23  46  75 101 149 191 249 303 382 434
#     4  11  26  42  72 101 151 195 250 303 377 445
#
# _framework density 26.006551000000002
#
# number of rings (size 3 to 8) (size 9 to 14) (size 15 to 20)
#    0.000    1.714    0.000    0.857   20.000    0.000 
#    5.143    0.000    0.000    0.000    0.000    0.000 
#    0.000    0.000    0.000    0.000    0.000    0.000 
#
# Total GULP energy -346874.781288 kJ/mol
# GULP energy per Si atom -12388.385046 kJ/mol
# Density = 2.594736 g / cm^3
# Si number density = 26.006551 Si / 1000 Ang^3
#
#
#
# Elastic Constant Matrix: (Units=GPa)
#
#
# Indices 1 2 3 4 5 6 
#
# 1 84.4337 -12.6842 18.4379 0.0000 0.0000 0.0000
# 2 -12.6842 26.1942 -3.9952 0.0000 0.0000 0.0000
# 3 18.4379 -3.9952 90.2650 0.0000 0.0000 0.0000
# 4 0.0000 0.0000 0.0000 32.5010 0.0000 0.0000
# 5 0.0000 0.0000 0.0000 0.0000 49.2292 0.0000
# 6 0.0000 0.0000 0.0000 0.0000 0.0000 29.1757
#
#
#
# Elastic Compliance Matrix: (Units=1/GPa)
#
#
# Indices 1 2 3 4 5 6 
#
# 1 0.013288 0.006062 -0.002446 0.000000 0.000000 0.000000
# 2 0.006062 0.041201 0.000585 0.000000 0.000000 0.000000
# 3 -0.002446 0.000585 0.011604 0.000000 0.000000 0.000000
# 4 0.000000 0.000000 0.000000 0.030768 0.000000 0.000000
# 5 0.000000 0.000000 0.000000 0.000000 0.020313 0.000000
# 6 0.000000 0.000000 0.000000 0.000000 0.000000 0.034275
#
#
# Mechanical properties :
#
#
# Convention : Reuss Voigt Hill
#
# Bulk Modulus (GPa) = 13.42364 22.71222 18.06793
# Shear Modulus (GPa) = 29.78321 35.45679 32.62000
#
# Velocity S-wave (km/s) = 3.38778 3.69640 3.54545
# Velocity P-wave (km/s) = 4.52500 5.19327 4.87061
#
# Compressibility (1/GPa) = 0.07449544
#
# Stress axis : x y z
#
# Youngs Moduli (GPa) = 75.25374 24.27125 86.17690
#
# Poissons Ratio (x) = -0.14712 0.21079
# Poissons Ratio (y) = -0.45616 -0.05045
# Poissons Ratio (z) = 0.18407 -0.01421
#
# Static dielectric constant tensor:
#      x y z
#    x 5.136410 0.000000 0.000000 
#    y 0.000000 4.252030 0.000000 
#    z 0.000000 0.000000 5.204230 
# 
# 
# High freq. dielectric constant tensor:
#      x y z
#    x 2.052470 0.000000 0.000000 
#    y 0.000000 2.008850 0.000000 
#    z 0.000000 0.000000 2.059790 
# 
# From -- ./inp_files/4678.got.cif
#   From: 2010.03.12/outbox.cif.g09.slc.cpg/sg29_3_cif.got.tgz:4678.got - 2010.04.14 03:43:10.
