data_PCOD8169476
_publ_section_title
;
Structure prediction by ZEFSAII (Michael W. Deem and Ramdas Pophale) SiO2 
 PCOD8169476
Probable space group: P N C 2
;
_chemical_formula_sum "Si O2"
_cell_formula_units_Z 24
_cell_length_a 8.496044
_cell_length_b 28.067234
_cell_length_c 4.939114
_cell_angle_alpha 90.000000
_cell_angle_beta 90.000000
_cell_angle_gamma 90.000000
_cell_volume 1177.783372
_symmetry_space_group_name_H-M "P N C 2"
_symmetry_group_IT_number 30
_symmetry_cell_setting 'orthorhombic'
loop_
_space_group_symop_operation_xyz
x,y,z
-x,-y,z
-x,1/2+y,1/2+z
x,1/2-y,1/2+z
loop_
_atom_site_type_symbol
_atom_site_label
_atom_site_fract_x
_atom_site_fract_y
_atom_site_fract_z
Si Si1 0.131536 0.640228 0.242750
Si Si2 0.339558 0.640374 0.747647
Si Si3 0.457854 0.221095 0.986703
Si Si4 0.858194 0.033899 0.686503
Si Si5 0.087940 0.278661 0.414579
Si Si6 0.351896 0.966118 0.200754
O O1 0.194795 0.637949 0.545137
O O2 0.075022 0.587688 0.152858
O O3 0.981693 0.674401 0.273913
O O4 0.267020 0.658929 0.033922
O O5 0.473522 0.673014 0.613873
O O6 0.409390 0.587161 0.783069
O O7 0.514118 0.235918 0.686724
O O8 0.273066 0.213968 0.948169
O O9 0.785370 0.016424 0.403123
O O10 0.716494 0.032125 0.899908
O O11 0.000000 0.000000 0.774719
O O12 0.032591 0.264810 0.716384
O O13 0.500000 0.000000 0.223842
#
# Coordination Sequence:
#
# PCOD8169476 Si02
#       6
#     4   4   4   4   4   4
#     4  10  21  36  55  80 108 139 180 225 268 322
#     4  10  21  36  55  80 108 139 180 225 268 322
#     4  10  21  36  53  77 109 142 179 222 267 320
#     4  10  21  38  58  83 113 144 183 229 276 330
#     4  10  21  36  53  77 109 142 179 222 267 320
#     4  10  21  38  58  83 113 144 183 229 276 330
#
# _framework density 20.37726
#
# number of rings (size 3 to 8) (size 9 to 14) (size 15 to 20)
#    0.000    2.000    0.000    3.000    0.000    5.333 
#    0.000    5.000    0.000    0.000    0.000    0.000 
#    0.000    0.000    0.000    0.000    0.000    0.000 
#
# Total GULP energy -297408.383423 kJ/mol
# GULP energy per Si atom -12392.015976 kJ/mol
# Density = 2.033088 g / cm^3
# Si number density = 20.377260 Si / 1000 Ang^3
#
#
#
# Elastic Constant Matrix: (Units=GPa)
#
#
# Indices 1 2 3 4 5 6 
#
# 1 69.0416 66.8991 29.0151 0.0000 0.0000 0.0000
# 2 66.8991 108.8965 29.8078 0.0000 0.0000 0.0000
# 3 29.0151 29.8078 88.9014 0.0000 0.0000 0.0000
# 4 0.0000 0.0000 0.0000 26.6062 0.0000 0.0000
# 5 0.0000 0.0000 0.0000 0.0000 26.3464 0.0000
# 6 0.0000 0.0000 0.0000 0.0000 0.0000 34.0697
#
#
#
# Elastic Compliance Matrix: (Units=1/GPa)
#
#
# Indices 1 2 3 4 5 6 
#
# 1 0.037701 -0.021793 -0.004998 0.000000 0.000000 0.000000
# 2 -0.021793 0.022709 -0.000501 0.000000 0.000000 0.000000
# 3 -0.004998 -0.000501 0.013048 0.000000 0.000000 0.000000
# 4 0.000000 0.000000 0.000000 0.037585 0.000000 0.000000
# 5 0.000000 0.000000 0.000000 0.000000 0.037956 0.000000
# 6 0.000000 0.000000 0.000000 0.000000 0.000000 0.029352
#
#
# Mechanical properties :
#
#
# Convention : Reuss Voigt Hill
#
# Bulk Modulus (GPa) = 52.98518 57.58704 55.28611
# Shear Modulus (GPa) = 20.90078 26.81228 23.85653
#
# Velocity S-wave (km/s) = 3.20612 3.63132 3.42532
# Velocity P-wave (km/s) = 6.30588 6.77523 6.54477
#
# Compressibility (1/GPa) = 0.01887320
#
# Stress axis : x y z
#
# Youngs Moduli (GPa) = 26.52432 44.03612 76.64261
#
# Poissons Ratio (x) = 0.95969 0.38303
# Poissons Ratio (y) = 0.57805 0.03842
# Poissons Ratio (z) = 0.13256 0.02207
#
# Static dielectric constant tensor:
#      x y z
#    x 3.323440 0.000000 0.000000 
#    y 0.000000 3.776910 0.000000 
#    z 0.000000 0.000000 4.064670 
# 
# 
# High freq. dielectric constant tensor:
#      x y z
#    x 1.772160 0.000000 0.000000 
#    y 0.000000 1.790910 0.000000 
#    z 0.000000 0.000000 1.823060 
# 
# From -- ./inp_files/432.got.cif
#   From: 2010.03.12/outbox.cif.g09.slc.cpg/sg30_1_cif.got.tgz:432.got - 2010.04.14 01:38:02.
