data_PCOD8169959
_publ_section_title
;
Structure prediction by ZEFSAII (Michael W. Deem and Ramdas Pophale) SiO2 
 PCOD8169959
Probable space group: P M N 21
;
_chemical_formula_sum "Si O2"
_cell_formula_units_Z 32
_cell_length_a 8.773514
_cell_length_b 11.921901
_cell_length_c 15.409300
_cell_angle_alpha 90.000000
_cell_angle_beta 90.000000
_cell_angle_gamma 90.000000
_cell_volume 1611.766018
_symmetry_space_group_name_H-M "P M N 21"
_symmetry_group_IT_number 31
_symmetry_cell_setting 'orthorhombic'
loop_
_space_group_symop_operation_xyz
x,y,z
1/2-x,-y,1/2+z
-x,y,z
1/2+x,-y,1/2+z
loop_
_atom_site_type_symbol
_atom_site_label
_atom_site_fract_x
_atom_site_fract_y
_atom_site_fract_z
Si Si1 0.178135 0.890266 0.812340
Si Si2 0.822421 0.726666 0.157051
Si Si3 0.819724 0.868629 0.315737
Si Si4 0.677304 0.275507 0.463976
Si Si5 0.674919 0.494724 0.916265
Si Si6 0.177944 0.736808 0.650578
Si Si7 0.178761 0.269777 0.970996
Si Si8 0.823690 0.488127 0.213045
O O1 0.229013 0.817569 0.895405
O O2 0.222614 0.823518 0.725861
O O3 0.000000 0.918241 0.816281
O O4 0.272688 0.003027 0.815036
O O5 0.750218 0.809340 0.229135
O O6 0.761050 0.599422 0.165145
O O7 0.000000 0.719678 0.177528
O O8 0.790158 0.773023 0.060423
O O9 0.758061 0.807046 0.400011
O O10 0.000000 0.860459 0.317668
O O11 0.500000 0.306760 0.451256
O O12 0.776561 0.385778 0.452508
O O13 0.500000 0.471919 0.940515
O O14 0.775928 0.399586 0.961383
O O15 0.700764 0.490868 0.814155
O O16 0.270410 0.773238 0.565510
O O17 0.219625 0.612624 0.681262
O O18 0.000000 0.740663 0.629656
O O19 0.000000 0.255863 0.961117
O O20 0.000000 0.461097 0.190905
#
# Coordination Sequence:
#
# PCOD8169959 Si02
#       8
#     4   4   4   4   4   4   4   4
#     4  10  23  41  60  89 125 161 203 253 304 363
#     4   9  19  37  61  87 116 153 196 244 297 359
#     4  11  23  42  64  88 118 160 209 258 308 361
#     4  10  20  38  63  90 122 160 201 245 302 366
#     4  11  21  36  61  93 127 159 200 250 304 365
#     4  11  23  40  62  91 127 162 204 254 305 364
#     4  12  25  41  63  90 122 163 209 256 312 367
#     4  10  19  35  60  90 125 158 198 246 302 367
#
# _framework density 19.853999000000002
#
# number of rings (size 3 to 8) (size 9 to 14) (size 15 to 20)
#    0.000    1.500    2.500    3.000    0.000    4.000 
#    0.000    2.500    0.000    0.000    0.000    0.000 
#    0.000    0.000    0.000    0.000    0.000    0.000 
#
# Total GULP energy -396922.698688 kJ/mol
# GULP energy per Si atom -12403.834334 kJ/mol
# Density = 1.980881 g / cm^3
# Si number density = 19.853999 Si / 1000 Ang^3
#
#
#
# Elastic Constant Matrix: (Units=GPa)
#
#
# Indices 1 2 3 4 5 6 
#
# 1 63.4769 38.9500 25.8668 0.0000 0.0000 0.0000
# 2 38.9500 145.8187 98.4008 0.0000 0.0000 0.0000
# 3 25.8668 98.4008 193.7480 0.0000 0.0000 0.0000
# 4 0.0000 0.0000 0.0000 6.6343 0.0000 0.0000
# 5 0.0000 0.0000 0.0000 0.0000 25.0682 0.0000
# 6 0.0000 0.0000 0.0000 0.0000 0.0000 36.3962
#
#
#
# Elastic Compliance Matrix: (Units=1/GPa)
#
#
# Indices 1 2 3 4 5 6 
#
# 1 0.018843 -0.005075 0.000062 0.000000 0.000000 0.000000
# 2 -0.005075 0.011800 -0.005316 0.000000 0.000000 0.000000
# 3 0.000062 -0.005316 0.007853 0.000000 0.000000 0.000000
# 4 0.000000 0.000000 0.000000 0.150733 0.000000 0.000000
# 5 0.000000 0.000000 0.000000 0.000000 0.039891 0.000000
# 6 0.000000 0.000000 0.000000 0.000000 0.000000 0.027475
#
#
# Mechanical properties :
#
#
# Convention : Reuss Voigt Hill
#
# Bulk Modulus (GPa) = 56.05878 81.05320 68.55599
# Shear Modulus (GPa) = 17.65545 29.60814 23.63179
#
# Velocity S-wave (km/s) = 2.98529 3.86592 3.45378
# Velocity P-wave (km/s) = 6.33872 7.80002 7.10703
#
# Compressibility (1/GPa) = 0.01783842
#
# Stress axis : x y z
#
# Youngs Moduli (GPa) = 53.07150 84.74219 127.34231
#
# Poissons Ratio (x) = 0.43004 -0.00786
# Poissons Ratio (y) = 0.26932 0.67692
# Poissons Ratio (z) = -0.00328 0.45047
#
# Static dielectric constant tensor:
#      x y z
#    x 3.534620 0.000000 0.000000 
#    y 0.000000 3.603360 0.000000 
#    z 0.000000 0.000000 3.907750 
# 
# 
# High freq. dielectric constant tensor:
#      x y z
#    x 1.762320 0.000000 0.000000 
#    y 0.000000 1.771060 0.000000 
#    z 0.000000 0.000000 1.795030 
# 
# From -- ./inp_files/4946.got.cif
#   From: 2010.03.12/outbox.cif.g09.slc.cpg/sg31_3_cif.got.tgz:4946.got - 2010.04.14 01:42:59.
