data_PCOD8169381
_publ_section_title
;
Structure prediction by ZEFSAII (Michael W. Deem and Ramdas Pophale) SiO2 
 PCOD8169381
Probable space group: P N C 2
;
_chemical_formula_sum "Si O2"
_cell_formula_units_Z 26
_cell_length_a 9.550243
_cell_length_b 9.047459
_cell_length_c 16.374478
_cell_angle_alpha 90.000000
_cell_angle_beta 90.000000
_cell_angle_gamma 90.000000
_cell_volume 1414.843845
_symmetry_space_group_name_H-M "P N C 2"
_symmetry_group_IT_number 30
_symmetry_cell_setting 'orthorhombic'
loop_
_space_group_symop_operation_xyz
x,y,z
-x,-y,z
-x,1/2+y,1/2+z
x,1/2-y,1/2+z
loop_
_atom_site_type_symbol
_atom_site_label
_atom_site_fract_x
_atom_site_fract_y
_atom_site_fract_z
Si Si1 0.711742 0.537000 0.179110
Si Si2 0.355339 0.736429 0.876688
Si Si3 0.472130 0.748170 0.208883
Si Si4 0.842884 0.484470 0.337179
Si Si5 0.658138 0.978347 0.502208
Si Si6 0.371337 0.155048 0.947451
Si Si7 0.500000 0.000000 0.086718
O O1 0.631720 0.692232 0.196964
O O2 0.621490 0.395779 0.203049
O O3 0.843429 0.529794 0.240932
O O4 0.755788 0.521440 0.083530
O O5 0.439024 0.676425 0.796881
O O6 0.464966 0.850985 0.918656
O O7 0.211479 0.818171 0.852819
O O8 0.307812 0.605968 0.937310
O O9 0.433833 0.869614 0.141115
O O10 0.738045 0.593146 0.383463
O O11 0.000000 0.500000 0.371090
O O12 0.500000 0.000000 0.536081
O O13 0.675235 0.824068 0.457147
O O14 0.371541 0.066158 0.033015
#
# Coordination Sequence:
#
# PCOD8169381 Si02
#       7
#     4   4   4   4   4   4   2
#     4  10  18  36  52  78 116 144 183 224 283 334
#     4  10  20  36  60  86 112 146 184 236 285 339
#     4  10  19  30  53  87 113 141 177 230 282 336
#     4  11  23  38  57  78 111 157 196 232 279 337
#     4  10  19  33  59  92 114 140 182 239 288 339
#     4  11  20  34  57  87 114 143 186 232 287 332
#     4  12  20  30  56  92 114 142 182 236 288 332
#
# _framework density 18.376586
#
# number of rings (size 3 to 8) (size 9 to 14) (size 15 to 20)
#    0.000    1.538    6.154    0.923    3.231    0.000 
#    0.000    2.308    0.000    0.000    0.000    0.000 
#    0.000    0.000    0.000    0.000    0.000    0.000 
#
# Total GULP energy -322233.363215 kJ/mol
# GULP energy per Si atom -12393.590893 kJ/mol
# Density = 1.833476 g / cm^3
# Si number density = 18.376586 Si / 1000 Ang^3
#
#
#
# Elastic Constant Matrix: (Units=GPa)
#
#
# Indices 1 2 3 4 5 6 
#
# 1 63.6819 35.0622 31.3074 0.0000 0.0000 0.0000
# 2 35.0622 88.6454 51.8086 0.0000 0.0000 0.0000
# 3 31.3074 51.8086 142.2522 0.0000 0.0000 0.0000
# 4 0.0000 0.0000 0.0000 30.0346 0.0000 0.0000
# 5 0.0000 0.0000 0.0000 0.0000 11.4192 0.0000
# 6 0.0000 0.0000 0.0000 0.0000 0.0000 9.8468
#
#
#
# Elastic Compliance Matrix: (Units=1/GPa)
#
#
# Indices 1 2 3 4 5 6 
#
# 1 0.020505 -0.006953 -0.001981 0.000000 0.000000 0.000000
# 2 -0.006953 0.016689 -0.004548 0.000000 0.000000 0.000000
# 3 -0.001981 -0.004548 0.009122 0.000000 0.000000 0.000000
# 4 0.000000 0.000000 0.000000 0.033295 0.000000 0.000000
# 5 0.000000 0.000000 0.000000 0.000000 0.087572 0.000000
# 6 0.000000 0.000000 0.000000 0.000000 0.000000 0.101556
#
#
# Mechanical properties :
#
#
# Convention : Reuss Voigt Hill
#
# Bulk Modulus (GPa) = 51.67099 58.99286 55.33193
# Shear Modulus (GPa) = 16.54795 22.02020 19.28407
#
# Velocity S-wave (km/s) = 3.00407 3.46537 3.24293
# Velocity P-wave (km/s) = 6.34125 6.94144 6.64812
#
# Compressibility (1/GPa) = 0.01935322
#
# Stress axis : x y z
#
# Youngs Moduli (GPa) = 48.76898 59.91964 109.62454
#
# Poissons Ratio (x) = 0.41661 0.21712
# Poissons Ratio (y) = 0.33908 0.49857
# Poissons Ratio (z) = 0.09659 0.27251
#
# Static dielectric constant tensor:
#      x y z
#    x 2.844550 0.000000 0.000000 
#    y 0.000000 3.428440 0.000000 
#    z 0.000000 0.000000 3.772290 
# 
# 
# High freq. dielectric constant tensor:
#      x y z
#    x 1.638200 0.000000 0.000000 
#    y 0.000000 1.721160 0.000000 
#    z 0.000000 0.000000 1.737500 
# 
# From -- ./inp_files/5452.got.cif
#   From: 2010.03.12/outbox.cif.g09.slc.cpg/sg30_3_cif.got.tgz:5452.got - 2010.04.14 01:38:02.
