data_PCOD8169820
_publ_section_title
;
Structure prediction by ZEFSAII (Michael W. Deem and Ramdas Pophale) SiO2 
 PCOD8169820
Probable space group: P M N 21
;
_chemical_formula_sum "Si O2"
_cell_formula_units_Z 32
_cell_length_a 9.046005
_cell_length_b 24.054586
_cell_length_c 7.933649
_cell_angle_alpha 90.000000
_cell_angle_beta 90.000000
_cell_angle_gamma 90.000000
_cell_volume 1726.345403
_symmetry_space_group_name_H-M "P M N 21"
_symmetry_group_IT_number 31
_symmetry_cell_setting 'orthorhombic'
loop_
_space_group_symop_operation_xyz
x,y,z
1/2-x,-y,1/2+z
-x,y,z
1/2+x,-y,1/2+z
loop_
_atom_site_type_symbol
_atom_site_label
_atom_site_fract_x
_atom_site_fract_y
_atom_site_fract_z
Si Si1 0.174836 0.632497 0.843130
Si Si2 0.174663 0.556459 0.536592
Si Si3 0.164348 0.153466 0.528963
Si Si4 0.659969 0.052528 0.033733
Si Si5 0.164348 0.153467 0.157308
Si Si6 0.325336 0.443543 0.649665
Si Si7 0.323741 0.241632 0.343137
Si Si8 0.659969 0.052526 0.652538
O O1 0.230330 0.602928 0.670471
O O2 0.234579 0.695330 0.843134
O O3 0.000000 0.633071 0.843136
O O4 0.230336 0.602925 0.015782
O O5 0.250001 0.500002 0.593134
O O6 0.219224 0.572335 0.343128
O O7 0.000000 0.548259 0.549941
O O8 0.150166 0.126171 0.343135
O O9 0.257075 0.211283 0.510693
O O10 0.250009 0.109761 0.642403
O O11 0.000000 0.165326 0.603266
O O12 0.500000 0.057045 0.128899
O O13 0.749998 0.109761 0.043864
O O14 0.749995 0.000000 0.093139
O O15 0.624624 0.041431 0.843136
O O16 0.257080 0.211283 0.175578
O O17 0.000000 0.165329 0.083008
O O18 0.500000 0.451741 0.636317
O O19 0.500000 0.237119 0.343141
O O20 0.500000 0.057040 0.557370
#
# Coordination Sequence:
#
# PCOD8169820 Si02
#       8
#     4   4   4   4   4   4   4   4
#     4   9  18  33  53  79 113 149 190 231 278 337
#     4  10  19  32  52  79 111 148 186 230 282 334
#     4   9  19  35  55  78 104 136 175 218 266 322
#     4  11  23  36  53  80 110 141 180 221 268 326
#     4   9  19  35  55  78 104 136 175 218 266 322
#     4  10  19  32  52  79 111 148 186 230 282 334
#     4   9  17  33  57  77 101 145 182 219 272 323
#     4  11  23  36  53  80 110 141 180 221 268 326
#
# _framework density 18.536266000000001
#
# number of rings (size 3 to 8) (size 9 to 14) (size 15 to 20)
#    0.750    1.500    1.250    2.250    0.000    5.000 
#    0.000    3.750    0.000    4.500    0.000    0.000 
#    0.000    0.000    0.000    0.000    0.000    0.000 
#
# Total GULP energy -396419.281812 kJ/mol
# GULP energy per Si atom -12388.102557 kJ/mol
# Density = 1.849408 g / cm^3
# Si number density = 18.536266 Si / 1000 Ang^3
#
#
#
# Elastic Constant Matrix: (Units=GPa)
#
#
# Indices 1 2 3 4 5 6 
#
# 1 116.9517 60.7695 27.8401 0.0000 0.0000 0.0000
# 2 60.7695 170.0890 52.9267 0.0000 0.0000 0.0000
# 3 27.8401 52.9267 100.0521 0.0000 0.0000 0.0000
# 4 0.0000 0.0000 0.0000 32.1775 0.0000 0.0000
# 5 0.0000 0.0000 0.0000 0.0000 18.5616 0.0000
# 6 0.0000 0.0000 0.0000 0.0000 0.0000 29.4952
#
#
#
# Elastic Compliance Matrix: (Units=1/GPa)
#
#
# Indices 1 2 3 4 5 6 
#
# 1 0.010606 -0.003437 -0.001133 0.000000 0.000000 0.000000
# 2 -0.003437 0.008151 -0.003356 0.000000 0.000000 0.000000
# 3 -0.001133 -0.003356 0.012085 0.000000 0.000000 0.000000
# 4 0.000000 0.000000 0.000000 0.031078 0.000000 0.000000
# 5 0.000000 0.000000 0.000000 0.000000 0.053875 0.000000
# 6 0.000000 0.000000 0.000000 0.000000 0.000000 0.033904
#
#
# Mechanical properties :
#
#
# Convention : Reuss Voigt Hill
#
# Bulk Modulus (GPa) = 66.70491 74.46282 70.58387
# Shear Modulus (GPa) = 29.31737 32.41727 30.86732
#
# Velocity S-wave (km/s) = 3.98128 4.18647 4.08516
# Velocity P-wave (km/s) = 7.56296 7.97667 7.77257
#
# Compressibility (1/GPa) = 0.01499140
#
# Stress axis : x y z
#
# Youngs Moduli (GPa) = 94.28574 122.67913 82.74545
#
# Poissons Ratio (x) = 0.42161 0.09377
# Poissons Ratio (y) = 0.32403 0.27767
# Poissons Ratio (z) = 0.10685 0.41167
#
# Static dielectric constant tensor:
#      x y z
#    x 3.209100 0.000000 0.000000 
#    y 0.000000 3.430820 0.000000 
#    z 0.000000 0.000000 3.466990 
# 
# 
# High freq. dielectric constant tensor:
#      x y z
#    x 1.723330 0.000000 0.000000 
#    y 0.000000 1.709180 0.000000 
#    z 0.000000 0.000000 1.703870 
# 
# From -- ./inp_files/1885.got.cif
#   From: 2010.03.12/outbox.cif.g09.slc.cpg/sg31_1_cif.got.tgz:1885.got - 2010.04.14 01:42:59.
