data_PCOD8169651
_publ_section_title
;
Structure prediction by ZEFSAII (Michael W. Deem and Ramdas Pophale) SiO2 
 PCOD8169651
Probable space group: P N C 2
;
_chemical_formula_sum "Si O2"
_cell_formula_units_Z 16
_cell_length_a 5.131068
_cell_length_b 5.283676
_cell_length_c 22.467539
_cell_angle_alpha 90.000000
_cell_angle_beta 90.000000
_cell_angle_gamma 90.000000
_cell_volume 609.115222
_symmetry_space_group_name_H-M "P N C 2"
_symmetry_group_IT_number 30
_symmetry_cell_setting 'orthorhombic'
loop_
_space_group_symop_operation_xyz
x,y,z
-x,-y,z
-x,1/2+y,1/2+z
x,1/2-y,1/2+z
loop_
_atom_site_type_symbol
_atom_site_label
_atom_site_fract_x
_atom_site_fract_y
_atom_site_fract_z
Si Si1 0.000000 0.500000 0.244340
Si Si2 0.240312 0.328337 0.653487
Si Si3 0.749244 0.330198 0.458894
Si Si4 0.000000 0.000000 0.553195
Si Si5 0.344784 0.738167 0.829121
O O1 0.240999 0.394386 0.203500
O O2 0.095802 0.728205 0.286692
O O3 0.500000 0.500000 0.650055
O O4 0.000000 0.500000 0.672474
O O5 0.174350 0.197953 0.590514
O O6 0.500000 0.500000 0.472882
O O7 0.783795 0.137676 0.513177
O O8 0.728401 0.173868 0.397290
O O9 0.000000 0.500000 0.452143
O O10 0.500000 0.500000 0.802363
O O11 0.500000 0.000000 0.827719
#
# Coordination Sequence:
#
# PCOD8169651 Si02
#       5
#     2   4   4   2   4
#     4  11  28  50  86 116 166 223 278 356 424 503
#     4  11  29  54  81 119 162 218 289 350 421 496
#     4  11  27  50  79 123 170 218 274 344 422 513
#     4  11  28  52  86 114 168 221 278 350 424 501
#     4  11  28  50  81 126 173 221 281 344 428 513
#
# _framework density 26.267610999999999
#
# number of rings (size 3 to 8) (size 9 to 14) (size 15 to 20)
#    0.000    1.000    1.250    0.750   14.000    9.000 
#    0.000    3.750    0.000    0.000    0.000    0.000 
#    0.000    0.000    0.000    0.000    0.000    0.000 
#
# Total GULP energy -198421.660245 kJ/mol
# GULP energy per Si atom -12401.353765 kJ/mol
# Density = 2.620782 g / cm^3
# Si number density = 26.267611 Si / 1000 Ang^3
#
#
#
# Elastic Constant Matrix: (Units=GPa)
#
#
# Indices 1 2 3 4 5 6 
#
# 1 176.0996 71.0396 60.0715 0.0000 0.0000 0.0000
# 2 71.0396 143.2730 66.6948 0.0000 0.0000 0.0000
# 3 60.0715 66.6948 194.4774 0.0000 0.0000 0.0000
# 4 0.0000 0.0000 0.0000 19.6460 0.0000 0.0000
# 5 0.0000 0.0000 0.0000 0.0000 18.8347 0.0000
# 6 0.0000 0.0000 0.0000 0.0000 0.0000 63.8452
#
#
#
# Elastic Compliance Matrix: (Units=1/GPa)
#
#
# Indices 1 2 3 4 5 6 
#
# 1 0.007331 -0.003071 -0.001211 0.000000 0.000000 0.000000
# 2 -0.003071 0.009592 -0.002341 0.000000 0.000000 0.000000
# 3 -0.001211 -0.002341 0.006319 0.000000 0.000000 0.000000
# 4 0.000000 0.000000 0.000000 0.050901 0.000000 0.000000
# 5 0.000000 0.000000 0.000000 0.000000 0.053093 0.000000
# 6 0.000000 0.000000 0.000000 0.000000 0.000000 0.015663
#
#
# Mechanical properties :
#
#
# Convention : Reuss Voigt Hill
#
# Bulk Modulus (GPa) = 100.04556 101.05132 100.54844
# Shear Modulus (GPa) = 31.35253 41.53480 36.44366
#
# Velocity S-wave (km/s) = 3.45857 3.98077 3.72882
# Velocity P-wave (km/s) = 7.35654 7.72542 7.54324
#
# Compressibility (1/GPa) = 0.00999545
#
# Stress axis : x y z
#
# Youngs Moduli (GPa) = 136.41455 104.25235 158.25481
#
# Poissons Ratio (x) = 0.32015 0.19167
# Poissons Ratio (y) = 0.41892 0.37047
# Poissons Ratio (z) = 0.16522 0.24405
#
# Static dielectric constant tensor:
#      x y z
#    x 4.924390 0.000000 0.000000 
#    y 0.000000 4.364340 0.000000 
#    z 0.000000 0.000000 5.236930 
# 
# 
# High freq. dielectric constant tensor:
#      x y z
#    x 2.048240 0.000000 0.000000 
#    y 0.000000 2.063190 0.000000 
#    z 0.000000 0.000000 2.076290 
# 
# From -- ./inp_files/6693.got.cif
#   From: 2010.03.12/outbox.cif.g09.slc.cpg/sg30_4_cif.got.tgz:6693.got - 2010.04.14 01:38:02.
