data_PCOD8169407
_publ_section_title
;
Structure prediction by ZEFSAII (Michael W. Deem and Ramdas Pophale) SiO2 
 PCOD8169407
Probable space group: P N C 2
;
_chemical_formula_sum "Si O2"
_cell_formula_units_Z 24
_cell_length_a 8.136530
_cell_length_b 24.230563
_cell_length_c 5.273313
_cell_angle_alpha 90.000000
_cell_angle_beta 90.000000
_cell_angle_gamma 90.000000
_cell_volume 1039.647910
_symmetry_space_group_name_H-M "P N C 2"
_symmetry_group_IT_number 30
_symmetry_cell_setting 'orthorhombic'
loop_
_space_group_symop_operation_xyz
x,y,z
-x,-y,z
-x,1/2+y,1/2+z
x,1/2-y,1/2+z
loop_
_atom_site_type_symbol
_atom_site_label
_atom_site_fract_x
_atom_site_fract_y
_atom_site_fract_z
Si Si1 0.771598 0.102687 0.784060
Si Si2 0.714003 0.897748 0.220956
Si Si3 0.801659 0.230445 0.750366
Si Si4 0.059006 0.562824 0.779491
Si Si5 0.569866 0.559978 0.222702
Si Si6 0.430669 0.276713 0.726990
O O1 0.810233 0.166389 0.800088
O O2 0.856056 0.071490 0.550452
O O3 0.577076 0.103366 0.742445
O O4 0.815243 0.073367 0.049182
O O5 0.653674 0.937302 0.448003
O O6 0.611304 0.841288 0.236556
O O7 0.910243 0.892888 0.255465
O O8 0.696198 0.926474 0.947600
O O9 0.896493 0.241795 0.487026
O O10 0.625500 0.262520 0.718346
O O11 0.000000 0.500000 0.762995
O O12 0.500000 0.500000 0.269007
O O13 0.348943 0.251456 0.473696
#
# Coordination Sequence:
#
# PCOD8169407 Si02
#       6
#     4   4   4   4   4   4
#     4  12  24  42  68  97 130 177 225 275 335 398
#     4  12  24  43  67  96 134 178 222 273 338 401
#     4  10  19  36  60  90 122 160 210 270 325 381
#     4  12  26  46  66  97 142 183 217 271 340 404
#     4  12  23  40  67 100 128 169 232 287 326 389
#     4  10  20  37  62  90 122 165 212 268 326 385
#
# _framework density 23.084741000000001
#
# number of rings (size 3 to 8) (size 9 to 14) (size 15 to 20)
#    0.000    0.667    0.000   11.000    0.000    0.000 
#    0.000    5.000    0.000    0.000    0.000    0.000 
#    0.000    0.000    0.000    0.000    0.000    0.000 
#
# Total GULP energy -297525.141789 kJ/mol
# GULP energy per Si atom -12396.880908 kJ/mol
# Density = 2.303220 g / cm^3
# Si number density = 23.084741 Si / 1000 Ang^3
#
#
#
# Elastic Constant Matrix: (Units=GPa)
#
#
# Indices 1 2 3 4 5 6 
#
# 1 50.1711 -21.1235 9.7914 0.0000 0.0000 0.0000
# 2 -21.1235 89.3064 24.3148 0.0000 0.0000 0.0000
# 3 9.7914 24.3148 164.2949 0.0000 0.0000 0.0000
# 4 0.0000 0.0000 0.0000 36.3180 0.0000 0.0000
# 5 0.0000 0.0000 0.0000 0.0000 14.8374 0.0000
# 6 0.0000 0.0000 0.0000 0.0000 0.0000 33.0041
#
#
#
# Elastic Compliance Matrix: (Units=1/GPa)
#
#
# Indices 1 2 3 4 5 6 
#
# 1 0.022913 0.006035 -0.002259 0.000000 0.000000 0.000000
# 2 0.006035 0.013257 -0.002322 0.000000 0.000000 0.000000
# 3 -0.002259 -0.002322 0.006565 0.000000 0.000000 0.000000
# 4 0.000000 0.000000 0.000000 0.027535 0.000000 0.000000
# 5 0.000000 0.000000 0.000000 0.000000 0.067397 0.000000
# 6 0.000000 0.000000 0.000000 0.000000 0.000000 0.030299
#
#
# Mechanical properties :
#
#
# Convention : Reuss Voigt Hill
#
# Bulk Modulus (GPa) = 21.90883 36.63755 29.27319
# Shear Modulus (GPa) = 27.73588 36.21788 31.97688
#
# Velocity S-wave (km/s) = 3.47000 3.96524 3.72586
# Velocity P-wave (km/s) = 5.05626 6.07203 5.58728
#
# Compressibility (1/GPa) = 0.04564371
#
# Stress axis : x y z
#
# Youngs Moduli (GPa) = 43.64271 75.43275 152.32747
#
# Poissons Ratio (x) = -0.45521 0.34405
# Poissons Ratio (y) = -0.26337 0.35364
# Poissons Ratio (z) = 0.09857 0.17512
#
# Static dielectric constant tensor:
#      x y z
#    x 4.174990 0.000000 0.000000 
#    y 0.000000 4.225360 0.000000 
#    z 0.000000 0.000000 5.233470 
# 
# 
# High freq. dielectric constant tensor:
#      x y z
#    x 1.881130 0.000000 0.000000 
#    y 0.000000 1.919770 0.000000 
#    z 0.000000 0.000000 1.950620 
# 
# From -- ./inp_files/412.got.cif
#   From: 2010.03.12/outbox.cif.g09.slc.cpg/sg30_1_cif.got.tgz:412.got - 2010.04.14 01:38:02.
