data_PCOD8169474
_publ_section_title
;
Structure prediction by ZEFSAII (Michael W. Deem and Ramdas Pophale) SiO2 
 PCOD8169474
Probable space group: P N C 2
;
_chemical_formula_sum "Si O2"
_cell_formula_units_Z 24
_cell_length_a 10.417671
_cell_length_b 22.360492
_cell_length_c 4.926034
_cell_angle_alpha 90.000000
_cell_angle_beta 90.000000
_cell_angle_gamma 90.000000
_cell_volume 1147.491291
_symmetry_space_group_name_H-M "P N C 2"
_symmetry_group_IT_number 30
_symmetry_cell_setting 'orthorhombic'
loop_
_space_group_symop_operation_xyz
x,y,z
-x,-y,z
-x,1/2+y,1/2+z
x,1/2-y,1/2+z
loop_
_atom_site_type_symbol
_atom_site_label
_atom_site_fract_x
_atom_site_fract_y
_atom_site_fract_z
Si Si1 0.853509 0.011417 0.127470
Si Si2 0.765881 0.085203 0.622837
Si Si3 0.332994 0.091101 0.270343
Si Si4 0.307055 0.710428 0.003240
Si Si5 0.607081 0.711828 0.992898
Si Si6 0.484848 0.064311 0.780385
O O1 0.783723 0.054830 0.334658
O O2 0.786354 0.946069 0.144212
O O3 0.847129 0.046150 0.838946
O O4 0.000000 0.000000 0.203799
O O5 0.792239 0.156185 0.578381
O O6 0.619993 0.090804 0.708971
O O7 0.302904 0.155369 0.409135
O O8 0.398560 0.053150 0.511950
O O9 0.423400 0.106172 0.011986
O O10 0.277565 0.765316 0.203705
O O11 0.458014 0.690855 0.997739
O O12 0.639962 0.766698 0.794672
O O13 0.500000 0.000000 0.923539
#
# Coordination Sequence:
#
# PCOD8169474 Si02
#       6
#     4   4   4   4   4   4
#     4  12  26  42  61  87 118 166 209 253 299 346
#     4  12  23  39  63  88 126 156 195 251 305 368
#     4  12  22  37  59  87 125 154 194 245 301 368
#     4  10  21  35  57  90 126 156 188 235 304 374
#     4  10  21  34  54  86 125 157 187 232 298 372
#     4  12  21  34  58  95 120 151 186 241 322 367
#
# _framework density 20.915192999999999
#
# number of rings (size 3 to 8) (size 9 to 14) (size 15 to 20)
#    0.000    0.667    5.000    4.000    4.667    0.000 
#    0.000    0.000    0.000    6.000    0.000    0.000 
#    0.000    0.000    0.000    0.000    0.000    0.000 
#
# Total GULP energy -297396.071882 kJ/mol
# GULP energy per Si atom -12391.502995 kJ/mol
# Density = 2.086759 g / cm^3
# Si number density = 20.915193 Si / 1000 Ang^3
#
#
#
# Elastic Constant Matrix: (Units=GPa)
#
#
# Indices 1 2 3 4 5 6 
#
# 1 61.8762 27.7015 15.3959 0.0000 0.0000 0.0000
# 2 27.7015 123.8032 13.8507 0.0000 0.0000 0.0000
# 3 15.3959 13.8507 90.5078 0.0000 0.0000 0.0000
# 4 0.0000 0.0000 0.0000 34.5070 0.0000 0.0000
# 5 0.0000 0.0000 0.0000 0.0000 14.9003 0.0000
# 6 0.0000 0.0000 0.0000 0.0000 0.0000 7.8231
#
#
#
# Elastic Compliance Matrix: (Units=1/GPa)
#
#
# Indices 1 2 3 4 5 6 
#
# 1 0.018526 -0.003859 -0.002561 0.000000 0.000000 0.000000
# 2 -0.003859 0.009022 -0.000724 0.000000 0.000000 0.000000
# 3 -0.002561 -0.000724 0.011595 0.000000 0.000000 0.000000
# 4 0.000000 0.000000 0.000000 0.028980 0.000000 0.000000
# 5 0.000000 0.000000 0.000000 0.000000 0.067113 0.000000
# 6 0.000000 0.000000 0.000000 0.000000 0.000000 0.127826
#
#
# Mechanical properties :
#
#
# Convention : Reuss Voigt Hill
#
# Bulk Modulus (GPa) = 40.23289 43.34261 41.78775
# Shear Modulus (GPa) = 17.50488 26.06199 21.78344
#
# Velocity S-wave (km/s) = 2.89614 3.53381 3.23075
# Velocity P-wave (km/s) = 5.51919 6.11706 5.82580
#
# Compressibility (1/GPa) = 0.02485529
#
# Stress axis : x y z
#
# Youngs Moduli (GPa) = 53.97802 110.84281 86.24238
#
# Poissons Ratio (x) = 0.42772 0.22086
# Poissons Ratio (y) = 0.20829 0.06246
# Poissons Ratio (z) = 0.13823 0.08028
#
# Static dielectric constant tensor:
#      x y z
#    x 3.188600 0.000000 0.000000 
#    y 0.000000 3.818230 0.000000 
#    z 0.000000 0.000000 4.040480 
# 
# 
# High freq. dielectric constant tensor:
#      x y z
#    x 1.744150 0.000000 0.000000 
#    y 0.000000 1.837810 0.000000 
#    z 0.000000 0.000000 1.845120 
# 
# From -- ./inp_files/433.got.cif
#   From: 2010.03.12/outbox.cif.g09.slc.cpg/sg30_1_cif.got.tgz:433.got - 2010.04.14 01:38:02.
