data_PCOD8169595
_publ_section_title
;
Structure prediction by ZEFSAII (Michael W. Deem and Ramdas Pophale) SiO2 
 PCOD8169595
Probable space group: P N C 2
;
_chemical_formula_sum "Si O2"
_cell_formula_units_Z 18
_cell_length_a 5.047273
_cell_length_b 16.206833
_cell_length_c 8.955980
_cell_angle_alpha 90.000000
_cell_angle_beta 90.000000
_cell_angle_gamma 90.000000
_cell_volume 732.601946
_symmetry_space_group_name_H-M "P N C 2"
_symmetry_group_IT_number 30
_symmetry_cell_setting 'orthorhombic'
loop_
_space_group_symop_operation_xyz
x,y,z
-x,-y,z
-x,1/2+y,1/2+z
x,1/2-y,1/2+z
loop_
_atom_site_type_symbol
_atom_site_label
_atom_site_fract_x
_atom_site_fract_y
_atom_site_fract_z
Si Si1 0.704524 0.606831 0.754810
Si Si2 0.500000 0.500000 0.513814
Si Si3 0.000000 0.000000 0.706905
Si Si4 0.805968 0.295559 0.688170
Si Si5 0.500000 0.500000 0.013495
Si Si6 0.843894 0.360726 0.375058
O O1 0.727649 0.534668 0.629018
O O2 0.490778 0.671725 0.695182
O O3 0.605127 0.575147 0.914217
O O4 0.986829 0.650426 0.785263
O O5 0.607935 0.425645 0.411662
O O6 0.078205 0.078698 0.813596
O O7 0.747740 0.029312 0.612132
O O8 0.916660 0.304876 0.518125
O O9 0.783090 0.201316 0.739195
#
# Coordination Sequence:
#
# PCOD8169595 Si02
#       6
#     4   2   2   4   2   4
#     4  10  23  45  72 105 144 190 238 301 371 432
#     4   9  21  48  74 104 144 200 248 296 366 462
#     4  12  26  44  70 104 148 192 240 298 358 444
#     4  11  26  44  74 105 151 182 243 306 373 428
#     4  11  25  42  76 104 144 188 250 294 354 440
#     4  11  26  47  73 110 145 197 244 306 372 438
#
# _framework density 24.569956999999999
#
# number of rings (size 3 to 8) (size 9 to 14) (size 15 to 20)
#    0.000    1.333    0.000    3.333    6.222   15.111 
#    0.000    0.000    0.000    0.000    0.000    0.000 
#    0.000    0.000    0.000    0.000    0.000    0.000 
#
# Total GULP energy -223072.448044 kJ/mol
# GULP energy per Si atom -12392.913780 kJ/mol
# Density = 2.451404 g / cm^3
# Si number density = 24.569957 Si / 1000 Ang^3
#
#
#
# Elastic Constant Matrix: (Units=GPa)
#
#
# Indices 1 2 3 4 5 6 
#
# 1 92.3742 28.5436 27.9460 0.0000 0.0000 0.0000
# 2 28.5436 163.2853 80.0966 0.0000 0.0000 0.0000
# 3 27.9460 80.0966 152.1687 0.0000 0.0000 0.0000
# 4 0.0000 0.0000 0.0000 45.3111 0.0000 0.0000
# 5 0.0000 0.0000 0.0000 0.0000 21.6048 0.0000
# 6 0.0000 0.0000 0.0000 0.0000 0.0000 35.5256
#
#
#
# Elastic Compliance Matrix: (Units=1/GPa)
#
#
# Indices 1 2 3 4 5 6 
#
# 1 0.011674 -0.001333 -0.001442 0.000000 0.000000 0.000000
# 2 -0.001333 0.008408 -0.004181 0.000000 0.000000 0.000000
# 3 -0.001442 -0.004181 0.009037 0.000000 0.000000 0.000000
# 4 0.000000 0.000000 0.000000 0.022070 0.000000 0.000000
# 5 0.000000 0.000000 0.000000 0.000000 0.046286 0.000000
# 6 0.000000 0.000000 0.000000 0.000000 0.000000 0.028149
#
#
# Mechanical properties :
#
#
# Convention : Reuss Voigt Hill
#
# Bulk Modulus (GPa) = 65.76119 75.66676 70.71398
# Shear Modulus (GPa) = 34.57693 38.57110 36.57402
#
# Velocity S-wave (km/s) = 3.75545 3.96643 3.86238
# Velocity P-wave (km/s) = 6.75481 7.20000 6.98096
#
# Compressibility (1/GPa) = 0.01520654
#
# Stress axis : x y z
#
# Youngs Moduli (GPa) = 85.66196 118.93148 110.65356
#
# Poissons Ratio (x) = 0.15857 0.15958
# Poissons Ratio (y) = 0.11421 0.46264
# Poissons Ratio (z) = 0.12353 0.49725
#
# Static dielectric constant tensor:
#      x y z
#    x 4.092520 0.000000 0.000000 
#    y 0.000000 4.451910 0.000000 
#    z 0.000000 0.000000 4.890970 
# 
# 
# High freq. dielectric constant tensor:
#      x y z
#    x 1.959990 0.000000 0.000000 
#    y 0.000000 1.975170 0.000000 
#    z 0.000000 0.000000 1.993520 
# 
# From -- ./inp_files/1266.got.cif
#   From: 2010.03.12/outbox.cif.g09.slc.cpg/sg30_1_cif.got.tgz:1266.got - 2010.04.14 01:38:02.
