data_PCOD8169861
_publ_section_title
;
Structure prediction by ZEFSAII (Michael W. Deem and Ramdas Pophale) SiO2 
 PCOD8169861
Probable space group: P M N 21
;
_chemical_formula_sum "Si O2"
_cell_formula_units_Z 32
_cell_length_a 8.781881
_cell_length_b 14.071430
_cell_length_c 14.164237
_cell_angle_alpha 90.000000
_cell_angle_beta 90.000000
_cell_angle_gamma 90.000000
_cell_volume 1750.326094
_symmetry_space_group_name_H-M "P M N 21"
_symmetry_group_IT_number 31
_symmetry_cell_setting 'orthorhombic'
loop_
_space_group_symop_operation_xyz
x,y,z
1/2-x,-y,1/2+z
-x,y,z
1/2+x,-y,1/2+z
loop_
_atom_site_type_symbol
_atom_site_label
_atom_site_fract_x
_atom_site_fract_y
_atom_site_fract_z
Si Si1 0.173667 0.152570 0.978790
Si Si2 0.322238 0.008675 0.333775
Si Si3 0.321228 0.352476 0.984437
Si Si4 0.677927 0.642530 0.984506
Si Si5 0.321277 0.496300 0.830418
Si Si6 0.178991 0.138674 0.482311
Si Si7 0.323332 0.004356 0.631462
Si Si8 0.680375 0.503107 0.620996
O O1 0.213255 0.090023 0.886938
O O2 0.284253 0.241863 0.979114
O O3 0.000000 0.188025 0.975194
O O4 0.203417 0.092169 0.073309
O O5 0.500000 0.033200 0.341871
O O6 0.274323 0.000015 0.225906
O O7 0.228319 0.092887 0.383066
O O8 0.500000 0.367127 0.995764
O O9 0.261187 0.405370 0.889819
O O10 0.242755 0.400683 0.074396
O O11 0.500000 0.629555 0.005627
O O12 0.722062 0.593011 0.885475
O O13 0.725868 0.751598 0.978623
O O14 0.768589 0.592430 0.068591
O O15 0.500000 0.487143 0.818542
O O16 0.248725 0.498179 0.726456
O O17 0.268112 0.093127 0.569740
O O18 0.000000 0.123959 0.497122
O O19 0.500000 0.018740 0.656293
O O20 0.500000 0.509183 0.621520
#
# Coordination Sequence:
#
# PCOD8169861 Si02
#       8
#     4   4   4   4   4   4   4   4
#     4   9  20  37  54  76 106 139 175 217 264 314
#     4  10  21  37  56  80 110 140 177 225 270 321
#     4  10  20  35  54  77 105 136 172 215 262 315
#     4   9  19  36  54  74 104 139 174 215 262 314
#     4   8  17  34  52  72 101 135 169 206 254 310
#     4  10  20  35  56  80 107 142 181 223 272 321
#     4  10  21  37  56  78 108 144 181 223 268 319
#     4  10  19  33  54  77 103 137 175 216 260 310
#
# _framework density 18.282306999999999
#
# number of rings (size 3 to 8) (size 9 to 14) (size 15 to 20)
#    0.000    2.500    0.000    3.375    0.000    6.000 
#    0.000   11.250    0.000    0.000    0.000    0.000 
#    0.000    0.000    0.000    0.000    0.000    0.000 
#
# Total GULP energy -396831.596692 kJ/mol
# GULP energy per Si atom -12400.987397 kJ/mol
# Density = 1.824070 g / cm^3
# Si number density = 18.282307 Si / 1000 Ang^3
#
#
#
# Elastic Constant Matrix: (Units=GPa)
#
#
# Indices 1 2 3 4 5 6 
#
# 1 54.3228 39.0114 26.9436 0.0000 0.0000 0.0000
# 2 39.0114 128.7393 48.8030 0.0000 0.0000 0.0000
# 3 26.9436 48.8030 137.7419 0.0000 0.0000 0.0000
# 4 0.0000 0.0000 0.0000 11.8916 0.0000 0.0000
# 5 0.0000 0.0000 0.0000 0.0000 30.4094 0.0000
# 6 0.0000 0.0000 0.0000 0.0000 0.0000 32.0673
#
#
#
# Elastic Compliance Matrix: (Units=1/GPa)
#
#
# Indices 1 2 3 4 5 6 
#
# 1 0.024235 -0.006407 -0.002470 0.000000 0.000000 0.000000
# 2 -0.006407 0.010667 -0.002526 0.000000 0.000000 0.000000
# 3 -0.002470 -0.002526 0.008638 0.000000 0.000000 0.000000
# 4 0.000000 0.000000 0.000000 0.084093 0.000000 0.000000
# 5 0.000000 0.000000 0.000000 0.000000 0.032885 0.000000
# 6 0.000000 0.000000 0.000000 0.000000 0.000000 0.031184
#
#
# Mechanical properties :
#
#
# Convention : Reuss Voigt Hill
#
# Bulk Modulus (GPa) = 48.23336 61.14667 54.69002
# Shear Modulus (GPa) = 22.58146 28.61007 25.59576
#
# Velocity S-wave (km/s) = 3.51829 3.96018 3.74576
# Velocity P-wave (km/s) = 6.55319 7.37761 6.97759
#
# Compressibility (1/GPa) = 0.02073254
#
# Stress axis : x y z
#
# Youngs Moduli (GPa) = 41.26222 93.74869 115.76520
#
# Poissons Ratio (x) = 0.60069 0.28599
# Poissons Ratio (y) = 0.26438 0.29242
# Poissons Ratio (z) = 0.10194 0.23681
#
# Static dielectric constant tensor:
#      x y z
#    x 3.288730 0.000000 0.000000 
#    y 0.000000 3.344840 0.000000 
#    z 0.000000 0.000000 3.575950 
# 
# 
# High freq. dielectric constant tensor:
#      x y z
#    x 1.706780 0.000000 0.000000 
#    y 0.000000 1.709250 0.000000 
#    z 0.000000 0.000000 1.713840 
# 
# From -- ./inp_files/5111.got.cif
#   From: 2010.03.12/outbox.cif.g09.slc.cpg/sg31_3_cif.got.tgz:5111.got - 2010.04.14 01:42:59.
