data_PCOD8169065
_publ_section_title
;
Structure prediction by ZEFSAII (Michael W. Deem and Ramdas Pophale) SiO2 
 PCOD8169065
Probable space group: P C A 21
;
_chemical_formula_sum "Si O2"
_cell_formula_units_Z 20
_cell_length_a 9.513185
_cell_length_b 9.694812
_cell_length_c 8.707025
_cell_angle_alpha 90.000000
_cell_angle_beta 90.000000
_cell_angle_gamma 90.000000
_cell_volume 803.036204
_symmetry_space_group_name_H-M "P C A 21"
_symmetry_group_IT_number 29
_symmetry_cell_setting 'orthorhombic'
loop_
_space_group_symop_operation_xyz
x,y,z
-x,-y,1/2+z
1/2-x,y,1/2+z
1/2+x,-y,z
loop_
_atom_site_type_symbol
_atom_site_label
_atom_site_fract_x
_atom_site_fract_y
_atom_site_fract_z
Si Si1 0.928185 0.371267 0.331440
Si Si2 0.762051 0.835206 0.109593
Si Si3 0.560545 0.775006 0.865211
Si Si4 0.049334 0.074382 0.349938
Si Si5 0.356551 0.565221 0.980418
O O1 0.809540 0.426999 0.448941
O O2 0.946474 0.206216 0.333650
O O3 0.074060 0.431913 0.399123
O O4 0.891775 0.423989 0.160611
O O5 0.856131 0.729471 0.211300
O O6 0.662219 0.932558 0.212409
O O7 0.662823 0.737354 0.007178
O O8 0.865462 0.929470 0.009362
O O9 0.415383 0.697909 0.886469
O O10 0.546672 0.939845 0.848711
#
# Coordination Sequence:
#
# PCOD8169065 Si02
#       5
#     4   4   4   4   4
#     4  12  30  50  75 107 147 194 246 301 365 435
#     4  10  24  42  72 104 146 188 242 298 368 422
#     4  11  25  44  74 105 145 190 244 301 362 429
#     4  11  25  44  74 105 145 190 244 301 362 429
#     4  12  30  50  75 107 147 194 246 301 365 435
#
# _framework density 24.905477999999999
#
# number of rings (size 3 to 8) (size 9 to 14) (size 15 to 20)
#    0.000    0.800    2.000    2.400   16.800    0.000 
#    0.000    0.000    0.000    0.000    0.000    0.000 
#    0.000    0.000    0.000    0.000    0.000    0.000 
#
# Total GULP energy -248005.250022 kJ/mol
# GULP energy per Si atom -12400.262501 kJ/mol
# Density = 2.484879 g / cm^3
# Si number density = 24.905478 Si / 1000 Ang^3
#
#
#
# Elastic Constant Matrix: (Units=GPa)
#
#
# Indices 1 2 3 4 5 6 
#
# 1 102.8312 6.0518 23.5182 0.0000 0.0000 0.0000
# 2 6.0518 107.5029 -0.1251 0.0000 0.0000 0.0000
# 3 23.5182 -0.1251 142.2474 0.0000 0.0000 0.0000
# 4 0.0000 0.0000 0.0000 16.8603 0.0000 0.0000
# 5 0.0000 0.0000 0.0000 0.0000 29.4895 0.0000
# 6 0.0000 0.0000 0.0000 0.0000 0.0000 18.9079
#
#
#
# Elastic Compliance Matrix: (Units=1/GPa)
#
#
# Indices 1 2 3 4 5 6 
#
# 1 0.010142 -0.000573 -0.001677 0.000000 0.000000 0.000000
# 2 -0.000573 0.009334 0.000103 0.000000 0.000000 0.000000
# 3 -0.001677 0.000103 0.007307 0.000000 0.000000 0.000000
# 4 0.000000 0.000000 0.000000 0.059311 0.000000 0.000000
# 5 0.000000 0.000000 0.000000 0.000000 0.033910 0.000000
# 6 0.000000 0.000000 0.000000 0.000000 0.000000 0.052888
#
#
# Mechanical properties :
#
#
# Convention : Reuss Voigt Hill
#
# Bulk Modulus (GPa) = 44.46558 45.71904 45.09231
# Shear Modulus (GPa) = 27.07325 34.59398 30.83361
#
# Velocity S-wave (km/s) = 3.30061 3.73099 3.52238
# Velocity P-wave (km/s) = 5.69367 6.07925 5.88961
#
# Compressibility (1/GPa) = 0.02248931
#
# Stress axis : x y z
#
# Youngs Moduli (GPa) = 98.59985 107.13007 136.84739
#
# Poissons Ratio (x) = 0.06137 0.22954
# Poissons Ratio (y) = 0.05649 -0.01409
# Poissons Ratio (z) = 0.16538 -0.01103
#
# Static dielectric constant tensor:
#      x y z
#    x 4.507970 0.000000 0.000000 
#    y 0.000000 4.089850 0.000000 
#    z 0.000000 0.000000 4.931350 
# 
# 
# High freq. dielectric constant tensor:
#      x y z
#    x 2.003460 0.000000 0.000000 
#    y 0.000000 1.974250 0.000000 
#    z 0.000000 0.000000 2.016400 
# 
# From -- ./inp_files/1106.got.cif
#   From: 2010.03.12/outbox.cif.g09.slc.cpg/sg29_1_cif.got.tgz:1106.got - 2010.04.14 03:43:10.
