data_PCOD8169567
_publ_section_title
;
Structure prediction by ZEFSAII (Michael W. Deem and Ramdas Pophale) SiO2 
 PCOD8169567
Probable space group: P N C 2
;
_chemical_formula_sum "Si O2"
_cell_formula_units_Z 24
_cell_length_a 11.019098
_cell_length_b 9.217592
_cell_length_c 11.712005
_cell_angle_alpha 90.000000
_cell_angle_beta 90.000000
_cell_angle_gamma 90.000000
_cell_volume 1189.583072
_symmetry_space_group_name_H-M "P N C 2"
_symmetry_group_IT_number 30
_symmetry_cell_setting 'orthorhombic'
loop_
_space_group_symop_operation_xyz
x,y,z
-x,-y,z
-x,1/2+y,1/2+z
x,1/2-y,1/2+z
loop_
_atom_site_type_symbol
_atom_site_label
_atom_site_fract_x
_atom_site_fract_y
_atom_site_fract_z
Si Si1 0.230925 0.685156 0.754250
Si Si2 0.639770 0.525035 0.931689
Si Si3 0.247401 0.318764 0.380342
Si Si4 0.868377 0.537587 0.579799
Si Si5 0.027371 0.165656 0.294054
Si Si6 0.357958 0.976024 0.694080
O O1 0.282382 0.579003 0.851224
O O2 0.197770 0.597821 0.640030
O O3 0.326181 0.811991 0.729589
O O4 0.100949 0.751595 0.794220
O O5 0.500000 0.500000 0.910154
O O6 0.655564 0.692740 0.898289
O O7 0.677960 0.499200 0.062627
O O8 0.236707 0.419064 0.491525
O O9 0.113532 0.248620 0.380060
O O10 0.281650 0.411413 0.269635
O O11 0.900044 0.661890 0.673257
O O12 0.000000 0.500000 0.523421
O O13 0.000000 0.000000 0.332450
O O14 0.500000 0.000000 0.716141
#
# Coordination Sequence:
#
# PCOD8169567 Si02
#       6
#     4   4   4   4   4   4
#     4  10  22  44  65  93 133 169 207 266 331 374
#     4  11  24  43  66  89 131 172 217 266 315 374
#     4  12  22  41  69  95 128 168 218 266 325 381
#     4   9  21  39  63  95 133 164 207 262 325 393
#     4   9  19  40  62  97 126 162 206 261 319 390
#     4  11  27  43  64  96 129 167 229 261 312 389
#
# _framework density 20.175135999999998
#
# number of rings (size 3 to 8) (size 9 to 14) (size 15 to 20)
#    0.000    2.000    3.333    2.000    4.667    1.333 
#    0.000    0.000    0.000    0.000    0.000    0.000 
#    0.000    0.000    0.000    0.000    0.000    0.000 
#
# Total GULP energy -297449.509137 kJ/mol
# GULP energy per Si atom -12393.729547 kJ/mol
# Density = 2.012922 g / cm^3
# Si number density = 20.175136 Si / 1000 Ang^3
#
#
#
# Elastic Constant Matrix: (Units=GPa)
#
#
# Indices 1 2 3 4 5 6 
#
# 1 124.7612 61.2573 52.4017 0.0000 0.0000 0.0000
# 2 61.2573 110.8962 62.9334 0.0000 0.0000 0.0000
# 3 52.4017 62.9334 82.7278 0.0000 0.0000 0.0000
# 4 0.0000 0.0000 0.0000 28.3204 0.0000 0.0000
# 5 0.0000 0.0000 0.0000 0.0000 26.0127 0.0000
# 6 0.0000 0.0000 0.0000 0.0000 0.0000 42.4833
#
#
#
# Elastic Compliance Matrix: (Units=1/GPa)
#
#
# Indices 1 2 3 4 5 6 
#
# 1 0.011862 -0.004027 -0.004450 0.000000 0.000000 0.000000
# 2 -0.004027 0.017235 -0.010560 0.000000 0.000000 0.000000
# 3 -0.004450 -0.010560 0.022940 0.000000 0.000000 0.000000
# 4 0.000000 0.000000 0.000000 0.035310 0.000000 0.000000
# 5 0.000000 0.000000 0.000000 0.000000 0.038443 0.000000
# 6 0.000000 0.000000 0.000000 0.000000 0.000000 0.023539
#
#
# Mechanical properties :
#
#
# Convention : Reuss Voigt Hill
#
# Bulk Modulus (GPa) = 71.62245 74.61889 73.12067
# Shear Modulus (GPa) = 26.03403 28.81614 27.42509
#
# Velocity S-wave (km/s) = 3.59611 3.78339 3.69094
# Velocity P-wave (km/s) = 7.26775 7.49341 7.38144
#
# Compressibility (1/GPa) = 0.01396210
#
# Stress axis : x y z
#
# Youngs Moduli (GPa) = 84.30609 58.02268 43.59160
#
# Poissons Ratio (x) = 0.23364 0.19399
# Poissons Ratio (y) = 0.33947 0.46034
# Poissons Ratio (z) = 0.37518 0.61274
#
# Static dielectric constant tensor:
#      x y z
#    x 3.805310 0.000000 0.000000 
#    y 0.000000 3.584000 0.000000 
#    z 0.000000 0.000000 3.590750 
# 
# 
# High freq. dielectric constant tensor:
#      x y z
#    x 1.797590 0.000000 0.000000 
#    y 0.000000 1.782080 0.000000 
#    z 0.000000 0.000000 1.785290 
# 
# From -- ./inp_files/4051.got.cif
#   From: 2010.03.12/outbox.cif.g09.slc.cpg/sg30_3_cif.got.tgz:4051.got - 2010.04.14 01:38:02.
