data_PCOD8169408
_publ_section_title
;
Structure prediction by ZEFSAII (Michael W. Deem and Ramdas Pophale) SiO2 
 PCOD8169408
Probable space group: P N C 2
;
_chemical_formula_sum "Si O2"
_cell_formula_units_Z 16
_cell_length_a 7.875345
_cell_length_b 15.935206
_cell_length_c 5.048024
_cell_angle_alpha 90.000000
_cell_angle_beta 90.000000
_cell_angle_gamma 90.000000
_cell_volume 633.503008
_symmetry_space_group_name_H-M "P N C 2"
_symmetry_group_IT_number 30
_symmetry_cell_setting 'orthorhombic'
loop_
_space_group_symop_operation_xyz
x,y,z
-x,-y,z
-x,1/2+y,1/2+z
x,1/2-y,1/2+z
loop_
_atom_site_type_symbol
_atom_site_label
_atom_site_fract_x
_atom_site_fract_y
_atom_site_fract_z
Si Si1 0.004156 0.696608 0.788670
Si Si2 0.644691 0.384512 0.678250
Si Si3 0.450210 0.095164 0.681987
Si Si4 0.834238 0.547606 0.524083
O O1 0.961376 0.769507 0.578636
O O2 0.889651 0.614446 0.745376
O O3 0.201729 0.674541 0.760128
O O4 0.570042 0.355995 0.394900
O O5 0.706384 0.482317 0.668661
O O6 0.490641 0.370393 0.889128
O O7 0.500000 0.000000 0.693622
O O8 0.254106 0.097732 0.779464
O O9 0.000000 0.500000 0.407069
#
# Coordination Sequence:
#
# PCOD8169408 Si02
#       4
#     4   4   4   4
#     4  11  24  42  61  89 128 170 210 259 319 378
#     4  10  21  39  63  89 123 164 210 257 309 374
#     4  10  19  36  63  94 121 155 208 262 308 367
#     4   9  21  41  67  96 126 165 212 264 318 377
#
# _framework density 25.256392999999999
#
# number of rings (size 3 to 8) (size 9 to 14) (size 15 to 20)
#    0.000    2.000    0.000    3.750    0.000    6.000 
#    0.000   27.500    0.000    0.000    0.000    0.000 
#    0.000    0.000    0.000    0.000    0.000    0.000 
#
# Total GULP energy -198342.576626 kJ/mol
# GULP energy per Si atom -12396.411039 kJ/mol
# Density = 2.519891 g / cm^3
# Si number density = 25.256393 Si / 1000 Ang^3
#
#
#
# Elastic Constant Matrix: (Units=GPa)
#
#
# Indices 1 2 3 4 5 6 
#
# 1 110.5749 15.7648 29.8667 0.0000 0.0000 0.0000
# 2 15.7648 56.1484 6.8199 0.0000 0.0000 0.0000
# 3 29.8667 6.8199 116.1131 0.0000 0.0000 0.0000
# 4 0.0000 0.0000 0.0000 10.7760 0.0000 0.0000
# 5 0.0000 0.0000 0.0000 0.0000 40.6078 0.0000
# 6 0.0000 0.0000 0.0000 0.0000 0.0000 30.5012
#
#
#
# Elastic Compliance Matrix: (Units=1/GPa)
#
#
# Indices 1 2 3 4 5 6 
#
# 1 0.010063 -0.002529 -0.002440 0.000000 0.000000 0.000000
# 2 -0.002529 0.018574 -0.000440 0.000000 0.000000 0.000000
# 3 -0.002440 -0.000440 0.009266 0.000000 0.000000 0.000000
# 4 0.000000 0.000000 0.000000 0.092799 0.000000 0.000000
# 5 0.000000 0.000000 0.000000 0.000000 0.024626 0.000000
# 6 0.000000 0.000000 0.000000 0.000000 0.000000 0.032786
#
#
# Mechanical properties :
#
#
# Convention : Reuss Voigt Hill
#
# Bulk Modulus (GPa) = 36.92256 43.08214 40.00235
# Shear Modulus (GPa) = 24.04315 31.73600 27.88957
#
# Velocity S-wave (km/s) = 3.08874 3.54863 3.32664
# Velocity P-wave (km/s) = 5.23175 5.82111 5.53428
#
# Compressibility (1/GPa) = 0.02708371
#
# Stress axis : x y z
#
# Youngs Moduli (GPa) = 99.37137 53.84005 107.92422
#
# Poissons Ratio (x) = 0.13617 0.26333
# Poissons Ratio (y) = 0.25132 0.04753
# Poissons Ratio (z) = 0.24246 0.02371
#
# Static dielectric constant tensor:
#      x y z
#    x 5.716560 0.000000 0.000000 
#    y 0.000000 4.236070 0.000000 
#    z 0.000000 0.000000 4.873840 
# 
# 
# High freq. dielectric constant tensor:
#      x y z
#    x 2.016870 0.000000 0.000000 
#    y 0.000000 1.979750 0.000000 
#    z 0.000000 0.000000 2.002930 
# 
# From -- ./inp_files/306.got.cif
#   From: 2010.03.12/outbox.cif.g09.slc.cpg/sg30_1_cif.got.tgz:306.got - 2010.04.14 01:38:02.
