data_PCOD8169076
_publ_section_title
;
Structure prediction by ZEFSAII (Michael W. Deem and Ramdas Pophale) SiO2 
 PCOD8169076
Probable space group: P C A 21
;
_chemical_formula_sum "Si O2"
_cell_formula_units_Z 20
_cell_length_a 18.061038
_cell_length_b 4.818240
_cell_length_c 8.417965
_cell_angle_alpha 90.000000
_cell_angle_beta 90.000000
_cell_angle_gamma 90.000000
_cell_volume 732.551650
_symmetry_space_group_name_H-M "P C A 21"
_symmetry_group_IT_number 29
_symmetry_cell_setting 'orthorhombic'
loop_
_space_group_symop_operation_xyz
x,y,z
-x,-y,1/2+z
1/2-x,y,1/2+z
1/2+x,-y,z
loop_
_atom_site_type_symbol
_atom_site_label
_atom_site_fract_x
_atom_site_fract_y
_atom_site_fract_z
Si Si1 0.129751 0.863869 0.417800
Si Si2 0.295081 0.358747 0.066724
Si Si3 0.984524 0.177721 0.179415
Si Si4 0.871118 0.575156 0.648088
Si Si5 0.587156 0.681345 0.811442
O O1 0.185455 0.674882 0.524410
O O2 0.049136 0.896116 0.503970
O O3 0.125711 0.709497 0.247071
O O4 0.172498 0.165000 0.420902
O O5 0.209131 0.312460 0.101493
O O6 0.331719 0.283133 0.235300
O O7 0.964730 0.500054 0.198137
O O8 0.074930 0.170563 0.212679
O O9 0.948556 0.987267 0.314855
O O10 0.912071 0.526196 0.479602
#
# Coordination Sequence:
#
# PCOD8169076 Si02
#       5
#     4   4   4   4   4
#     4  10  24  44  65  96 139 177 222 284 347 411
#     4  10  24  44  64  96 138 177 224 286 347 411
#     4  10  24  44  65  97 140 177 224 290 350 409
#     4  12  24  42  74 100 128 185 238 279 345 423
#     4  10  24  44  64  97 139 176 224 289 349 412
#
# _framework density 27.301825999999998
#
# number of rings (size 3 to 8) (size 9 to 14) (size 15 to 20)
#    0.000    1.600    0.000    2.400    0.000   19.200 
#    0.000    0.000    0.000    0.000    0.000    0.000 
#    0.000    0.000    0.000    0.000    0.000    0.000 
#
# Total GULP energy -247844.022489 kJ/mol
# GULP energy per Si atom -12392.201124 kJ/mol
# Density = 2.723969 g / cm^3
# Si number density = 27.301826 Si / 1000 Ang^3
#
#
#
# Elastic Constant Matrix: (Units=GPa)
#
#
# Indices 1 2 3 4 5 6 
#
# 1 175.1207 19.7896 13.3946 0.0000 0.0000 0.0000
# 2 19.7896 100.5971 -1.4953 0.0000 0.0000 0.0000
# 3 13.3946 -1.4953 112.9778 0.0000 0.0000 0.0000
# 4 0.0000 0.0000 0.0000 37.8856 0.0000 0.0000
# 5 0.0000 0.0000 0.0000 0.0000 40.5902 0.0000
# 6 0.0000 0.0000 0.0000 0.0000 0.0000 26.9859
#
#
#
# Elastic Compliance Matrix: (Units=1/GPa)
#
#
# Indices 1 2 3 4 5 6 
#
# 1 0.005897 -0.001171 -0.000715 0.000000 0.000000 0.000000
# 2 -0.001171 0.010175 0.000273 0.000000 0.000000 0.000000
# 3 -0.000715 0.000273 0.008940 0.000000 0.000000 0.000000
# 4 0.000000 0.000000 0.000000 0.026395 0.000000 0.000000
# 5 0.000000 0.000000 0.000000 0.000000 0.024636 0.000000
# 6 0.000000 0.000000 0.000000 0.000000 0.000000 0.037056
#
#
# Mechanical properties :
#
#
# Convention : Reuss Voigt Hill
#
# Bulk Modulus (GPa) = 45.89668 50.23038 48.06353
# Shear Modulus (GPa) = 40.45745 44.89280 42.67513
#
# Velocity S-wave (km/s) = 3.85367 4.05941 3.95788
# Velocity P-wave (km/s) = 6.05379 6.35688 6.20718
#
# Compressibility (1/GPa) = 0.02178807
#
# Stress axis : x y z
#
# Youngs Moduli (GPa) = 169.56873 98.27989 111.86128
#
# Poissons Ratio (x) = 0.11506 0.07994
# Poissons Ratio (y) = 0.19852 -0.03059
# Poissons Ratio (z) = 0.12119 -0.02688
#
# Static dielectric constant tensor:
#      x y z
#    x 5.022390 0.000000 0.000000 
#    y 0.000000 4.759860 0.000000 
#    z 0.000000 0.000000 5.067220 
# 
# 
# High freq. dielectric constant tensor:
#      x y z
#    x 2.113000 0.000000 0.000000 
#    y 0.000000 2.097680 0.000000 
#    z 0.000000 0.000000 2.110840 
# 
# From -- ./inp_files/1994.got.cif
#   From: 2010.03.12/outbox.cif.g09.slc.cpg/sg29_1_cif.got.tgz:1994.got - 2010.04.14 03:43:10.
