data_PCOD8169769
_publ_section_title
;
Structure prediction by ZEFSAII (Michael W. Deem and Ramdas Pophale) SiO2 
 PCOD8169769
Probable space group: P M N 21
;
_chemical_formula_sum "Si O2"
_cell_formula_units_Z 32
_cell_length_a 10.622174
_cell_length_b 15.806131
_cell_length_c 8.590844
_cell_angle_alpha 90.000000
_cell_angle_beta 90.000000
_cell_angle_gamma 90.000000
_cell_volume 1442.363823
_symmetry_space_group_name_H-M "P M N 21"
_symmetry_group_IT_number 31
_symmetry_cell_setting 'orthorhombic'
loop_
_space_group_symop_operation_xyz
x,y,z
1/2-x,-y,1/2+z
-x,y,z
1/2+x,-y,1/2+z
loop_
_atom_site_type_symbol
_atom_site_label
_atom_site_fract_x
_atom_site_fract_y
_atom_site_fract_z
Si Si1 0.636785 0.249881 0.657480
Si Si2 0.358307 0.821987 0.760327
Si Si3 0.639714 0.668386 0.983214
Si Si4 0.642429 0.589509 0.445871
Si Si5 0.368012 0.942684 0.281894
Si Si6 0.708220 0.081352 0.503095
Si Si7 0.644592 0.507987 0.780120
Si Si8 0.715682 0.779071 0.439679
O O1 0.500000 0.293826 0.635008
O O2 0.750717 0.311461 0.607329
O O3 0.631742 0.164671 0.553603
O O4 0.654204 0.231593 0.842405
O O5 0.500000 0.842118 0.702932
O O6 0.263788 0.818701 0.611787
O O7 0.352318 0.730677 0.838405
O O8 0.317741 0.892991 0.882895
O O9 0.500000 0.675657 0.062163
O O10 0.661433 0.575642 0.917215
O O11 0.500000 0.562543 0.394043
O O12 0.674290 0.548608 0.612928
O O13 0.748572 0.562289 0.318750
O O14 0.642986 0.690829 0.459658
O O15 0.500000 0.951434 0.192591
O O16 0.261112 0.963279 0.157639
O O17 0.363626 0.846100 0.339663
O O18 0.373346 0.008910 0.423765
O O19 0.500000 0.472129 0.783968
#
# Coordination Sequence:
#
# PCOD8169769 Si02
#       8
#     4   4   4   4   4   4   4   4
#     4  10  23  41  61  92 134 173 209 257 316 374
#     4  10  18  36  64  91 120 159 210 266 315 367
#     4   9  19  38  65  92 120 160 210 258 309 373
#     4  11  24  43  66  94 127 166 212 264 321 384
#     4  11  22  39  62  91 126 166 212 265 315 372
#     4  10  22  39  62  94 126 165 213 260 317 380
#     4  10  23  43  65  93 128 162 206 264 320 381
#     4  11  23  39  63  91 124 165 215 262 314 377
#
# _framework density 22.185804999999998
#
# number of rings (size 3 to 8) (size 9 to 14) (size 15 to 20)
#    0.000    1.750    1.250    2.625    1.750    5.500 
#    0.000   11.250    0.000    0.000    0.000    0.000 
#    0.000    0.000    0.000    0.000    0.000    0.000 
#
# Total GULP energy -396538.424103 kJ/mol
# GULP energy per Si atom -12391.825753 kJ/mol
# Density = 2.213531 g / cm^3
# Si number density = 22.185805 Si / 1000 Ang^3
#
#
#
# Elastic Constant Matrix: (Units=GPa)
#
#
# Indices 1 2 3 4 5 6 
#
# 1 137.8409 26.7245 45.2124 0.0000 0.0000 0.0000
# 2 26.7245 82.6275 21.5043 0.0000 0.0000 0.0000
# 3 45.2124 21.5043 114.8493 0.0000 0.0000 0.0000
# 4 0.0000 0.0000 0.0000 34.5083 0.0000 0.0000
# 5 0.0000 0.0000 0.0000 0.0000 -28.7781 0.0000
# 6 0.0000 0.0000 0.0000 0.0000 0.0000 6.4875
#
#
#
# Elastic Compliance Matrix: (Units=1/GPa)
#
#
# Indices 1 2 3 4 5 6 
#
# 1 0.008636 -0.002006 -0.003024 0.000000 0.000000 0.000000
# 2 -0.002006 0.013188 -0.001680 0.000000 0.000000 0.000000
# 3 -0.003024 -0.001680 0.010212 0.000000 0.000000 0.000000
# 4 0.000000 0.000000 0.000000 0.028979 0.000000 0.000000
# 5 0.000000 0.000000 0.000000 0.000000 -0.034749 0.000000
# 6 0.000000 0.000000 0.000000 0.000000 0.000000 0.154141
#
#
# Mechanical properties :
#
#
# Convention : Reuss Voigt Hill
#
# Bulk Modulus (GPa) = 53.71519 58.02225 55.86872
# Shear Modulus (GPa) = 24.99599 18.56866 21.78232
#
# Velocity S-wave (km/s) = 3.36023 2.89617 3.13679
# Velocity P-wave (km/s) = 6.27048 6.11501 6.19323
#
# Compressibility (1/GPa) = 0.01861671
#
# Stress axis : x y z
#
# Youngs Moduli (GPa) = 115.80066 75.82374 97.92418
#
# Poissons Ratio (x) = 0.15210 0.29611
# Poissons Ratio (y) = 0.23230 0.16448
# Poissons Ratio (z) = 0.35017 0.12736
#
# Static dielectric constant tensor:
#      x y z
#    x 4.250180 0.000000 0.000000 
#    y 0.000000 3.943750 0.000000 
#    z 0.000000 0.000000 4.050420 
# 
# 
# High freq. dielectric constant tensor:
#      x y z
#    x 1.856480 0.000000 0.000000 
#    y 0.000000 1.874790 0.000000 
#    z 0.000000 0.000000 1.878990 
# 
# From -- ./inp_files/2257.got.cif
#   From: 2010.03.12/outbox.cif.g09.slc.cpg/sg31_2_cif.got.tgz:2257.got - 2010.04.14 01:42:59.
