data_PCOD8169236
_publ_section_title
;
Structure prediction by ZEFSAII (Michael W. Deem and Ramdas Pophale) SiO2 
 PCOD8169236
Probable space group: P C A 21
;
_chemical_formula_sum "Si O2"
_cell_formula_units_Z 32
_cell_length_a 11.112254
_cell_length_b 9.250296
_cell_length_c 13.698675
_cell_angle_alpha 90.000000
_cell_angle_beta 90.000000
_cell_angle_gamma 90.000000
_cell_volume 1408.109252
_symmetry_space_group_name_H-M "P C A 21"
_symmetry_group_IT_number 29
_symmetry_cell_setting 'orthorhombic'
loop_
_space_group_symop_operation_xyz
x,y,z
-x,-y,1/2+z
1/2-x,y,1/2+z
1/2+x,-y,z
loop_
_atom_site_type_symbol
_atom_site_label
_atom_site_fract_x
_atom_site_fract_y
_atom_site_fract_z
Si Si1 0.832323 0.410897 0.335780
Si Si2 0.888089 0.104983 0.755587
Si Si3 0.992931 0.813284 0.742804
Si Si4 0.328428 0.951466 0.111820
Si Si5 0.343294 0.734589 0.955236
Si Si6 0.794460 0.591302 0.681046
Si Si7 0.460903 0.486173 0.502718
Si Si8 0.930700 0.747890 0.108569
O O1 0.764145 0.375682 0.436876
O O2 0.733639 0.462455 0.257094
O O3 0.923750 0.524786 0.387030
O O4 0.900491 0.270423 0.296572
O O5 0.765313 0.053971 0.701549
O O6 0.874014 0.206116 0.848219
O O7 0.964372 0.197388 0.678671
O O8 0.951428 0.959549 0.797988
O O9 0.879853 0.709213 0.729778
O O10 0.045268 0.876198 0.641510
O O11 0.353706 0.113742 0.072108
O O12 0.284412 0.861932 0.018926
O O13 0.447400 0.648046 0.013532
O O14 0.854635 0.534683 0.581956
O O15 0.660457 0.649408 0.668847
O O16 0.519899 0.645190 0.521711
#
# Coordination Sequence:
#
# PCOD8169236 Si02
#       8
#     4   4   4   4   4   4   4   4
#     4  12  26  42  72 106 147 195 241 303 372 436
#     4  11  24  48  73 107 148 193 246 308 368 449
#     4  11  24  46  71 102 146 191 246 303 371 444
#     4  11  24  48  71 105 146 191 244 303 379 439
#     4  12  25  45  74 106 143 193 245 301 372 439
#     4  12  24  47  73 104 151 191 242 306 372 446
#     4  12  26  45  71 112 145 190 255 300 366 443
#     4  11  25  45  75 102 146 196 237 308 370 434
#
# _framework density 22.72551
#
# number of rings (size 3 to 8) (size 9 to 14) (size 15 to 20)
#    0.000    0.500    3.750    4.500    3.500    0.000 
#    2.250    0.000    0.000    0.000    0.000    0.000 
#    0.000    0.000    0.000    0.000    0.000    0.000 
#
# Total GULP energy -396496.516747 kJ/mol
# GULP energy per Si atom -12390.516148 kJ/mol
# Density = 2.267379 g / cm^3
# Si number density = 22.725510 Si / 1000 Ang^3
#
#
#
# Elastic Constant Matrix: (Units=GPa)
#
#
# Indices 1 2 3 4 5 6 
#
# 1 82.5922 32.7527 20.7985 0.0000 0.0000 0.0000
# 2 32.7527 118.2868 46.4313 0.0000 0.0000 0.0000
# 3 20.7985 46.4313 87.1571 0.0000 0.0000 0.0000
# 4 0.0000 0.0000 0.0000 30.1316 0.0000 0.0000
# 5 0.0000 0.0000 0.0000 0.0000 34.3783 0.0000
# 6 0.0000 0.0000 0.0000 0.0000 0.0000 37.1652
#
#
#
# Elastic Compliance Matrix: (Units=1/GPa)
#
#
# Indices 1 2 3 4 5 6 
#
# 1 0.013773 -0.003191 -0.001587 0.000000 0.000000 0.000000
# 2 -0.003191 0.011428 -0.005327 0.000000 0.000000 0.000000
# 3 -0.001587 -0.005327 0.014690 0.000000 0.000000 0.000000
# 4 0.000000 0.000000 0.000000 0.033188 0.000000 0.000000
# 5 0.000000 0.000000 0.000000 0.000000 0.029088 0.000000
# 6 0.000000 0.000000 0.000000 0.000000 0.000000 0.026907
#
#
# Mechanical properties :
#
#
# Convention : Reuss Voigt Hill
#
# Bulk Modulus (GPa) = 50.80707 54.22232 52.51470
# Shear Modulus (GPa) = 32.08352 32.87194 32.47773
#
# Velocity S-wave (km/s) = 3.76145 3.80738 3.78449
# Velocity P-wave (km/s) = 6.42418 6.57569 6.50037
#
# Compressibility (1/GPa) = 0.01968230
#
# Stress axis : x y z
#
# Youngs Moduli (GPa) = 72.60823 87.50074 68.07344
#
# Poissons Ratio (x) = 0.27918 0.10802
# Poissons Ratio (y) = 0.23167 0.36262
# Poissons Ratio (z) = 0.11522 0.46611
#
# Static dielectric constant tensor:
#      x y z
#    x 4.312640 0.000000 0.000000 
#    y 0.000000 4.389780 0.000000 
#    z 0.000000 0.000000 3.822160 
# 
# 
# High freq. dielectric constant tensor:
#      x y z
#    x 1.909010 0.000000 0.000000 
#    y 0.000000 1.915050 0.000000 
#    z 0.000000 0.000000 1.882830 
# 
# From -- ./inp_files/4541.got.cif
#   From: 2010.03.12/outbox.cif.g09.slc.cpg/sg29_3_cif.got.tgz:4541.got - 2010.04.14 03:43:10.
