data_PCOD8169124
_publ_section_title
;
Structure prediction by ZEFSAII (Michael W. Deem and Ramdas Pophale) SiO2 
 PCOD8169124
Probable space group: P C A 21
;
_chemical_formula_sum "Si O2"
_cell_formula_units_Z 24
_cell_length_a 27.041729
_cell_length_b 8.663081
_cell_length_c 5.041987
_cell_angle_alpha 90.000000
_cell_angle_beta 90.000000
_cell_angle_gamma 90.000000
_cell_volume 1181.159515
_symmetry_space_group_name_H-M "P C A 21"
_symmetry_group_IT_number 29
_symmetry_cell_setting 'orthorhombic'
loop_
_space_group_symop_operation_xyz
x,y,z
-x,-y,1/2+z
1/2-x,y,1/2+z
1/2+x,-y,z
loop_
_atom_site_type_symbol
_atom_site_label
_atom_site_fract_x
_atom_site_fract_y
_atom_site_fract_z
Si Si1 0.984120 0.410517 0.836230
Si Si2 0.878469 0.075909 0.365230
Si Si3 0.724665 0.359892 0.175532
Si Si4 0.619775 0.283862 0.355118
Si Si5 0.977964 0.925808 0.273228
Si Si6 0.274494 0.997084 0.557075
O O1 0.926011 0.397631 0.910329
O O2 0.990126 0.472984 0.539464
O O3 0.010652 0.246504 0.864380
O O4 0.898048 0.170783 0.619453
O O5 0.830074 0.980876 0.453005
O O6 0.919148 0.951846 0.280013
O O7 0.865934 0.189844 0.120484
O O8 0.760708 0.438193 0.395688
O O9 0.667374 0.381218 0.257721
O O10 0.737445 0.181295 0.120628
O O11 0.004324 0.044421 0.473972
O O12 0.236905 0.074474 0.342308
#
# Coordination Sequence:
#
# PCOD8169124 Si02
#       6
#     4   4   4   4   4   4
#     4  12  25  40  57  83 117 154 191 239 288 338
#     4  11  19  32  55  80 106 147 186 229 278 333
#     4   9  16  27  45  75 108 138 173 223 277 332
#     4  11  20  33  54  79 112 147 182 227 288 329
#     4  12  22  40  60  83 111 149 198 233 279 337
#     4   9  16  26  43  74 112 137 166 221 286 333
#
# _framework density 20.319016000000001
#
# number of rings (size 3 to 8) (size 9 to 14) (size 15 to 20)
#    0.000    1.333    3.333    7.000    0.000    0.000 
#    0.000    0.000    0.000    0.000    0.000    7.000 
#    0.000    0.000    0.000    0.000    0.000    0.000 
#
# Total GULP energy -297500.545104 kJ/mol
# GULP energy per Si atom -12395.856046 kJ/mol
# Density = 2.027277 g / cm^3
# Si number density = 20.319016 Si / 1000 Ang^3
#
#
#
# Elastic Constant Matrix: (Units=GPa)
#
#
# Indices 1 2 3 4 5 6 
#
# 1 144.4029 26.4782 32.3387 0.0000 0.0000 0.0000
# 2 26.4782 33.9140 5.4611 0.0000 0.0000 0.0000
# 3 32.3387 5.4611 106.1090 0.0000 0.0000 0.0000
# 4 0.0000 0.0000 0.0000 18.6830 0.0000 0.0000
# 5 0.0000 0.0000 0.0000 0.0000 36.2020 0.0000
# 6 0.0000 0.0000 0.0000 0.0000 0.0000 13.1741
#
#
#
# Elastic Compliance Matrix: (Units=1/GPa)
#
#
# Indices 1 2 3 4 5 6 
#
# 1 0.008603 -0.006347 -0.002295 0.000000 0.000000 0.000000
# 2 -0.006347 0.034416 0.000163 0.000000 0.000000 0.000000
# 3 -0.002295 0.000163 0.010115 0.000000 0.000000 0.000000
# 4 0.000000 0.000000 0.000000 0.053525 0.000000 0.000000
# 5 0.000000 0.000000 0.000000 0.000000 0.027623 0.000000
# 6 0.000000 0.000000 0.000000 0.000000 0.000000 0.075906
#
#
# Mechanical properties :
#
#
# Convention : Reuss Voigt Hill
#
# Bulk Modulus (GPa) = 27.64304 45.88690 36.76497
# Shear Modulus (GPa) = 20.90261 28.28834 24.59547
#
# Velocity S-wave (km/s) = 3.21085 3.73528 3.48295
# Velocity P-wave (km/s) = 5.23260 6.42148 5.85728
#
# Compressibility (1/GPa) = 0.03617547
#
# Stress axis : x y z
#
# Youngs Moduli (GPa) = 116.23977 29.05661 98.85922
#
# Poissons Ratio (x) = 0.18443 0.22690
# Poissons Ratio (y) = 0.73778 -0.01613
# Poissons Ratio (z) = 0.26680 -0.00474
#
# Static dielectric constant tensor:
#      x y z
#    x 3.702550 0.000000 0.000000 
#    y 0.000000 2.990750 0.000000 
#    z 0.000000 0.000000 4.244640 
# 
# 
# High freq. dielectric constant tensor:
#      x y z
#    x 1.807440 0.000000 0.000000 
#    y 0.000000 1.706790 0.000000 
#    z 0.000000 0.000000 1.828800 
# 
# From -- ./inp_files/760.got.cif
#   From: 2010.03.12/outbox.cif.g09.slc.cpg/sg29_1_cif.got.tgz:760.got - 2010.04.14 03:43:10.
