data_PCOD8169563
_publ_section_title
;
Structure prediction by ZEFSAII (Michael W. Deem and Ramdas Pophale) SiO2 
 PCOD8169563
Probable space group: P N C 2
;
_chemical_formula_sum "Si O2"
_cell_formula_units_Z 32
_cell_length_a 14.586249
_cell_length_b 11.812017
_cell_length_c 8.524978
_cell_angle_alpha 90.000000
_cell_angle_beta 90.000000
_cell_angle_gamma 90.000000
_cell_volume 1468.794215
_symmetry_space_group_name_H-M "P N C 2"
_symmetry_group_IT_number 30
_symmetry_cell_setting 'orthorhombic'
loop_
_space_group_symop_operation_xyz
x,y,z
-x,-y,z
-x,1/2+y,1/2+z
x,1/2-y,1/2+z
loop_
_atom_site_type_symbol
_atom_site_label
_atom_site_fract_x
_atom_site_fract_y
_atom_site_fract_z
Si Si1 0.389104 0.121944 0.498960
Si Si2 0.698189 0.306674 0.352961
Si Si3 0.401596 0.869490 0.540797
Si Si4 0.871044 0.344017 0.771385
Si Si5 0.711188 0.783360 0.214578
Si Si6 0.115600 0.343225 0.320014
Si Si7 0.993375 0.300011 0.043257
Si Si8 0.218545 0.495305 0.538930
O O1 0.490151 0.140062 0.569711
O O2 0.369254 0.184253 0.335298
O O3 0.318911 0.169385 0.627069
O O4 0.372393 0.989630 0.467726
O O5 0.618092 0.228358 0.417941
O O6 0.660369 0.358704 0.194149
O O7 0.787504 0.230201 0.334898
O O8 0.714953 0.405969 0.478912
O O9 0.937874 0.377470 0.917563
O O10 0.920955 0.266301 0.646733
O O11 0.839490 0.460238 0.688397
O O12 0.807339 0.753440 0.296068
O O13 0.723405 0.886379 0.092343
O O14 0.154897 0.460274 0.390674
O O15 0.048624 0.295073 0.450791
O O16 0.061757 0.371022 0.157187
#
# Coordination Sequence:
#
# PCOD8169563 Si02
#       8
#     4   4   4   4   4   4   4   4
#     4  11  25  44  71 102 139 177 231 287 344 415
#     4  12  23  46  70 101 139 183 229 283 354 419
#     4  11  25  44  71 102 139 177 231 287 344 415
#     4  11  22  43  68  98 139 180 227 289 342 421
#     4  12  23  46  70 101 139 183 229 283 354 419
#     4  11  22  43  68  98 139 180 227 289 342 421
#     4  10  22  43  67  96 138 174 235 283 346 402
#     4  12  24  41  75 100 138 194 230 284 357 423
#
# _framework density 21.786577999999999
#
# number of rings (size 3 to 8) (size 9 to 14) (size 15 to 20)
#    0.000    0.750    5.000    2.250    0.000    0.500 
#    0.000    1.250    0.000    0.000    0.000    0.000 
#    0.000    0.000    0.000    0.000    0.000    0.000 
#
# Total GULP energy -396853.026453 kJ/mol
# GULP energy per Si atom -12401.657077 kJ/mol
# Density = 2.173699 g / cm^3
# Si number density = 21.786578 Si / 1000 Ang^3
#
#
#
# Elastic Constant Matrix: (Units=GPa)
#
#
# Indices 1 2 3 4 5 6 
#
# 1 80.8446 32.3351 30.8701 0.0000 0.0000 0.0000
# 2 32.3351 91.0504 23.7812 0.0000 0.0000 0.0000
# 3 30.8701 23.7812 101.9142 0.0000 0.0000 0.0000
# 4 0.0000 0.0000 0.0000 120.4957 0.0000 0.0000
# 5 0.0000 0.0000 0.0000 0.0000 40.5332 0.0000
# 6 0.0000 0.0000 0.0000 0.0000 0.0000 23.8492
#
#
#
# Elastic Compliance Matrix: (Units=1/GPa)
#
#
# Indices 1 2 3 4 5 6 
#
# 1 0.015599 -0.004585 -0.003655 0.000000 0.000000 0.000000
# 2 -0.004585 0.013043 -0.001655 0.000000 0.000000 0.000000
# 3 -0.003655 -0.001655 0.011305 0.000000 0.000000 0.000000
# 4 0.000000 0.000000 0.000000 0.008299 0.000000 0.000000
# 5 0.000000 0.000000 0.000000 0.000000 0.024671 0.000000
# 6 0.000000 0.000000 0.000000 0.000000 0.000000 0.041930
#
#
# Mechanical properties :
#
#
# Convention : Reuss Voigt Hill
#
# Bulk Modulus (GPa) = 49.60812 49.75356 49.68084
# Shear Modulus (GPa) = 35.37136 49.43048 42.40092
#
# Velocity S-wave (km/s) = 4.03369 4.76841 4.41636
# Velocity P-wave (km/s) = 6.67185 7.29406 6.98989
#
# Compressibility (1/GPa) = 0.02015799
#
# Stress axis : x y z
#
# Youngs Moduli (GPa) = 64.10690 76.66678 88.45299
#
# Poissons Ratio (x) = 0.35152 0.32330
# Poissons Ratio (y) = 0.29393 0.14637
# Poissons Ratio (z) = 0.23431 0.12687
#
# Static dielectric constant tensor:
#      x y z
#    x 4.004290 0.000000 0.000000 
#    y 0.000000 2.622970 0.000000 
#    z 0.000000 0.000000 4.160350 
# 
# 
# High freq. dielectric constant tensor:
#      x y z
#    x 1.861320 0.000000 0.000000 
#    y 0.000000 1.848870 0.000000 
#    z 0.000000 0.000000 1.870800 
# 
# From -- ./inp_files/2719.got.cif
#   From: 2010.03.12/outbox.cif.g09.slc.cpg/sg30_2_cif.got.tgz:2719.got - 2010.04.14 01:38:02.
