data_PCOD8169652
_publ_section_title
;
Structure prediction by ZEFSAII (Michael W. Deem and Ramdas Pophale) SiO2 
 PCOD8169652
Probable space group: P N C 2
;
_chemical_formula_sum "Si O2"
_cell_formula_units_Z 20
_cell_length_a 9.725796
_cell_length_b 13.913123
_cell_length_c 5.363638
_cell_angle_alpha 90.000000
_cell_angle_beta 90.000000
_cell_angle_gamma 90.000000
_cell_volume 725.787091
_symmetry_space_group_name_H-M "P N C 2"
_symmetry_group_IT_number 30
_symmetry_cell_setting 'orthorhombic'
loop_
_space_group_symop_operation_xyz
x,y,z
-x,-y,z
-x,1/2+y,1/2+z
x,1/2-y,1/2+z
loop_
_atom_site_type_symbol
_atom_site_label
_atom_site_fract_x
_atom_site_fract_y
_atom_site_fract_z
Si Si1 0.500000 0.000000 0.253201
Si Si2 0.000000 0.000000 0.206127
Si Si3 0.861432 0.843965 0.871004
Si Si4 0.151872 0.702495 0.277010
Si Si5 0.420224 0.200045 0.048522
Si Si6 0.236076 0.516366 0.070231
O O1 0.379823 0.968423 0.436368
O O2 0.543980 0.912601 0.071716
O O3 0.880995 0.044125 0.374588
O O4 0.051079 0.087562 0.045885
O O5 0.747964 0.786114 0.037308
O O6 0.984394 0.782856 0.743708
O O7 0.775864 0.907229 0.669451
O O8 0.213927 0.750156 0.526032
O O9 0.209544 0.592779 0.292873
O O10 0.479365 0.241922 0.787672
#
# Coordination Sequence:
#
# PCOD8169652 Si02
#       6
#     2   2   4   4   4   4
#     4  12  30  54  82 112 170 224 270 338 420 482
#     4  12  20  46  80 110 148 202 272 336 404 492
#     4  12  24  46  80 114 157 206 273 337 408 483
#     4  12  26  43  74 116 159 198 255 338 406 469
#     4  12  29  52  82 119 163 218 280 336 404 503
#     4  12  26  48  76 111 154 212 269 322 404 494
#
# _framework density 27.556293
#
# number of rings (size 3 to 8) (size 9 to 14) (size 15 to 20)
#    0.000    0.000    6.000    3.600    0.000    4.800 
#    0.000    0.000    0.000    0.000    0.000    0.000 
#    0.000    0.000    0.000    0.000    0.000    0.000 
#
# Total GULP energy -248127.248421 kJ/mol
# GULP energy per Si atom -12406.362421 kJ/mol
# Density = 2.749357 g / cm^3
# Si number density = 27.556293 Si / 1000 Ang^3
#
#
#
# Elastic Constant Matrix: (Units=GPa)
#
#
# Indices 1 2 3 4 5 6 
#
# 1 69.6282 17.5022 30.9536 0.0000 0.0000 0.0000
# 2 17.5022 110.8722 45.5821 0.0000 0.0000 0.0000
# 3 30.9536 45.5821 169.3122 0.0000 0.0000 0.0000
# 4 0.0000 0.0000 0.0000 35.5092 0.0000 0.0000
# 5 0.0000 0.0000 0.0000 0.0000 40.0849 0.0000
# 6 0.0000 0.0000 0.0000 0.0000 0.0000 27.8890
#
#
#
# Elastic Compliance Matrix: (Units=1/GPa)
#
#
# Indices 1 2 3 4 5 6 
#
# 1 0.015844 -0.001473 -0.002500 0.000000 0.000000 0.000000
# 2 -0.001473 0.010279 -0.002498 0.000000 0.000000 0.000000
# 3 -0.002500 -0.002498 0.007036 0.000000 0.000000 0.000000
# 4 0.000000 0.000000 0.000000 0.028162 0.000000 0.000000
# 5 0.000000 0.000000 0.000000 0.000000 0.024947 0.000000
# 6 0.000000 0.000000 0.000000 0.000000 0.000000 0.035856
#
#
# Mechanical properties :
#
#
# Convention : Reuss Voigt Hill
#
# Bulk Modulus (GPa) = 49.46549 59.76538 54.61543
# Shear Modulus (GPa) = 35.25979 37.74826 36.50402
#
# Velocity S-wave (km/s) = 3.58097 3.70518 3.64360
# Velocity P-wave (km/s) = 5.92347 6.32772 6.12893
#
# Compressibility (1/GPa) = 0.02021611
#
# Stress axis : x y z
#
# Youngs Moduli (GPa) = 63.11663 97.28640 142.13086
#
# Poissons Ratio (x) = 0.14333 0.35531
# Poissons Ratio (y) = 0.09299 0.35503
# Poissons Ratio (z) = 0.15778 0.24302
#
# Static dielectric constant tensor:
#      x y z
#    x 5.075710 0.000000 0.000000 
#    y 0.000000 5.056790 0.000000 
#    z 0.000000 0.000000 5.123040 
# 
# 
# High freq. dielectric constant tensor:
#      x y z
#    x 2.105970 0.000000 0.000000 
#    y 0.000000 2.117970 0.000000 
#    z 0.000000 0.000000 2.124380 
# 
# From -- ./inp_files/634.got.cif
#   From: 2010.03.12/outbox.cif.g09.slc.cpg/sg30_1_cif.got.tgz:634.got - 2010.04.14 01:38:02.
