data_PCOD8169165
_publ_section_title
;
Structure prediction by ZEFSAII (Michael W. Deem and Ramdas Pophale) SiO2 
 PCOD8169165
Probable space group: P C A 21
;
_chemical_formula_sum "Si O2"
_cell_formula_units_Z 32
_cell_length_a 10.639546
_cell_length_b 10.604765
_cell_length_c 12.210070
_cell_angle_alpha 90.000000
_cell_angle_beta 90.000000
_cell_angle_gamma 90.000000
_cell_volume 1377.660794
_symmetry_space_group_name_H-M "P C A 21"
_symmetry_group_IT_number 29
_symmetry_cell_setting 'orthorhombic'
loop_
_space_group_symop_operation_xyz
x,y,z
-x,-y,1/2+z
1/2-x,y,1/2+z
1/2+x,-y,z
loop_
_atom_site_type_symbol
_atom_site_label
_atom_site_fract_x
_atom_site_fract_y
_atom_site_fract_z
Si Si1 0.938517 0.000721 0.611380
Si Si2 0.085159 0.673425 0.792640
Si Si3 0.319641 0.573593 0.511438
Si Si4 0.634811 0.843284 0.296809
Si Si5 0.574302 0.535809 0.610638
Si Si6 0.274517 0.811014 0.115976
Si Si7 0.063650 0.910207 0.417707
Si Si8 0.412569 0.199431 0.228422
O O1 0.811498 0.071180 0.640625
O O2 0.064012 0.078657 0.648910
O O3 0.928280 0.870959 0.678571
O O4 0.945151 0.971169 0.482476
O O5 0.061319 0.559120 0.710924
O O6 0.151259 0.788463 0.728571
O O7 0.954412 0.730144 0.844283
O O8 0.178237 0.622074 0.886571
O O9 0.452815 0.506166 0.535275
O O10 0.199867 0.483766 0.536753
O O11 0.313074 0.691696 0.593012
O O12 0.776212 0.795367 0.283634
O O13 0.638401 0.971072 0.368160
O O14 0.570345 0.676275 0.657134
O O15 0.359717 0.833618 0.009112
O O16 0.016129 0.812496 0.325698
#
# Coordination Sequence:
#
# PCOD8169165 Si02
#       8
#     4   4   4   4   4   4   4   4
#     4  11  22  43  68 102 148 186 244 299 374 436
#     4  11  26  47  72 102 144 191 244 296 373 442
#     4  11  26  46  77  99 144 192 241 306 370 436
#     4  11  24  41  70 104 146 190 244 307 369 445
#     4  11  26  50  72 108 142 193 248 310 363 439
#     4  11  23  43  70 102 144 188 241 298 365 448
#     4  11  24  41  69 108 144 195 237 301 380 434
#     4  11  25  43  70 105 146 191 253 309 362 446
#
# _framework density 23.227778000000001
#
# number of rings (size 3 to 8) (size 9 to 14) (size 15 to 20)
#    0.000    1.000    2.500    3.000    5.250    5.000 
#    2.250    0.000    0.000    0.000    0.000    0.000 
#    0.000    0.000    0.000    0.000    0.000    0.000 
#
# Total GULP energy -396704.234668 kJ/mol
# GULP energy per Si atom -12397.007333 kJ/mol
# Density = 2.317491 g / cm^3
# Si number density = 23.227778 Si / 1000 Ang^3
#
#
#
# Elastic Constant Matrix: (Units=GPa)
#
#
# Indices 1 2 3 4 5 6 
#
# 1 148.5643 32.8645 42.1196 0.0000 0.0000 0.0000
# 2 32.8645 47.1872 12.4983 0.0000 0.0000 0.0000
# 3 42.1196 12.4983 108.0170 0.0000 0.0000 0.0000
# 4 0.0000 0.0000 0.0000 38.7385 0.0000 0.0000
# 5 0.0000 0.0000 0.0000 0.0000 27.9428 0.0000
# 6 0.0000 0.0000 0.0000 0.0000 0.0000 34.7742
#
#
#
# Elastic Compliance Matrix: (Units=1/GPa)
#
#
# Indices 1 2 3 4 5 6 
#
# 1 0.008695 -0.005321 -0.002775 0.000000 0.000000 0.000000
# 2 -0.005321 0.025118 -0.000832 0.000000 0.000000 0.000000
# 3 -0.002775 -0.000832 0.010436 0.000000 0.000000 0.000000
# 4 0.000000 0.000000 0.000000 0.025814 0.000000 0.000000
# 5 0.000000 0.000000 0.000000 0.000000 0.035787 0.000000
# 6 0.000000 0.000000 0.000000 0.000000 0.000000 0.028757
#
#
# Mechanical properties :
#
#
# Convention : Reuss Voigt Hill
#
# Bulk Modulus (GPa) = 37.88626 53.19257 45.53941
# Shear Modulus (GPa) = 31.00586 34.71017 32.85801
#
# Velocity S-wave (km/s) = 3.65754 3.86986 3.76520
# Velocity P-wave (km/s) = 5.84662 6.55118 6.20890
#
# Compressibility (1/GPa) = 0.02639479
#
# Stress axis : x y z
#
# Youngs Moduli (GPa) = 115.01148 39.81182 95.82218
#
# Poissons Ratio (x) = 0.21183 0.26588
# Poissons Ratio (y) = 0.61194 0.07969
# Poissons Ratio (z) = 0.31913 0.03311
#
# Static dielectric constant tensor:
#      x y z
#    x 4.284490 0.000000 0.000000 
#    y 0.000000 4.100560 0.000000 
#    z 0.000000 0.000000 4.293900 
# 
# 
# High freq. dielectric constant tensor:
#      x y z
#    x 1.927930 0.000000 0.000000 
#    y 0.000000 1.913500 0.000000 
#    z 0.000000 0.000000 1.922300 
# 
# From -- ./inp_files/3226.got.cif
#   From: 2010.03.12/outbox.cif.g09.slc.cpg/sg29_2_cif.got.tgz:3226.got - 2010.04.14 03:43:10.
