data_PCOD8169750
_publ_section_title
;
Structure prediction by ZEFSAII (Michael W. Deem and Ramdas Pophale) SiO2 
 PCOD8169750
Probable space group: P M N 21
;
_chemical_formula_sum "Si O2"
_cell_formula_units_Z 32
_cell_length_a 14.540695
_cell_length_b 12.282158
_cell_length_c 8.991884
_cell_angle_alpha 90.000000
_cell_angle_beta 90.000000
_cell_angle_gamma 90.000000
_cell_volume 1605.870575
_symmetry_space_group_name_H-M "P M N 21"
_symmetry_group_IT_number 31
_symmetry_cell_setting 'orthorhombic'
loop_
_space_group_symop_operation_xyz
x,y,z
1/2-x,-y,1/2+z
-x,y,z
1/2+x,-y,1/2+z
loop_
_atom_site_type_symbol
_atom_site_label
_atom_site_fract_x
_atom_site_fract_y
_atom_site_fract_z
Si Si1 0.671227 0.520853 0.224800
Si Si2 0.399969 0.747842 0.162177
Si Si3 0.603321 0.193218 0.058401
Si Si4 0.767796 0.060671 0.159012
Si Si5 0.392479 0.776453 0.493839
Si Si6 0.272610 0.371786 0.961730
Si Si7 0.899175 0.687966 0.871070
Si Si8 0.757055 0.852095 0.987292
O O1 0.600389 0.617522 0.188637
O O2 0.761321 0.576640 0.298390
O O3 0.632196 0.436582 0.347470
O O4 0.695706 0.465038 0.071815
O O5 0.500000 0.780090 0.103695
O O6 0.381015 0.808327 0.319799
O O7 0.333698 0.787501 0.032775
O O8 0.500000 0.158619 0.006119
O O9 0.670530 0.090117 0.078737
O O10 0.597947 0.256688 0.211609
O O11 0.651379 0.276563 0.942977
O O12 0.759650 0.081289 0.335021
O O13 0.855401 0.125721 0.095436
O O14 0.785857 0.934569 0.119509
O O15 0.500000 0.751216 0.531675
O O16 0.325574 0.673339 0.524591
O O17 0.833469 0.758280 0.976144
O O18 0.000000 0.688098 0.944575
#
# Coordination Sequence:
#
# PCOD8169750 Si02
#       8
#     4   4   4   4   4   4   4   4
#     4  10  18  33  55  80 110 144 181 231 285 336
#     4  10  21  36  56  81 110 147 190 235 284 340
#     4   8  16  33  54  74  99 138 184 222 264 324
#     4  10  21  36  57  81 111 148 185 230 282 330
#     4   9  19  37  57  76 105 148 192 231 279 339
#     4   9  18  31  51  78 107 141 183 231 281 337
#     4   9  18  33  54  79 106 140 184 227 271 330
#     4  11  22  37  57  85 116 148 188 235 281 336
#
# _framework density 19.926886
#
# number of rings (size 3 to 8) (size 9 to 14) (size 15 to 20)
#    0.000    2.500    0.000    2.625    0.000    2.500 
#    0.000    3.125    0.000   15.750    0.000    0.000 
#    0.000    0.000    0.000    0.000    0.000    0.000 
#
# Total GULP energy -396590.570628 kJ/mol
# GULP energy per Si atom -12393.455332 kJ/mol
# Density = 1.988153 g / cm^3
# Si number density = 19.926886 Si / 1000 Ang^3
#
#
#
# Elastic Constant Matrix: (Units=GPa)
#
#
# Indices 1 2 3 4 5 6 
#
# 1 107.4059 10.7286 24.1687 0.0000 0.0000 0.0000
# 2 10.7286 75.7567 21.6191 0.0000 0.0000 0.0000
# 3 24.1687 21.6191 52.0810 0.0000 0.0000 0.0000
# 4 0.0000 0.0000 0.0000 36.1550 0.0000 0.0000
# 5 0.0000 0.0000 0.0000 0.0000 26.8056 0.0000
# 6 0.0000 0.0000 0.0000 0.0000 0.0000 13.5034
#
#
#
# Elastic Compliance Matrix: (Units=1/GPa)
#
#
# Indices 1 2 3 4 5 6 
#
# 1 0.010397 -0.000108 -0.004780 0.000000 0.000000 0.000000
# 2 -0.000108 0.014975 -0.006166 0.000000 0.000000 0.000000
# 3 -0.004780 -0.006166 0.023978 0.000000 0.000000 0.000000
# 4 0.000000 0.000000 0.000000 0.027659 0.000000 0.000000
# 5 0.000000 0.000000 0.000000 0.000000 0.037306 0.000000
# 6 0.000000 0.000000 0.000000 0.000000 0.000000 0.074055
#
#
# Mechanical properties :
#
#
# Convention : Reuss Voigt Hill
#
# Bulk Modulus (GPa) = 36.70767 38.69736 37.70251
# Shear Modulus (GPa) = 22.77292 27.20796 24.99044
#
# Velocity S-wave (km/s) = 3.38424 3.69913 3.54518
# Velocity P-wave (km/s) = 5.80792 6.14057 5.97656
#
# Compressibility (1/GPa) = 0.02724226
#
# Stress axis : x y z
#
# Youngs Moduli (GPa) = 96.18293 66.77752 41.70407
#
# Poissons Ratio (x) = 0.00724 0.19934
# Poissons Ratio (y) = 0.01042 0.25715
# Poissons Ratio (z) = 0.45973 0.41175
#
# Static dielectric constant tensor:
#      x y z
#    x 3.883160 0.000000 0.000000 
#    y 0.000000 3.673190 0.000000 
#    z 0.000000 0.000000 3.370590 
# 
# 
# High freq. dielectric constant tensor:
#      x y z
#    x 1.775450 0.000000 0.000000 
#    y 0.000000 1.778990 0.000000 
#    z 0.000000 0.000000 1.753700 
# 
# From -- ./inp_files/2574.got.cif
#   From: 2010.03.12/outbox.cif.g09.slc.cpg/sg31_2_cif.got.tgz:2574.got - 2010.04.14 01:42:59.
