data_PCOD8169401
_publ_section_title
;
Structure prediction by ZEFSAII (Michael W. Deem and Ramdas Pophale) SiO2 
 PCOD8169401
Probable space group: P N C 2
;
_chemical_formula_sum "Si O2"
_cell_formula_units_Z 24
_cell_length_a 5.197149
_cell_length_b 7.043936
_cell_length_c 27.112706
_cell_angle_alpha 90.000000
_cell_angle_beta 90.000000
_cell_angle_gamma 90.000000
_cell_volume 992.552378
_symmetry_space_group_name_H-M "P N C 2"
_symmetry_group_IT_number 30
_symmetry_cell_setting 'orthorhombic'
loop_
_space_group_symop_operation_xyz
x,y,z
-x,-y,z
-x,1/2+y,1/2+z
x,1/2-y,1/2+z
loop_
_atom_site_type_symbol
_atom_site_label
_atom_site_fract_x
_atom_site_fract_y
_atom_site_fract_z
Si Si1 0.279930 0.209528 0.258650
Si Si2 0.559924 0.775729 0.868201
Si Si3 0.223448 0.713680 0.715926
Si Si4 0.940948 0.284577 0.416336
Si Si5 0.755298 0.379588 0.521137
Si Si6 0.747885 0.376763 0.112802
O O1 0.335805 0.200122 0.316378
O O2 0.516268 0.320281 0.232914
O O3 0.014426 0.315687 0.244605
O O4 0.249664 0.002745 0.233792
O O5 0.281709 0.686598 0.882500
O O6 0.775788 0.695769 0.907037
O O7 0.500000 0.000000 0.869839
O O8 0.190616 0.730306 0.657117
O O9 0.850164 0.267196 0.472745
O O10 0.000000 0.500000 0.400068
O O11 0.500000 0.500000 0.507344
O O12 0.674361 0.236070 0.563674
O O13 0.000000 0.500000 0.540283
O O14 0.500000 0.500000 0.127105
O O15 0.000000 0.500000 0.102529
#
# Coordination Sequence:
#
# PCOD8169401 Si02
#       6
#     4   4   4   4   4   4
#     4  10  21  38  63  91 127 170 228 269 319 398
#     4  10  19  33  60  92 134 171 213 269 332 378
#     4  10  23  40  62  86 131 168 224 272 330 399
#     4   9  18  35  59  96 129 168 218 266 321 398
#     4  11  23  41  74 101 132 179 230 273 332 407
#     4  12  27  45  68  98 140 176 221 286 353 392
#
# _framework density 24.180084999999998
#
# number of rings (size 3 to 8) (size 9 to 14) (size 15 to 20)
#    0.000    1.667    0.000    5.500    4.667    2.000 
#    0.000    0.000   22.000    0.000    0.000    0.000 
#    0.000    0.000    0.000    0.000    0.000    0.000 
#
# Total GULP energy -297329.794385 kJ/mol
# GULP energy per Si atom -12388.741433 kJ/mol
# Density = 2.412505 g / cm^3
# Si number density = 24.180085 Si / 1000 Ang^3
#
#
#
# Elastic Constant Matrix: (Units=GPa)
#
#
# Indices 1 2 3 4 5 6 
#
# 1 209.8299 27.2287 63.4941 0.0000 0.0000 0.0000
# 2 27.2287 45.8567 39.7712 0.0000 0.0000 0.0000
# 3 63.4941 39.7712 190.0960 0.0000 0.0000 0.0000
# 4 0.0000 0.0000 0.0000 1041.3037 0.0000 0.0000
# 5 0.0000 0.0000 0.0000 0.0000 15.2826 0.0000
# 6 0.0000 0.0000 0.0000 0.0000 0.0000 4.2065
#
#
#
# Elastic Compliance Matrix: (Units=1/GPa)
#
#
# Indices 1 2 3 4 5 6 
#
# 1 0.005451 -0.002025 -0.001397 0.000000 0.000000 0.000000
# 2 -0.002025 0.027394 -0.005055 0.000000 0.000000 0.000000
# 3 -0.001397 -0.005055 0.006785 0.000000 0.000000 0.000000
# 4 0.000000 0.000000 0.000000 0.000960 0.000000 0.000000
# 5 0.000000 0.000000 0.000000 0.000000 0.065434 0.000000
# 6 0.000000 0.000000 0.000000 0.000000 0.000000 0.237727
#
#
# Mechanical properties :
#
#
# Convention : Reuss Voigt Hill
#
# Bulk Modulus (GPa) = 44.10048 78.53008 61.31528
# Shear Modulus (GPa) = 13.57726 233.17781 123.37753
#
# Velocity S-wave (km/s) = 2.37218 9.83073 7.15089
# Velocity P-wave (km/s) = 5.07749 12.70454 9.67435
#
# Compressibility (1/GPa) = 0.02267549
#
# Stress axis : x y z
#
# Youngs Moduli (GPa) = 183.44176 36.50496 147.39081
#
# Poissons Ratio (x) = 0.07393 0.20592
# Poissons Ratio (y) = 0.37150 0.74502
# Poissons Ratio (z) = 0.25629 0.18452
#
# Static dielectric constant tensor:
#      x y z
#    x 11.938670 0.000000 0.000000 
#    y 0.000000 -17.366740 0.000000 
#    z 0.000000 0.000000 4.137830 
# 
# 
# High freq. dielectric constant tensor:
#      x y z
#    x 2.003850 0.000000 0.000000 
#    y 0.000000 1.929130 0.000000 
#    z 0.000000 0.000000 1.956350 
# 
# From -- ./inp_files/7184.got.cif
#   From: 2010.03.12/outbox.cif.g09.slc.cpg/sg30_4_cif.got.tgz:7184.got - 2010.04.14 01:38:02.
