data_PCOD8169539
_publ_section_title
;
Structure prediction by ZEFSAII (Michael W. Deem and Ramdas Pophale) SiO2 
 PCOD8169539
Probable space group: P N C 2
;
_chemical_formula_sum "Si O2"
_cell_formula_units_Z 24
_cell_length_a 14.234448
_cell_length_b 7.599805
_cell_length_c 9.401285
_cell_angle_alpha 90.000000
_cell_angle_beta 90.000000
_cell_angle_gamma 90.000000
_cell_volume 1017.021883
_symmetry_space_group_name_H-M "P N C 2"
_symmetry_group_IT_number 30
_symmetry_cell_setting 'orthorhombic'
loop_
_space_group_symop_operation_xyz
x,y,z
-x,-y,z
-x,1/2+y,1/2+z
x,1/2-y,1/2+z
loop_
_atom_site_type_symbol
_atom_site_label
_atom_site_fract_x
_atom_site_fract_y
_atom_site_fract_z
Si Si1 0.791693 0.815681 0.183810
Si Si2 0.371534 0.691568 0.332536
Si Si3 0.829727 0.343727 0.819413
Si Si4 0.509296 0.292512 0.582824
Si Si5 0.105682 0.953729 0.627097
Si Si6 0.670476 0.810680 0.920643
O O1 0.844249 0.629532 0.184195
O O2 0.706172 0.821501 0.298729
O O3 0.857539 0.977498 0.234505
O O4 0.755608 0.857628 0.026526
O O5 0.278830 0.794873 0.284292
O O6 0.401466 0.761486 0.487006
O O7 0.465047 0.716351 0.235901
O O8 0.357180 0.483815 0.335231
O O9 0.893361 0.186630 0.756198
O O10 0.845028 0.369860 0.987895
O O11 0.500000 0.500000 0.593284
O O12 0.412751 0.219105 0.512976
O O13 0.000000 0.000000 0.585052
#
# Coordination Sequence:
#
# PCOD8169539 Si02
#       6
#     4   4   4   4   4   4
#     4  12  25  48  75 112 152 203 252 312 391 460
#     4  11  22  43  70 103 147 197 249 300 373 440
#     4  12  26  50  79 110 153 204 249 314 390 464
#     4  10  22  39  65 105 144 194 250 307 354 440
#     4  12  30  50  79 116 150 200 256 324 393 467
#     4  11  23  43  71 109 154 200 256 313 374 452
#
# _framework density 23.598312
#
# number of rings (size 3 to 8) (size 9 to 14) (size 15 to 20)
#    0.000    0.667    3.333    5.000    2.333    0.000 
#    0.000    4.167    0.000    0.000    0.000    0.000 
#    0.000    0.000    0.000    0.000    0.000    0.000 
#
# Total GULP energy -297603.116711 kJ/mol
# GULP energy per Si atom -12400.129863 kJ/mol
# Density = 2.354460 g / cm^3
# Si number density = 23.598312 Si / 1000 Ang^3
#
#
#
# Elastic Constant Matrix: (Units=GPa)
#
#
# Indices 1 2 3 4 5 6 
#
# 1 89.9431 35.3109 24.6220 0.0000 0.0000 0.0000
# 2 35.3109 118.8276 46.7775 0.0000 0.0000 0.0000
# 3 24.6220 46.7775 108.3331 0.0000 0.0000 0.0000
# 4 0.0000 0.0000 0.0000 41.3260 0.0000 0.0000
# 5 0.0000 0.0000 0.0000 0.0000 31.0716 0.0000
# 6 0.0000 0.0000 0.0000 0.0000 0.0000 20.2606
#
#
#
# Elastic Compliance Matrix: (Units=1/GPa)
#
#
# Indices 1 2 3 4 5 6 
#
# 1 0.012792 -0.003201 -0.001525 0.000000 0.000000 0.000000
# 2 -0.003201 0.010940 -0.003996 0.000000 0.000000 0.000000
# 3 -0.001525 -0.003996 0.011303 0.000000 0.000000 0.000000
# 4 0.000000 0.000000 0.000000 0.024198 0.000000 0.000000
# 5 0.000000 0.000000 0.000000 0.000000 0.032184 0.000000
# 6 0.000000 0.000000 0.000000 0.000000 0.000000 0.049357
#
#
# Mechanical properties :
#
#
# Convention : Reuss Voigt Hill
#
# Bulk Modulus (GPa) = 56.84964 58.94718 57.89841
# Shear Modulus (GPa) = 30.47254 32.55786 31.51520
#
# Velocity S-wave (km/s) = 3.59737 3.71842 3.65839
# Velocity P-wave (km/s) = 6.43410 6.59311 6.51409
#
# Compressibility (1/GPa) = 0.01759026
#
# Stress axis : x y z
#
# Youngs Moduli (GPa) = 78.17165 91.40836 88.47187
#
# Poissons Ratio (x) = 0.29259 0.13495
# Poissons Ratio (y) = 0.25022 0.35356
# Poissons Ratio (z) = 0.11924 0.36529
#
# Static dielectric constant tensor:
#      x y z
#    x 4.232040 0.000000 0.000000 
#    y 0.000000 4.183580 0.000000 
#    z 0.000000 0.000000 4.324600 
# 
# 
# High freq. dielectric constant tensor:
#      x y z
#    x 1.916960 0.000000 0.000000 
#    y 0.000000 1.936490 0.000000 
#    z 0.000000 0.000000 1.949430 
# 
# From -- ./inp_files/2628.got.cif
#   From: 2010.03.12/outbox.cif.g09.slc.cpg/sg30_2_cif.got.tgz:2628.got - 2010.04.14 01:38:02.
