data_PCOD8169001
_publ_section_title
;
Structure prediction by ZEFSAII (Michael W. Deem and Ramdas Pophale) SiO2 
 PCOD8169001
Probable space group: P C A 21
;
_chemical_formula_sum "Si O2"
_cell_formula_units_Z 24
_cell_length_a 14.408368
_cell_length_b 8.194809
_cell_length_c 9.079711
_cell_angle_alpha 90.000000
_cell_angle_beta 90.000000
_cell_angle_gamma 90.000000
_cell_volume 1072.076196
_symmetry_space_group_name_H-M "P C A 21"
_symmetry_group_IT_number 29
_symmetry_cell_setting 'orthorhombic'
loop_
_space_group_symop_operation_xyz
x,y,z
-x,-y,1/2+z
1/2-x,y,1/2+z
1/2+x,-y,z
loop_
_atom_site_type_symbol
_atom_site_label
_atom_site_fract_x
_atom_site_fract_y
_atom_site_fract_z
Si Si1 0.552542 0.493926 0.707270
Si Si2 0.063671 0.018489 0.118544
Si Si3 0.712375 0.197581 0.256004
Si Si4 0.720953 0.428862 0.512220
Si Si5 0.587433 0.141446 0.822718
Si Si6 0.901826 0.629832 0.497585
O O1 0.637307 0.520901 0.594194
O O2 0.572326 0.332622 0.801839
O O3 0.549320 0.633458 0.834494
O O4 0.457619 0.483366 0.614693
O O5 0.964536 0.042657 0.194643
O O6 0.132602 0.937196 0.237290
O O7 0.105183 0.188297 0.059613
O O8 0.045788 0.899854 0.981716
O O9 0.681180 0.344898 0.364135
O O10 0.735250 0.278057 0.099913
O O11 0.803238 0.101723 0.315295
O O12 0.798246 0.562981 0.475809
#
# Coordination Sequence:
#
# PCOD8169001 Si02
#       6
#     4   4   4   4   4   4
#     4  10  24  42  66  94 132 179 221 271 339 397
#     4  11  25  39  69  98 135 170 224 285 324 393
#     4  11  22  44  68  89 129 182 220 260 340 406
#     4  11  22  44  69  88 128 182 220 263 334 409
#     4  10  23  43  62  96 126 177 219 266 338 399
#     4  11  24  42  64 103 132 168 230 279 329 390
#
# _framework density 22.386467
#
# number of rings (size 3 to 8) (size 9 to 14) (size 15 to 20)
#    0.000    1.333    5.000    0.000    9.333    2.667 
#    0.000    0.000    0.000    0.000    0.000    0.000 
#    0.000    0.000    0.000    0.000    0.000    0.000 
#
# Total GULP energy -297656.865706 kJ/mol
# GULP energy per Si atom -12402.369404 kJ/mol
# Density = 2.233551 g / cm^3
# Si number density = 22.386467 Si / 1000 Ang^3
#
#
#
# Elastic Constant Matrix: (Units=GPa)
#
#
# Indices 1 2 3 4 5 6 
#
# 1 66.4138 32.8439 32.0960 0.0000 0.0000 0.0000
# 2 32.8439 52.1387 28.0755 0.0000 0.0000 0.0000
# 3 32.0960 28.0755 116.7899 0.0000 0.0000 0.0000
# 4 0.0000 0.0000 0.0000 45.8885 0.0000 0.0000
# 5 0.0000 0.0000 0.0000 0.0000 34.8606 0.0000
# 6 0.0000 0.0000 0.0000 0.0000 0.0000 29.3971
#
#
#
# Elastic Compliance Matrix: (Units=1/GPa)
#
#
# Indices 1 2 3 4 5 6 
#
# 1 0.022893 -0.012674 -0.003245 0.000000 0.000000 0.000000
# 2 -0.012674 0.029048 -0.003500 0.000000 0.000000 0.000000
# 3 -0.003245 -0.003500 0.010295 0.000000 0.000000 0.000000
# 4 0.000000 0.000000 0.000000 0.021792 0.000000 0.000000
# 5 0.000000 0.000000 0.000000 0.000000 0.028686 0.000000
# 6 0.000000 0.000000 0.000000 0.000000 0.000000 0.034017
#
#
# Mechanical properties :
#
#
# Convention : Reuss Voigt Hill
#
# Bulk Modulus (GPa) = 42.73615 46.81923 44.77769
# Shear Modulus (GPa) = 25.85755 31.51772 28.68763
#
# Velocity S-wave (km/s) = 3.40229 3.75626 3.58365
# Velocity P-wave (km/s) = 5.87926 6.30651 6.09663
#
# Compressibility (1/GPa) = 0.02339940
#
# Stress axis : x y z
#
# Youngs Moduli (GPa) = 43.68189 34.42594 97.13035
#
# Poissons Ratio (x) = 0.43631 0.31516
# Poissons Ratio (y) = 0.55361 0.33995
# Poissons Ratio (z) = 0.14173 0.12049
#
# Static dielectric constant tensor:
#      x y z
#    x 4.084600 0.000000 0.000000 
#    y 0.000000 3.773800 0.000000 
#    z 0.000000 0.000000 4.237200 
# 
# 
# High freq. dielectric constant tensor:
#      x y z
#    x 1.880590 0.000000 0.000000 
#    y 0.000000 1.858260 0.000000 
#    z 0.000000 0.000000 1.901580 
# 
# From -- ./inp_files/1708.got.cif
#   From: 2010.03.12/outbox.cif.g09.slc.cpg/sg29_1_cif.got.tgz:1708.got - 2010.04.14 03:43:10.
