data_PCOD8169422
_publ_section_title
;
Structure prediction by ZEFSAII (Michael W. Deem and Ramdas Pophale) SiO2 
 PCOD8169422
Probable space group: P N C 2
;
_chemical_formula_sum "Si O2"
_cell_formula_units_Z 32
_cell_length_a 10.076913
_cell_length_b 14.959425
_cell_length_c 9.521851
_cell_angle_alpha 90.000000
_cell_angle_beta 90.000000
_cell_angle_gamma 90.000000
_cell_volume 1435.369756
_symmetry_space_group_name_H-M "P N C 2"
_symmetry_group_IT_number 30
_symmetry_cell_setting 'orthorhombic'
loop_
_space_group_symop_operation_xyz
x,y,z
-x,-y,z
-x,1/2+y,1/2+z
x,1/2-y,1/2+z
loop_
_atom_site_type_symbol
_atom_site_label
_atom_site_fract_x
_atom_site_fract_y
_atom_site_fract_z
Si Si1 0.286649 0.741029 0.704050
Si Si2 0.220626 0.362467 0.315803
Si Si3 0.408963 0.854301 0.475284
Si Si4 0.111606 0.602347 0.570615
Si Si5 0.922851 0.390132 0.255689
Si Si6 0.243700 0.021300 0.575770
Si Si7 0.297735 0.340026 0.868074
Si Si8 0.825529 0.585522 0.612796
O O1 0.399009 0.794937 0.617820
O O2 0.337766 0.692994 0.843590
O O3 0.228202 0.672078 0.591584
O O4 0.165319 0.802945 0.745126
O O5 0.309718 0.416653 0.200972
O O6 0.267038 0.264616 0.366152
O O7 0.230814 0.419185 0.456353
O O8 0.075582 0.360143 0.241211
O O9 0.348149 0.951940 0.507450
O O10 0.561075 0.863627 0.434426
O O11 0.101237 0.569491 0.409728
O O12 0.148070 0.515618 0.662883
O O13 0.966359 0.639706 0.618326
O O14 0.880929 0.465555 0.140946
O O15 0.197962 0.095252 0.458022
O O16 0.287045 0.369223 0.706817
#
# Coordination Sequence:
#
# PCOD8169422 Si02
#       8
#     4   4   4   4   4   4   4   4
#     4  11  22  43  68  99 135 190 237 305 356 442
#     4  11  23  43  73 102 139 186 234 300 379 448
#     4  11  27  44  71  98 145 193 253 303 359 444
#     4  10  19  40  67  98 134 174 226 286 365 442
#     4  10  21  43  67 104 140 180 237 291 377 452
#     4  11  24  46  70 102 145 194 240 308 373 438
#     4  12  26  45  66 106 142 186 246 303 358 435
#     4  10  22  40  68  97 136 176 222 294 361 441
#
# _framework density 22.293907999999998
#
# number of rings (size 3 to 8) (size 9 to 14) (size 15 to 20)
#    0.000    1.250    2.500    3.000    3.500    1.000 
#   13.500    0.000    0.000    0.000    0.000    0.000 
#    0.000    0.000    0.000    0.000    0.000    0.000 
#
# Total GULP energy -396443.845278 kJ/mol
# GULP energy per Si atom -12388.870165 kJ/mol
# Density = 2.224317 g / cm^3
# Si number density = 22.293908 Si / 1000 Ang^3
#
#
#
# Elastic Constant Matrix: (Units=GPa)
#
#
# Indices 1 2 3 4 5 6 
#
# 1 84.6922 38.5153 43.9247 0.0000 0.0000 0.0000
# 2 38.5153 133.8911 54.8772 0.0000 0.0000 0.0000
# 3 43.9247 54.8772 119.6049 0.0000 0.0000 0.0000
# 4 0.0000 0.0000 0.0000 49.6639 0.0000 0.0000
# 5 0.0000 0.0000 0.0000 0.0000 38.2507 0.0000
# 6 0.0000 0.0000 0.0000 0.0000 0.0000 24.4278
#
#
#
# Elastic Compliance Matrix: (Units=1/GPa)
#
#
# Indices 1 2 3 4 5 6 
#
# 1 0.015277 -0.002580 -0.004426 0.000000 0.000000 0.000000
# 2 -0.002580 0.009634 -0.003473 0.000000 0.000000 0.000000
# 3 -0.004426 -0.003473 0.011580 0.000000 0.000000 0.000000
# 4 0.000000 0.000000 0.000000 0.020135 0.000000 0.000000
# 5 0.000000 0.000000 0.000000 0.000000 0.026143 0.000000
# 6 0.000000 0.000000 0.000000 0.000000 0.000000 0.040937
#
#
# Mechanical properties :
#
#
# Convention : Reuss Voigt Hill
#
# Bulk Modulus (GPa) = 64.38412 68.09140 66.23776
# Shear Modulus (GPa) = 33.36830 35.85989 34.61409
#
# Velocity S-wave (km/s) = 3.87298 4.01497 3.94461
# Velocity P-wave (km/s) = 6.99588 7.21819 7.10790
#
# Compressibility (1/GPa) = 0.01553178
#
# Stress axis : x y z
#
# Youngs Moduli (GPa) = 65.45960 103.79477 86.35659
#
# Poissons Ratio (x) = 0.26782 0.38225
# Poissons Ratio (y) = 0.16890 0.29991
# Poissons Ratio (z) = 0.28975 0.36047
#
# Static dielectric constant tensor:
#      x y z
#    x 3.800990 0.000000 0.000000 
#    y 0.000000 4.708900 0.000000 
#    z 0.000000 0.000000 4.258320 
# 
# 
# High freq. dielectric constant tensor:
#      x y z
#    x 1.847790 0.000000 0.000000 
#    y 0.000000 1.899650 0.000000 
#    z 0.000000 0.000000 1.887480 
# 
# From -- ./inp_files/2482.got.cif
#   From: 2010.03.12/outbox.cif.g09.slc.cpg/sg30_2_cif.got.tgz:2482.got - 2010.04.14 01:38:02.
