data_PCOD8169349
_publ_section_title
;
Structure prediction by ZEFSAII (Michael W. Deem and Ramdas Pophale) SiO2 
 PCOD8169349
Probable space group: P C A 21
;
_chemical_formula_sum "Si O2"
_cell_formula_units_Z 24
_cell_length_a 13.373547
_cell_length_b 5.424508
_cell_length_c 12.818669
_cell_angle_alpha 90.000000
_cell_angle_beta 90.000000
_cell_angle_gamma 90.000000
_cell_volume 929.929223
_symmetry_space_group_name_H-M "P C A 21"
_symmetry_group_IT_number 29
_symmetry_cell_setting 'orthorhombic'
loop_
_space_group_symop_operation_xyz
x,y,z
-x,-y,1/2+z
1/2-x,y,1/2+z
1/2+x,-y,z
loop_
_atom_site_type_symbol
_atom_site_label
_atom_site_fract_x
_atom_site_fract_y
_atom_site_fract_z
Si Si1 0.842470 0.229264 0.090120
Si Si2 0.572186 0.275141 0.815389
Si Si3 0.215698 0.454764 0.950830
Si Si4 0.648776 0.052097 0.156465
Si Si5 0.034461 0.093757 0.974713
Si Si6 0.371880 0.443076 0.782086
O O1 0.902332 0.283926 0.194404
O O2 0.761775 0.009780 0.109553
O O3 0.773950 0.460286 0.054444
O O4 0.921262 0.179220 0.997901
O O5 0.668896 0.318245 0.886189
O O6 0.483274 0.477229 0.832714
O O7 0.531082 0.011949 0.856972
O O8 0.123264 0.289944 0.985625
O O9 0.294473 0.342847 0.868773
O O10 0.615713 0.794713 0.207529
O O11 0.656341 0.296454 0.229366
O O12 0.567205 0.106423 0.064521
#
# Coordination Sequence:
#
# PCOD8169349 Si02
#       6
#     4   4   4   4   4   4
#     4  12  27  51  82 120 167 223 278 360 423 517
#     4  12  28  49  80 119 165 224 284 350 432 515
#     4  12  28  50  79 120 166 218 285 352 428 513
#     4  12  27  53  80 123 163 219 280 348 422 509
#     4  12  29  51  80 122 169 219 291 349 435 519
#     4  12  29  50  85 118 170 219 284 349 426 507
#
# _framework density 25.808415
#
# number of rings (size 3 to 8) (size 9 to 14) (size 15 to 20)
#    0.000    0.000    5.000    3.000    7.000    2.667 
#    3.000    0.000    0.000    0.000    0.000    0.000 
#    0.000    0.000    0.000    0.000    0.000    0.000 
#
# Total GULP energy -297411.105627 kJ/mol
# GULP energy per Si atom -12392.129401 kJ/mol
# Density = 2.574967 g / cm^3
# Si number density = 25.808415 Si / 1000 Ang^3
#
#
#
# Elastic Constant Matrix: (Units=GPa)
#
#
# Indices 1 2 3 4 5 6 
#
# 1 169.0808 29.3730 32.5074 0.0000 0.0000 0.0000
# 2 29.3730 94.1534 36.2731 0.0000 0.0000 0.0000
# 3 32.5074 36.2731 108.4838 0.0000 0.0000 0.0000
# 4 0.0000 0.0000 0.0000 20.8993 0.0000 0.0000
# 5 0.0000 0.0000 0.0000 0.0000 52.9168 0.0000
# 6 0.0000 0.0000 0.0000 0.0000 0.0000 39.6977
#
#
#
# Elastic Compliance Matrix: (Units=1/GPa)
#
#
# Indices 1 2 3 4 5 6 
#
# 1 0.006445 -0.001454 -0.001445 0.000000 0.000000 0.000000
# 2 -0.001454 0.012519 -0.003750 0.000000 0.000000 0.000000
# 3 -0.001445 -0.003750 0.010905 0.000000 0.000000 0.000000
# 4 0.000000 0.000000 0.000000 0.047848 0.000000 0.000000
# 5 0.000000 0.000000 0.000000 0.000000 0.018898 0.000000
# 6 0.000000 0.000000 0.000000 0.000000 0.000000 0.025190
#
#
# Mechanical properties :
#
#
# Convention : Reuss Voigt Hill
#
# Bulk Modulus (GPa) = 60.34822 63.11391 61.73106
# Shear Modulus (GPa) = 35.55492 40.94040 38.24766
#
# Velocity S-wave (km/s) = 3.71570 3.98718 3.85383
# Velocity P-wave (km/s) = 6.46857 6.76053 6.61616
#
# Compressibility (1/GPa) = 0.01657050
#
# Stress axis : x y z
#
# Youngs Moduli (GPa) = 155.16573 79.87619 91.70128
#
# Poissons Ratio (x) = 0.11613 0.13251
# Poissons Ratio (y) = 0.22559 0.34391
# Poissons Ratio (z) = 0.22422 0.29957
#
# Static dielectric constant tensor:
#      x y z
#    x 5.171970 0.000000 0.000000 
#    y 0.000000 4.221260 0.000000 
#    z 0.000000 0.000000 5.020850 
# 
# 
# High freq. dielectric constant tensor:
#      x y z
#    x 2.065700 0.000000 0.000000 
#    y 0.000000 2.001330 0.000000 
#    z 0.000000 0.000000 2.049810 
# 
# From -- ./inp_files/4469.got.cif
#   From: 2010.03.12/outbox.cif.g09.slc.cpg/sg29_3_cif.got.tgz:4469.got - 2010.04.14 03:43:10.
