data_PCOD8169968
_publ_section_title
;
Structure prediction by ZEFSAII (Michael W. Deem and Ramdas Pophale) SiO2 
 PCOD8169968
Probable space group: P M N 21
;
_chemical_formula_sum "Si O2"
_cell_formula_units_Z 32
_cell_length_a 9.062518
_cell_length_b 9.893906
_cell_length_c 18.931546
_cell_angle_alpha 90.000000
_cell_angle_beta 90.000000
_cell_angle_gamma 90.000000
_cell_volume 1697.472484
_symmetry_space_group_name_H-M "P M N 21"
_symmetry_group_IT_number 31
_symmetry_cell_setting 'orthorhombic'
loop_
_space_group_symop_operation_xyz
x,y,z
1/2-x,-y,1/2+z
-x,y,z
1/2+x,-y,1/2+z
loop_
_atom_site_type_symbol
_atom_site_label
_atom_site_fract_x
_atom_site_fract_y
_atom_site_fract_z
Si Si1 0.668632 0.902044 0.542890
Si Si2 0.326738 0.245074 0.780809
Si Si3 0.330143 0.170720 0.625235
Si Si4 0.675492 0.741313 0.880685
Si Si5 0.827947 0.387085 0.102575
Si Si6 0.323950 0.545357 0.759268
Si Si7 0.825462 0.380295 0.527881
Si Si8 0.824394 0.955620 0.398710
O O1 0.500000 0.904243 0.516421
O O2 0.705353 0.768055 0.586333
O O3 0.773745 0.913685 0.476091
O O4 0.701148 0.021822 0.597196
O O5 0.500000 0.254379 0.792520
O O6 0.288940 0.171587 0.707509
O O7 0.262300 0.397714 0.781923
O O8 0.258515 0.153351 0.843310
O O9 0.500000 0.215386 0.613681
O O10 0.224886 0.275463 0.586857
O O11 0.500000 0.742155 0.879584
O O12 0.737586 0.657589 0.813783
O O13 0.735751 0.895013 0.878542
O O14 0.732672 0.669321 0.951841
O O15 0.766749 0.419799 0.180835
O O16 0.743103 0.473989 0.043937
O O17 0.000000 0.422264 0.097644
O O18 0.500000 0.545777 0.759834
O O19 0.000000 0.392387 0.528915
O O20 0.000000 0.956515 0.397532
#
# Coordination Sequence:
#
# PCOD8169968 Si02
#       8
#     4   4   4   4   4   4   4   4
#     4  10  22  36  55  82 113 145 180 222 276 328
#     4   9  18  31  54  81 103 137 183 226 266 311
#     4  10  19  36  58  81 107 141 185 227 267 319
#     4   9  19  32  50  79 110 138 174 223 272 317
#     4  10  21  37  57  81 109 144 183 227 272 317
#     4   9  17  32  53  78 105 135 179 226 264 310
#     4  11  21  35  56  82 109 142 181 222 275 327
#     4  10  20  35  55  80 110 142 181 225 270 319
#
# _framework density 18.851557
#
# number of rings (size 3 to 8) (size 9 to 14) (size 15 to 20)
#    0.000    2.250    2.500    0.375    3.500    0.500 
#    0.000    0.625    0.000    2.250    0.000    0.000 
#    0.000    0.000    0.000    0.000    0.000    0.000 
#
# Total GULP energy -396812.127148 kJ/mol
# GULP energy per Si atom -12400.378973 kJ/mol
# Density = 1.880865 g / cm^3
# Si number density = 18.851557 Si / 1000 Ang^3
#
#
#
# Elastic Constant Matrix: (Units=GPa)
#
#
# Indices 1 2 3 4 5 6 
#
# 1 23.4213 21.5436 15.8772 0.0000 0.0000 0.0000
# 2 21.5436 89.5385 57.0207 0.0000 0.0000 0.0000
# 3 15.8772 57.0207 120.9152 0.0000 0.0000 0.0000
# 4 0.0000 0.0000 0.0000 39.1002 0.0000 0.0000
# 5 0.0000 0.0000 0.0000 0.0000 23.8462 0.0000
# 6 0.0000 0.0000 0.0000 0.0000 0.0000 20.8965
#
#
#
# Elastic Compliance Matrix: (Units=1/GPa)
#
#
# Indices 1 2 3 4 5 6 
#
# 1 0.054997 -0.012339 -0.001403 0.000000 0.000000 0.000000
# 2 -0.012339 0.018731 -0.007213 0.000000 0.000000 0.000000
# 3 -0.001403 -0.007213 0.011856 0.000000 0.000000 0.000000
# 4 0.000000 0.000000 0.000000 0.025575 0.000000 0.000000
# 5 0.000000 0.000000 0.000000 0.000000 0.041935 0.000000
# 6 0.000000 0.000000 0.000000 0.000000 0.000000 0.047855
#
#
# Mechanical properties :
#
#
# Convention : Reuss Voigt Hill
#
# Bulk Modulus (GPa) = 22.89689 46.97309 34.93499
# Shear Modulus (GPa) = 19.42380 26.06415 22.74397
#
# Velocity S-wave (km/s) = 3.21340 3.72237 3.47721
# Velocity P-wave (km/s) = 5.09315 6.59137 5.89009
#
# Compressibility (1/GPa) = 0.04367406
#
# Stress axis : x y z
#
# Youngs Moduli (GPa) = 18.18279 53.38883 84.34751
#
# Poissons Ratio (x) = 0.65879 0.11830
# Poissons Ratio (y) = 0.22437 0.60836
# Poissons Ratio (z) = 0.02550 0.38507
#
# Static dielectric constant tensor:
#      x y z
#    x 3.050760 0.000000 0.000000 
#    y 0.000000 3.828950 0.000000 
#    z 0.000000 0.000000 3.611430 
# 
# 
# High freq. dielectric constant tensor:
#      x y z
#    x 1.681710 0.000000 0.000000 
#    y 0.000000 1.750810 0.000000 
#    z 0.000000 0.000000 1.741500 
# 
# From -- ./inp_files/6041.got.cif
#   From: 2010.03.12/outbox.cif.g09.slc.cpg/sg31_4_cif.got.tgz:6041.got - 2010.04.14 01:42:59.
