data_PCOD8169502
_publ_section_title
;
Structure prediction by ZEFSAII (Michael W. Deem and Ramdas Pophale) SiO2 
 PCOD8169502
Probable space group: P N C 2
;
_chemical_formula_sum "Si O2"
_cell_formula_units_Z 26
_cell_length_a 8.206556
_cell_length_b 16.608464
_cell_length_c 9.363895
_cell_angle_alpha 90.000000
_cell_angle_beta 90.000000
_cell_angle_gamma 90.000000
_cell_volume 1276.282875
_symmetry_space_group_name_H-M "P N C 2"
_symmetry_group_IT_number 30
_symmetry_cell_setting 'orthorhombic'
loop_
_space_group_symop_operation_xyz
x,y,z
-x,-y,z
-x,1/2+y,1/2+z
x,1/2-y,1/2+z
loop_
_atom_site_type_symbol
_atom_site_label
_atom_site_fract_x
_atom_site_fract_y
_atom_site_fract_z
Si Si1 0.840753 0.055493 0.493740
Si Si2 0.757516 0.778141 0.345788
Si Si3 0.219868 0.688853 0.201831
Si Si4 0.997375 0.595482 0.734547
Si Si5 0.431172 0.323560 0.120493
Si Si6 0.058824 0.697298 0.490848
Si Si7 0.500000 0.500000 0.053992
O O1 0.818386 0.099667 0.644804
O O2 0.874468 0.119628 0.363044
O O3 0.665984 0.012798 0.460275
O O4 0.000000 0.000000 0.515145
O O5 0.827900 0.859255 0.271856
O O6 0.697081 0.715461 0.227307
O O7 0.618173 0.806153 0.456473
O O8 0.890532 0.725516 0.426288
O O9 0.397726 0.719165 0.155383
O O10 0.199868 0.691394 0.372764
O O11 0.091367 0.747417 0.128318
O O12 0.000000 0.500000 0.754311
O O13 0.046231 0.611088 0.570710
O O14 0.456964 0.419848 0.147185
#
# Coordination Sequence:
#
# PCOD8169502 Si02
#       7
#     4   4   4   4   4   4   2
#     4  10  21  39  66  94 135 178 226 278 349 403
#     4  12  22  42  71  94 133 181 229 280 346 427
#     4  11  22  39  62  93 129 175 224 280 333 417
#     4  11  23  40  65 102 130 174 228 286 341 419
#     4  11  24  42  65  99 133 177 229 282 354 403
#     4  12  22  40  64  93 128 173 225 277 334 421
#     4  10  24  42  68 102 136 178 234 294 330 428
#
# _framework density 20.371659000000001
#
# number of rings (size 3 to 8) (size 9 to 14) (size 15 to 20)
#    0.000    0.923    4.615    2.769    2.154    1.846 
#    2.769    0.000    0.000    0.923    0.000    0.000 
#    0.000    0.000    0.000    0.000    0.000    0.000 
#
# Total GULP energy -322090.300720 kJ/mol
# GULP energy per Si atom -12388.088489 kJ/mol
# Density = 2.032529 g / cm^3
# Si number density = 20.371659 Si / 1000 Ang^3
#
#
#
# Elastic Constant Matrix: (Units=GPa)
#
#
# Indices 1 2 3 4 5 6 
#
# 1 129.8179 33.3177 43.7258 0.0000 0.0000 0.0000
# 2 33.3177 92.4229 42.5957 0.0000 0.0000 0.0000
# 3 43.7258 42.5957 138.2127 0.0000 0.0000 0.0000
# 4 0.0000 0.0000 0.0000 15.9595 0.0000 0.0000
# 5 0.0000 0.0000 0.0000 0.0000 33.2444 0.0000
# 6 0.0000 0.0000 0.0000 0.0000 0.0000 36.8615
#
#
#
# Elastic Compliance Matrix: (Units=1/GPa)
#
#
# Indices 1 2 3 4 5 6 
#
# 1 0.009007 -0.002254 -0.002155 0.000000 0.000000 0.000000
# 2 -0.002254 0.013175 -0.003347 0.000000 0.000000 0.000000
# 3 -0.002155 -0.003347 0.008949 0.000000 0.000000 0.000000
# 4 0.000000 0.000000 0.000000 0.062659 0.000000 0.000000
# 5 0.000000 0.000000 0.000000 0.000000 0.030080 0.000000
# 6 0.000000 0.000000 0.000000 0.000000 0.000000 0.027129
#
#
# Mechanical properties :
#
#
# Convention : Reuss Voigt Hill
#
# Bulk Modulus (GPa) = 64.02639 66.63688 65.33164
# Shear Modulus (GPa) = 29.11759 33.26734 31.19247
#
# Velocity S-wave (km/s) = 3.78473 4.04545 3.91726
# Velocity P-wave (km/s) = 7.11311 7.38935 7.25254
#
# Compressibility (1/GPa) = 0.01561856
#
# Stress axis : x y z
#
# Youngs Moduli (GPa) = 111.01961 75.90091 111.74906
#
# Poissons Ratio (x) = 0.17107 0.24082
# Poissons Ratio (y) = 0.25023 0.37406
# Poissons Ratio (z) = 0.23925 0.25407
#
# Static dielectric constant tensor:
#      x y z
#    x 3.923080 0.000000 0.000000 
#    y 0.000000 3.876210 0.000000 
#    z 0.000000 0.000000 4.148790 
# 
# 
# High freq. dielectric constant tensor:
#      x y z
#    x 1.801010 0.000000 0.000000 
#    y 0.000000 1.794800 0.000000 
#    z 0.000000 0.000000 1.793090 
# 
# From -- ./inp_files/1961.got.cif
#   From: 2010.03.12/outbox.cif.g09.slc.cpg/sg30_1_cif.got.tgz:1961.got - 2010.04.14 01:38:02.
