data_PCOD8169031
_publ_section_title
;
Structure prediction by ZEFSAII (Michael W. Deem and Ramdas Pophale) SiO2 
 PCOD8169031
Probable space group: P C A 21
;
_chemical_formula_sum "Si O2"
_cell_formula_units_Z 32
_cell_length_a 11.272544
_cell_length_b 12.723129
_cell_length_c 10.589089
_cell_angle_alpha 90.000000
_cell_angle_beta 90.000000
_cell_angle_gamma 90.000000
_cell_volume 1518.708656
_symmetry_space_group_name_H-M "P C A 21"
_symmetry_group_IT_number 29
_symmetry_cell_setting 'orthorhombic'
loop_
_space_group_symop_operation_xyz
x,y,z
-x,-y,1/2+z
1/2-x,y,1/2+z
1/2+x,-y,z
loop_
_atom_site_type_symbol
_atom_site_label
_atom_site_fract_x
_atom_site_fract_y
_atom_site_fract_z
Si Si1 0.894195 0.126943 0.921800
Si Si2 0.468656 0.789979 0.173508
Si Si3 0.649723 0.403448 0.045239
Si Si4 0.621284 0.797210 0.817974
Si Si5 0.246385 0.692785 0.801215
Si Si6 0.842024 0.646670 0.535815
Si Si7 0.864686 0.894287 0.849434
Si Si8 0.584081 0.722351 0.556988
O O1 0.826607 0.205391 0.827911
O O2 0.035455 0.127318 0.898214
O O3 0.845696 0.010410 0.903260
O O4 0.880198 0.164211 0.066706
O O5 0.387184 0.727890 0.271748
O O6 0.570558 0.710595 0.127203
O O7 0.533793 0.887924 0.242481
O O8 0.701087 0.371907 0.182692
O O9 0.622304 0.526181 0.043593
O O10 0.523684 0.350632 0.014856
O O11 0.741086 0.375607 0.931025
O O12 0.741077 0.859370 0.787722
O O13 0.550998 0.771575 0.691131
O O14 0.644768 0.688934 0.893278
O O15 0.705283 0.657333 0.577118
O O16 0.899365 0.817021 0.961218
#
# Coordination Sequence:
#
# PCOD8169031 Si02
#       8
#     4   4   4   4   4   4   4   4
#     4  11  26  43  70  99 139 185 222 289 351 407
#     4  11  24  48  65  98 149 170 233 291 336 413
#     4  12  27  43  75 100 141 186 229 287 350 410
#     4  10  23  46  64  99 139 169 238 283 329 423
#     4  12  26  47  66 105 144 176 233 288 339 418
#     4  10  26  44  69 101 136 182 222 289 348 401
#     4  11  25  42  72  99 134 186 226 287 349 404
#     4  11  23  45  67  99 134 176 237 276 334 424
#
# _framework density 21.070533999999999
#
# number of rings (size 3 to 8) (size 9 to 14) (size 15 to 20)
#    0.000    1.000    5.000    0.000    7.000    0.000 
#    0.000    0.000    0.000    0.000    0.000    0.000 
#    0.000    0.000    0.000    0.000    0.000    0.000 
#
# Total GULP energy -396856.429204 kJ/mol
# GULP energy per Si atom -12401.763413 kJ/mol
# Density = 2.102258 g / cm^3
# Si number density = 21.070534 Si / 1000 Ang^3
#
#
#
# Elastic Constant Matrix: (Units=GPa)
#
#
# Indices 1 2 3 4 5 6 
#
# 1 87.7176 31.9350 29.1955 0.0000 0.0000 0.0000
# 2 31.9350 137.3096 39.7763 0.0000 0.0000 0.0000
# 3 29.1955 39.7763 109.7604 0.0000 0.0000 0.0000
# 4 0.0000 0.0000 0.0000 14.4613 0.0000 0.0000
# 5 0.0000 0.0000 0.0000 0.0000 36.8350 0.0000
# 6 0.0000 0.0000 0.0000 0.0000 0.0000 23.9014
#
#
#
# Elastic Compliance Matrix: (Units=1/GPa)
#
#
# Indices 1 2 3 4 5 6 
#
# 1 0.013116 -0.002279 -0.002663 0.000000 0.000000 0.000000
# 2 -0.002279 0.008533 -0.002486 0.000000 0.000000 0.000000
# 3 -0.002663 -0.002486 0.010720 0.000000 0.000000 0.000000
# 4 0.000000 0.000000 0.000000 0.069150 0.000000 0.000000
# 5 0.000000 0.000000 0.000000 0.000000 0.027148 0.000000
# 6 0.000000 0.000000 0.000000 0.000000 0.000000 0.041839
#
#
# Mechanical properties :
#
#
# Convention : Reuss Voigt Hill
#
# Bulk Modulus (GPa) = 57.10009 59.62237 58.36123
# Shear Modulus (GPa) = 26.15060 30.63158 28.39109
#
# Velocity S-wave (km/s) = 3.52674 3.81696 3.67472
# Velocity P-wave (km/s) = 6.61379 6.91257 6.76483
#
# Compressibility (1/GPa) = 0.01751311
#
# Stress axis : x y z
#
# Youngs Moduli (GPa) = 76.24112 117.19117 93.28363
#
# Poissons Ratio (x) = 0.26710 0.24840
# Poissons Ratio (y) = 0.17376 0.23191
# Poissons Ratio (z) = 0.20302 0.29135
#
# Static dielectric constant tensor:
#      x y z
#    x 3.879560 0.000000 0.000000 
#    y 0.000000 3.552240 0.000000 
#    z 0.000000 0.000000 3.951260 
# 
# 
# High freq. dielectric constant tensor:
#      x y z
#    x 1.836660 0.000000 0.000000 
#    y 0.000000 1.811060 0.000000 
#    z 0.000000 0.000000 1.839850 
# 
# From -- ./inp_files/3209.got.cif
#   From: 2010.03.12/outbox.cif.g09.slc.cpg/sg29_2_cif.got.tgz:3209.got - 2010.04.14 03:43:10.
