data_PCOD8169137
_publ_section_title
;
Structure prediction by ZEFSAII (Michael W. Deem and Ramdas Pophale) SiO2 
 PCOD8169137
Probable space group: P C A 21
;
_chemical_formula_sum "Si O2"
_cell_formula_units_Z 20
_cell_length_a 15.379957
_cell_length_b 12.457511
_cell_length_c 4.967027
_cell_angle_alpha 90.000000
_cell_angle_beta 90.000000
_cell_angle_gamma 90.000000
_cell_volume 951.662423
_symmetry_space_group_name_H-M "P C A 21"
_symmetry_group_IT_number 29
_symmetry_cell_setting 'orthorhombic'
loop_
_space_group_symop_operation_xyz
x,y,z
-x,-y,1/2+z
1/2-x,y,1/2+z
1/2+x,-y,z
loop_
_atom_site_type_symbol
_atom_site_label
_atom_site_fract_x
_atom_site_fract_y
_atom_site_fract_z
Si Si1 0.014396 0.799920 0.806990
Si Si2 0.694482 0.649603 0.911045
Si Si3 0.188501 0.918255 0.826505
Si Si4 0.907803 0.858718 0.335782
Si Si5 0.526495 0.561289 0.138998
O O1 0.114607 0.828007 0.852907
O O2 0.978644 0.877703 0.570771
O O3 0.010934 0.677203 0.713155
O O4 0.956085 0.817102 0.070319
O O5 0.721860 0.632231 0.601999
O O6 0.659560 0.770382 0.945442
O O7 0.621029 0.565600 0.999299
O O8 0.252190 0.901911 0.581837
O O9 0.144352 0.033368 0.790088
O O10 0.534874 0.491759 0.411236
#
# Coordination Sequence:
#
# PCOD8169137 Si02
#       5
#     4   4   4   4   4
#     4  11  23  41  63  88 121 165 209 249 301 372
#     4  11  21  37  61  93 118 145 196 261 307 344
#     4  12  24  39  60  93 129 163 198 244 300 369
#     4  11  21  39  64  90 123 161 199 247 307 371
#     4  11  23  42  64  86 119 164 208 251 307 368
#
# _framework density 21.015854000000001
#
# number of rings (size 3 to 8) (size 9 to 14) (size 15 to 20)
#    0.000    0.800    0.000   10.800    0.000    0.000 
#    0.000    6.000    0.000    0.000    0.000    0.000 
#    0.000    0.000    0.000    0.000    0.000    0.000 
#
# Total GULP energy -248074.870776 kJ/mol
# GULP energy per Si atom -12403.743539 kJ/mol
# Density = 2.096802 g / cm^3
# Si number density = 21.015854 Si / 1000 Ang^3
#
#
#
# Elastic Constant Matrix: (Units=GPa)
#
#
# Indices 1 2 3 4 5 6 
#
# 1 118.5993 48.2843 52.3542 0.0000 0.0000 0.0000
# 2 48.2843 66.7178 31.1532 0.0000 0.0000 0.0000
# 3 52.3542 31.1532 155.5853 0.0000 0.0000 0.0000
# 4 0.0000 0.0000 0.0000 28.2678 0.0000 0.0000
# 5 0.0000 0.0000 0.0000 0.0000 51.3564 0.0000
# 6 0.0000 0.0000 0.0000 0.0000 0.0000 17.1260
#
#
#
# Elastic Compliance Matrix: (Units=1/GPa)
#
#
# Indices 1 2 3 4 5 6 
#
# 1 0.012927 -0.008080 -0.002732 0.000000 0.000000 0.000000
# 2 -0.008080 0.021584 -0.001603 0.000000 0.000000 0.000000
# 3 -0.002732 -0.001603 0.007668 0.000000 0.000000 0.000000
# 4 0.000000 0.000000 0.000000 0.035376 0.000000 0.000000
# 5 0.000000 0.000000 0.000000 0.000000 0.019472 0.000000
# 6 0.000000 0.000000 0.000000 0.000000 0.000000 0.058391
#
#
# Mechanical properties :
#
#
# Convention : Reuss Voigt Hill
#
# Bulk Modulus (GPa) = 57.63908 67.16509 62.40209
# Shear Modulus (GPa) = 26.87719 33.29075 30.08397
#
# Velocity S-wave (km/s) = 3.58005 3.98437 3.78761
# Velocity P-wave (km/s) = 6.67645 7.29353 6.99180
#
# Compressibility (1/GPa) = 0.01734934
#
# Stress axis : x y z
#
# Youngs Moduli (GPa) = 77.35552 46.32956 130.41720
#
# Poissons Ratio (x) = 0.37434 0.35632
# Poissons Ratio (y) = 0.62502 0.20907
# Poissons Ratio (z) = 0.21135 0.07427
#
# Static dielectric constant tensor:
#      x y z
#    x 4.009190 0.000000 0.000000 
#    y 0.000000 3.689700 0.000000 
#    z 0.000000 0.000000 4.075950 
# 
# 
# High freq. dielectric constant tensor:
#      x y z
#    x 1.830300 0.000000 0.000000 
#    y 0.000000 1.810590 0.000000 
#    z 0.000000 0.000000 1.850380 
# 
# From -- ./inp_files/183.got.cif
#   From: 2010.03.12/outbox.cif.g09.slc.cpg/sg29_1_cif.got.tgz:183.got - 2010.04.14 03:43:10.
