data_PCOD8169204
_publ_section_title
;
Structure prediction by ZEFSAII (Michael W. Deem and Ramdas Pophale) SiO2 
 PCOD8169204
Probable space group: P C A 21
;
_chemical_formula_sum "Si O2"
_cell_formula_units_Z 24
_cell_length_a 13.004568
_cell_length_b 9.453284
_cell_length_c 8.365387
_cell_angle_alpha 90.000000
_cell_angle_beta 90.000000
_cell_angle_gamma 90.000000
_cell_volume 1028.406167
_symmetry_space_group_name_H-M "P C A 21"
_symmetry_group_IT_number 29
_symmetry_cell_setting 'orthorhombic'
loop_
_space_group_symop_operation_xyz
x,y,z
-x,-y,1/2+z
1/2-x,y,1/2+z
1/2+x,-y,z
loop_
_atom_site_type_symbol
_atom_site_label
_atom_site_fract_x
_atom_site_fract_y
_atom_site_fract_z
Si Si1 0.930218 0.385639 0.456270
Si Si2 0.340370 0.746745 0.769355
Si Si3 0.617493 0.135890 0.765913
Si Si4 0.492108 0.097766 0.458818
Si Si5 0.150168 0.443656 0.403058
Si Si6 0.844794 0.658089 0.545638
O O1 0.862915 0.309509 0.592677
O O2 0.922251 0.296030 0.292665
O O3 0.885507 0.540400 0.420972
O O4 0.047261 0.416716 0.504372
O O5 0.242239 0.853807 0.767093
O O6 0.441392 0.835178 0.816601
O O7 0.321733 0.612579 0.890723
O O8 0.574379 0.072640 0.600842
O O9 0.566718 0.044818 0.908758
O O10 0.397337 0.193819 0.512829
O O11 0.134474 0.384721 0.226406
O O12 0.224631 0.342179 0.504722
#
# Coordination Sequence:
#
# PCOD8169204 Si02
#       6
#     4   4   4   4   4   4
#     4  11  23  45  74 107 147 187 245 308 373 447
#     4  11  25  45  78 110 146 197 241 310 380 451
#     4  12  26  49  71 105 151 199 250 299 382 437
#     4  12  27  48  72 107 146 195 252 307 361 453
#     4  11  24  42  76 112 149 187 246 309 378 443
#     4  11  25  43  73 111 145 189 244 311 366 441
#
# _framework density 23.337084000000001
#
# number of rings (size 3 to 8) (size 9 to 14) (size 15 to 20)
#    0.000    0.667    5.000    2.000    4.667    1.333 
#    6.000    0.000    0.000    0.000    0.000    0.000 
#    0.000    0.000    0.000    0.000    0.000    0.000 
#
# Total GULP energy -297490.673958 kJ/mol
# GULP energy per Si atom -12395.444748 kJ/mol
# Density = 2.328397 g / cm^3
# Si number density = 23.337084 Si / 1000 Ang^3
#
#
#
# Elastic Constant Matrix: (Units=GPa)
#
#
# Indices 1 2 3 4 5 6 
#
# 1 130.6806 23.6555 15.5264 0.0000 0.0000 0.0000
# 2 23.6555 63.9877 15.9196 0.0000 0.0000 0.0000
# 3 15.5264 15.9196 55.8547 0.0000 0.0000 0.0000
# 4 0.0000 0.0000 0.0000 26.7868 0.0000 0.0000
# 5 0.0000 0.0000 0.0000 0.0000 39.0001 0.0000
# 6 0.0000 0.0000 0.0000 0.0000 0.0000 52.7536
#
#
#
# Elastic Compliance Matrix: (Units=1/GPa)
#
#
# Indices 1 2 3 4 5 6 
#
# 1 0.008323 -0.002692 -0.001546 0.000000 0.000000 0.000000
# 2 -0.002692 0.017692 -0.004294 0.000000 0.000000 0.000000
# 3 -0.001546 -0.004294 0.019557 0.000000 0.000000 0.000000
# 4 0.000000 0.000000 0.000000 0.037332 0.000000 0.000000
# 5 0.000000 0.000000 0.000000 0.000000 0.025641 0.000000
# 6 0.000000 0.000000 0.000000 0.000000 0.000000 0.018956
#
#
# Mechanical properties :
#
#
# Convention : Reuss Voigt Hill
#
# Bulk Modulus (GPa) = 35.07923 40.08067 37.57995
# Shear Modulus (GPa) = 32.45302 36.73619 34.59460
#
# Velocity S-wave (km/s) = 3.73315 3.97187 3.85436
# Velocity P-wave (km/s) = 5.80052 6.18436 5.99551
#
# Compressibility (1/GPa) = 0.02850689
#
# Stress axis : x y z
#
# Youngs Moduli (GPa) = 120.14435 56.52390 51.13172
#
# Poissons Ratio (x) = 0.15218 0.07907
# Poissons Ratio (y) = 0.32347 0.21956
# Poissons Ratio (z) = 0.18578 0.24272
#
# Static dielectric constant tensor:
#      x y z
#    x 4.417650 0.000000 0.000000 
#    y 0.000000 4.225220 0.000000 
#    z 0.000000 0.000000 3.959920 
# 
# 
# High freq. dielectric constant tensor:
#      x y z
#    x 1.944060 0.000000 0.000000 
#    y 0.000000 1.910360 0.000000 
#    z 0.000000 0.000000 1.915530 
# 
# From -- ./inp_files/1396.got.cif
#   From: 2010.03.12/outbox.cif.g09.slc.cpg/sg29_1_cif.got.tgz:1396.got - 2010.04.14 03:43:10.
