data_PCOD8169979
_publ_section_title
;
Structure prediction by ZEFSAII (Michael W. Deem and Ramdas Pophale) SiO2 
 PCOD8169979
Probable space group: P M N 21
;
_chemical_formula_sum "Si O2"
_cell_formula_units_Z 32
_cell_length_a 8.575021
_cell_length_b 16.378133
_cell_length_c 10.969533
_cell_angle_alpha 90.000000
_cell_angle_beta 90.000000
_cell_angle_gamma 90.000000
_cell_volume 1540.592307
_symmetry_space_group_name_H-M "P M N 21"
_symmetry_group_IT_number 31
_symmetry_cell_setting 'orthorhombic'
loop_
_space_group_symop_operation_xyz
x,y,z
1/2-x,-y,1/2+z
-x,y,z
1/2+x,-y,1/2+z
loop_
_atom_site_type_symbol
_atom_site_label
_atom_site_fract_x
_atom_site_fract_y
_atom_site_fract_z
Si Si1 0.180582 0.155374 0.916320
Si Si2 0.822184 0.167702 0.563249
Si Si3 0.684681 0.459102 0.671852
Si Si4 0.818584 0.023849 0.715907
Si Si5 0.679856 0.151034 0.169133
Si Si6 0.180533 0.718540 0.248520
Si Si7 0.682609 0.438642 0.395766
Si Si8 0.675974 0.729907 0.837998
O O1 0.228689 0.081004 0.828160
O O2 0.213551 0.242932 0.854597
O O3 0.000000 0.151116 0.956408
O O4 0.299856 0.146158 0.025531
O O5 0.772314 0.074012 0.591986
O O6 0.702328 0.228712 0.627361
O O7 0.812413 0.188913 0.421647
O O8 0.000000 0.181290 0.613882
O O9 0.500000 0.462603 0.667768
O O10 0.743329 0.371868 0.720135
O O11 0.743455 0.472619 0.529502
O O12 0.742578 0.523324 0.773115
O O13 0.000000 0.005565 0.714051
O O14 0.742264 0.933573 0.721242
O O15 0.500000 0.160389 0.205338
O O16 0.767185 0.233804 0.210080
O O17 0.000000 0.717745 0.287537
O O18 0.500000 0.453551 0.387293
O O19 0.717751 0.342339 0.389822
O O20 0.500000 0.696546 0.827625
#
# Coordination Sequence:
#
# PCOD8169979 Si02
#       8
#     4   4   4   4   4   4   4   4
#     4  10  21  39  58  83 120 157 201 252 308 370
#     4   9  18  35  60  86 115 151 195 243 293 355
#     4  10  23  42  64  95 130 163 207 262 317 382
#     4   8  18  36  57  83 116 154 197 248 300 359
#     4  11  23  38  58  85 121 161 205 256 309 365
#     4  10  19  36  62  88 117 152 195 247 300 359
#     4  11  24  43  67  95 129 166 211 264 319 384
#     4  11  23  39  62  89 122 162 203 250 308 372
#
# _framework density 20.771232000000001
#
# number of rings (size 3 to 8) (size 9 to 14) (size 15 to 20)
#    0.000    2.000    1.250    2.625    1.750    3.500 
#    0.000    8.125    0.000    0.000    0.000    0.000 
#    0.000    0.000    0.000    0.000    0.000    0.000 
#
# Total GULP energy -396506.634132 kJ/mol
# GULP energy per Si atom -12390.832317 kJ/mol
# Density = 2.072396 g / cm^3
# Si number density = 20.771232 Si / 1000 Ang^3
#
#
#
# Elastic Constant Matrix: (Units=GPa)
#
#
# Indices 1 2 3 4 5 6 
#
# 1 21.3652 11.4319 10.3804 0.0000 0.0000 0.0000
# 2 11.4319 88.8773 48.5398 0.0000 0.0000 0.0000
# 3 10.3804 48.5398 108.8429 0.0000 0.0000 0.0000
# 4 0.0000 0.0000 0.0000 27.2677 0.0000 0.0000
# 5 0.0000 0.0000 0.0000 0.0000 29.1718 0.0000
# 6 0.0000 0.0000 0.0000 0.0000 0.0000 26.5941
#
#
#
# Elastic Compliance Matrix: (Units=1/GPa)
#
#
# Indices 1 2 3 4 5 6 
#
# 1 0.050795 -0.005140 -0.002552 0.000000 0.000000 0.000000
# 2 -0.005140 0.015394 -0.006375 0.000000 0.000000 0.000000
# 3 -0.002552 -0.006375 0.012274 0.000000 0.000000 0.000000
# 4 0.000000 0.000000 0.000000 0.036673 0.000000 0.000000
# 5 0.000000 0.000000 0.000000 0.000000 0.034280 0.000000
# 6 0.000000 0.000000 0.000000 0.000000 0.000000 0.037602
#
#
# Mechanical properties :
#
#
# Convention : Reuss Voigt Hill
#
# Bulk Modulus (GPa) = 19.86906 39.97663 29.92284
# Shear Modulus (GPa) = 21.55826 26.52226 24.04026
#
# Velocity S-wave (km/s) = 3.22513 3.57721 3.40572
# Velocity P-wave (km/s) = 4.84304 6.02909 5.46831
#
# Compressibility (1/GPa) = 0.05032951
#
# Stress axis : x y z
#
# Youngs Moduli (GPa) = 19.68687 64.95916 81.47295
#
# Poissons Ratio (x) = 0.33387 0.20794
# Poissons Ratio (y) = 0.10118 0.51940
# Poissons Ratio (z) = 0.05025 0.41412
#
# Static dielectric constant tensor:
#      x y z
#    x 3.507480 0.000000 0.000000 
#    y 0.000000 3.845760 0.000000 
#    z 0.000000 0.000000 3.808180 
# 
# 
# High freq. dielectric constant tensor:
#      x y z
#    x 1.796750 0.000000 0.000000 
#    y 0.000000 1.812300 0.000000 
#    z 0.000000 0.000000 1.812860 
# 
# From -- ./inp_files/3592.got.cif
#   From: 2010.03.12/outbox.cif.g09.slc.cpg/sg31_2_cif.got.tgz:3592.got - 2010.04.14 01:42:59.
