data_PCOD8169673
_publ_section_title
;
Structure prediction by ZEFSAII (Michael W. Deem and Ramdas Pophale) SiO2 
 PCOD8169673
Probable space group: P M N 21
;
_chemical_formula_sum "Si O2"
_cell_formula_units_Z 32
_cell_length_a 8.850710
_cell_length_b 20.987369
_cell_length_c 9.685608
_cell_angle_alpha 90.000000
_cell_angle_beta 90.000000
_cell_angle_gamma 90.000000
_cell_volume 1799.131873
_symmetry_space_group_name_H-M "P M N 21"
_symmetry_group_IT_number 31
_symmetry_cell_setting 'orthorhombic'
loop_
_space_group_symop_operation_xyz
x,y,z
1/2-x,-y,1/2+z
-x,y,z
1/2+x,-y,1/2+z
loop_
_atom_site_type_symbol
_atom_site_label
_atom_site_fract_x
_atom_site_fract_y
_atom_site_fract_z
Si Si1 0.322935 0.442613 0.197840
Si Si2 0.677022 0.185573 0.516218
Si Si3 0.666639 0.683325 0.688870
Si Si4 0.821896 0.944149 0.719680
Si Si5 0.831808 0.310355 0.518007
Si Si6 0.178382 0.180871 0.219638
Si Si7 0.179136 0.448723 0.492417
Si Si8 0.322351 0.941135 0.017803
O O1 0.500000 0.446983 0.216098
O O2 0.281021 0.371940 0.141951
O O3 0.248099 0.458945 0.342465
O O4 0.263040 0.494483 0.089033
O O5 0.500000 0.178309 0.537709
O O6 0.729075 0.253680 0.580533
O O7 0.721666 0.184260 0.356840
O O8 0.760823 0.124963 0.585091
O O9 0.500000 0.663352 0.637068
O O10 0.666569 0.691477 0.852932
O O11 0.709639 0.754186 0.630721
O O12 0.739009 0.883229 0.645998
O O13 0.758395 0.956339 0.872852
O O14 0.000000 0.931756 0.727733
O O15 0.781487 0.004242 0.625992
O O16 0.769699 0.380738 0.559277
O O17 0.000000 0.299883 0.576682
O O18 0.000000 0.175951 0.254527
O O19 0.000000 0.448421 0.474075
O O20 0.500000 0.935496 0.991084
#
# Coordination Sequence:
#
# PCOD8169673 Si02
#       8
#     4   4   4   4   4   4   4   4
#     4  10  19  30  48  72  94 122 158 192 230 275
#     4  10  17  25  42  68  93 116 151 195 231 268
#     4   8  15  27  43  65  92 121 151 187 231 274
#     4  10  20  32  49  73  96 122 158 194 229 273
#     4   8  14  27  44  61  88 121 150 186 232 275
#     4   9  16  27  44  65  91 122 153 187 231 275
#     4   9  19  33  47  68  97 125 154 190 233 279
#     4  10  20  33  49  70  97 127 155 187 233 281
#
# _framework density 17.786356000000001
#
# number of rings (size 3 to 8) (size 9 to 14) (size 15 to 20)
#    0.000    2.750    0.000    5.625    0.000    8.000 
#    0.000    0.000    0.000    1.500    0.000    1.750 
#    0.000    0.000    0.000    0.000    0.000    0.000 
#
# Total GULP energy -396488.704041 kJ/mol
# GULP energy per Si atom -12390.272001 kJ/mol
# Density = 1.774587 g / cm^3
# Si number density = 17.786356 Si / 1000 Ang^3
#
#
#
# Elastic Constant Matrix: (Units=GPa)
#
#
# Indices 1 2 3 4 5 6 
#
# 1 65.5515 39.0642 19.0442 0.0000 0.0000 0.0000
# 2 39.0642 112.4199 20.3594 0.0000 0.0000 0.0000
# 3 19.0442 20.3594 27.0602 0.0000 0.0000 0.0000
# 4 0.0000 0.0000 0.0000 24.6592 0.0000 0.0000
# 5 0.0000 0.0000 0.0000 0.0000 16.7497 0.0000
# 6 0.0000 0.0000 0.0000 0.0000 0.0000 32.8018
#
#
#
# Elastic Compliance Matrix: (Units=1/GPa)
#
#
# Indices 1 2 3 4 5 6 
#
# 1 0.021811 -0.005556 -0.011170 0.000000 0.000000 0.000000
# 2 -0.005556 0.011714 -0.004903 0.000000 0.000000 0.000000
# 3 -0.011170 -0.004903 0.048504 0.000000 0.000000 0.000000
# 4 0.000000 0.000000 0.000000 0.040553 0.000000 0.000000
# 5 0.000000 0.000000 0.000000 0.000000 0.059702 0.000000
# 6 0.000000 0.000000 0.000000 0.000000 0.000000 0.030486
#
#
# Mechanical properties :
#
#
# Convention : Reuss Voigt Hill
#
# Bulk Modulus (GPa) = 25.79195 40.21855 33.00525
# Shear Modulus (GPa) = 18.59061 23.27973 20.93517
#
# Velocity S-wave (km/s) = 3.23649 3.62173 3.43452
# Velocity P-wave (km/s) = 5.33844 6.33643 5.85872
#
# Compressibility (1/GPa) = 0.03877178
#
# Stress axis : x y z
#
# Youngs Moduli (GPa) = 45.84753 85.36900 20.61666
#
# Poissons Ratio (x) = 0.47433 0.23028
# Poissons Ratio (y) = 0.25474 0.10108
# Poissons Ratio (z) = 0.51211 0.41855
#
# Static dielectric constant tensor:
#      x y z
#    x 3.315030 0.000000 0.000000 
#    y 0.000000 4.312950 0.000000 
#    z 0.000000 0.000000 2.710850 
# 
# 
# High freq. dielectric constant tensor:
#      x y z
#    x 1.693340 0.000000 0.000000 
#    y 0.000000 1.720240 0.000000 
#    z 0.000000 0.000000 1.612280 
# 
# From -- ./inp_files/3807.got.cif
#   From: 2010.03.12/outbox.cif.g09.slc.cpg/sg31_2_cif.got.tgz:3807.got - 2010.04.14 01:42:59.
