data_PCOD8169638
_publ_section_title
;
Structure prediction by ZEFSAII (Michael W. Deem and Ramdas Pophale) SiO2 
 PCOD8169638
Probable space group: P N C 2
;
_chemical_formula_sum "Si O2"
_cell_formula_units_Z 24
_cell_length_a 8.145966
_cell_length_b 14.051927
_cell_length_c 9.560729
_cell_angle_alpha 90.000000
_cell_angle_beta 90.000000
_cell_angle_gamma 90.000000
_cell_volume 1094.383373
_symmetry_space_group_name_H-M "P N C 2"
_symmetry_group_IT_number 30
_symmetry_cell_setting 'orthorhombic'
loop_
_space_group_symop_operation_xyz
x,y,z
-x,-y,z
-x,1/2+y,1/2+z
x,1/2-y,1/2+z
loop_
_atom_site_type_symbol
_atom_site_label
_atom_site_fract_x
_atom_site_fract_y
_atom_site_fract_z
Si Si1 0.823852 0.840770 0.105490
Si Si2 0.639848 0.754052 0.355840
Si Si3 0.682048 0.469601 0.697033
Si Si4 0.190028 0.823018 0.000017
Si Si5 0.404643 0.907958 0.775451
Si Si6 0.357920 0.875134 0.467419
O O1 0.787270 0.786356 0.252385
O O2 0.807101 0.953241 0.133822
O O3 0.698439 0.803907 0.990072
O O4 0.001058 0.823218 0.041235
O O5 0.519392 0.684572 0.272287
O O6 0.538635 0.846300 0.408629
O O7 0.500000 0.500000 0.659692
O O8 0.707618 0.366031 0.628483
O O9 0.713738 0.454488 0.862049
O O10 0.238304 0.887086 0.864145
O O11 0.239046 0.714933 0.975305
O O12 0.358842 0.928573 0.615242
O O13 0.500000 0.000000 0.837187
#
# Coordination Sequence:
#
# PCOD8169638 Si02
#       6
#     4   4   4   4   4   4
#     4  12  26  42  72 101 144 187 233 300 365 436
#     4  11  23  44  67 102 136 185 235 289 354 424
#     4  12  23  44  71 102 136 187 243 292 350 431
#     4  11  25  43  67 102 142 185 228 289 370 427
#     4  11  23  42  69  99 133 181 236 296 342 421
#     4  11  23  42  70 102 134 184 238 290 344 430
#
# _framework density 21.930157000000001
#
# number of rings (size 3 to 8) (size 9 to 14) (size 15 to 20)
#    0.000    0.667    3.333    6.500    4.667    0.000 
#    0.000    0.000    0.000    0.000    0.000    0.000 
#    0.000    0.000    0.000    0.000    0.000    0.000 
#
# Total GULP energy -297625.351465 kJ/mol
# GULP energy per Si atom -12401.056311 kJ/mol
# Density = 2.188024 g / cm^3
# Si number density = 21.930157 Si / 1000 Ang^3
#
#
#
# Elastic Constant Matrix: (Units=GPa)
#
#
# Indices 1 2 3 4 5 6 
#
# 1 111.6189 34.2507 39.3013 0.0000 0.0000 0.0000
# 2 34.2507 88.0330 27.1133 0.0000 0.0000 0.0000
# 3 39.3013 27.1133 140.6244 0.0000 0.0000 0.0000
# 4 0.0000 0.0000 0.0000 36.9619 0.0000 0.0000
# 5 0.0000 0.0000 0.0000 0.0000 22.5812 0.0000
# 6 0.0000 0.0000 0.0000 0.0000 0.0000 24.0553
#
#
#
# Elastic Compliance Matrix: (Units=1/GPa)
#
#
# Indices 1 2 3 4 5 6 
#
# 1 0.010864 -0.003500 -0.002362 0.000000 0.000000 0.000000
# 2 -0.003500 0.013204 -0.001568 0.000000 0.000000 0.000000
# 3 -0.002362 -0.001568 0.008073 0.000000 0.000000 0.000000
# 4 0.000000 0.000000 0.000000 0.027055 0.000000 0.000000
# 5 0.000000 0.000000 0.000000 0.000000 0.044285 0.000000
# 6 0.000000 0.000000 0.000000 0.000000 0.000000 0.041571
#
#
# Mechanical properties :
#
#
# Convention : Reuss Voigt Hill
#
# Bulk Modulus (GPa) = 57.85776 60.17852 59.01814
# Shear Modulus (GPa) = 30.18023 32.69374 31.43698
#
# Velocity S-wave (km/s) = 3.71374 3.86529 3.79027
# Velocity P-wave (km/s) = 6.69546 6.88631 6.79155
#
# Compressibility (1/GPa) = 0.01728377
#
# Stress axis : x y z
#
# Youngs Moduli (GPa) = 92.04317 75.73574 123.86323
#
# Poissons Ratio (x) = 0.26505 0.29252
# Poissons Ratio (y) = 0.32212 0.19418
# Poissons Ratio (z) = 0.21737 0.11873
#
# Static dielectric constant tensor:
#      x y z
#    x 3.804650 0.000000 0.000000 
#    y 0.000000 4.185260 0.000000 
#    z 0.000000 0.000000 4.168250 
# 
# 
# High freq. dielectric constant tensor:
#      x y z
#    x 1.837030 0.000000 0.000000 
#    y 0.000000 1.870050 0.000000 
#    z 0.000000 0.000000 1.882670 
# 
# From -- ./inp_files/1835.got.cif
#   From: 2010.03.12/outbox.cif.g09.slc.cpg/sg30_1_cif.got.tgz:1835.got - 2010.04.14 01:38:02.
