data_PCOD8169421
_publ_section_title
;
Structure prediction by ZEFSAII (Michael W. Deem and Ramdas Pophale) SiO2 
 PCOD8169421
Probable space group: P N C 2
;
_chemical_formula_sum "Si O2"
_cell_formula_units_Z 18
_cell_length_a 8.436346
_cell_length_b 7.389200
_cell_length_c 14.979246
_cell_angle_alpha 90.000000
_cell_angle_beta 90.000000
_cell_angle_gamma 90.000000
_cell_volume 933.773958
_symmetry_space_group_name_H-M "P N C 2"
_symmetry_group_IT_number 30
_symmetry_cell_setting 'orthorhombic'
loop_
_space_group_symop_operation_xyz
x,y,z
-x,-y,z
-x,1/2+y,1/2+z
x,1/2-y,1/2+z
loop_
_atom_site_type_symbol
_atom_site_label
_atom_site_fract_x
_atom_site_fract_y
_atom_site_fract_z
Si Si1 0.639402 0.851701 0.520530
Si Si2 0.500000 0.000000 0.955836
Si Si3 0.709464 0.846107 0.717003
Si Si4 0.362526 0.802084 0.795492
Si Si5 0.821813 0.551284 0.841377
O O1 0.585278 0.643550 0.518714
O O2 0.740569 0.850407 0.611261
O O3 0.744152 0.888334 0.433902
O O4 0.500000 0.000000 0.526219
O O5 0.616286 0.122377 0.895535
O O6 0.530736 0.786826 0.744561
O O7 0.827331 0.711826 0.768693
O O8 0.747035 0.052017 0.745618
O O9 0.277558 0.610371 0.797318
O O10 0.000000 0.500000 0.863936
#
# Coordination Sequence:
#
# PCOD8169421 Si02
#       5
#     4   2   4   4   4
#     4  12  21  40  68  95 119 156 221 265 306 354
#     4  10  20  34  66  92 114 154 210 278 296 346
#     4  10  22  40  65  96 113 159 220 268 297 355
#     4  10  19  40  64  86 121 162 212 260 310 341
#     4  12  25  42  59  90 139 173 192 246 320 393
#
# _framework density 19.276613999999999
#
# number of rings (size 3 to 8) (size 9 to 14) (size 15 to 20)
#    0.000    1.333    8.889    0.667    3.111    0.889 
#    4.000    0.000    0.000    0.000    0.000    0.000 
#    0.000    0.000    0.000    0.000    0.000    0.000 
#
# Total GULP energy -223111.076388 kJ/mol
# GULP energy per Si atom -12395.059799 kJ/mol
# Density = 1.923274 g / cm^3
# Si number density = 19.276614 Si / 1000 Ang^3
#
#
#
# Elastic Constant Matrix: (Units=GPa)
#
#
# Indices 1 2 3 4 5 6 
#
# 1 49.6849 27.3419 16.8814 0.0000 0.0000 0.0000
# 2 27.3419 110.8924 44.3142 0.0000 0.0000 0.0000
# 3 16.8814 44.3142 134.2912 0.0000 0.0000 0.0000
# 4 0.0000 0.0000 0.0000 23.4451 0.0000 0.0000
# 5 0.0000 0.0000 0.0000 0.0000 1.2607 0.0000
# 6 0.0000 0.0000 0.0000 0.0000 0.0000 13.8667
#
#
#
# Elastic Compliance Matrix: (Units=1/GPa)
#
#
# Indices 1 2 3 4 5 6 
#
# 1 0.023453 -0.005304 -0.001198 0.000000 0.000000 0.000000
# 2 -0.005304 0.011587 -0.003157 0.000000 0.000000 0.000000
# 3 -0.001198 -0.003157 0.008639 0.000000 0.000000 0.000000
# 4 0.000000 0.000000 0.000000 0.042653 0.000000 0.000000
# 5 0.000000 0.000000 0.000000 0.000000 0.793222 0.000000
# 6 0.000000 0.000000 0.000000 0.000000 0.000000 0.072115
#
#
# Mechanical properties :
#
#
# Convention : Reuss Voigt Hill
#
# Bulk Modulus (GPa) = 41.04890 52.43817 46.74354
# Shear Modulus (GPa) = 5.10670 21.46990 13.28830
#
# Velocity S-wave (km/s) = 1.62939 3.34095 2.62839
# Velocity P-wave (km/s) = 4.98806 6.49189 5.78902
#
# Compressibility (1/GPa) = 0.02436119
#
# Stress axis : x y z
#
# Youngs Moduli (GPa) = 42.63919 86.30384 115.75678
#
# Poissons Ratio (x) = 0.45774 0.13868
# Poissons Ratio (y) = 0.22615 0.36542
# Poissons Ratio (z) = 0.05108 0.27244
#
# Static dielectric constant tensor:
#      x y z
#    x 3.129370 0.000000 0.000000 
#    y 0.000000 3.907840 0.000000 
#    z 0.000000 0.000000 3.585610 
# 
# 
# High freq. dielectric constant tensor:
#      x y z
#    x 1.699050 0.000000 0.000000 
#    y 0.000000 1.774980 0.000000 
#    z 0.000000 0.000000 1.759180 
# 
# From -- ./inp_files/4891.got.cif
#   From: 2010.03.12/outbox.cif.g09.slc.cpg/sg30_3_cif.got.tgz:4891.got - 2010.04.14 01:38:02.
