data_PCOD8169251
_publ_section_title
;
Structure prediction by ZEFSAII (Michael W. Deem and Ramdas Pophale) SiO2 
 PCOD8169251
Probable space group: P C A 21
;
_chemical_formula_sum "Si O2"
_cell_formula_units_Z 28
_cell_length_a 15.469980
_cell_length_b 5.468820
_cell_length_c 13.979714
_cell_angle_alpha 90.000000
_cell_angle_beta 90.000000
_cell_angle_gamma 90.000000
_cell_volume 1182.719257
_symmetry_space_group_name_H-M "P C A 21"
_symmetry_group_IT_number 29
_symmetry_cell_setting 'orthorhombic'
loop_
_space_group_symop_operation_xyz
x,y,z
-x,-y,1/2+z
1/2-x,y,1/2+z
1/2+x,-y,z
loop_
_atom_site_type_symbol
_atom_site_label
_atom_site_fract_x
_atom_site_fract_y
_atom_site_fract_z
Si Si1 0.475646 0.403986 0.399070
Si Si2 0.034986 0.716505 0.600158
Si Si3 0.706511 0.339639 0.891628
Si Si4 0.702929 0.059886 0.232612
Si Si5 0.643986 0.717449 0.395231
Si Si6 0.519623 0.216582 0.203884
Si Si7 0.204213 0.928291 0.547069
O O1 0.480389 0.272371 0.501503
O O2 0.386273 0.543066 0.387600
O O3 0.550907 0.600288 0.387914
O O4 0.485614 0.207051 0.313788
O O5 0.138150 0.712061 0.578613
O O6 0.015445 0.463326 0.654521
O O7 0.011979 0.963514 0.657299
O O8 0.724781 0.206562 0.791572
O O9 0.779940 0.532219 0.913841
O O10 0.715511 0.152903 0.980263
O O11 0.624056 0.236698 0.201410
O O12 0.751775 0.949554 0.140193
O O13 0.660751 0.845926 0.294107
O O14 0.642453 0.892310 0.487269
#
# Coordination Sequence:
#
# PCOD8169251 Si02
#       7
#     4   4   4   4   4   4   4
#     4  12  25  52  78 107 163 198 260 329 390 470
#     4  12  27  47  76 114 149 205 257 315 391 460
#     4  11  25  47  75 105 147 204 257 316 404 449
#     4  11  25  46  73 108 153 199 260 326 382 475
#     4  11  24  49  73 108 150 208 255 323 396 463
#     4  12  27  47  76 114 149 205 257 315 391 460
#     4  11  25  46  73 108 153 199 260 326 382 475
#
# _framework density 23.674257999999998
#
# number of rings (size 3 to 8) (size 9 to 14) (size 15 to 20)
#    0.000    0.571    2.857    4.286    4.000    2.286 
#    5.143    0.000    0.000    0.000    0.000    0.000 
#    0.000    0.000    0.000    0.000    0.000    0.000 
#
# Total GULP energy -347210.238984 kJ/mol
# GULP energy per Si atom -12400.365678 kJ/mol
# Density = 2.362037 g / cm^3
# Si number density = 23.674258 Si / 1000 Ang^3
#
#
#
# Elastic Constant Matrix: (Units=GPa)
#
#
# Indices 1 2 3 4 5 6 
#
# 1 141.9491 20.5078 20.6270 0.0000 0.0000 0.0000
# 2 20.5078 102.8887 34.2150 0.0000 0.0000 0.0000
# 3 20.6270 34.2150 138.4936 0.0000 0.0000 0.0000
# 4 0.0000 0.0000 0.0000 2.1883 0.0000 0.0000
# 5 0.0000 0.0000 0.0000 0.0000 34.4224 0.0000
# 6 0.0000 0.0000 0.0000 0.0000 0.0000 25.0183
#
#
#
# Elastic Compliance Matrix: (Units=1/GPa)
#
#
# Indices 1 2 3 4 5 6 
#
# 1 0.007333 -0.001197 -0.000797 0.000000 0.000000 0.000000
# 2 -0.001197 0.010785 -0.002486 0.000000 0.000000 0.000000
# 3 -0.000797 -0.002486 0.007953 0.000000 0.000000 0.000000
# 4 0.000000 0.000000 0.000000 0.456976 0.000000 0.000000
# 5 0.000000 0.000000 0.000000 0.000000 0.029051 0.000000
# 6 0.000000 0.000000 0.000000 0.000000 0.000000 0.039971
#
#
# Mechanical properties :
#
#
# Convention : Reuss Voigt Hill
#
# Bulk Modulus (GPa) = 58.43701 59.33677 58.88689
# Shear Modulus (GPa) = 8.82251 32.85789 20.84020
#
# Velocity S-wave (km/s) = 1.93254 3.72952 2.97019
# Velocity P-wave (km/s) = 5.45133 6.60787 6.05727
#
# Compressibility (1/GPa) = 0.01711244
#
# Stress axis : x y z
#
# Youngs Moduli (GPa) = 136.36175 92.72550 125.73281
#
# Poissons Ratio (x) = 0.11098 0.10015
# Poissons Ratio (y) = 0.16320 0.31258
# Poissons Ratio (z) = 0.10862 0.23052
#
# Static dielectric constant tensor:
#      x y z
#    x 4.197570 0.000000 0.000000 
#    y 0.000000 4.556980 0.000000 
#    z 0.000000 0.000000 4.681920 
# 
# 
# High freq. dielectric constant tensor:
#      x y z
#    x 1.947650 0.000000 0.000000 
#    y 0.000000 1.928520 0.000000 
#    z 0.000000 0.000000 1.962810 
# 
# From -- ./inp_files/4662.got.cif
#   From: 2010.03.12/outbox.cif.g09.slc.cpg/sg29_3_cif.got.tgz:4662.got - 2010.04.14 03:43:10.
