data_PCOD8169369
_publ_section_title
;
Structure prediction by ZEFSAII (Michael W. Deem and Ramdas Pophale) SiO2 
 PCOD8169369
Probable space group: P N C 2
;
_chemical_formula_sum "Si O2"
_cell_formula_units_Z 32
_cell_length_a 9.284084
_cell_length_b 8.573645
_cell_length_c 22.491426
_cell_angle_alpha 90.000000
_cell_angle_beta 90.000000
_cell_angle_gamma 90.000000
_cell_volume 1790.282431
_symmetry_space_group_name_H-M "P N C 2"
_symmetry_group_IT_number 30
_symmetry_cell_setting 'orthorhombic'
loop_
_space_group_symop_operation_xyz
x,y,z
-x,-y,z
-x,1/2+y,1/2+z
x,1/2-y,1/2+z
loop_
_atom_site_type_symbol
_atom_site_label
_atom_site_fract_x
_atom_site_fract_y
_atom_site_fract_z
Si Si1 0.956866 0.837311 0.997080
Si Si2 0.845772 0.923581 0.424721
Si Si3 0.654037 0.067494 0.196078
Si Si4 0.842983 0.926654 0.294022
Si Si5 0.346793 0.577855 0.154441
Si Si6 0.874364 0.624427 0.216451
Si Si7 0.870791 0.615976 0.623660
Si Si8 0.847682 0.086730 0.537710
O O1 0.870285 0.753746 0.944934
O O2 0.852244 0.852844 0.054030
O O3 0.000000 0.000000 0.968509
O O4 0.107108 0.762077 0.020674
O O5 0.770105 0.924764 0.360155
O O6 0.766052 0.012697 0.479497
O O7 0.000000 0.000000 0.416478
O O8 0.640286 0.247330 0.178460
O O9 0.500000 0.000000 0.211373
O O10 0.749687 0.044773 0.254803
O O11 0.721695 0.962194 0.143834
O O12 0.848592 0.748668 0.269530
O O13 0.000000 0.000000 0.295450
O O14 0.500000 0.500000 0.140484
O O15 0.270719 0.473972 0.205109
O O16 0.255234 0.578602 0.093901
O O17 0.909389 0.722176 0.156731
O O18 0.000000 0.500000 0.231198
O O19 0.000000 0.500000 0.639325
O O20 0.000000 0.000000 0.549807
#
# Coordination Sequence:
#
# PCOD8169369 Si02
#       8
#     4   4   4   4   4   4   4   4
#     4   9  15  26  49  77 102 127 161 206 250 291
#     4   8  17  32  50  72 100 133 168 202 242 294
#     4  11  23  37  51  72 104 139 168 204 257 311
#     4  10  20  36  54  73 101 139 175 204 244 303
#     4  12  22  33  52  79 104 128 167 216 257 298
#     4  11  19  30  50  77 103 131 168 214 253 289
#     4  10  18  31  51  76 105 138 164 197 255 314
#     4   9  18  33  53  76 105 133 161 201 252 304
#
# _framework density 17.874274
#
# number of rings (size 3 to 8) (size 9 to 14) (size 15 to 20)
#    0.000    2.250    0.000    8.625    0.000    1.000 
#    0.000    1.875    0.000    0.000    0.000    3.500 
#    0.000    0.000    0.000    0.000    0.000    0.000 
#
# Total GULP energy -396518.642503 kJ/mol
# GULP energy per Si atom -12391.207578 kJ/mol
# Density = 1.783359 g / cm^3
# Si number density = 17.874274 Si / 1000 Ang^3
#
#
#
# Elastic Constant Matrix: (Units=GPa)
#
#
# Indices 1 2 3 4 5 6 
#
# 1 78.5136 30.6126 33.7843 0.0000 0.0000 0.0000
# 2 30.6126 129.9192 51.8431 0.0000 0.0000 0.0000
# 3 33.7843 51.8431 124.6074 0.0000 0.0000 0.0000
# 4 0.0000 0.0000 0.0000 19.6867 0.0000 0.0000
# 5 0.0000 0.0000 0.0000 0.0000 3.0142 0.0000
# 6 0.0000 0.0000 0.0000 0.0000 0.0000 25.6979
#
#
#
# Elastic Compliance Matrix: (Units=1/GPa)
#
#
# Indices 1 2 3 4 5 6 
#
# 1 0.014965 -0.002287 -0.003106 0.000000 0.000000 0.000000
# 2 -0.002287 0.009579 -0.003365 0.000000 0.000000 0.000000
# 3 -0.003106 -0.003365 0.010267 0.000000 0.000000 0.000000
# 4 0.000000 0.000000 0.000000 0.050796 0.000000 0.000000
# 5 0.000000 0.000000 0.000000 0.000000 0.331763 0.000000
# 6 0.000000 0.000000 0.000000 0.000000 0.000000 0.038914
#
#
# Mechanical properties :
#
#
# Convention : Reuss Voigt Hill
#
# Bulk Modulus (GPa) = 57.81988 62.83557 60.32773
# Shear Modulus (GPa) = 10.42614 24.13310 17.27962
#
# Velocity S-wave (km/s) = 2.41779 3.67844 3.11260
# Velocity P-wave (km/s) = 6.34134 7.29875 6.83682
#
# Compressibility (1/GPa) = 0.01729509
#
# Stress axis : x y z
#
# Youngs Moduli (GPa) = 66.82382 104.39729 97.39533
#
# Poissons Ratio (x) = 0.23873 0.30250
# Poissons Ratio (y) = 0.15281 0.32776
# Poissons Ratio (z) = 0.20755 0.35133
#
# Static dielectric constant tensor:
#      x y z
#    x 3.028520 0.000000 0.000000 
#    y 0.000000 3.593720 0.000000 
#    z 0.000000 0.000000 3.680970 
# 
# 
# High freq. dielectric constant tensor:
#      x y z
#    x 1.651210 0.000000 0.000000 
#    y 0.000000 1.713230 0.000000 
#    z 0.000000 0.000000 1.688260 
# 
# From -- ./inp_files/7372.got.cif
#   From: 2010.03.12/outbox.cif.g09.slc.cpg/sg30_4_cif.got.tgz:7372.got - 2010.04.14 01:38:02.
