data_PCOD8169746
_publ_section_title
;
Structure prediction by ZEFSAII (Michael W. Deem and Ramdas Pophale) SiO2 
 PCOD8169746
Probable space group: P M N 21
;
_chemical_formula_sum "Si O2"
_cell_formula_units_Z 24
_cell_length_a 8.956921
_cell_length_b 10.186404
_cell_length_c 14.073078
_cell_angle_alpha 90.000000
_cell_angle_beta 90.000000
_cell_angle_gamma 90.000000
_cell_volume 1284.010973
_symmetry_space_group_name_H-M "P M N 21"
_symmetry_group_IT_number 31
_symmetry_cell_setting 'orthorhombic'
loop_
_space_group_symop_operation_xyz
x,y,z
1/2-x,-y,1/2+z
-x,y,z
1/2+x,-y,1/2+z
loop_
_atom_site_type_symbol
_atom_site_label
_atom_site_fract_x
_atom_site_fract_y
_atom_site_fract_z
Si Si1 0.322743 0.484502 0.868120
Si Si2 0.822386 0.215471 0.380039
Si Si3 0.827369 0.372610 0.042129
Si Si4 0.178137 0.873909 0.068939
Si Si5 0.827752 0.618846 0.171570
Si Si6 0.177017 0.137922 0.171708
O O1 0.500000 0.485930 0.865052
O O2 0.266381 0.633403 0.885265
O O3 0.265990 0.381450 0.945812
O O4 0.253782 0.430048 0.769502
O O5 0.748023 0.130977 0.463856
O O6 0.766364 0.153002 0.280105
O O7 0.000000 0.206733 0.389667
O O8 0.000000 0.346906 0.017791
O O9 0.802944 0.509721 0.093157
O O10 0.760937 0.257012 0.107467
O O11 0.000000 0.869068 0.058308
O O12 0.242586 0.753280 0.131501
O O13 0.232878 0.003442 0.124187
O O14 0.000000 0.645065 0.192088
O O15 0.000000 0.146913 0.173129
#
# Coordination Sequence:
#
# PCOD8169746 Si02
#       6
#     4   4   4   4   4   4
#     4  10  19  32  53  80 106 134 172 217 257 299
#     4  10  19  34  55  77 103 138 173 210 261 310
#     4  10  18  33  54  76 101 134 174 211 251 303
#     4  10  20  35  55  79 104 135 175 214 253 305
#     4   9  17  31  52  74 100 134 171 206 247 304
#     4   9  19  35  55  76 104 141 173 204 255 319
#
# _framework density 18.691427999999998
#
# number of rings (size 3 to 8) (size 9 to 14) (size 15 to 20)
#    0.000    2.333    3.333    0.000    0.000    1.333 
#    0.000    5.833    0.000    0.000    0.000    0.000 
#    0.000    0.000    0.000    0.000    0.000    0.000 
#
# Total GULP energy -297541.426612 kJ/mol
# GULP energy per Si atom -12397.559442 kJ/mol
# Density = 1.864889 g / cm^3
# Si number density = 18.691428 Si / 1000 Ang^3
#
#
#
# Elastic Constant Matrix: (Units=GPa)
#
#
# Indices 1 2 3 4 5 6 
#
# 1 15.8630 13.5918 20.1383 0.0000 0.0000 0.0000
# 2 13.5918 87.9596 18.2332 0.0000 0.0000 0.0000
# 3 20.1383 18.2332 109.3396 0.0000 0.0000 0.0000
# 4 0.0000 0.0000 0.0000 -8.3603 0.0000 0.0000
# 5 0.0000 0.0000 0.0000 0.0000 29.9686 0.0000
# 6 0.0000 0.0000 0.0000 0.0000 0.0000 17.8984
#
#
#
# Elastic Compliance Matrix: (Units=1/GPa)
#
#
# Indices 1 2 3 4 5 6 
#
# 1 0.091570 -0.011035 -0.015025 0.000000 0.000000 0.000000
# 2 -0.011035 0.013106 -0.000153 0.000000 0.000000 0.000000
# 3 -0.015025 -0.000153 0.011939 0.000000 0.000000 0.000000
# 4 0.000000 0.000000 0.000000 -0.119613 0.000000 0.000000
# 5 0.000000 0.000000 0.000000 0.000000 0.033368 0.000000
# 6 0.000000 0.000000 0.000000 0.000000 0.000000 0.055871
#
#
# Mechanical properties :
#
#
# Convention : Reuss Voigt Hill
#
# Bulk Modulus (GPa) = 15.57933 35.23209 25.40571
# Shear Modulus (GPa) = 31.23769 18.64793 24.94281
#
# Velocity S-wave (km/s) = 4.09250 3.16202 3.65698
# Velocity P-wave (km/s) = 5.53936 5.67639 5.60830
#
# Compressibility (1/GPa) = 0.06418762
#
# Stress axis : x y z
#
# Youngs Moduli (GPa) = 10.92060 76.30228 83.76110
#
# Poissons Ratio (x) = 0.84201 1.25854
# Poissons Ratio (y) = 0.12051 0.01282
# Poissons Ratio (z) = 0.16409 0.01168
#
# Static dielectric constant tensor:
#      x y z
#    x 2.944190 0.000000 0.000000 
#    y 0.000000 3.630220 0.000000 
#    z 0.000000 0.000000 3.620760 
# 
# 
# High freq. dielectric constant tensor:
#      x y z
#    x 1.676090 0.000000 0.000000 
#    y 0.000000 1.728210 0.000000 
#    z 0.000000 0.000000 1.742310 
# 
# From -- ./inp_files/3456.got.cif
#   From: 2010.03.12/outbox.cif.g09.slc.cpg/sg31_2_cif.got.tgz:3456.got - 2010.04.14 01:42:59.
