data_PCOD8169862
_publ_section_title
;
Structure prediction by ZEFSAII (Michael W. Deem and Ramdas Pophale) SiO2 
 PCOD8169862
Probable space group: P M N 21
;
_chemical_formula_sum "Si O2"
_cell_formula_units_Z 32
_cell_length_a 9.051707
_cell_length_b 14.660151
_cell_length_c 12.395463
_cell_angle_alpha 90.000000
_cell_angle_beta 90.000000
_cell_angle_gamma 90.000000
_cell_volume 1644.870397
_symmetry_space_group_name_H-M "P M N 21"
_symmetry_group_IT_number 31
_symmetry_cell_setting 'orthorhombic'
loop_
_space_group_symop_operation_xyz
x,y,z
1/2-x,-y,1/2+z
-x,y,z
1/2+x,-y,1/2+z
loop_
_atom_site_type_symbol
_atom_site_label
_atom_site_fract_x
_atom_site_fract_y
_atom_site_fract_z
Si Si1 0.172704 0.639344 0.236710
Si Si2 0.669732 0.842915 0.728512
Si Si3 0.326365 0.332803 0.496841
Si Si4 0.169219 0.870530 0.931475
Si Si5 0.673611 0.321409 0.139974
Si Si6 0.832634 0.064149 0.009607
Si Si7 0.675171 0.229682 0.919306
Si Si8 0.673071 0.560639 0.801054
O O1 0.235382 0.722663 0.309964
O O2 0.204726 0.547313 0.303734
O O3 0.000000 0.655070 0.222574
O O4 0.237859 0.638688 0.114913
O O5 0.500000 0.810307 0.731598
O O6 0.716712 0.893709 0.836437
O O7 0.779335 0.756912 0.723808
O O8 0.702605 0.910989 0.631906
O O9 0.500000 0.353017 0.485122
O O10 0.291592 0.225046 0.487894
O O11 0.245451 0.391423 0.404841
O O12 0.000000 0.869871 0.890622
O O13 0.199169 0.956331 0.009059
O O14 0.500000 0.339205 0.145272
O O15 0.758362 0.409572 0.185410
O O16 0.727607 0.292453 0.020686
O O17 0.000000 0.086324 0.977462
O O18 0.736227 0.126818 0.928843
O O19 0.500000 0.223685 0.920544
O O20 0.500000 0.582801 0.802372
#
# Coordination Sequence:
#
# PCOD8169862 Si02
#       8
#     4   4   4   4   4   4   4   4
#     4   9  21  39  58  83 116 152 190 235 288 341
#     4  10  19  33  54  80 110 143 187 237 283 332
#     4  10  21  39  60  82 112 152 194 230 282 351
#     4  10  20  35  56  80 112 149 188 234 284 341
#     4  10  19  33  56  81 108 144 187 233 283 338
#     4   9  20  36  54  82 115 149 189 236 288 337
#     4   9  19  37  59  82 111 150 193 234 279 339
#     4  11  22  36  57  84 114 145 186 241 287 333
#
# _framework density 19.454421
#
# number of rings (size 3 to 8) (size 9 to 14) (size 15 to 20)
#    0.000    2.250    1.250    1.125    1.750    2.500 
#    0.000    5.000    0.000    0.000    0.000    0.000 
#    0.000    0.000    0.000    0.000    0.000    0.000 
#
# Total GULP energy -396636.183519 kJ/mol
# GULP energy per Si atom -12394.880735 kJ/mol
# Density = 1.941014 g / cm^3
# Si number density = 19.454421 Si / 1000 Ang^3
#
#
#
# Elastic Constant Matrix: (Units=GPa)
#
#
# Indices 1 2 3 4 5 6 
#
# 1 54.2309 34.2187 35.6563 0.0000 0.0000 0.0000
# 2 34.2187 105.2612 48.2077 0.0000 0.0000 0.0000
# 3 35.6563 48.2077 103.3717 0.0000 0.0000 0.0000
# 4 0.0000 0.0000 0.0000 27.5319 0.0000 0.0000
# 5 0.0000 0.0000 0.0000 0.0000 22.3590 0.0000
# 6 0.0000 0.0000 0.0000 0.0000 0.0000 26.2861
#
#
#
# Elastic Compliance Matrix: (Units=1/GPa)
#
#
# Indices 1 2 3 4 5 6 
#
# 1 0.026182 -0.005564 -0.006436 0.000000 0.000000 0.000000
# 2 -0.005564 0.013263 -0.004266 0.000000 0.000000 0.000000
# 3 -0.006436 -0.004266 0.013883 0.000000 0.000000 0.000000
# 4 0.000000 0.000000 0.000000 0.036322 0.000000 0.000000
# 5 0.000000 0.000000 0.000000 0.000000 0.044725 0.000000
# 6 0.000000 0.000000 0.000000 0.000000 0.000000 0.038043
#
#
# Mechanical properties :
#
#
# Convention : Reuss Voigt Hill
#
# Bulk Modulus (GPa) = 48.08613 55.44771 51.76692
# Shear Modulus (GPa) = 23.59811 24.88747 24.24279
#
# Velocity S-wave (km/s) = 3.48659 3.58057 3.53389
# Velocity P-wave (km/s) = 6.40151 6.75701 6.58166
#
# Compressibility (1/GPa) = 0.02079602
#
# Stress axis : x y z
#
# Youngs Moduli (GPa) = 38.19402 75.40036 72.02832
#
# Poissons Ratio (x) = 0.41950 0.46361
# Poissons Ratio (y) = 0.21250 0.30727
# Poissons Ratio (z) = 0.24584 0.32166
#
# Static dielectric constant tensor:
#      x y z
#    x 3.403240 0.000000 0.000000 
#    y 0.000000 3.632100 0.000000 
#    z 0.000000 0.000000 3.680650 
# 
# 
# High freq. dielectric constant tensor:
#      x y z
#    x 1.740830 0.000000 0.000000 
#    y 0.000000 1.758490 0.000000 
#    z 0.000000 0.000000 1.757960 
# 
# From -- ./inp_files/3663.got.cif
#   From: 2010.03.12/outbox.cif.g09.slc.cpg/sg31_2_cif.got.tgz:3663.got - 2010.04.14 01:42:59.
