data_PCOD8169397
_publ_section_title
;
Structure prediction by ZEFSAII (Michael W. Deem and Ramdas Pophale) SiO2 
 PCOD8169397
Probable space group: P N C 2
;
_chemical_formula_sum "Si O2"
_cell_formula_units_Z 24
_cell_length_a 12.299860
_cell_length_b 18.258707
_cell_length_c 5.176473
_cell_angle_alpha 90.000000
_cell_angle_beta 90.000000
_cell_angle_gamma 90.000000
_cell_volume 1162.529925
_symmetry_space_group_name_H-M "P N C 2"
_symmetry_group_IT_number 30
_symmetry_cell_setting 'orthorhombic'
loop_
_space_group_symop_operation_xyz
x,y,z
-x,-y,z
-x,1/2+y,1/2+z
x,1/2-y,1/2+z
loop_
_atom_site_type_symbol
_atom_site_label
_atom_site_fract_x
_atom_site_fract_y
_atom_site_fract_z
Si Si1 0.895160 0.049021 0.465810
Si Si2 0.436807 0.570942 0.160353
Si Si3 0.470721 0.218667 0.757231
Si Si4 0.902983 0.287818 0.967497
Si Si5 0.762364 0.064154 0.983091
Si Si6 0.678907 0.314399 0.794496
O O1 0.937869 0.130004 0.400680
O O2 0.846535 0.049999 0.752592
O O3 0.807520 0.023962 0.244167
O O4 0.000000 0.000000 0.455345
O O5 0.500000 0.500000 0.050411
O O6 0.518294 0.631351 0.292269
O O7 0.355504 0.538040 0.378275
O O8 0.377954 0.614279 0.928121
O O9 0.408183 0.242034 0.493731
O O10 0.590442 0.255771 0.687715
O O11 0.951857 0.237550 0.739842
O O12 0.769768 0.281730 0.989503
O O13 0.746245 0.150788 0.050855
#
# Coordination Sequence:
#
# PCOD8169397 Si02
#       6
#     4   4   4   4   4   4
#     4  11  24  38  57  84 118 151 185 225 288 347
#     4  11  22  35  53  86 121 154 190 225 275 344
#     4  10  19  32  51  75 110 154 171 223 286 333
#     4  11  20  31  57  86 113 136 179 227 295 350
#     4  11  20  39  55  81 117 153 184 227 281 337
#     4  10  20  33  56  80 118 148 177 235 295 339
#
# _framework density 20.644629999999999
#
# number of rings (size 3 to 8) (size 9 to 14) (size 15 to 20)
#    0.000    1.333    5.000    4.500    2.333    0.667 
#    0.000    0.000    0.000    0.000    0.000   14.000 
#    0.000    0.000    0.000    0.000    0.000    0.000 
#
# Total GULP energy -297338.959294 kJ/mol
# GULP energy per Si atom -12389.123304 kJ/mol
# Density = 2.059764 g / cm^3
# Si number density = 20.644630 Si / 1000 Ang^3
#
#
#
# Elastic Constant Matrix: (Units=GPa)
#
#
# Indices 1 2 3 4 5 6 
#
# 1 25.7712 34.5842 18.0009 0.0000 0.0000 0.0000
# 2 34.5842 112.7239 28.2642 0.0000 0.0000 0.0000
# 3 18.0009 28.2642 132.5302 0.0000 0.0000 0.0000
# 4 0.0000 0.0000 0.0000 24.1746 0.0000 0.0000
# 5 0.0000 0.0000 0.0000 0.0000 15.7935 0.0000
# 6 0.0000 0.0000 0.0000 0.0000 0.0000 33.8512
#
#
#
# Elastic Compliance Matrix: (Units=1/GPa)
#
#
# Indices 1 2 3 4 5 6 
#
# 1 0.069124 -0.019919 -0.005141 0.000000 0.000000 0.000000
# 2 -0.019919 0.015112 -0.000517 0.000000 0.000000 0.000000
# 3 -0.005141 -0.000517 0.008354 0.000000 0.000000 0.000000
# 4 0.000000 0.000000 0.000000 0.041366 0.000000 0.000000
# 5 0.000000 0.000000 0.000000 0.000000 0.063317 0.000000
# 6 0.000000 0.000000 0.000000 0.000000 0.000000 0.029541
#
#
# Mechanical properties :
#
#
# Convention : Reuss Voigt Hill
#
# Bulk Modulus (GPa) = 24.13334 48.08045 36.10690
# Shear Modulus (GPa) = 17.13620 27.44225 22.28922
#
# Velocity S-wave (km/s) = 2.88419 3.64987 3.28939
# Velocity P-wave (km/s) = 4.77564 6.41110 5.65283
#
# Compressibility (1/GPa) = 0.04143645
#
# Stress axis : x y z
#
# Youngs Moduli (GPa) = 14.46676 66.17219 119.70230
#
# Poissons Ratio (x) = 1.31806 0.61537
# Poissons Ratio (y) = 0.28816 0.06194
# Poissons Ratio (z) = 0.07437 0.03424
#
# Static dielectric constant tensor:
#      x y z
#    x 3.105120 0.000000 0.000000 
#    y 0.000000 3.605460 0.000000 
#    z 0.000000 0.000000 4.199710 
# 
# 
# High freq. dielectric constant tensor:
#      x y z
#    x 1.724070 0.000000 0.000000 
#    y 0.000000 1.794790 0.000000 
#    z 0.000000 0.000000 1.845180 
# 
# From -- ./inp_files/698.got.cif
#   From: 2010.03.12/outbox.cif.g09.slc.cpg/sg30_1_cif.got.tgz:698.got - 2010.04.14 01:38:02.
