data_PCOD8169902
_publ_section_title
;
Structure prediction by ZEFSAII (Michael W. Deem and Ramdas Pophale) SiO2 
 PCOD8169902
Probable space group: P M N 21
;
_chemical_formula_sum "Si O2"
_cell_formula_units_Z 28
_cell_length_a 21.519296
_cell_length_b 7.614156
_cell_length_c 8.744944
_cell_angle_alpha 90.000000
_cell_angle_beta 90.000000
_cell_angle_gamma 90.000000
_cell_volume 1432.870240
_symmetry_space_group_name_H-M "P M N 21"
_symmetry_group_IT_number 31
_symmetry_cell_setting 'orthorhombic'
loop_
_space_group_symop_operation_xyz
x,y,z
1/2-x,-y,1/2+z
-x,y,z
1/2+x,-y,1/2+z
loop_
_atom_site_type_symbol
_atom_site_label
_atom_site_fract_x
_atom_site_fract_y
_atom_site_fract_z
Si Si1 0.569016 0.456424 0.264120
Si Si2 0.313326 0.350483 0.393045
Si Si3 0.572345 0.130302 0.051485
Si Si4 0.700443 0.967624 0.504541
Si Si5 0.755335 0.401491 0.674008
Si Si6 0.369728 0.815507 0.240280
Si Si7 0.181827 0.873901 0.330291
O O1 0.500000 0.436533 0.328370
O O2 0.614257 0.401979 0.402783
O O3 0.579802 0.325386 0.120913
O O4 0.581011 0.658387 0.218386
O O5 0.306089 0.146725 0.410735
O O6 0.273232 0.460854 0.513947
O O7 0.286533 0.419916 0.232126
O O8 0.500000 0.088968 0.016000
O O9 0.599796 0.989276 0.170930
O O10 0.611543 0.119803 0.894066
O O11 0.687431 0.988931 0.685938
O O12 0.649869 0.841297 0.420053
O O13 0.771357 0.912119 0.470847
O O14 0.805859 0.243154 0.654471
O O15 0.697556 0.321923 0.770432
#
# Coordination Sequence:
#
# PCOD8169902 Si02
#       7
#     4   4   4   4   4   4   4
#     4  10  22  37  59  85 113 153 200 236 279 352
#     4  10  19  34  55  87 116 147 195 231 296 347
#     4  11  22  39  62  82 115 163 198 239 289 350
#     4  10  20  36  61  88 118 155 189 252 300 356
#     4   9  21  32  57  89 117 151 184 248 299 346
#     4  10  20  39  60  88 115 150 198 244 297 346
#     4  10  21  37  56  89 121 149 200 240 304 355
#
# _framework density 19.541198000000001
#
# number of rings (size 3 to 8) (size 9 to 14) (size 15 to 20)
#    0.000    2.000    1.429    3.000    4.000    2.286 
#    0.000    4.286    0.000    0.000    0.000    0.000 
#    0.000    0.000    0.000    0.000    0.000    0.000 
#
# Total GULP energy -346937.019926 kJ/mol
# GULP energy per Si atom -12390.607855 kJ/mol
# Density = 1.949672 g / cm^3
# Si number density = 19.541198 Si / 1000 Ang^3
#
#
#
# Elastic Constant Matrix: (Units=GPa)
#
#
# Indices 1 2 3 4 5 6 
#
# 1 138.0229 22.5092 53.8903 0.0000 0.0000 0.0000
# 2 22.5092 67.7067 19.7165 0.0000 0.0000 0.0000
# 3 53.8903 19.7165 65.9401 0.0000 0.0000 0.0000
# 4 0.0000 0.0000 0.0000 25.5930 0.0000 0.0000
# 5 0.0000 0.0000 0.0000 0.0000 27.7939 0.0000
# 6 0.0000 0.0000 0.0000 0.0000 0.0000 23.0289
#
#
#
# Elastic Compliance Matrix: (Units=1/GPa)
#
#
# Indices 1 2 3 4 5 6 
#
# 1 0.010716 -0.001109 -0.008426 0.000000 0.000000 0.000000
# 2 -0.001109 0.016293 -0.003966 0.000000 0.000000 0.000000
# 3 -0.008426 -0.003966 0.023237 0.000000 0.000000 0.000000
# 4 0.000000 0.000000 0.000000 0.039073 0.000000 0.000000
# 5 0.000000 0.000000 0.000000 0.000000 0.035979 0.000000
# 6 0.000000 0.000000 0.000000 0.000000 0.000000 0.043424
#
#
# Mechanical properties :
#
#
# Convention : Reuss Voigt Hill
#
# Bulk Modulus (GPa) = 43.01944 51.54464 47.28204
# Shear Modulus (GPa) = 24.57342 26.98674 25.78008
#
# Velocity S-wave (km/s) = 3.55000 3.72024 3.63611
# Velocity P-wave (km/s) = 6.23425 6.69987 6.47125
#
# Compressibility (1/GPa) = 0.02324530
#
# Stress axis : x y z
#
# Youngs Moduli (GPa) = 93.31860 61.37609 43.03407
#
# Poissons Ratio (x) = 0.06805 0.36261
# Poissons Ratio (y) = 0.10347 0.17065
# Poissons Ratio (z) = 0.78632 0.24339
#
# Static dielectric constant tensor:
#      x y z
#    x 3.682270 0.000000 0.000000 
#    y 0.000000 3.630630 0.000000 
#    z 0.000000 0.000000 3.412770 
# 
# 
# High freq. dielectric constant tensor:
#      x y z
#    x 1.758040 0.000000 0.000000 
#    y 0.000000 1.770870 0.000000 
#    z 0.000000 0.000000 1.737710 
# 
# From -- ./inp_files/2940.got.cif
#   From: 2010.03.12/outbox.cif.g09.slc.cpg/sg31_2_cif.got.tgz:2940.got - 2010.04.14 01:42:59.
