data_PCOD8169081
_publ_section_title
;
Structure prediction by ZEFSAII (Michael W. Deem and Ramdas Pophale) SiO2 
 PCOD8169081
Probable space group: P C A 21
;
_chemical_formula_sum "Si O2"
_cell_formula_units_Z 24
_cell_length_a 9.260469
_cell_length_b 10.377102
_cell_length_c 10.693095
_cell_angle_alpha 90.000000
_cell_angle_beta 90.000000
_cell_angle_gamma 90.000000
_cell_volume 1027.572547
_symmetry_space_group_name_H-M "P C A 21"
_symmetry_group_IT_number 29
_symmetry_cell_setting 'orthorhombic'
loop_
_space_group_symop_operation_xyz
x,y,z
-x,-y,1/2+z
1/2-x,y,1/2+z
1/2+x,-y,z
loop_
_atom_site_type_symbol
_atom_site_label
_atom_site_fract_x
_atom_site_fract_y
_atom_site_fract_z
Si Si1 0.921760 0.571179 0.880900
Si Si2 0.339409 0.086746 0.277397
Si Si3 0.448393 0.672958 0.020606
Si Si4 0.290902 0.594775 0.246298
Si Si5 0.749904 0.766932 0.528998
Si Si6 0.155147 0.846370 0.324037
O O1 0.785941 0.539763 0.786710
O O2 0.063466 0.635940 0.821465
O O3 0.981566 0.429038 0.912400
O O4 0.869650 0.657679 0.998752
O O5 0.298100 0.137097 0.138901
O O6 0.276369 0.169006 0.392643
O O7 0.511905 0.082653 0.276325
O O8 0.288329 0.941182 0.301018
O O9 0.340376 0.587270 0.103747
O O10 0.600784 0.708839 0.082937
O O11 0.369022 0.802515 0.969072
O O12 0.182134 0.714931 0.249647
#
# Coordination Sequence:
#
# PCOD8169081 Si02
#       6
#     4   4   4   4   4   4
#     4  11  24  43  70 107 139 186 239 297 369 424
#     4  11  27  47  72 100 149 183 249 291 358 423
#     4  10  24  44  70 103 145 181 248 290 367 430
#     4  11  25  44  72 101 147 186 237 299 360 434
#     4  11  25  45  72 107 141 196 234 300 358 431
#     4  10  27  47  68 108 135 194 239 299 352 432
#
# _framework density 23.356016
#
# number of rings (size 3 to 8) (size 9 to 14) (size 15 to 20)
#    0.000    1.333    1.667    1.000   11.667    4.000 
#    0.000    0.000    0.000    0.000    0.000    0.000 
#    0.000    0.000    0.000    0.000    0.000    0.000 
#
# Total GULP energy -297328.041205 kJ/mol
# GULP energy per Si atom -12388.668384 kJ/mol
# Density = 2.330286 g / cm^3
# Si number density = 23.356016 Si / 1000 Ang^3
#
#
#
# Elastic Constant Matrix: (Units=GPa)
#
#
# Indices 1 2 3 4 5 6 
#
# 1 91.8636 23.3695 25.8249 0.0000 0.0000 0.0000
# 2 23.3695 94.6938 18.6059 0.0000 0.0000 0.0000
# 3 25.8249 18.6059 84.0205 0.0000 0.0000 0.0000
# 4 0.0000 0.0000 0.0000 33.3383 0.0000 0.0000
# 5 0.0000 0.0000 0.0000 0.0000 26.4474 0.0000
# 6 0.0000 0.0000 0.0000 0.0000 0.0000 43.0556
#
#
#
# Elastic Compliance Matrix: (Units=1/GPa)
#
#
# Indices 1 2 3 4 5 6 
#
# 1 0.012424 -0.002421 -0.003283 0.000000 0.000000 0.000000
# 2 -0.002421 0.011513 -0.001805 0.000000 0.000000 0.000000
# 3 -0.003283 -0.001805 0.013311 0.000000 0.000000 0.000000
# 4 0.000000 0.000000 0.000000 0.029995 0.000000 0.000000
# 5 0.000000 0.000000 0.000000 0.000000 0.037811 0.000000
# 6 0.000000 0.000000 0.000000 0.000000 0.000000 0.023226
#
#
# Mechanical properties :
#
#
# Convention : Reuss Voigt Hill
#
# Bulk Modulus (GPa) = 44.98541 45.13094 45.05818
# Shear Modulus (GPa) = 33.17676 34.08677 33.63176
#
# Velocity S-wave (km/s) = 3.77301 3.82441 3.79880
# Velocity P-wave (km/s) = 6.18736 6.23430 6.21087
#
# Compressibility (1/GPa) = 0.02222943
#
# Stress axis : x y z
#
# Youngs Moduli (GPa) = 80.48620 86.86148 75.12815
#
# Poissons Ratio (x) = 0.21031 0.24662
# Poissons Ratio (y) = 0.19488 0.13562
# Poissons Ratio (z) = 0.26421 0.15680
#
# Static dielectric constant tensor:
#      x y z
#    x 4.288370 0.000000 0.000000 
#    y 0.000000 3.974530 0.000000 
#    z 0.000000 0.000000 4.084670 
# 
# 
# High freq. dielectric constant tensor:
#      x y z
#    x 1.933420 0.000000 0.000000 
#    y 0.000000 1.919330 0.000000 
#    z 0.000000 0.000000 1.917060 
# 
# From -- ./inp_files/2833.got.cif
#   From: 2010.03.12/outbox.cif.g09.slc.cpg/sg29_2_cif.got.tgz:2833.got - 2010.04.14 03:43:10.
