data_PCOD8169572
_publ_section_title
;
Structure prediction by ZEFSAII (Michael W. Deem and Ramdas Pophale) SiO2 
 PCOD8169572
Probable space group: P N C 2
;
_chemical_formula_sum "Si O2"
_cell_formula_units_Z 30
_cell_length_a 13.970322
_cell_length_b 9.378848
_cell_length_c 10.926571
_cell_angle_alpha 90.000000
_cell_angle_beta 90.000000
_cell_angle_gamma 90.000000
_cell_volume 1431.659719
_symmetry_space_group_name_H-M "P N C 2"
_symmetry_group_IT_number 30
_symmetry_cell_setting 'orthorhombic'
loop_
_space_group_symop_operation_xyz
x,y,z
-x,-y,z
-x,1/2+y,1/2+z
x,1/2-y,1/2+z
loop_
_atom_site_type_symbol
_atom_site_label
_atom_site_fract_x
_atom_site_fract_y
_atom_site_fract_z
Si Si1 0.000000 0.500000 0.387830
Si Si2 0.145223 0.839356 0.730399
Si Si3 0.213101 0.539509 0.735991
Si Si4 0.405006 0.565341 0.132158
Si Si5 0.685993 0.470122 0.375033
Si Si6 0.591341 0.396453 0.623107
Si Si7 0.789214 0.518651 0.014111
Si Si8 0.171734 0.347310 0.519089
O O1 0.051443 0.618529 0.304739
O O2 0.071475 0.403922 0.467263
O O3 0.150913 0.674816 0.689930
O O4 0.238031 0.860278 0.816907
O O5 0.144959 0.928974 0.605705
O O6 0.326873 0.554379 0.716884
O O7 0.179871 0.406567 0.655902
O O8 0.185943 0.516789 0.875776
O O9 0.500000 0.500000 0.073665
O O10 0.384770 0.489123 0.263888
O O11 0.428060 0.731832 0.152078
O O12 0.320460 0.524326 0.039643
O O13 0.626980 0.397302 0.483172
O O14 0.741915 0.606589 0.428604
O O15 0.500000 0.500000 0.640905
O O16 0.818718 0.680339 0.036955
#
# Coordination Sequence:
#
# PCOD8169572 Si02
#       8
#     2   4   4   4   4   4   4   4
#     4  10  24  46  74 100 140 166 238 284 340 414
#     4  10  22  44  72  95 131 184 219 282 344 412
#     4  11  24  44  69  94 137 179 222 271 352 406
#     4  11  24  38  62  95 132 173 230 280 328 400
#     4   9  20  42  64  83 133 180 218 269 348 394
#     4  11  23  39  63  96 129 173 230 278 332 400
#     4  11  25  44  68  98 137 180 228 272 351 412
#     4  10  25  43  70  98 134 181 222 285 344 410
#
# _framework density 20.954702000000001
#
# number of rings (size 3 to 8) (size 9 to 14) (size 15 to 20)
#    0.000    1.600    2.667    1.200   13.067    1.600 
#    0.000    0.000    0.000    0.000    0.000    0.000 
#    0.000    0.000    0.000    0.000    0.000    0.000 
#
# Total GULP energy -371932.729599 kJ/mol
# GULP energy per Si atom -12397.757653 kJ/mol
# Density = 2.090701 g / cm^3
# Si number density = 20.954702 Si / 1000 Ang^3
#
#
#
# Elastic Constant Matrix: (Units=GPa)
#
#
# Indices 1 2 3 4 5 6 
#
# 1 102.8881 50.3027 34.0102 0.0000 0.0000 0.0000
# 2 50.3027 161.3396 63.8580 0.0000 0.0000 0.0000
# 3 34.0102 63.8580 131.9899 0.0000 0.0000 0.0000
# 4 0.0000 0.0000 0.0000 31.2254 0.0000 0.0000
# 5 0.0000 0.0000 0.0000 0.0000 13.2135 0.0000
# 6 0.0000 0.0000 0.0000 0.0000 0.0000 29.2285
#
#
#
# Elastic Compliance Matrix: (Units=1/GPa)
#
#
# Indices 1 2 3 4 5 6 
#
# 1 0.011718 -0.003041 -0.001548 0.000000 0.000000 0.000000
# 2 -0.003041 0.008455 -0.003307 0.000000 0.000000 0.000000
# 3 -0.001548 -0.003307 0.009575 0.000000 0.000000 0.000000
# 4 0.000000 0.000000 0.000000 0.032025 0.000000 0.000000
# 5 0.000000 0.000000 0.000000 0.000000 0.075680 0.000000
# 6 0.000000 0.000000 0.000000 0.000000 0.000000 0.034213
#
#
# Mechanical properties :
#
#
# Convention : Reuss Voigt Hill
#
# Bulk Modulus (GPa) = 71.65351 76.95104 74.30227
# Shear Modulus (GPa) = 26.02666 31.26992 28.64829
#
# Velocity S-wave (km/s) = 3.52809 3.86717 3.70151
# Velocity P-wave (km/s) = 7.13199 7.53275 7.33511
#
# Compressibility (1/GPa) = 0.01395605
#
# Stress axis : x y z
#
# Youngs Moduli (GPa) = 85.34153 118.27223 104.43500
#
# Poissons Ratio (x) = 0.35961 0.16169
# Poissons Ratio (y) = 0.25948 0.34539
# Poissons Ratio (z) = 0.13213 0.39115
#
# Static dielectric constant tensor:
#      x y z
#    x 3.827940 0.000000 0.000000 
#    y 0.000000 3.710630 0.000000 
#    z 0.000000 0.000000 3.882610 
# 
# 
# High freq. dielectric constant tensor:
#      x y z
#    x 1.814530 0.000000 0.000000 
#    y 0.000000 1.819630 0.000000 
#    z 0.000000 0.000000 1.831310 
# 
# From -- ./inp_files/4365.got.cif
#   From: 2010.03.12/outbox.cif.g09.slc.cpg/sg30_3_cif.got.tgz:4365.got - 2010.04.14 01:38:02.
