data_PCOD8169391
_publ_section_title
;
Structure prediction by ZEFSAII (Michael W. Deem and Ramdas Pophale) SiO2 
 PCOD8169391
Probable space group: P N C 2
;
_chemical_formula_sum "Si O2"
_cell_formula_units_Z 32
_cell_length_a 8.718025
_cell_length_b 11.476554
_cell_length_c 14.812931
_cell_angle_alpha 90.000000
_cell_angle_beta 90.000000
_cell_angle_gamma 90.000000
_cell_volume 1482.076477
_symmetry_space_group_name_H-M "P N C 2"
_symmetry_group_IT_number 30
_symmetry_cell_setting 'orthorhombic'
loop_
_space_group_symop_operation_xyz
x,y,z
-x,-y,z
-x,1/2+y,1/2+z
x,1/2-y,1/2+z
loop_
_atom_site_type_symbol
_atom_site_label
_atom_site_fract_x
_atom_site_fract_y
_atom_site_fract_z
Si Si1 0.528603 0.137169 0.889080
Si Si2 0.155163 0.952812 0.695297
Si Si3 0.326794 0.341573 0.224930
Si Si4 0.008412 0.729743 0.736934
Si Si5 0.825488 0.230293 0.415459
Si Si6 0.671381 0.733096 0.027029
Si Si7 0.025600 0.370022 0.553106
Si Si8 0.171974 0.495803 0.987880
O O1 0.447173 0.193647 0.801254
O O2 0.708001 0.170423 0.881384
O O3 0.500000 0.000000 0.901877
O O4 0.468874 0.205981 0.976803
O O5 0.147091 0.815014 0.703856
O O6 0.304251 0.016724 0.738504
O O7 0.157252 0.000045 0.594418
O O8 0.000000 0.000000 0.743476
O O9 0.389549 0.307776 0.125747
O O10 0.160826 0.284266 0.240198
O O11 0.056375 0.691034 0.836586
O O12 0.011310 0.629745 0.660642
O O13 0.918735 0.279643 0.500309
O O14 0.741649 0.110202 0.447503
O O15 0.800550 0.831660 0.037047
O O16 0.735201 0.623341 0.967745
O O17 0.000000 0.500000 0.515661
O O18 0.000000 0.500000 0.946278
#
# Coordination Sequence:
#
# PCOD8169391 Si02
#       8
#     4   4   4   4   4   4   4   4
#     4  12  26  43  60  95 137 176 214 258 320 395
#     4   8  14  32  61  88 114 149 207 270 306 349
#     4   9  20  39  65  91 120 169 218 264 312 374
#     4  10  20  37  63  94 124 162 214 272 321 373
#     4  12  24  37  65  97 130 171 211 267 319 385
#     4  10  22  44  70  89 128 172 214 272 321 374
#     4  11  22  41  65  98 128 168 216 266 329 389
#     4  10  18  38  67  94 118 153 216 277 317 359
#
# _framework density 21.591329000000002
#
# number of rings (size 3 to 8) (size 9 to 14) (size 15 to 20)
#    0.000    1.750    2.500    3.750    0.000    3.500 
#    6.750    0.000    0.000    0.000    0.000    0.000 
#    0.000    0.000    0.000    0.000    0.000    0.000 
#
# Total GULP energy -396519.314250 kJ/mol
# GULP energy per Si atom -12391.228570 kJ/mol
# Density = 2.154219 g / cm^3
# Si number density = 21.591329 Si / 1000 Ang^3
#
#
#
# Elastic Constant Matrix: (Units=GPa)
#
#
# Indices 1 2 3 4 5 6 
#
# 1 45.3705 -6.5768 26.0119 0.0000 0.0000 0.0000
# 2 -6.5768 84.8296 16.2543 0.0000 0.0000 0.0000
# 3 26.0119 16.2543 87.2198 0.0000 0.0000 0.0000
# 4 0.0000 0.0000 0.0000 24.2222 0.0000 0.0000
# 5 0.0000 0.0000 0.0000 0.0000 27.6214 0.0000
# 6 0.0000 0.0000 0.0000 0.0000 0.0000 21.6162
#
#
#
# Elastic Compliance Matrix: (Units=1/GPa)
#
#
# Indices 1 2 3 4 5 6 
#
# 1 0.027764 0.003878 -0.009003 0.000000 0.000000 0.000000
# 2 0.003878 0.012766 -0.003536 0.000000 0.000000 0.000000
# 3 -0.009003 -0.003536 0.014809 0.000000 0.000000 0.000000
# 4 0.000000 0.000000 0.000000 0.041284 0.000000 0.000000
# 5 0.000000 0.000000 0.000000 0.000000 0.036204 0.000000
# 6 0.000000 0.000000 0.000000 0.000000 0.000000 0.046262
#
#
# Mechanical properties :
#
#
# Convention : Reuss Voigt Hill
#
# Bulk Modulus (GPa) = 26.30319 32.08874 29.19597
# Shear Modulus (GPa) = 23.91378 26.80731 25.36054
#
# Velocity S-wave (km/s) = 3.33162 3.52743 3.43092
# Velocity P-wave (km/s) = 5.19695 5.61110 5.40799
#
# Compressibility (1/GPa) = 0.03801820
#
# Stress axis : x y z
#
# Youngs Moduli (GPa) = 36.01735 78.33046 67.52588
#
# Poissons Ratio (x) = -0.30373 0.60793
# Poissons Ratio (y) = -0.13966 0.23874
# Poissons Ratio (z) = 0.32426 0.27694
#
# Static dielectric constant tensor:
#      x y z
#    x 3.700710 0.000000 0.000000 
#    y 0.000000 3.889790 0.000000 
#    z 0.000000 0.000000 3.859920 
# 
# 
# High freq. dielectric constant tensor:
#      x y z
#    x 1.826940 0.000000 0.000000 
#    y 0.000000 1.843800 0.000000 
#    z 0.000000 0.000000 1.847460 
# 
# From -- ./inp_files/5227.got.cif
#   From: 2010.03.12/outbox.cif.g09.slc.cpg/sg30_3_cif.got.tgz:5227.got - 2010.04.14 01:38:02.
