data_PCOD8169069
_publ_section_title
;
Structure prediction by ZEFSAII (Michael W. Deem and Ramdas Pophale) SiO2 
 PCOD8169069
Probable space group: P C A 21
;
_chemical_formula_sum "Si O2"
_cell_formula_units_Z 32
_cell_length_a 15.941915
_cell_length_b 6.761495
_cell_length_c 13.515453
_cell_angle_alpha 90.000000
_cell_angle_beta 90.000000
_cell_angle_gamma 90.000000
_cell_volume 1456.846608
_symmetry_space_group_name_H-M "P C A 21"
_symmetry_group_IT_number 29
_symmetry_cell_setting 'orthorhombic'
loop_
_space_group_symop_operation_xyz
x,y,z
-x,-y,1/2+z
1/2-x,y,1/2+z
1/2+x,-y,z
loop_
_atom_site_type_symbol
_atom_site_label
_atom_site_fract_x
_atom_site_fract_y
_atom_site_fract_z
Si Si1 0.119084 0.628292 0.596030
Si Si2 0.494037 0.671625 0.520100
Si Si3 0.512072 0.935157 0.140553
Si Si4 0.687091 0.048887 0.481017
Si Si5 0.165878 0.124054 0.865664
Si Si6 0.479146 0.038048 0.860548
Si Si7 0.134599 0.356289 0.043497
Si Si8 0.791712 0.736888 0.154209
O O1 0.154126 0.462453 0.669728
O O2 0.059096 0.507916 0.522375
O O3 0.071635 0.802868 0.655188
O O4 0.192902 0.736626 0.533999
O O5 0.404261 0.574910 0.545532
O O6 0.510393 0.846875 0.599719
O O7 0.498633 0.749680 0.407975
O O8 0.570838 0.827609 0.061097
O O9 0.554101 0.946728 0.248453
O O10 0.771277 0.037526 0.415115
O O11 0.680097 0.871029 0.560963
O O12 0.598078 0.055533 0.422235
O O13 0.066841 0.080103 0.861449
O O14 0.202965 0.147473 0.756508
O O15 0.175259 0.318692 0.935050
O O16 0.198640 0.342007 0.134164
#
# Coordination Sequence:
#
# PCOD8169069 Si02
#       8
#     4   4   4   4   4   4   4   4
#     4  11  21  41  65  93 134 174 219 282 346 405
#     4  11  22  43  65  98 130 176 228 285 340 415
#     4  11  23  43  67  95 135 178 225 285 350 413
#     4  11  24  46  66  98 142 178 225 292 349 414
#     4  11  24  42  71 100 135 184 233 279 356 420
#     4  12  22  42  71  95 135 183 225 279 349 413
#     4  10  24  43  66  96 137 174 232 289 346 413
#     4  11  24  44  65  99 140 179 229 291 348 421
#
# _framework density 21.965250000000001
#
# number of rings (size 3 to 8) (size 9 to 14) (size 15 to 20)
#    0.000    1.000    3.750    3.000    3.500    0.000 
#    4.500    1.250    0.000    0.000    0.000    0.000 
#    0.000    0.000    0.000    0.000    0.000    0.000 
#
# Total GULP energy -396508.839150 kJ/mol
# GULP energy per Si atom -12390.901223 kJ/mol
# Density = 2.191526 g / cm^3
# Si number density = 21.965250 Si / 1000 Ang^3
#
#
#
# Elastic Constant Matrix: (Units=GPa)
#
#
# Indices 1 2 3 4 5 6 
#
# 1 66.1423 2.2349 7.3395 0.0000 0.0000 0.0000
# 2 2.2349 98.0221 24.0088 0.0000 0.0000 0.0000
# 3 7.3395 24.0088 121.6743 0.0000 0.0000 0.0000
# 4 0.0000 0.0000 0.0000 25.2284 0.0000 0.0000
# 5 0.0000 0.0000 0.0000 0.0000 30.6953 0.0000
# 6 0.0000 0.0000 0.0000 0.0000 0.0000 33.3691
#
#
#
# Elastic Compliance Matrix: (Units=1/GPa)
#
#
# Indices 1 2 3 4 5 6 
#
# 1 0.015222 -0.000128 -0.000893 0.000000 0.000000 0.000000
# 2 -0.000128 0.010721 -0.002108 0.000000 0.000000 0.000000
# 3 -0.000893 -0.002108 0.008688 0.000000 0.000000 0.000000
# 4 0.000000 0.000000 0.000000 0.039638 0.000000 0.000000
# 5 0.000000 0.000000 0.000000 0.000000 0.032578 0.000000
# 6 0.000000 0.000000 0.000000 0.000000 0.000000 0.029968
#
#
# Mechanical properties :
#
#
# Convention : Reuss Voigt Hill
#
# Bulk Modulus (GPa) = 35.24385 39.22279 37.23332
# Shear Modulus (GPa) = 32.78011 34.67560 33.72785
#
# Velocity S-wave (km/s) = 3.86730 3.97754 3.92281
# Velocity P-wave (km/s) = 6.00179 6.24419 6.12419
#
# Compressibility (1/GPa) = 0.02837374
#
# Stress axis : x y z
#
# Youngs Moduli (GPa) = 65.69296 93.27523 115.09571
#
# Poissons Ratio (x) = 0.01197 0.10277
# Poissons Ratio (y) = 0.00843 0.24259
# Poissons Ratio (z) = 0.05866 0.19660
#
# Static dielectric constant tensor:
#      x y z
#    x 4.185910 0.000000 0.000000 
#    y 0.000000 3.904800 0.000000 
#    z 0.000000 0.000000 3.902940 
# 
# 
# High freq. dielectric constant tensor:
#      x y z
#    x 1.874580 0.000000 0.000000 
#    y 0.000000 1.857930 0.000000 
#    z 0.000000 0.000000 1.854790 
# 
# From -- ./inp_files/4785.got.cif
#   From: 2010.03.12/outbox.cif.g09.slc.cpg/sg29_3_cif.got.tgz:4785.got - 2010.04.14 03:43:10.
