data_PCOD8169356
_publ_section_title
;
Structure prediction by ZEFSAII (Michael W. Deem and Ramdas Pophale) SiO2 
 PCOD8169356
Probable space group: P C A 21
;
_chemical_formula_sum "Si O2"
_cell_formula_units_Z 32
_cell_length_a 15.213599
_cell_length_b 8.093922
_cell_length_c 13.398323
_cell_angle_alpha 90.000000
_cell_angle_beta 90.000000
_cell_angle_gamma 90.000000
_cell_volume 1649.838459
_symmetry_space_group_name_H-M "P C A 21"
_symmetry_group_IT_number 29
_symmetry_cell_setting 'orthorhombic'
loop_
_space_group_symop_operation_xyz
x,y,z
-x,-y,1/2+z
1/2-x,y,1/2+z
1/2+x,-y,z
loop_
_atom_site_type_symbol
_atom_site_label
_atom_site_fract_x
_atom_site_fract_y
_atom_site_fract_z
Si Si1 0.118243 0.065325 0.192280
Si Si2 0.618243 0.934675 0.594815
Si Si3 0.908926 0.523991 0.508625
Si Si4 0.408927 0.476009 0.278470
Si Si5 0.541483 0.264437 0.626919
Si Si6 0.708242 0.826905 0.782769
Si Si7 0.791758 0.826905 0.504327
Si Si8 0.958517 0.264437 0.660177
O O1 0.187406 0.152667 0.266118
O O2 0.155544 0.057081 0.079584
O O3 0.030384 0.173796 0.196846
O O4 0.099035 0.873640 0.218789
O O5 0.655543 0.942919 0.707512
O O6 0.687406 0.847333 0.520977
O O7 0.530384 0.826204 0.590249
O O8 0.599034 0.126360 0.568307
O O9 0.920235 0.467508 0.393548
O O10 0.821563 0.636628 0.520841
O O11 0.898178 0.369799 0.583888
O O12 0.996333 0.623841 0.542004
O O13 0.398178 0.630201 0.203208
O O14 0.321563 0.363372 0.266255
O O15 0.496333 0.376159 0.245091
O O16 0.683612 0.885193 0.893548
#
# Coordination Sequence:
#
# PCOD8169356 Si02
#       8
#     4   4   4   4   4   4   4   4
#     4   9  18  33  52  74 102 136 172 212 253 299
#     4   9  18  33  52  74 102 136 172 212 253 299
#     4   9  18  33  52  75 104 135 167 209 260 307
#     4   9  18  33  52  75 104 135 167 209 260 307
#     4   9  18  33  53  76 102 133 171 211 254 303
#     4   9  18  33  51  72 102 137 170 207 253 301
#     4   9  18  33  51  72 102 137 170 207 253 301
#     4   9  18  33  53  76 102 133 171 211 254 303
#
# _framework density 19.395838999999999
#
# number of rings (size 3 to 8) (size 9 to 14) (size 15 to 20)
#    0.000    3.000    0.000    0.000    0.000    3.000 
#    0.000   20.000    0.000    0.000    0.000    0.000 
#    0.000    0.000    0.000    0.000    0.000    0.000 
#
# Total GULP energy -396618.698610 kJ/mol
# GULP energy per Si atom -12394.334332 kJ/mol
# Density = 1.935169 g / cm^3
# Si number density = 19.395839 Si / 1000 Ang^3
#
#
#
# Elastic Constant Matrix: (Units=GPa)
#
#
# Indices 1 2 3 4 5 6 
#
# 1 76.1298 33.7509 15.1087 0.0000 0.0000 0.0000
# 2 33.7509 85.4537 20.7706 0.0000 0.0000 0.0000
# 3 15.1087 20.7706 72.8497 0.0000 0.0000 0.0000
# 4 0.0000 0.0000 0.0000 20.6279 0.0000 0.0000
# 5 0.0000 0.0000 0.0000 0.0000 18.0166 0.0000
# 6 0.0000 0.0000 0.0000 0.0000 0.0000 29.7302
#
#
#
# Elastic Compliance Matrix: (Units=1/GPa)
#
#
# Indices 1 2 3 4 5 6 
#
# 1 0.016104 -0.005962 -0.001640 0.000000 0.000000 0.000000
# 2 -0.005962 0.014781 -0.002978 0.000000 0.000000 0.000000
# 3 -0.001640 -0.002978 0.014916 0.000000 0.000000 0.000000
# 4 0.000000 0.000000 0.000000 0.048478 0.000000 0.000000
# 5 0.000000 0.000000 0.000000 0.000000 0.055504 0.000000
# 6 0.000000 0.000000 0.000000 0.000000 0.000000 0.033636
#
#
# Mechanical properties :
#
#
# Convention : Reuss Voigt Hill
#
# Bulk Modulus (GPa) = 40.58207 41.52153 41.05180
# Shear Modulus (GPa) = 23.49712 24.66181 24.07946
#
# Velocity S-wave (km/s) = 3.48437 3.56968 3.52728
# Velocity P-wave (km/s) = 6.09559 6.20033 6.14818
#
# Compressibility (1/GPa) = 0.02464143
#
# Stress axis : x y z
#
# Youngs Moduli (GPa) = 62.09625 67.65574 67.04189
#
# Poissons Ratio (x) = 0.40335 0.10996
# Poissons Ratio (y) = 0.37021 0.19963
# Poissons Ratio (z) = 0.10184 0.20146
#
# Static dielectric constant tensor:
#      x y z
#    x 3.523640 0.000000 0.000000 
#    y 0.000000 3.518930 0.000000 
#    z 0.000000 0.000000 3.435800 
# 
# 
# High freq. dielectric constant tensor:
#      x y z
#    x 1.740920 0.000000 0.000000 
#    y 0.000000 1.747730 0.000000 
#    z 0.000000 0.000000 1.740530 
# 
# From -- ./inp_files/4740.got.cif
#   From: 2010.03.12/outbox.cif.g09.slc.cpg/sg29_3_cif.got.tgz:4740.got - 2010.04.14 03:43:10.
