data_PCOD8169622
_publ_section_title
;
Structure prediction by ZEFSAII (Michael W. Deem and Ramdas Pophale) SiO2 
 PCOD8169622
Probable space group: P N C 2
;
_chemical_formula_sum "Si O2"
_cell_formula_units_Z 30
_cell_length_a 12.139731
_cell_length_b 13.851026
_cell_length_c 8.478144
_cell_angle_alpha 90.000000
_cell_angle_beta 90.000000
_cell_angle_gamma 90.000000
_cell_volume 1425.580666
_symmetry_space_group_name_H-M "P N C 2"
_symmetry_group_IT_number 30
_symmetry_cell_setting 'orthorhombic'
loop_
_space_group_symop_operation_xyz
x,y,z
-x,-y,z
-x,1/2+y,1/2+z
x,1/2-y,1/2+z
loop_
_atom_site_type_symbol
_atom_site_label
_atom_site_fract_x
_atom_site_fract_y
_atom_site_fract_z
Si Si1 0.000000 0.000000 0.880661
Si Si2 0.025953 0.179363 0.686332
Si Si3 0.525996 0.203790 0.711856
Si Si4 0.368735 0.290563 0.968647
Si Si5 0.830384 0.457369 0.627998
Si Si6 0.775151 0.828235 0.192843
Si Si7 0.674133 0.319073 0.480557
Si Si8 0.879807 0.308434 0.891554
O O1 0.060229 0.078035 0.767840
O O2 0.920275 0.062959 0.992626
O O3 0.133795 0.244947 0.686933
O O4 0.924800 0.227136 0.776617
O O5 0.976229 0.162229 0.512879
O O6 0.454860 0.257058 0.840959
O O7 0.439411 0.144381 0.597453
O O8 0.581239 0.282274 0.598655
O O9 0.621607 0.148881 0.810246
O O10 0.272096 0.343883 0.871440
O O11 0.318365 0.200318 0.066563
O O12 0.829603 0.571673 0.647472
O O13 0.716849 0.417257 0.558428
O O14 0.856402 0.405592 0.792829
O O15 0.767719 0.235488 0.466057
#
# Coordination Sequence:
#
# PCOD8169622 Si02
#       8
#     2   4   4   4   4   4   4   4
#     4  12  26  42  60 100 134 182 226 268 320 400
#     4  12  24  41  65  95 136 177 220 270 328 398
#     4   9  19  37  70  90 120 173 212 272 341 374
#     4   9  20  41  65  91 124 170 218 267 332 399
#     4  12  24  40  66  96 136 176 228 269 332 401
#     4  11  23  41  66  91 133 179 216 265 335 402
#     4  11  19  38  67  96 123 167 214 273 335 382
#     4  12  22  40  64  97 132 169 215 276 329 389
#
# _framework density 21.044056000000001
#
# number of rings (size 3 to 8) (size 9 to 14) (size 15 to 20)
#    0.000    1.067    4.000    3.200    0.000    2.667 
#    0.000    6.000    2.933    0.000    0.000    0.000 
#    0.000    0.000    0.000    0.000    0.000    0.000 
#
# Total GULP energy -371650.847364 kJ/mol
# GULP energy per Si atom -12388.361579 kJ/mol
# Density = 2.099616 g / cm^3
# Si number density = 21.044056 Si / 1000 Ang^3
#
#
#
# Elastic Constant Matrix: (Units=GPa)
#
#
# Indices 1 2 3 4 5 6 
#
# 1 111.3205 32.0738 61.8339 0.0000 0.0000 0.0000
# 2 32.0738 86.6010 35.2831 0.0000 0.0000 0.0000
# 3 61.8339 35.2831 139.2639 0.0000 0.0000 0.0000
# 4 0.0000 0.0000 0.0000 25.9637 0.0000 0.0000
# 5 0.0000 0.0000 0.0000 0.0000 54.1480 0.0000
# 6 0.0000 0.0000 0.0000 0.0000 0.0000 15.0780
#
#
#
# Elastic Compliance Matrix: (Units=1/GPa)
#
#
# Indices 1 2 3 4 5 6 
#
# 1 0.012438 -0.002628 -0.004857 0.000000 0.000000 0.000000
# 2 -0.002628 0.013432 -0.002236 0.000000 0.000000 0.000000
# 3 -0.004857 -0.002236 0.009904 0.000000 0.000000 0.000000
# 4 0.000000 0.000000 0.000000 0.038515 0.000000 0.000000
# 5 0.000000 0.000000 0.000000 0.000000 0.018468 0.000000
# 6 0.000000 0.000000 0.000000 0.000000 0.000000 0.066322
#
#
# Mechanical properties :
#
#
# Convention : Reuss Voigt Hill
#
# Bulk Modulus (GPa) = 61.23106 66.17410 63.70258
# Shear Modulus (GPa) = 27.17933 32.90424 30.04179
#
# Velocity S-wave (km/s) = 3.59771 3.95851 3.78241
# Velocity P-wave (km/s) = 6.81306 7.23926 7.02939
#
# Compressibility (1/GPa) = 0.01633158
#
# Stress axis : x y z
#
# Youngs Moduli (GPa) = 80.39932 74.45172 100.97366
#
# Poissons Ratio (x) = 0.19564 0.49040
# Poissons Ratio (y) = 0.21127 0.22579
# Poissons Ratio (z) = 0.39048 0.16649
#
# Static dielectric constant tensor:
#      x y z
#    x 4.275650 0.000000 0.000000 
#    y 0.000000 3.408680 0.000000 
#    z 0.000000 0.000000 4.642040 
# 
# 
# High freq. dielectric constant tensor:
#      x y z
#    x 1.843940 0.000000 0.000000 
#    y 0.000000 1.771460 0.000000 
#    z 0.000000 0.000000 1.858220 
# 
# From -- ./inp_files/2453.got.cif
#   From: 2010.03.12/outbox.cif.g09.slc.cpg/sg30_2_cif.got.tgz:2453.got - 2010.04.14 01:38:02.
