data_PCOD8169554
_publ_section_title
;
Structure prediction by ZEFSAII (Michael W. Deem and Ramdas Pophale) SiO2 
 PCOD8169554
Probable space group: P N C 2
;
_chemical_formula_sum "Si O2"
_cell_formula_units_Z 28
_cell_length_a 16.387185
_cell_length_b 8.758784
_cell_length_c 9.052255
_cell_angle_alpha 90.000000
_cell_angle_beta 90.000000
_cell_angle_gamma 90.000000
_cell_volume 1299.286579
_symmetry_space_group_name_H-M "P N C 2"
_symmetry_group_IT_number 30
_symmetry_cell_setting 'orthorhombic'
loop_
_space_group_symop_operation_xyz
x,y,z
-x,-y,z
-x,1/2+y,1/2+z
x,1/2-y,1/2+z
loop_
_atom_site_type_symbol
_atom_site_label
_atom_site_fract_x
_atom_site_fract_y
_atom_site_fract_z
Si Si1 0.768406 0.135613 0.696060
Si Si2 0.500000 0.500000 0.815799
Si Si3 0.500000 0.500000 0.323521
Si Si4 0.755390 0.438536 0.529105
Si Si5 0.614604 0.008097 0.570237
Si Si6 0.401417 0.151335 0.070156
Si Si7 0.074588 0.396327 0.512047
Si Si8 0.922889 0.582557 0.176270
O O1 0.774725 0.312031 0.652647
O O2 0.704898 0.070633 0.577144
O O3 0.849315 0.037638 0.669305
O O4 0.738673 0.126925 0.865373
O O5 0.542288 0.626943 0.713860
O O6 0.430800 0.571926 0.923930
O O7 0.433126 0.573972 0.213538
O O8 0.543773 0.625782 0.425009
O O9 0.677925 0.542056 0.575295
O O10 0.838185 0.529590 0.529169
O O11 0.624200 0.825846 0.569852
O O12 0.054766 0.366953 0.341643
O O13 0.089932 0.235570 0.587402
O O14 0.000000 0.500000 0.579292
O O15 0.000000 0.500000 0.102647
#
# Coordination Sequence:
#
# PCOD8169554 Si02
#       8
#     4   2   2   4   4   4   4   4
#     4  11  25  42  63  95 131 168 211 264 316 376
#     4  10  26  38  64  96 116 166 212 256 334 374
#     4  10  22  42  60  92 124 158 204 272 314 378
#     4  11  25  42  63  95 131 168 211 264 316 376
#     4  11  23  43  65  90 123 164 211 265 315 384
#     4  11  23  43  65  90 123 164 211 265 315 384
#     4  10  22  42  68  99 134 171 213 260 312 374
#     4  10  22  42  68  99 134 171 213 260 312 374
#
# _framework density 21.550287999999998
#
# number of rings (size 3 to 8) (size 9 to 14) (size 15 to 20)
#    0.000    1.429    1.429    2.571    2.000    8.571 
#    0.000    0.000    0.000    0.000    0.000    0.000 
#    0.000    0.000    0.000    0.000    0.000    0.000 
#
# Total GULP energy -347067.014029 kJ/mol
# GULP energy per Si atom -12395.250501 kJ/mol
# Density = 2.150124 g / cm^3
# Si number density = 21.550288 Si / 1000 Ang^3
#
#
#
# Elastic Constant Matrix: (Units=GPa)
#
#
# Indices 1 2 3 4 5 6 
#
# 1 101.5287 25.3939 42.1268 0.0000 0.0000 0.0000
# 2 25.3939 95.3433 37.9830 0.0000 0.0000 0.0000
# 3 42.1268 37.9830 109.8578 0.0000 0.0000 0.0000
# 4 0.0000 0.0000 0.0000 24.2802 0.0000 0.0000
# 5 0.0000 0.0000 0.0000 0.0000 171.2056 0.0000
# 6 0.0000 0.0000 0.0000 0.0000 0.0000 28.0558
#
#
#
# Elastic Compliance Matrix: (Units=1/GPa)
#
#
# Indices 1 2 3 4 5 6 
#
# 1 0.011912 -0.001569 -0.004025 0.000000 0.000000 0.000000
# 2 -0.001569 0.012371 -0.003675 0.000000 0.000000 0.000000
# 3 -0.004025 -0.003675 0.011917 0.000000 0.000000 0.000000
# 4 0.000000 0.000000 0.000000 0.041186 0.000000 0.000000
# 5 0.000000 0.000000 0.000000 0.000000 0.005841 0.000000
# 6 0.000000 0.000000 0.000000 0.000000 0.000000 0.035643
#
#
# Mechanical properties :
#
#
# Convention : Reuss Voigt Hill
#
# Bulk Modulus (GPa) = 56.62516 57.52634 57.07575
# Shear Modulus (GPa) = 34.89281 58.12339 46.50810
#
# Velocity S-wave (km/s) = 4.02821 5.19900 4.65060
# Velocity P-wave (km/s) = 6.92591 7.92410 7.44176
#
# Compressibility (1/GPa) = 0.01766000
#
# Stress axis : x y z
#
# Youngs Moduli (GPa) = 83.94809 80.83737 83.91345
#
# Poissons Ratio (x) = 0.12684 0.33779
# Poissons Ratio (y) = 0.13172 0.30841
# Poissons Ratio (z) = 0.33793 0.29711
#
# Static dielectric constant tensor:
#      x y z
#    x 3.257040 0.000000 0.000000 
#    y 0.000000 3.785730 0.000000 
#    z 0.000000 0.000000 4.157240 
# 
# 
# High freq. dielectric constant tensor:
#      x y z
#    x 1.860690 0.000000 0.000000 
#    y 0.000000 1.843360 0.000000 
#    z 0.000000 0.000000 1.853040 
# 
# From -- ./inp_files/2782.got.cif
#   From: 2010.03.12/outbox.cif.g09.slc.cpg/sg30_2_cif.got.tgz:2782.got - 2010.04.14 01:38:02.
