data_PCOD8169419
_publ_section_title
;
Structure prediction by ZEFSAII (Michael W. Deem and Ramdas Pophale) SiO2 
 PCOD8169419
Probable space group: P N C 2
;
_chemical_formula_sum "Si O2"
_cell_formula_units_Z 24
_cell_length_a 14.375696
_cell_length_b 10.259653
_cell_length_c 7.546958
_cell_angle_alpha 90.000000
_cell_angle_beta 90.000000
_cell_angle_gamma 90.000000
_cell_volume 1113.098214
_symmetry_space_group_name_H-M "P N C 2"
_symmetry_group_IT_number 30
_symmetry_cell_setting 'orthorhombic'
loop_
_space_group_symop_operation_xyz
x,y,z
-x,-y,z
-x,1/2+y,1/2+z
x,1/2-y,1/2+z
loop_
_atom_site_type_symbol
_atom_site_label
_atom_site_fract_x
_atom_site_fract_y
_atom_site_fract_z
Si Si1 0.278319 0.914252 0.935960
Si Si2 0.900171 0.940098 0.030119
Si Si3 0.176026 0.182965 0.359104
Si Si4 0.369853 0.829861 0.281757
Si Si5 0.698024 0.867252 0.656842
Si Si6 0.496434 0.865397 0.595387
O O1 0.290436 0.767386 0.860266
O O2 0.321168 0.016143 0.795847
O O3 0.328428 0.923542 0.129689
O O4 0.170740 0.949283 0.962252
O O5 0.886467 0.912198 0.239197
O O6 0.886874 0.803585 0.927148
O O7 0.000000 0.000000 0.991711
O O8 0.220432 0.094804 0.516155
O O9 0.264665 0.237462 0.252164
O O10 0.423319 0.906303 0.437528
O O11 0.456207 0.748970 0.209528
O O12 0.603476 0.826944 0.552801
O O13 0.500000 0.000000 0.707318
#
# Coordination Sequence:
#
# PCOD8169419 Si02
#       6
#     4   4   4   4   4   4
#     4  10  22  39  61  82 124 157 197 250 306 353
#     4  10  22  41  64  93 117 155 199 247 302 364
#     4   9  21  39  64  89 123 152 201 243 301 357
#     4  10  23  40  54  89 121 159 202 247 298 352
#     4  10  19  39  60  88 118 162 197 248 292 348
#     4  11  21  37  58  85 120 159 207 242 287 353
#
# _framework density 21.561437999999999
#
# number of rings (size 3 to 8) (size 9 to 14) (size 15 to 20)
#    0.000    2.000    1.667    1.000    2.333    1.333 
#    9.000    7.500    0.000    0.000    0.000    0.000 
#    0.000    0.000    0.000    0.000    0.000    0.000 
#
# Total GULP energy -297331.298348 kJ/mol
# GULP energy per Si atom -12388.804098 kJ/mol
# Density = 2.151236 g / cm^3
# Si number density = 21.561438 Si / 1000 Ang^3
#
#
#
# Elastic Constant Matrix: (Units=GPa)
#
#
# Indices 1 2 3 4 5 6 
#
# 1 158.8815 47.8472 46.5459 0.0000 0.0000 0.0000
# 2 47.8472 55.9486 19.1843 0.0000 0.0000 0.0000
# 3 46.5459 19.1843 97.7437 0.0000 0.0000 0.0000
# 4 0.0000 0.0000 0.0000 16.2651 0.0000 0.0000
# 5 0.0000 0.0000 0.0000 0.0000 27.0741 0.0000
# 6 0.0000 0.0000 0.0000 0.0000 0.0000 18.5014
#
#
#
# Elastic Compliance Matrix: (Units=1/GPa)
#
#
# Indices 1 2 3 4 5 6 
#
# 1 0.009259 -0.006869 -0.003061 0.000000 0.000000 0.000000
# 2 -0.006869 0.024259 -0.001490 0.000000 0.000000 0.000000
# 3 -0.003061 -0.001490 0.011981 0.000000 0.000000 0.000000
# 4 0.000000 0.000000 0.000000 0.061481 0.000000 0.000000
# 5 0.000000 0.000000 0.000000 0.000000 0.036936 0.000000
# 6 0.000000 0.000000 0.000000 0.000000 0.000000 0.054050
#
#
# Mechanical properties :
#
#
# Convention : Reuss Voigt Hill
#
# Bulk Modulus (GPa) = 44.13356 59.96985 52.05171
# Shear Modulus (GPa) = 21.89523 25.63454 23.76489
#
# Velocity S-wave (km/s) = 3.19012 3.45179 3.32353
# Velocity P-wave (km/s) = 5.83801 6.61516 6.23870
#
# Compressibility (1/GPa) = 0.02265849
#
# Stress axis : x y z
#
# Youngs Moduli (GPa) = 107.99834 41.22196 83.46496
#
# Poissons Ratio (x) = 0.28315 0.25550
# Poissons Ratio (y) = 0.74184 0.12439
# Poissons Ratio (z) = 0.33060 0.06143
#
# Static dielectric constant tensor:
#      x y z
#    x 3.732120 0.000000 0.000000 
#    y 0.000000 3.654550 0.000000 
#    z 0.000000 0.000000 4.276440 
# 
# 
# High freq. dielectric constant tensor:
#      x y z
#    x 1.834140 0.000000 0.000000 
#    y 0.000000 1.834180 0.000000 
#    z 0.000000 0.000000 1.853820 
# 
# From -- ./inp_files/2356.got.cif
#   From: 2010.03.12/outbox.cif.g09.slc.cpg/sg30_2_cif.got.tgz:2356.got - 2010.04.14 01:38:02.
