data_PCOD8169885
_publ_section_title
;
Structure prediction by ZEFSAII (Michael W. Deem and Ramdas Pophale) SiO2 
 PCOD8169885
Probable space group: P M N 21
;
_chemical_formula_sum "Si O2"
_cell_formula_units_Z 32
_cell_length_a 9.181686
_cell_length_b 16.232703
_cell_length_c 10.963336
_cell_angle_alpha 90.000000
_cell_angle_beta 90.000000
_cell_angle_gamma 90.000000
_cell_volume 1634.014867
_symmetry_space_group_name_H-M "P M N 21"
_symmetry_group_IT_number 31
_symmetry_cell_setting 'orthorhombic'
loop_
_space_group_symop_operation_xyz
x,y,z
1/2-x,-y,1/2+z
-x,y,z
1/2+x,-y,1/2+z
loop_
_atom_site_type_symbol
_atom_site_label
_atom_site_fract_x
_atom_site_fract_y
_atom_site_fract_z
Si Si1 0.832145 0.169437 0.133210
Si Si2 0.832638 0.532746 0.755106
Si Si3 0.827149 0.560190 0.476030
Si Si4 0.337137 0.252360 0.945617
Si Si5 0.332992 0.278790 0.321423
Si Si6 0.172324 0.167341 0.489364
Si Si7 0.166935 0.031112 0.308907
Si Si8 0.335249 0.142340 0.728872
O O1 0.735296 0.233732 0.206817
O O2 0.807856 0.075663 0.177655
O O3 0.000000 0.194647 0.145608
O O4 0.772444 0.182824 0.997869
O O5 0.778851 0.525171 0.611388
O O6 0.742778 0.481897 0.856316
O O7 0.816077 0.625309 0.799382
O O8 0.000000 0.503558 0.760865
O O9 0.778857 0.655606 0.466639
O O10 0.000000 0.551824 0.463156
O O11 0.500000 0.244297 0.001665
O O12 0.339946 0.227093 0.804111
O O13 0.500000 0.252891 0.337201
O O14 0.245409 0.251809 0.442197
O O15 0.238068 0.089733 0.412309
O O16 0.215824 0.155325 0.627068
O O17 0.000000 0.176308 0.474597
O O18 0.000000 0.027226 0.345256
O O19 0.224646 0.937648 0.303924
O O20 0.500000 0.123549 0.679756
#
# Coordination Sequence:
#
# PCOD8169885 Si02
#       8
#     4   4   4   4   4   4   4   4
#     4  10  19  33  57  85 115 144 185 240 288 336
#     4  10  22  40  62  90 120 154 200 251 300 367
#     4  10  22  41  61  88 124 156 199 255 307 364
#     4  10  21  38  59  82 114 156 198 239 288 354
#     4  10  19  37  62  83 110 147 191 233 285 352
#     4  10  21  37  55  83 119 148 190 245 297 347
#     4   8  18  35  53  79 113 148 187 238 288 342
#     4  10  21  37  57  80 113 157 200 239 291 352
#
# _framework density 19.583665
#
# number of rings (size 3 to 8) (size 9 to 14) (size 15 to 20)
#    0.000    2.250    1.250    1.875    1.750    3.500 
#    0.000    6.875    0.000    0.000    0.000    0.000 
#    0.000    0.000    0.000    0.000    0.000    0.000 
#
# Total GULP energy -396448.196597 kJ/mol
# GULP energy per Si atom -12389.006144 kJ/mol
# Density = 1.953909 g / cm^3
# Si number density = 19.583665 Si / 1000 Ang^3
#
#
#
# Elastic Constant Matrix: (Units=GPa)
#
#
# Indices 1 2 3 4 5 6 
#
# 1 74.1068 36.5998 42.4991 0.0000 0.0000 0.0000
# 2 36.5998 73.1409 47.4580 0.0000 0.0000 0.0000
# 3 42.4991 47.4580 116.4095 0.0000 0.0000 0.0000
# 4 0.0000 0.0000 0.0000 27.1997 0.0000 0.0000
# 5 0.0000 0.0000 0.0000 0.0000 36.1951 0.0000
# 6 0.0000 0.0000 0.0000 0.0000 0.0000 24.4264
#
#
#
# Elastic Compliance Matrix: (Units=1/GPa)
#
#
# Indices 1 2 3 4 5 6 
#
# 1 0.019348 -0.006932 -0.004237 0.000000 0.000000 0.000000
# 2 -0.006932 0.021074 -0.006060 0.000000 0.000000 0.000000
# 3 -0.004237 -0.006060 0.012608 0.000000 0.000000 0.000000
# 4 0.000000 0.000000 0.000000 0.036765 0.000000 0.000000
# 5 0.000000 0.000000 0.000000 0.000000 0.027628 0.000000
# 6 0.000000 0.000000 0.000000 0.000000 0.000000 0.040939
#
#
# Mechanical properties :
#
#
# Convention : Reuss Voigt Hill
#
# Bulk Modulus (GPa) = 53.85239 57.41901 55.63570
# Shear Modulus (GPa) = 25.12413 26.70425 25.91419
#
# Velocity S-wave (km/s) = 3.58566 3.69670 3.64160
# Velocity P-wave (km/s) = 6.68588 6.89959 6.79357
#
# Compressibility (1/GPa) = 0.01856928
#
# Stress axis : x y z
#
# Youngs Moduli (GPa) = 51.68543 47.45295 79.31402
#
# Poissons Ratio (x) = 0.32895 0.33609
# Poissons Ratio (y) = 0.35829 0.48068
# Poissons Ratio (z) = 0.21901 0.28759
#
# Static dielectric constant tensor:
#      x y z
#    x 3.576140 0.000000 0.000000 
#    y 0.000000 3.697170 0.000000 
#    z 0.000000 0.000000 3.728020 
# 
# 
# High freq. dielectric constant tensor:
#      x y z
#    x 1.750260 0.000000 0.000000 
#    y 0.000000 1.759000 0.000000 
#    z 0.000000 0.000000 1.763160 
# 
# From -- ./inp_files/3800.got.cif
#   From: 2010.03.12/outbox.cif.g09.slc.cpg/sg31_2_cif.got.tgz:3800.got - 2010.04.14 01:42:59.
