data_PCOD8169172
_publ_section_title
;
Structure prediction by ZEFSAII (Michael W. Deem and Ramdas Pophale) SiO2 
 PCOD8169172
Probable space group: P C A 21
;
_chemical_formula_sum "Si O2"
_cell_formula_units_Z 28
_cell_length_a 11.429203
_cell_length_b 11.251608
_cell_length_c 9.169712
_cell_angle_alpha 90.000000
_cell_angle_beta 90.000000
_cell_angle_gamma 90.000000
_cell_volume 1179.196646
_symmetry_space_group_name_H-M "P C A 21"
_symmetry_group_IT_number 29
_symmetry_cell_setting 'orthorhombic'
loop_
_space_group_symop_operation_xyz
x,y,z
-x,-y,1/2+z
1/2-x,y,1/2+z
1/2+x,-y,z
loop_
_atom_site_type_symbol
_atom_site_label
_atom_site_fract_x
_atom_site_fract_y
_atom_site_fract_z
Si Si1 0.134463 0.391385 0.598500
Si Si2 0.483745 0.758603 0.393506
Si Si3 0.356562 0.062175 0.504329
Si Si4 0.275207 0.842536 0.953060
Si Si5 0.161255 0.318162 0.918558
Si Si6 0.453320 0.000102 0.800210
Si Si7 0.058938 0.654451 0.597603
O O1 0.169807 0.320492 0.744309
O O2 0.241257 0.404351 0.485330
O O3 0.108163 0.526545 0.638772
O O4 0.023083 0.325334 0.526225
O O5 0.343912 0.781957 0.396656
O O6 0.560860 0.879999 0.399268
O O7 0.511094 0.696290 0.239955
O O8 0.302911 0.192645 0.492993
O O9 0.453021 0.044965 0.632597
O O10 0.257536 0.964321 0.537950
O O11 0.419284 0.048530 0.346094
O O12 0.340215 0.748672 0.055833
O O13 0.359549 0.893525 0.824553
O O14 0.030612 0.356618 0.963120
#
# Coordination Sequence:
#
# PCOD8169172 Si02
#       7
#     4   4   4   4   4   4   4
#     4  12  30  47  78 106 151 202 256 314 375 449
#     4  11  25  48  72 111 151 193 250 311 376 455
#     4  11  25  42  73 103 150 188 246 304 383 445
#     4  11  25  42  77 110 150 193 242 311 379 454
#     4  12  27  52  76 108 148 199 254 315 382 457
#     4  11  22  45  67 108 145 190 239 305 378 447
#     4  12  26  50  75 110 151 195 261 308 383 451
#
# _framework density 23.744979000000001
#
# number of rings (size 3 to 8) (size 9 to 14) (size 15 to 20)
#    0.000    0.571    2.857    3.429   10.000    2.286 
#    0.000    0.000    0.000    0.000    0.000    0.000 
#    0.000    0.000    0.000    0.000    0.000    0.000 
#
# Total GULP energy -347050.854839 kJ/mol
# GULP energy per Si atom -12394.673387 kJ/mol
# Density = 2.369093 g / cm^3
# Si number density = 23.744979 Si / 1000 Ang^3
#
#
#
# Elastic Constant Matrix: (Units=GPa)
#
#
# Indices 1 2 3 4 5 6 
#
# 1 98.2580 28.0793 25.7478 0.0000 0.0000 0.0000
# 2 28.0793 128.9868 26.9174 0.0000 0.0000 0.0000
# 3 25.7478 26.9174 121.2561 0.0000 0.0000 0.0000
# 4 0.0000 0.0000 0.0000 34.0167 0.0000 0.0000
# 5 0.0000 0.0000 0.0000 0.0000 31.9540 0.0000
# 6 0.0000 0.0000 0.0000 0.0000 0.0000 40.7023
#
#
#
# Elastic Compliance Matrix: (Units=1/GPa)
#
#
# Indices 1 2 3 4 5 6 
#
# 1 0.011271 -0.002049 -0.001938 0.000000 0.000000 0.000000
# 2 -0.002049 0.008502 -0.001452 0.000000 0.000000 0.000000
# 3 -0.001938 -0.001452 0.008981 0.000000 0.000000 0.000000
# 4 0.000000 0.000000 0.000000 0.029397 0.000000 0.000000
# 5 0.000000 0.000000 0.000000 0.000000 0.031295 0.000000
# 6 0.000000 0.000000 0.000000 0.000000 0.000000 0.024569
#
#
# Mechanical properties :
#
#
# Convention : Reuss Voigt Hill
#
# Bulk Modulus (GPa) = 55.94620 56.66554 56.30587
# Shear Modulus (GPa) = 38.21113 39.18504 38.69809
#
# Velocity S-wave (km/s) = 4.01587 4.06673 4.04138
# Velocity P-wave (km/s) = 6.71680 6.77990 6.74842
#
# Compressibility (1/GPa) = 0.01787431
#
# Stress axis : x y z
#
# Youngs Moduli (GPa) = 88.72493 117.62158 111.34640
#
# Poissons Ratio (x) = 0.24101 0.21583
# Poissons Ratio (y) = 0.18180 0.16170
# Poissons Ratio (z) = 0.17198 0.17081
#
# Static dielectric constant tensor:
#      x y z
#    x 4.144100 0.000000 0.000000 
#    y 0.000000 4.368870 0.000000 
#    z 0.000000 0.000000 4.055620 
# 
# 
# High freq. dielectric constant tensor:
#      x y z
#    x 1.938530 0.000000 0.000000 
#    y 0.000000 1.950200 0.000000 
#    z 0.000000 0.000000 1.935090 
# 
# From -- ./inp_files/1484.got.cif
#   From: 2010.03.12/outbox.cif.g09.slc.cpg/sg29_1_cif.got.tgz:1484.got - 2010.04.14 03:43:10.
