data_PCOD8169701
_publ_section_title
;
Structure prediction by ZEFSAII (Michael W. Deem and Ramdas Pophale) SiO2 
 PCOD8169701
Probable space group: P M N 21
;
_chemical_formula_sum "Si O2"
_cell_formula_units_Z 24
_cell_length_a 8.699691
_cell_length_b 15.579448
_cell_length_c 9.580869
_cell_angle_alpha 90.000000
_cell_angle_beta 90.000000
_cell_angle_gamma 90.000000
_cell_volume 1298.556336
_symmetry_space_group_name_H-M "P M N 21"
_symmetry_group_IT_number 31
_symmetry_cell_setting 'orthorhombic'
loop_
_space_group_symop_operation_xyz
x,y,z
1/2-x,-y,1/2+z
-x,y,z
1/2+x,-y,1/2+z
loop_
_atom_site_type_symbol
_atom_site_label
_atom_site_fract_x
_atom_site_fract_y
_atom_site_fract_z
Si Si1 0.821155 0.744340 0.075370
Si Si2 0.678676 0.571244 0.094954
Si Si3 0.818763 0.927314 0.371382
Si Si4 0.322656 0.758319 0.372066
Si Si5 0.824186 0.428492 0.915869
Si Si6 0.319107 0.917320 0.066787
O O1 0.762635 0.651853 0.020192
O O2 0.786107 0.748494 0.238842
O O3 0.000000 0.752909 0.044125
O O4 0.734827 0.825256 0.004025
O O5 0.500000 0.591388 0.088365
O O6 0.729698 0.560417 0.255737
O O7 0.716132 0.484407 0.013790
O O8 0.763055 0.937493 0.212917
O O9 0.000000 0.913405 0.374550
O O10 0.736628 0.845031 0.447307
O O11 0.768287 0.011126 0.456122
O O12 0.500000 0.768399 0.324472
O O13 0.304997 0.671510 0.463259
O O14 0.000000 0.458527 0.934624
O O15 0.500000 0.916905 0.091677
#
# Coordination Sequence:
#
# PCOD8169701 Si02
#       6
#     4   4   4   4   4   4
#     4  10  18  30  51  74  98 131 169 205 244 296
#     4  10  20  34  53  76 102 132 166 206 250 295
#     4  10  20  33  52  77 101 130 169 207 247 297
#     4   9  17  31  51  73 100 132 166 204 245 294
#     4   9  19  34  51  75 102 130 167 205 245 295
#     4  10  20  34  52  75 103 133 167 207 249 295
#
# _framework density 18.482063
#
# number of rings (size 3 to 8) (size 9 to 14) (size 15 to 20)
#    0.000    2.333    0.000    6.500    0.000    6.667 
#    0.000    1.667    0.000    4.000    0.000    0.000 
#    0.000    0.000    0.000    0.000    0.000    0.000 
#
# Total GULP energy -297479.381921 kJ/mol
# GULP energy per Si atom -12394.974247 kJ/mol
# Density = 1.844000 g / cm^3
# Si number density = 18.482063 Si / 1000 Ang^3
#
#
#
# Elastic Constant Matrix: (Units=GPa)
#
#
# Indices 1 2 3 4 5 6 
#
# 1 67.0753 25.9045 15.8897 0.0000 0.0000 0.0000
# 2 25.9045 67.3717 5.6176 0.0000 0.0000 0.0000
# 3 15.8897 5.6176 27.7177 0.0000 0.0000 0.0000
# 4 0.0000 0.0000 0.0000 32.1886 0.0000 0.0000
# 5 0.0000 0.0000 0.0000 0.0000 19.7784 0.0000
# 6 0.0000 0.0000 0.0000 0.0000 0.0000 30.8170
#
#
#
# Elastic Compliance Matrix: (Units=1/GPa)
#
#
# Indices 1 2 3 4 5 6 
#
# 1 0.019921 -0.006823 -0.010037 0.000000 0.000000 0.000000
# 2 -0.006823 0.017435 0.000378 0.000000 0.000000 0.000000
# 3 -0.010037 0.000378 0.041756 0.000000 0.000000 0.000000
# 4 0.000000 0.000000 0.000000 0.031067 0.000000 0.000000
# 5 0.000000 0.000000 0.000000 0.000000 0.050560 0.000000
# 6 0.000000 0.000000 0.000000 0.000000 0.000000 0.032450
#
#
# Mechanical properties :
#
#
# Convention : Reuss Voigt Hill
#
# Bulk Modulus (GPa) = 21.67000 28.55426 25.11213
# Shear Modulus (GPa) = 20.70083 24.20699 22.45391
#
# Velocity S-wave (km/s) = 3.35035 3.62298 3.48933
# Velocity P-wave (km/s) = 5.16883 5.74322 5.46358
#
# Compressibility (1/GPa) = 0.04614674
#
# Stress axis : x y z
#
# Youngs Moduli (GPa) = 50.19723 57.35609 23.94888
#
# Poissons Ratio (x) = 0.39133 0.24039
# Poissons Ratio (y) = 0.34249 -0.00905
# Poissons Ratio (z) = 0.50385 -0.02167
#
# Static dielectric constant tensor:
#      x y z
#    x 3.402930 0.000000 0.000000 
#    y 0.000000 4.059320 0.000000 
#    z 0.000000 0.000000 2.953380 
# 
# 
# High freq. dielectric constant tensor:
#      x y z
#    x 1.728610 0.000000 0.000000 
#    y 0.000000 1.743090 0.000000 
#    z 0.000000 0.000000 1.659730 
# 
# From -- ./inp_files/3472.got.cif
#   From: 2010.03.12/outbox.cif.g09.slc.cpg/sg31_2_cif.got.tgz:3472.got - 2010.04.14 01:42:59.
