data_PCOD8169756
_publ_section_title
;
Structure prediction by ZEFSAII (Michael W. Deem and Ramdas Pophale) SiO2 
 PCOD8169756
Probable space group: P M N 21
;
_chemical_formula_sum "Si O2"
_cell_formula_units_Z 32
_cell_length_a 8.749444
_cell_length_b 12.019204
_cell_length_c 14.621302
_cell_angle_alpha 90.000000
_cell_angle_beta 90.000000
_cell_angle_gamma 90.000000
_cell_volume 1537.595891
_symmetry_space_group_name_H-M "P M N 21"
_symmetry_group_IT_number 31
_symmetry_cell_setting 'orthorhombic'
loop_
_space_group_symop_operation_xyz
x,y,z
1/2-x,-y,1/2+z
-x,y,z
1/2+x,-y,1/2+z
loop_
_atom_site_type_symbol
_atom_site_label
_atom_site_fract_x
_atom_site_fract_y
_atom_site_fract_z
Si Si1 0.179005 0.608443 0.036350
Si Si2 0.819654 0.325611 0.357858
Si Si3 0.826992 0.193163 0.631964
Si Si4 0.319424 0.497185 0.718758
Si Si5 0.826455 0.941144 0.624210
Si Si6 0.679364 0.876874 0.445435
Si Si7 0.680378 0.269347 0.805320
Si Si8 0.818869 0.910170 0.830315
O O1 0.210722 0.731996 0.074237
O O2 0.238367 0.520099 0.113872
O O3 0.000000 0.594924 0.017049
O O4 0.270871 0.594162 0.942044
O O5 0.763008 0.387198 0.264350
O O6 0.743915 0.205763 0.369286
O O7 0.000000 0.310831 0.359107
O O8 0.770687 0.187912 0.736501
O O9 0.000000 0.240394 0.625675
O O10 0.820900 0.069209 0.593762
O O11 0.500000 0.495660 0.715870
O O12 0.266104 0.395155 0.783300
O O13 0.720281 0.876529 0.552605
O O14 0.760000 0.924348 0.726235
O O15 0.000000 0.896422 0.618669
O O16 0.500000 0.861961 0.432911
O O17 0.765107 0.768295 0.405453
O O18 0.739660 0.988436 0.393816
O O19 0.500000 0.254407 0.793610
O O20 0.000000 0.906824 0.832954
#
# Coordination Sequence:
#
# PCOD8169756 Si02
#       8
#     4   4   4   4   4   4   4   4
#     4  10  20  37  60  87 115 153 196 240 294 351
#     4  11  22  39  61  87 117 152 196 245 290 344
#     4  10  18  33  57  85 114 146 190 242 283 332
#     4   8  19  39  60  82 114 149 189 240 292 342
#     4  10  21  37  55  80 117 156 190 231 288 348
#     4  11  22  37  57  85 118 152 193 240 286 346
#     4  10  19  35  59  82 110 148 187 234 292 345
#     4  10  22  41  59  82 121 160 191 236 293 350
#
# _framework density 20.811710000000001
#
# number of rings (size 3 to 8) (size 9 to 14) (size 15 to 20)
#    0.000    2.000    1.250    3.375    0.000    4.500 
#    2.250    7.500    0.000    0.000    0.000    0.000 
#    0.000    0.000    0.000    0.000    0.000    0.000 
#
# Total GULP energy -396718.013430 kJ/mol
# GULP energy per Si atom -12397.437920 kJ/mol
# Density = 2.076434 g / cm^3
# Si number density = 20.811710 Si / 1000 Ang^3
#
#
#
# Elastic Constant Matrix: (Units=GPa)
#
#
# Indices 1 2 3 4 5 6 
#
# 1 35.3722 3.5228 5.3581 0.0000 0.0000 0.0000
# 2 3.5228 40.1944 4.7662 0.0000 0.0000 0.0000
# 3 5.3581 4.7662 94.4414 0.0000 0.0000 0.0000
# 4 0.0000 0.0000 0.0000 26.8503 0.0000 0.0000
# 5 0.0000 0.0000 0.0000 0.0000 34.9828 0.0000
# 6 0.0000 0.0000 0.0000 0.0000 0.0000 19.2604
#
#
#
# Elastic Compliance Matrix: (Units=1/GPa)
#
#
# Indices 1 2 3 4 5 6 
#
# 1 0.028733 -0.002339 -0.001512 0.000000 0.000000 0.000000
# 2 -0.002339 0.025219 -0.001140 0.000000 0.000000 0.000000
# 3 -0.001512 -0.001140 0.010732 0.000000 0.000000 0.000000
# 4 0.000000 0.000000 0.000000 0.037244 0.000000 0.000000
# 5 0.000000 0.000000 0.000000 0.000000 0.028586 0.000000
# 6 0.000000 0.000000 0.000000 0.000000 0.000000 0.051920
#
#
# Mechanical properties :
#
#
# Convention : Reuss Voigt Hill
#
# Bulk Modulus (GPa) = 18.28094 21.92245 20.10170
# Shear Modulus (GPa) = 23.73617 26.64276 25.18946
#
# Velocity S-wave (km/s) = 3.38082 3.58184 3.48278
# Velocity P-wave (km/s) = 4.90336 5.25954 5.08457
#
# Compressibility (1/GPa) = 0.05470177
#
# Stress axis : x y z
#
# Youngs Moduli (GPa) = 34.80351 39.65222 93.18011
#
# Poissons Ratio (x) = 0.09274 0.14090
# Poissons Ratio (y) = 0.08140 0.10623
# Poissons Ratio (z) = 0.05263 0.04521
#
# Static dielectric constant tensor:
#      x y z
#    x 3.541930 0.000000 0.000000 
#    y 0.000000 3.682750 0.000000 
#    z 0.000000 0.000000 4.023660 
# 
# 
# High freq. dielectric constant tensor:
#      x y z
#    x 1.801130 0.000000 0.000000 
#    y 0.000000 1.794510 0.000000 
#    z 0.000000 0.000000 1.822170 
# 
# From -- ./inp_files/5102.got.cif
#   From: 2010.03.12/outbox.cif.g09.slc.cpg/sg31_3_cif.got.tgz:5102.got - 2010.04.14 01:42:59.
