data_PCOD8169455
_publ_section_title
;
Structure prediction by ZEFSAII (Michael W. Deem and Ramdas Pophale) SiO2 
 PCOD8169455
Probable space group: P N C 2
;
_chemical_formula_sum "Si O2"
_cell_formula_units_Z 32
_cell_length_a 14.918931
_cell_length_b 11.893538
_cell_length_c 8.524907
_cell_angle_alpha 90.000000
_cell_angle_beta 90.000000
_cell_angle_gamma 90.000000
_cell_volume 1512.649889
_symmetry_space_group_name_H-M "P N C 2"
_symmetry_group_IT_number 30
_symmetry_cell_setting 'orthorhombic'
loop_
_space_group_symop_operation_xyz
x,y,z
-x,-y,z
-x,1/2+y,1/2+z
x,1/2-y,1/2+z
loop_
_atom_site_type_symbol
_atom_site_label
_atom_site_fract_x
_atom_site_fract_y
_atom_site_fract_z
Si Si1 0.381309 0.649268 0.486260
Si Si2 0.101278 0.372208 0.825678
Si Si3 0.293544 0.986814 0.742616
Si Si4 0.202432 0.311215 0.127880
Si Si5 0.208722 0.782241 0.582530
Si Si6 0.387452 0.356278 0.036705
Si Si7 0.897446 0.370411 0.793858
Si Si8 0.497652 0.705429 0.756848
O O1 0.353023 0.533043 0.399511
O O2 0.293836 0.706445 0.553357
O O3 0.449101 0.622912 0.630926
O O4 0.424159 0.735779 0.364246
O O5 0.159528 0.295652 0.710084
O O6 0.109442 0.497445 0.757479
O O7 0.998364 0.333612 0.833543
O O8 0.134486 0.365481 0.003777
O O9 0.236366 0.875133 0.710914
O O10 0.225646 0.093214 0.760442
O O11 0.361178 0.017422 0.596563
O O12 0.295615 0.280971 0.035813
O O13 0.130035 0.701533 0.643174
O O14 0.172604 0.844833 0.430695
O O15 0.454271 0.304306 0.162799
O O16 0.431073 0.363254 0.863705
#
# Coordination Sequence:
#
# PCOD8169455 Si02
#       8
#     4   4   4   4   4   4   4   4
#     4  11  21  39  67  95 133 173 223 277 337 407
#     4  11  23  43  65  99 130 181 222 286 338 407
#     4  10  22  38  69  94 129 182 217 275 341 409
#     4  10  22  42  68  91 138 174 225 271 345 404
#     4  12  21  43  65  95 131 178 217 275 343 404
#     4   9  21  38  66  91 130 174 217 274 330 402
#     4  11  24  40  68  96 136 171 231 280 341 407
#     4  10  20  39  65  93 135 170 221 277 334 397
#
# _framework density 21.154928000000002
#
# number of rings (size 3 to 8) (size 9 to 14) (size 15 to 20)
#    0.750    0.750    3.750    1.500    0.000    1.500 
#    0.000    0.000   16.500    0.000    0.000    0.000 
#    0.000    0.000    0.000    0.000    0.000    0.000 
#
# Total GULP energy -396644.269547 kJ/mol
# GULP energy per Si atom -12395.133423 kJ/mol
# Density = 2.110678 g / cm^3
# Si number density = 21.154928 Si / 1000 Ang^3
#
#
#
# Elastic Constant Matrix: (Units=GPa)
#
#
# Indices 1 2 3 4 5 6 
#
# 1 124.8952 46.3886 47.3024 0.0000 0.0000 0.0000
# 2 46.3886 94.4712 43.8014 0.0000 0.0000 0.0000
# 3 47.3024 43.8014 86.6677 0.0000 0.0000 0.0000
# 4 0.0000 0.0000 0.0000 24.5662 0.0000 0.0000
# 5 0.0000 0.0000 0.0000 0.0000 42.8942 0.0000
# 6 0.0000 0.0000 0.0000 0.0000 0.0000 29.7092
#
#
#
# Elastic Compliance Matrix: (Units=1/GPa)
#
#
# Indices 1 2 3 4 5 6 
#
# 1 0.010859 -0.003375 -0.004221 0.000000 0.000000 0.000000
# 2 -0.003375 0.014874 -0.005675 0.000000 0.000000 0.000000
# 3 -0.004221 -0.005675 0.016710 0.000000 0.000000 0.000000
# 4 0.000000 0.000000 0.000000 0.040706 0.000000 0.000000
# 5 0.000000 0.000000 0.000000 0.000000 0.023313 0.000000
# 6 0.000000 0.000000 0.000000 0.000000 0.000000 0.033660
#
#
# Mechanical properties :
#
#
# Convention : Reuss Voigt Hill
#
# Bulk Modulus (GPa) = 62.89005 64.55765 63.72385
# Shear Modulus (GPa) = 29.07580 30.67003 29.87291
#
# Velocity S-wave (km/s) = 3.71134 3.81173 3.76187
# Velocity P-wave (km/s) = 6.93962 7.06790 7.00405
#
# Compressibility (1/GPa) = 0.01590077
#
# Stress axis : x y z
#
# Youngs Moduli (GPa) = 92.09027 67.23267 59.84365
#
# Poissons Ratio (x) = 0.22691 0.25260
# Poissons Ratio (y) = 0.31081 0.33961
# Poissons Ratio (z) = 0.38871 0.38155
#
# Static dielectric constant tensor:
#      x y z
#    x 4.059390 0.000000 0.000000 
#    y 0.000000 3.687540 0.000000 
#    z 0.000000 0.000000 3.827070 
# 
# 
# High freq. dielectric constant tensor:
#      x y z
#    x 1.844590 0.000000 0.000000 
#    y 0.000000 1.812190 0.000000 
#    z 0.000000 0.000000 1.823830 
# 
# From -- ./inp_files/2692.got.cif
#   From: 2010.03.12/outbox.cif.g09.slc.cpg/sg30_2_cif.got.tgz:2692.got - 2010.04.14 01:38:02.
