data_PCOD8169941
_publ_section_title
;
Structure prediction by ZEFSAII (Michael W. Deem and Ramdas Pophale) SiO2 
 PCOD8169941
Probable space group: P M N 21
;
_chemical_formula_sum "Si O2"
_cell_formula_units_Z 20
_cell_length_a 17.546031
_cell_length_b 6.457962
_cell_length_c 8.994585
_cell_angle_alpha 90.000000
_cell_angle_beta 90.000000
_cell_angle_gamma 90.000000
_cell_volume 1019.190831
_symmetry_space_group_name_H-M "P M N 21"
_symmetry_group_IT_number 31
_symmetry_cell_setting 'orthorhombic'
loop_
_space_group_symop_operation_xyz
x,y,z
1/2-x,-y,1/2+z
-x,y,z
1/2+x,-y,1/2+z
loop_
_atom_site_type_symbol
_atom_site_label
_atom_site_fract_x
_atom_site_fract_y
_atom_site_fract_z
Si Si1 0.810910 0.969958 0.004630
Si Si2 0.410766 0.296364 0.724644
Si Si3 0.312365 0.410965 0.310003
Si Si4 0.194629 0.695341 0.482303
Si Si5 0.915094 0.357260 0.000458
O O1 0.848618 0.850387 0.143357
O O2 0.866845 0.156179 0.969604
O O3 0.797759 0.823907 0.862415
O O4 0.728679 0.079741 0.030363
O O5 0.500000 0.225151 0.707153
O O6 0.386821 0.286641 0.898187
O O7 0.401494 0.530304 0.660378
O O8 0.249052 0.566474 0.373098
O O9 0.394902 0.474507 0.374144
O O10 0.315296 0.433839 0.133141
O O11 0.000000 0.282311 0.981733
#
# Coordination Sequence:
#
# PCOD8169941 Si02
#       5
#     4   4   4   4   4
#     4  10  19  35  58  81 108 146 187 229 278 336
#     4  10  21  37  58  84 115 150 189 236 289 342
#     4  10  21  34  55  80 107 143 184 229 278 335
#     4  11  21  36  56  82 111 145 189 234 282 336
#     4   9  19  36  56  79 109 146 185 228 282 339
#
# _framework density 19.623411000000001
#
# number of rings (size 3 to 8) (size 9 to 14) (size 15 to 20)
#    0.000    2.000    0.000    5.400    0.000    3.200 
#    0.000    0.000    0.000    0.000    0.000    0.000 
#    0.000    0.000    0.000    0.000    0.000    0.000 
#
# Total GULP energy -247812.389098 kJ/mol
# GULP energy per Si atom -12390.619455 kJ/mol
# Density = 1.957875 g / cm^3
# Si number density = 19.623411 Si / 1000 Ang^3
#
#
#
# Elastic Constant Matrix: (Units=GPa)
#
#
# Indices 1 2 3 4 5 6 
#
# 1 67.6129 15.4464 24.8069 0.0000 0.0000 0.0000
# 2 15.4464 79.3207 10.3887 0.0000 0.0000 0.0000
# 3 24.8069 10.3887 123.6211 0.0000 0.0000 0.0000
# 4 0.0000 0.0000 0.0000 23.5753 0.0000 0.0000
# 5 0.0000 0.0000 0.0000 0.0000 28.7885 0.0000
# 6 0.0000 0.0000 0.0000 0.0000 0.0000 19.7209
#
#
#
# Elastic Compliance Matrix: (Units=1/GPa)
#
#
# Indices 1 2 3 4 5 6 
#
# 1 0.016568 -0.002822 -0.003087 0.000000 0.000000 0.000000
# 2 -0.002822 0.013228 -0.000545 0.000000 0.000000 0.000000
# 3 -0.003087 -0.000545 0.008755 0.000000 0.000000 0.000000
# 4 0.000000 0.000000 0.000000 0.042417 0.000000 0.000000
# 5 0.000000 0.000000 0.000000 0.000000 0.034736 0.000000
# 6 0.000000 0.000000 0.000000 0.000000 0.000000 0.050708
#
#
# Mechanical properties :
#
#
# Convention : Reuss Voigt Hill
#
# Bulk Modulus (GPa) = 39.00047 41.31543 40.15795
# Shear Modulus (GPa) = 26.61453 29.07779 27.84616
#
# Velocity S-wave (km/s) = 3.68674 3.85358 3.77108
# Velocity P-wave (km/s) = 6.16769 6.39531 6.28253
#
# Compressibility (1/GPa) = 0.02564072
#
# Stress axis : x y z
#
# Youngs Moduli (GPa) = 60.35909 75.59725 114.22540
#
# Poissons Ratio (x) = 0.21333 0.35266
# Poissons Ratio (y) = 0.17033 0.06230
# Poissons Ratio (z) = 0.18636 0.04123
#
# Static dielectric constant tensor:
#      x y z
#    x 3.775690 0.000000 0.000000 
#    y 0.000000 3.808370 0.000000 
#    z 0.000000 0.000000 3.493370 
# 
# 
# High freq. dielectric constant tensor:
#      x y z
#    x 1.758170 0.000000 0.000000 
#    y 0.000000 1.769720 0.000000 
#    z 0.000000 0.000000 1.751410 
# 
# From -- ./inp_files/2681.got.cif
#   From: 2010.03.12/outbox.cif.g09.slc.cpg/sg31_2_cif.got.tgz:2681.got - 2010.04.14 01:42:59.
