data_PCOD8169989
_publ_section_title
;
Structure prediction by ZEFSAII (Michael W. Deem and Ramdas Pophale) SiO2 
 PCOD8169989
Probable space group: P M N 21
;
_chemical_formula_sum "Si O2"
_cell_formula_units_Z 32
_cell_length_a 8.906817
_cell_length_b 14.589745
_cell_length_c 12.236985
_cell_angle_alpha 90.000000
_cell_angle_beta 90.000000
_cell_angle_gamma 90.000000
_cell_volume 1590.174037
_symmetry_space_group_name_H-M "P M N 21"
_symmetry_group_IT_number 31
_symmetry_cell_setting 'orthorhombic'
loop_
_space_group_symop_operation_xyz
x,y,z
1/2-x,-y,1/2+z
-x,y,z
1/2+x,-y,1/2+z
loop_
_atom_site_type_symbol
_atom_site_label
_atom_site_fract_x
_atom_site_fract_y
_atom_site_fract_z
Si Si1 0.177515 0.267182 0.718540
Si Si2 0.326505 0.824990 0.992848
Si Si3 0.835266 0.662043 0.907894
Si Si4 0.822529 0.826625 0.626513
Si Si5 0.822012 0.864221 0.381150
Si Si6 0.670534 0.376857 0.167353
Si Si7 0.169755 0.559525 0.126170
Si Si8 0.177916 0.950392 0.828593
O O1 0.222482 0.202019 0.615805
O O2 0.258669 0.228121 0.825806
O O3 0.232423 0.371337 0.700183
O O4 0.000000 0.268713 0.735513
O O5 0.500000 0.852395 0.987460
O O6 0.293943 0.738111 0.915591
O O7 0.231233 0.909364 0.945174
O O8 0.819877 0.607288 0.796516
O O9 0.000000 0.711486 0.912857
O O10 0.820308 0.587926 0.001175
O O11 0.774275 0.866343 0.508833
O O12 0.760832 0.722815 0.637359
O O13 0.761671 0.890628 0.725324
O O14 0.000000 0.822269 0.638702
O O15 0.000000 0.866703 0.368134
O O16 0.748802 0.949277 0.317806
O O17 0.500000 0.385687 0.123905
O O18 0.769978 0.456862 0.118144
O O19 0.000000 0.561097 0.171135
O O20 0.000000 0.959650 0.826852
#
# Coordination Sequence:
#
# PCOD8169989 Si02
#       8
#     4   4   4   4   4   4   4   4
#     4  10  22  41  61  85 120 163 203 246 302 363
#     4  10  20  35  59  87 114 147 195 252 300 348
#     4   9  18  35  57  80 111 151 198 245 297 355
#     4   9  21  41  63  86 121 160 198 246 305 364
#     4  11  24  41  61  91 125 161 203 253 304 360
#     4  10  19  37  61  84 114 159 199 241 302 368
#     4  10  21  36  57  89 120 153 199 256 302 352
#     4  11  22  40  63  88 119 160 201 243 304 368
#
# _framework density 20.123584999999999
#
# number of rings (size 3 to 8) (size 9 to 14) (size 15 to 20)
#    0.000    2.000    1.250    1.875    1.750    3.500 
#    0.000    5.625    0.000    0.000    0.000    0.000 
#    0.000    0.000    0.000    0.000    0.000    0.000 
#
# Total GULP energy -396772.008734 kJ/mol
# GULP energy per Si atom -12399.125273 kJ/mol
# Density = 2.007778 g / cm^3
# Si number density = 20.123585 Si / 1000 Ang^3
#
#
#
# Elastic Constant Matrix: (Units=GPa)
#
#
# Indices 1 2 3 4 5 6 
#
# 1 80.6620 39.1398 32.3505 0.0000 0.0000 0.0000
# 2 39.1398 122.4230 40.4031 0.0000 0.0000 0.0000
# 3 32.3505 40.4031 79.1518 0.0000 0.0000 0.0000
# 4 0.0000 0.0000 0.0000 24.2363 0.0000 0.0000
# 5 0.0000 0.0000 0.0000 0.0000 23.7150 0.0000
# 6 0.0000 0.0000 0.0000 0.0000 0.0000 37.5065
#
#
#
# Elastic Compliance Matrix: (Units=1/GPa)
#
#
# Indices 1 2 3 4 5 6 
#
# 1 0.016023 -0.003561 -0.004731 0.000000 0.000000 0.000000
# 2 -0.003561 0.010615 -0.003963 0.000000 0.000000 0.000000
# 3 -0.004731 -0.003963 0.016590 0.000000 0.000000 0.000000
# 4 0.000000 0.000000 0.000000 0.041260 0.000000 0.000000
# 5 0.000000 0.000000 0.000000 0.000000 0.042167 0.000000
# 6 0.000000 0.000000 0.000000 0.000000 0.000000 0.026662
#
#
# Mechanical properties :
#
#
# Convention : Reuss Voigt Hill
#
# Bulk Modulus (GPa) = 53.42444 56.22484 54.82464
# Shear Modulus (GPa) = 27.16398 28.44778 27.80588
#
# Velocity S-wave (km/s) = 3.67803 3.76394 3.72123
# Velocity P-wave (km/s) = 6.68154 6.84763 6.76510
#
# Compressibility (1/GPa) = 0.01871802
#
# Stress axis : x y z
#
# Youngs Moduli (GPa) = 62.41076 94.20780 60.27600
#
# Poissons Ratio (x) = 0.33551 0.28516
# Poissons Ratio (y) = 0.22227 0.23886
# Poissons Ratio (z) = 0.29526 0.37333
#
# Static dielectric constant tensor:
#      x y z
#    x 3.579330 0.000000 0.000000 
#    y 0.000000 3.587670 0.000000 
#    z 0.000000 0.000000 3.731650 
# 
# 
# High freq. dielectric constant tensor:
#      x y z
#    x 1.774740 0.000000 0.000000 
#    y 0.000000 1.785670 0.000000 
#    z 0.000000 0.000000 1.784710 
# 
# From -- ./inp_files/3651.got.cif
#   From: 2010.03.12/outbox.cif.g09.slc.cpg/sg31_2_cif.got.tgz:3651.got - 2010.04.14 01:42:59.
