data_PCOD8169449
_publ_section_title
;
Structure prediction by ZEFSAII (Michael W. Deem and Ramdas Pophale) SiO2 
 PCOD8169449
Probable space group: P N C 2
;
_chemical_formula_sum "Si O2"
_cell_formula_units_Z 26
_cell_length_a 9.897226
_cell_length_b 14.512917
_cell_length_c 8.884022
_cell_angle_alpha 90.000000
_cell_angle_beta 90.000000
_cell_angle_gamma 90.000000
_cell_volume 1276.079771
_symmetry_space_group_name_H-M "P N C 2"
_symmetry_group_IT_number 30
_symmetry_cell_setting 'orthorhombic'
loop_
_space_group_symop_operation_xyz
x,y,z
-x,-y,z
-x,1/2+y,1/2+z
x,1/2-y,1/2+z
loop_
_atom_site_type_symbol
_atom_site_label
_atom_site_fract_x
_atom_site_fract_y
_atom_site_fract_z
Si Si1 0.814170 0.931423 0.233780
Si Si2 0.571469 0.636721 0.064933
Si Si3 0.000000 0.500000 0.477276
Si Si4 0.970214 0.354136 0.960101
Si Si5 0.974931 0.676792 0.297975
Si Si6 0.696614 0.043519 0.472917
Si Si7 0.308394 0.248264 0.806293
O O1 0.741226 0.834278 0.201542
O O2 0.929570 0.918876 0.363679
O O3 0.706181 0.005792 0.300461
O O4 0.873148 0.973317 0.081216
O O5 0.423164 0.615718 0.001046
O O6 0.665532 0.545676 0.076621
O O7 0.634074 0.713104 0.958880
O O8 0.575808 0.685720 0.227710
O O9 0.960188 0.414918 0.369878
O O10 0.835597 0.406674 0.011934
O O11 0.937808 0.263936 0.858507
O O12 0.034875 0.323662 0.117514
O O13 0.820333 0.686496 0.351412
#
# Coordination Sequence:
#
# PCOD8169449 Si02
#       7
#     4   4   2   4   4   4   4
#     4  10  20  38  64  86 126 159 197 260 318 366
#     4  10  22  38  64  83 114 169 205 243 296 378
#     4  12  22  34  58 100 118 160 196 252 318 370
#     4  11  22  40  60  92 126 160 197 266 315 367
#     4  11  24  35  62  93 122 159 206 250 326 366
#     4  10  21  38  63  86 118 161 211 240 316 365
#     4  10  20  40  59  84 117 157 203 246 296 376
#
# _framework density 20.374903
#
# number of rings (size 3 to 8) (size 9 to 14) (size 15 to 20)
#    0.000    1.538    1.538    5.538    4.308    1.231 
#    0.000    0.000    0.000    1.846    0.000    0.000 
#    0.000    0.000    0.000    0.000    0.000    0.000 
#
# Total GULP energy -322238.129120 kJ/mol
# GULP energy per Si atom -12393.774197 kJ/mol
# Density = 2.032853 g / cm^3
# Si number density = 20.374903 Si / 1000 Ang^3
#
#
#
# Elastic Constant Matrix: (Units=GPa)
#
#
# Indices 1 2 3 4 5 6 
#
# 1 88.0218 35.9930 15.5231 0.0000 0.0000 0.0000
# 2 35.9930 93.8957 35.4961 0.0000 0.0000 0.0000
# 3 15.5231 35.4961 77.0238 0.0000 0.0000 0.0000
# 4 0.0000 0.0000 0.0000 31.0044 0.0000 0.0000
# 5 0.0000 0.0000 0.0000 0.0000 21.4877 0.0000
# 6 0.0000 0.0000 0.0000 0.0000 0.0000 42.9852
#
#
#
# Elastic Compliance Matrix: (Units=1/GPa)
#
#
# Indices 1 2 3 4 5 6 
#
# 1 0.013483 -0.005015 -0.000406 0.000000 0.000000 0.000000
# 2 -0.005015 0.014762 -0.005792 0.000000 0.000000 0.000000
# 3 -0.000406 -0.005792 0.015734 0.000000 0.000000 0.000000
# 4 0.000000 0.000000 0.000000 0.032253 0.000000 0.000000
# 5 0.000000 0.000000 0.000000 0.000000 0.046538 0.000000
# 6 0.000000 0.000000 0.000000 0.000000 0.000000 0.023264
#
#
# Mechanical properties :
#
#
# Convention : Reuss Voigt Hill
#
# Bulk Modulus (GPa) = 46.39835 48.10731 47.25283
# Shear Modulus (GPa) = 28.46628 30.55741 29.51184
#
# Velocity S-wave (km/s) = 3.74187 3.87687 3.80997
# Velocity P-wave (km/s) = 6.44131 6.61079 6.52660
#
# Compressibility (1/GPa) = 0.02155249
#
# Stress axis : x y z
#
# Youngs Moduli (GPa) = 74.16680 67.74041 63.55545
#
# Poissons Ratio (x) = 0.33971 0.02582
# Poissons Ratio (y) = 0.37194 0.36814
# Poissons Ratio (z) = 0.03013 0.39238
#
# Static dielectric constant tensor:
#      x y z
#    x 3.588770 0.000000 0.000000 
#    y 0.000000 3.965630 0.000000 
#    z 0.000000 0.000000 3.499100 
# 
# 
# High freq. dielectric constant tensor:
#      x y z
#    x 1.767210 0.000000 0.000000 
#    y 0.000000 1.813230 0.000000 
#    z 0.000000 0.000000 1.785400 
# 
# From -- ./inp_files/2428.got.cif
#   From: 2010.03.12/outbox.cif.g09.slc.cpg/sg30_2_cif.got.tgz:2428.got - 2010.04.14 01:38:02.
