data_PCOD8169315
_publ_section_title
;
Structure prediction by ZEFSAII (Michael W. Deem and Ramdas Pophale) SiO2 
 PCOD8169315
Probable space group: P C A 21
;
_chemical_formula_sum "Si O2"
_cell_formula_units_Z 24
_cell_length_a 9.218678
_cell_length_b 9.604945
_cell_length_c 11.752235
_cell_angle_alpha 90.000000
_cell_angle_beta 90.000000
_cell_angle_gamma 90.000000
_cell_volume 1040.600416
_symmetry_space_group_name_H-M "P C A 21"
_symmetry_group_IT_number 29
_symmetry_cell_setting 'orthorhombic'
loop_
_space_group_symop_operation_xyz
x,y,z
-x,-y,1/2+z
1/2-x,y,1/2+z
1/2+x,-y,z
loop_
_atom_site_type_symbol
_atom_site_label
_atom_site_fract_x
_atom_site_fract_y
_atom_site_fract_z
Si Si1 0.819226 0.294872 0.415190
Si Si2 0.819812 0.856501 0.519404
Si Si3 0.497919 0.900259 0.577828
Si Si4 0.282755 0.458710 0.590340
Si Si5 0.992543 0.228234 0.825871
Si Si6 0.463084 0.513594 0.245908
O O1 0.906703 0.178120 0.481649
O O2 0.806531 0.432492 0.490631
O O3 0.667535 0.223823 0.380549
O O4 0.908375 0.342695 0.302673
O O5 0.659056 0.919004 0.527455
O O6 0.820543 0.696493 0.553702
O O7 0.891910 0.867388 0.393526
O O8 0.925701 0.948431 0.599717
O O9 0.492908 0.818022 0.695336
O O10 0.369305 0.482484 0.708324
O O11 0.116727 0.478863 0.626918
O O12 0.051161 0.386350 0.834027
#
# Coordination Sequence:
#
# PCOD8169315 Si02
#       6
#     4   4   4   4   4   4
#     4  12  25  46  76 109 152 190 246 311 368 443
#     4  12  28  48  76 104 152 197 251 304 371 445
#     4  12  29  51  73 110 152 200 247 309 371 451
#     4  12  24  44  72 109 144 191 242 309 366 435
#     4  12  26  48  74 111 147 194 252 299 378 442
#     4  12  24  41  73 109 145 186 242 304 370 434
#
# _framework density 23.063607000000001
#
# number of rings (size 3 to 8) (size 9 to 14) (size 15 to 20)
#    0.000    0.000    6.667    2.000    4.667    5.333 
#    0.000    0.000    0.000    0.000    0.000    0.000 
#    0.000    0.000    0.000    0.000    0.000    0.000 
#
# Total GULP energy -297600.786670 kJ/mol
# GULP energy per Si atom -12400.032778 kJ/mol
# Density = 2.301111 g / cm^3
# Si number density = 23.063607 Si / 1000 Ang^3
#
#
#
# Elastic Constant Matrix: (Units=GPa)
#
#
# Indices 1 2 3 4 5 6 
#
# 1 138.4012 26.6461 53.3762 0.0000 0.0000 0.0000
# 2 26.6461 76.2899 22.3594 0.0000 0.0000 0.0000
# 3 53.3762 22.3594 100.4092 0.0000 0.0000 0.0000
# 4 0.0000 0.0000 0.0000 25.8571 0.0000 0.0000
# 5 0.0000 0.0000 0.0000 0.0000 39.2154 0.0000
# 6 0.0000 0.0000 0.0000 0.0000 0.0000 39.9077
#
#
#
# Elastic Compliance Matrix: (Units=1/GPa)
#
#
# Indices 1 2 3 4 5 6 
#
# 1 0.009348 -0.001935 -0.004539 0.000000 0.000000 0.000000
# 2 -0.001935 0.014424 -0.002183 0.000000 0.000000 0.000000
# 3 -0.004539 -0.002183 0.012858 0.000000 0.000000 0.000000
# 4 0.000000 0.000000 0.000000 0.038674 0.000000 0.000000
# 5 0.000000 0.000000 0.000000 0.000000 0.025500 0.000000
# 6 0.000000 0.000000 0.000000 0.000000 0.000000 0.025058
#
#
# Mechanical properties :
#
#
# Convention : Reuss Voigt Hill
#
# Bulk Modulus (GPa) = 51.76956 57.76264 54.76610
# Shear Modulus (GPa) = 33.41928 35.17729 34.29829
#
# Velocity S-wave (km/s) = 3.81071 3.90966 3.86050
# Velocity P-wave (km/s) = 6.46971 6.74387 6.60821
#
# Compressibility (1/GPa) = 0.01931637
#
# Stress axis : x y z
#
# Youngs Moduli (GPa) = 106.97203 69.33080 77.77227
#
# Poissons Ratio (x) = 0.13415 0.35297
# Poissons Ratio (y) = 0.20698 0.16980
# Poissons Ratio (z) = 0.48550 0.15137
#
# Static dielectric constant tensor:
#      x y z
#    x 4.329190 0.000000 0.000000 
#    y 0.000000 4.160210 0.000000 
#    z 0.000000 0.000000 3.993760 
# 
# 
# High freq. dielectric constant tensor:
#      x y z
#    x 1.926140 0.000000 0.000000 
#    y 0.000000 1.916750 0.000000 
#    z 0.000000 0.000000 1.909900 
# 
# From -- ./inp_files/2806.got.cif
#   From: 2010.03.12/outbox.cif.g09.slc.cpg/sg29_2_cif.got.tgz:2806.got - 2010.04.14 03:43:10.
