data_PCOD8169294
_publ_section_title
;
Structure prediction by ZEFSAII (Michael W. Deem and Ramdas Pophale) SiO2 
 PCOD8169294
Probable space group: P C A 21
;
_chemical_formula_sum "Si O2"
_cell_formula_units_Z 32
_cell_length_a 13.961334
_cell_length_b 5.623123
_cell_length_c 17.116851
_cell_angle_alpha 90.000000
_cell_angle_beta 90.000000
_cell_angle_gamma 90.000000
_cell_volume 1343.780611
_symmetry_space_group_name_H-M "P C A 21"
_symmetry_group_IT_number 29
_symmetry_cell_setting 'orthorhombic'
loop_
_space_group_symop_operation_xyz
x,y,z
-x,-y,1/2+z
1/2-x,y,1/2+z
1/2+x,-y,z
loop_
_atom_site_type_symbol
_atom_site_label
_atom_site_fract_x
_atom_site_fract_y
_atom_site_fract_z
Si Si1 0.931152 0.613309 0.730350
Si Si2 0.013051 0.302657 0.852673
Si Si3 0.582750 0.251069 0.094203
Si Si4 0.773469 0.917758 0.677631
Si Si5 0.371422 0.228692 0.061229
Si Si6 0.857695 0.264534 0.972641
Si Si7 0.849172 0.347950 0.421219
Si Si8 0.898530 0.094445 0.268512
O O1 0.938467 0.488183 0.814192
O O2 0.904782 0.467988 0.653248
O O3 0.035155 0.733297 0.716861
O O4 0.841521 0.790694 0.740817
O O5 0.112559 0.400907 0.888125
O O6 0.949431 0.187710 0.921010
O O7 0.042546 0.149832 0.776608
O O8 0.657474 0.049344 0.117125
O O9 0.473737 0.159041 0.098137
O O10 0.605587 0.323529 0.006187
O O11 0.704022 0.091187 0.726564
O O12 0.706683 0.733322 0.629646
O O13 0.379530 0.484965 0.018041
O O14 0.337125 0.982117 0.018864
O O15 0.764986 0.331605 0.921864
O O16 0.888765 0.154667 0.360507
#
# Coordination Sequence:
#
# PCOD8169294 Si02
#       8
#     4   4   4   4   4   4   4   4
#     4  11  27  46  74 108 154 203 263 319 408 466
#     4  11  26  48  73 109 156 200 262 325 403 474
#     4  12  26  50  74 111 152 212 258 340 395 480
#     4  12  27  45  76 109 156 203 267 323 404 485
#     4  12  28  48  78 116 157 202 267 324 401 467
#     4  12  28  47  81 115 154 207 262 326 396 484
#     4  11  26  47  78 108 154 200 264 324 396 475
#     4  11  28  49  74 112 155 209 263 335 401 487
#
# _framework density 23.813410999999999
#
# number of rings (size 3 to 8) (size 9 to 14) (size 15 to 20)
#    0.000    0.500    2.500    3.750   12.250    3.000 
#    0.000    0.000    0.000    0.000    0.000    0.000 
#    0.000    0.000    0.000    0.000    0.000    0.000 
#
# Total GULP energy -396530.932719 kJ/mol
# GULP energy per Si atom -12391.591647 kJ/mol
# Density = 2.375921 g / cm^3
# Si number density = 23.813411 Si / 1000 Ang^3
#
#
#
# Elastic Constant Matrix: (Units=GPa)
#
#
# Indices 1 2 3 4 5 6 
#
# 1 137.3619 7.0079 12.1569 0.0000 0.0000 0.0000
# 2 7.0079 64.4776 -0.7937 0.0000 0.0000 0.0000
# 3 12.1569 -0.7937 58.1304 0.0000 0.0000 0.0000
# 4 0.0000 0.0000 0.0000 32.4632 0.0000 0.0000
# 5 0.0000 0.0000 0.0000 0.0000 46.9857 0.0000
# 6 0.0000 0.0000 0.0000 0.0000 0.0000 32.9898
#
#
#
# Elastic Compliance Matrix: (Units=1/GPa)
#
#
# Indices 1 2 3 4 5 6 
#
# 1 0.007462 -0.000830 -0.001572 0.000000 0.000000 0.000000
# 2 -0.000830 0.015604 0.000387 0.000000 0.000000 0.000000
# 3 -0.001572 0.000387 0.017537 0.000000 0.000000 0.000000
# 4 0.000000 0.000000 0.000000 0.030804 0.000000 0.000000
# 5 0.000000 0.000000 0.000000 0.000000 0.021283 0.000000
# 6 0.000000 0.000000 0.000000 0.000000 0.000000 0.030312
#
#
# Mechanical properties :
#
#
# Convention : Reuss Voigt Hill
#
# Bulk Modulus (GPa) = 27.34358 32.96804 30.15581
# Shear Modulus (GPa) = 35.91349 38.59431 37.25390
#
# Velocity S-wave (km/s) = 3.88767 4.03015 3.95955
# Velocity P-wave (km/s) = 5.62666 5.96075 5.79611
#
# Compressibility (1/GPa) = 0.03657166
#
# Stress axis : x y z
#
# Youngs Moduli (GPa) = 134.02121 64.08503 57.02330
#
# Poissons Ratio (x) = 0.05321 0.08963
# Poissons Ratio (y) = 0.11128 -0.02205
# Poissons Ratio (z) = 0.21065 -0.02478
#
# Static dielectric constant tensor:
#      x y z
#    x 4.491120 0.000000 0.000000 
#    y 0.000000 4.301420 0.000000 
#    z 0.000000 0.000000 4.176270 
# 
# 
# High freq. dielectric constant tensor:
#      x y z
#    x 1.967140 0.000000 0.000000 
#    y 0.000000 1.937010 0.000000 
#    z 0.000000 0.000000 1.948200 
# 
# From -- ./inp_files/5220.got.cif
#   From: 2010.03.12/outbox.cif.g09.slc.cpg/sg29_3_cif.got.tgz:5220.got - 2010.04.14 03:43:10.
