data_PCOD8169920
_publ_section_title
;
Structure prediction by ZEFSAII (Michael W. Deem and Ramdas Pophale) SiO2 
 PCOD8169920
Probable space group: P M N 21
;
_chemical_formula_sum "Si O2"
_cell_formula_units_Z 32
_cell_length_a 9.019519
_cell_length_b 12.192441
_cell_length_c 14.336735
_cell_angle_alpha 90.000000
_cell_angle_beta 90.000000
_cell_angle_gamma 90.000000
_cell_volume 1576.610078
_symmetry_space_group_name_H-M "P M N 21"
_symmetry_group_IT_number 31
_symmetry_cell_setting 'orthorhombic'
loop_
_space_group_symop_operation_xyz
x,y,z
1/2-x,-y,1/2+z
-x,y,z
1/2+x,-y,1/2+z
loop_
_atom_site_type_symbol
_atom_site_label
_atom_site_fract_x
_atom_site_fract_y
_atom_site_fract_z
Si Si1 0.333669 0.702006 0.337530
Si Si2 0.327467 0.329134 0.306983
Si Si3 0.675882 0.498864 0.925285
Si Si4 0.163981 0.186803 0.033510
Si Si5 0.827961 0.945308 0.020684
Si Si6 0.169147 0.615952 0.607261
Si Si7 0.829198 0.883708 0.228760
Si Si8 0.175831 0.107026 0.333188
O O1 0.500000 0.663974 0.308349
O O2 0.231795 0.596478 0.356217
O O3 0.341656 0.776605 0.427690
O O4 0.264129 0.777826 0.258095
O O5 0.500000 0.309627 0.328980
O O6 0.251354 0.387217 0.395563
O O7 0.308055 0.410947 0.216727
O O8 0.250464 0.212827 0.285074
O O9 0.500000 0.510836 0.916363
O O10 0.730343 0.473540 0.032503
O O11 0.259775 0.265943 0.095841
O O12 0.000000 0.183355 0.078149
O O13 0.235297 0.067075 0.036915
O O14 0.807915 0.882807 0.117734
O O15 0.000000 0.948123 0.989123
O O16 0.730670 0.890939 0.940027
O O17 0.000000 0.631274 0.580181
O O18 0.000000 0.866175 0.256901
O O19 0.773716 0.996980 0.277682
O O20 0.000000 0.120243 0.329934
#
# Coordination Sequence:
#
# PCOD8169920 Si02
#       8
#     4   4   4   4   4   4   4   4
#     4  10  19  34  58  84 112 147 190 239 291 345
#     4  11  23  41  62  87 119 156 197 244 297 354
#     4  10  21  40  63  87 116 150 194 247 296 347
#     4   9  17  31  55  83 114 149 189 237 285 338
#     4  10  20  36  55  82 119 158 195 237 290 349
#     4   9  20  37  60  88 115 148 194 244 292 343
#     4  10  21  36  57  85 120 157 196 240 291 350
#     4  11  23  39  60  88 121 159 197 242 294 350
#
# _framework density 20.296711999999999
#
# number of rings (size 3 to 8) (size 9 to 14) (size 15 to 20)
#    0.000    2.000    1.250    2.250    0.000    4.500 
#    2.250    0.000    0.000    0.000    0.000    0.000 
#    0.000    0.000    0.000    0.000    0.000    0.000 
#
# Total GULP energy -396693.680636 kJ/mol
# GULP energy per Si atom -12396.677520 kJ/mol
# Density = 2.025052 g / cm^3
# Si number density = 20.296712 Si / 1000 Ang^3
#
#
#
# Elastic Constant Matrix: (Units=GPa)
#
#
# Indices 1 2 3 4 5 6 
#
# 1 64.9776 5.4294 30.7407 0.0000 0.0000 0.0000
# 2 5.4294 27.3545 11.8573 0.0000 0.0000 0.0000
# 3 30.7407 11.8573 85.1055 0.0000 0.0000 0.0000
# 4 0.0000 0.0000 0.0000 20.9039 0.0000 0.0000
# 5 0.0000 0.0000 0.0000 0.0000 27.5743 0.0000
# 6 0.0000 0.0000 0.0000 0.0000 0.0000 33.8887
#
#
#
# Elastic Compliance Matrix: (Units=1/GPa)
#
#
# Indices 1 2 3 4 5 6 
#
# 1 0.018580 -0.000829 -0.006596 0.000000 0.000000 0.000000
# 2 -0.000829 0.038944 -0.005126 0.000000 0.000000 0.000000
# 3 -0.006596 -0.005126 0.014847 0.000000 0.000000 0.000000
# 4 0.000000 0.000000 0.000000 0.047838 0.000000 0.000000
# 5 0.000000 0.000000 0.000000 0.000000 0.036266 0.000000
# 6 0.000000 0.000000 0.000000 0.000000 0.000000 0.029508
#
#
# Mechanical properties :
#
#
# Convention : Reuss Voigt Hill
#
# Bulk Modulus (GPa) = 21.15582 30.38806 25.77194
# Shear Modulus (GPa) = 22.04200 25.10073 23.57136
#
# Velocity S-wave (km/s) = 3.29901 3.52047 3.41154
# Velocity P-wave (km/s) = 4.99572 5.61510 5.31444
#
# Compressibility (1/GPa) = 0.04726832
#
# Stress axis : x y z
#
# Youngs Moduli (GPa) = 53.82267 25.67810 67.35485
#
# Poissons Ratio (x) = 0.02128 0.44425
# Poissons Ratio (y) = 0.04461 0.34529
# Poissons Ratio (z) = 0.35499 0.13164
#
# Static dielectric constant tensor:
#      x y z
#    x 3.700630 0.000000 0.000000 
#    y 0.000000 3.536970 0.000000 
#    z 0.000000 0.000000 3.730050 
# 
# 
# High freq. dielectric constant tensor:
#      x y z
#    x 1.790190 0.000000 0.000000 
#    y 0.000000 1.782100 0.000000 
#    z 0.000000 0.000000 1.795010 
# 
# From -- ./inp_files/4967.got.cif
#   From: 2010.03.12/outbox.cif.g09.slc.cpg/sg31_3_cif.got.tgz:4967.got - 2010.04.14 01:42:59.
