data_PCOD8169472
_publ_section_title
;
Structure prediction by ZEFSAII (Michael W. Deem and Ramdas Pophale) SiO2 
 PCOD8169472
Probable space group: P N C 2
;
_chemical_formula_sum "Si O2"
_cell_formula_units_Z 24
_cell_length_a 14.458876
_cell_length_b 12.466931
_cell_length_c 5.292363
_cell_angle_alpha 90.000000
_cell_angle_beta 90.000000
_cell_angle_gamma 90.000000
_cell_volume 953.989761
_symmetry_space_group_name_H-M "P N C 2"
_symmetry_group_IT_number 30
_symmetry_cell_setting 'orthorhombic'
loop_
_space_group_symop_operation_xyz
x,y,z
-x,-y,z
-x,1/2+y,1/2+z
x,1/2-y,1/2+z
loop_
_atom_site_type_symbol
_atom_site_label
_atom_site_fract_x
_atom_site_fract_y
_atom_site_fract_z
Si Si1 0.970121 0.151440 0.945520
Si Si2 0.182734 0.188304 0.935494
Si Si3 0.393303 0.690641 0.173368
Si Si4 0.609423 0.690490 0.131977
Si Si5 0.896329 0.117275 0.446136
Si Si6 0.730468 0.999237 0.669479
O O1 0.955077 0.081226 0.693460
O O2 0.072557 0.198108 0.957700
O O3 0.945386 0.077291 0.187630
O O4 0.897422 0.252025 0.938129
O O5 0.220790 0.257541 0.693440
O O6 0.213151 0.064159 0.891652
O O7 0.366116 0.777961 0.386768
O O8 0.501424 0.665406 0.152675
O O9 0.337230 0.589066 0.279652
O O10 0.636787 0.719491 0.422952
O O11 0.663005 0.585452 0.033768
O O12 0.797571 0.058458 0.468241
#
# Coordination Sequence:
#
# PCOD8169472 Si02
#       6
#     4   4   4   4   4   4
#     4  10  20  45  64  88 135 179 222 287 353 416
#     4  12  24  46  70  96 140 189 235 298 353 426
#     4  10  25  46  72 102 149 193 231 294 373 434
#     4  10  23  48  72 102 149 194 230 293 370 441
#     4  10  22  38  68  91 130 175 228 287 346 410
#     4  12  27  41  74 114 139 183 253 303 354 432
#
# _framework density 25.157502000000001
#
# number of rings (size 3 to 8) (size 9 to 14) (size 15 to 20)
#    0.000    1.333    3.333    1.500    4.667    6.000 
#    0.000    6.667    0.000    0.000    0.000    0.000 
#    0.000    0.000    0.000    0.000    0.000    0.000 
#
# Total GULP energy -297318.344630 kJ/mol
# GULP energy per Si atom -12388.264360 kJ/mol
# Density = 2.510024 g / cm^3
# Si number density = 25.157502 Si / 1000 Ang^3
#
#
#
# Elastic Constant Matrix: (Units=GPa)
#
#
# Indices 1 2 3 4 5 6 
#
# 1 91.4415 71.0889 60.0466 0.0000 0.0000 0.0000
# 2 71.0889 119.9325 22.7350 0.0000 0.0000 0.0000
# 3 60.0466 22.7350 195.9426 0.0000 0.0000 0.0000
# 4 0.0000 0.0000 0.0000 9.3458 0.0000 0.0000
# 5 0.0000 0.0000 0.0000 0.0000 32.3341 0.0000
# 6 0.0000 0.0000 0.0000 0.0000 0.0000 52.8064
#
#
#
# Elastic Compliance Matrix: (Units=1/GPa)
#
#
# Indices 1 2 3 4 5 6 
#
# 1 0.026325 -0.014391 -0.006398 0.000000 0.000000 0.000000
# 2 -0.014391 0.016393 0.002508 0.000000 0.000000 0.000000
# 3 -0.006398 0.002508 0.006773 0.000000 0.000000 0.000000
# 4 0.000000 0.000000 0.000000 0.107000 0.000000 0.000000
# 5 0.000000 0.000000 0.000000 0.000000 0.030927 0.000000
# 6 0.000000 0.000000 0.000000 0.000000 0.000000 0.018937
#
#
# Mechanical properties :
#
#
# Convention : Reuss Voigt Hill
#
# Bulk Modulus (GPa) = 77.34089 79.45084 78.39586
# Shear Modulus (GPa) = 20.22435 35.79365 28.00900
#
# Velocity S-wave (km/s) = 2.83841 3.77607 3.34030
# Velocity P-wave (km/s) = 6.44604 7.11769 6.79018
#
# Compressibility (1/GPa) = 0.01292977
#
# Stress axis : x y z
#
# Youngs Moduli (GPa) = 37.98658 61.00235 147.64411
#
# Poissons Ratio (x) = 0.87790 0.94456
# Poissons Ratio (y) = 0.54667 -0.37031
# Poissons Ratio (z) = 0.24302 -0.15300
#
# Static dielectric constant tensor:
#      x y z
#    x 4.719050 0.000000 0.000000 
#    y 0.000000 4.257270 0.000000 
#    z 0.000000 0.000000 5.103880 
# 
# 
# High freq. dielectric constant tensor:
#      x y z
#    x 2.025140 0.000000 0.000000 
#    y 0.000000 1.986300 0.000000 
#    z 0.000000 0.000000 2.009950 
# 
# From -- ./inp_files/913.got.cif
#   From: 2010.03.12/outbox.cif.g09.slc.cpg/sg30_1_cif.got.tgz:913.got - 2010.04.14 01:38:02.
