data_PCOD8169154
_publ_section_title
;
Structure prediction by ZEFSAII (Michael W. Deem and Ramdas Pophale) SiO2 
 PCOD8169154
Probable space group: P C A 21
;
_chemical_formula_sum "Si O2"
_cell_formula_units_Z 32
_cell_length_a 10.436487
_cell_length_b 6.506261
_cell_length_c 21.573182
_cell_angle_alpha 90.000000
_cell_angle_beta 90.000000
_cell_angle_gamma 90.000000
_cell_volume 1464.873171
_symmetry_space_group_name_H-M "P C A 21"
_symmetry_group_IT_number 29
_symmetry_cell_setting 'orthorhombic'
loop_
_space_group_symop_operation_xyz
x,y,z
-x,-y,1/2+z
1/2-x,y,1/2+z
1/2+x,-y,z
loop_
_atom_site_type_symbol
_atom_site_label
_atom_site_fract_x
_atom_site_fract_y
_atom_site_fract_z
Si Si1 0.390386 0.303645 0.853930
Si Si2 0.097142 0.684929 0.016177
Si Si3 0.021888 0.531832 0.630547
Si Si4 0.336010 0.867855 0.062772
Si Si5 0.388859 0.170039 0.715182
Si Si6 0.887710 0.876562 0.173165
Si Si7 0.031126 0.969904 0.440563
Si Si8 0.122861 0.417850 0.905351
O O1 0.405697 0.272141 0.781367
O O2 0.254143 0.416104 0.865996
O O3 0.509283 0.450185 0.873658
O O4 0.387392 0.073237 0.884681
O O5 0.185539 0.846764 0.052692
O O6 0.019128 0.562228 0.066151
O O7 0.163700 0.514241 0.971870
O O8 0.013166 0.820995 0.971670
O O9 0.131765 0.689948 0.611654
O O10 0.079845 0.364355 0.677670
O O11 0.905911 0.651447 0.663838
O O12 0.374539 0.075682 0.098899
O O13 0.393172 0.845325 0.993602
O O14 0.246835 0.073976 0.707164
O O15 0.497646 0.997357 0.706432
O O16 0.923473 0.818442 0.413642
#
# Coordination Sequence:
#
# PCOD8169154 Si02
#       8
#     4   4   4   4   4   4   4   4
#     4  11  28  47  70 100 135 190 238 286 348 413
#     4  11  22  38  67 104 138 176 218 276 351 414
#     4  11  23  41  68 104 138 179 223 283 350 409
#     4  11  22  38  67 104 138 176 218 276 351 414
#     4  11  28  47  70 100 135 190 238 286 348 413
#     4  11  25  47  70 104 141 179 233 290 347 418
#     4  11  23  41  68 104 138 179 223 283 350 409
#     4  11  25  47  70 104 141 179 233 290 347 418
#
# _framework density 21.844894
#
# number of rings (size 3 to 8) (size 9 to 14) (size 15 to 20)
#    0.000    1.000    2.500    3.000    7.000    4.000 
#    0.000    0.000    0.000    0.000    0.000    0.000 
#    0.000    0.000    0.000    0.000    0.000    0.000 
#
# Total GULP energy -396613.364622 kJ/mol
# GULP energy per Si atom -12394.167644 kJ/mol
# Density = 2.179517 g / cm^3
# Si number density = 21.844894 Si / 1000 Ang^3
#
#
#
# Elastic Constant Matrix: (Units=GPa)
#
#
# Indices 1 2 3 4 5 6 
#
# 1 120.3162 36.6760 30.8714 0.0000 0.0000 0.0000
# 2 36.6760 101.8365 36.4857 0.0000 0.0000 0.0000
# 3 30.8714 36.4857 97.2445 0.0000 0.0000 0.0000
# 4 0.0000 0.0000 0.0000 28.3509 0.0000 0.0000
# 5 0.0000 0.0000 0.0000 0.0000 22.0470 0.0000
# 6 0.0000 0.0000 0.0000 0.0000 0.0000 31.4002
#
#
#
# Elastic Compliance Matrix: (Units=1/GPa)
#
#
# Indices 1 2 3 4 5 6 
#
# 1 0.009674 -0.002754 -0.002038 0.000000 0.000000 0.000000
# 2 -0.002754 0.012129 -0.003676 0.000000 0.000000 0.000000
# 3 -0.002038 -0.003676 0.012310 0.000000 0.000000 0.000000
# 4 0.000000 0.000000 0.000000 0.035272 0.000000 0.000000
# 5 0.000000 0.000000 0.000000 0.000000 0.045358 0.000000
# 6 0.000000 0.000000 0.000000 0.000000 0.000000 0.031847
#
#
# Mechanical properties :
#
#
# Convention : Reuss Voigt Hill
#
# Bulk Modulus (GPa) = 58.22093 58.60703 58.41398
# Shear Modulus (GPa) = 29.54208 30.71724 30.12966
#
# Velocity S-wave (km/s) = 3.68143 3.75394 3.71786
# Velocity P-wave (km/s) = 6.69181 6.75843 6.72520
#
# Compressibility (1/GPa) = 0.01717595
#
# Stress axis : x y z
#
# Youngs Moduli (GPa) = 103.37236 82.44975 81.23721
#
# Poissons Ratio (x) = 0.22706 0.16555
# Poissons Ratio (y) = 0.28467 0.29866
# Poissons Ratio (z) = 0.21065 0.30311
#
# Static dielectric constant tensor:
#      x y z
#    x 3.817880 0.000000 0.000000 
#    y 0.000000 4.420720 0.000000 
#    z 0.000000 0.000000 4.196770 
# 
# 
# High freq. dielectric constant tensor:
#      x y z
#    x 1.854930 0.000000 0.000000 
#    y 0.000000 1.867420 0.000000 
#    z 0.000000 0.000000 1.859210 
# 
# From -- ./inp_files/5516.got.cif
#   From: 2010.03.12/outbox.cif.g09.slc.cpg/sg29_3_cif.got.tgz:5516.got - 2010.04.14 03:43:10.
