data_PCOD8169282
_publ_section_title
;
Structure prediction by ZEFSAII (Michael W. Deem and Ramdas Pophale) SiO2 
 PCOD8169282
Probable space group: P C A 21
;
_chemical_formula_sum "Si O2"
_cell_formula_units_Z 20
_cell_length_a 7.495157
_cell_length_b 10.647153
_cell_length_c 8.973694
_cell_angle_alpha 90.000000
_cell_angle_beta 90.000000
_cell_angle_gamma 90.000000
_cell_volume 716.119476
_symmetry_space_group_name_H-M "P C A 21"
_symmetry_group_IT_number 29
_symmetry_cell_setting 'orthorhombic'
loop_
_space_group_symop_operation_xyz
x,y,z
-x,-y,1/2+z
1/2-x,y,1/2+z
1/2+x,-y,z
loop_
_atom_site_type_symbol
_atom_site_label
_atom_site_fract_x
_atom_site_fract_y
_atom_site_fract_z
Si Si1 0.151329 0.367696 0.395340
Si Si2 0.619341 0.863244 0.199020
Si Si3 0.935048 0.352650 0.900786
Si Si4 0.138646 0.746535 0.094509
Si Si5 0.425898 0.035417 0.010119
O O1 0.094031 0.276625 0.259274
O O2 0.119484 0.509284 0.342146
O O3 0.356331 0.341261 0.440575
O O4 0.024774 0.339727 0.534877
O O5 0.625204 0.964447 0.336140
O O6 0.798622 0.873715 0.104588
O O7 0.455225 0.897843 0.084765
O O8 0.875942 0.255047 0.772879
O O9 0.824745 0.316618 0.047452
O O10 0.118657 0.890945 0.031447
#
# Coordination Sequence:
#
# PCOD8169282 Si02
#       5
#     4   4   4   4   4
#     4  11  26  48  78 115 162 209 267 335 401 492
#     4  11  25  50  76 114 158 207 272 327 410 480
#     4  12  26  48  81 116 160 207 267 335 407 481
#     4  11  28  48  76 118 152 214 265 332 407 474
#     4  11  25  50  77 111 156 211 265 335 399 483
#
# _framework density 27.928301999999999
#
# number of rings (size 3 to 8) (size 9 to 14) (size 15 to 20)
#    0.000    0.800    4.000    1.200    2.800    6.400 
#   10.800    0.000    0.000    0.000    0.000    0.000 
#    0.000    0.000    0.000    0.000    0.000    0.000 
#
# Total GULP energy -248107.650512 kJ/mol
# GULP energy per Si atom -12405.382526 kJ/mol
# Density = 2.786474 g / cm^3
# Si number density = 27.928302 Si / 1000 Ang^3
#
#
#
# Elastic Constant Matrix: (Units=GPa)
#
#
# Indices 1 2 3 4 5 6 
#
# 1 135.8393 2.3668 38.9919 0.0000 0.0000 0.0000
# 2 2.3668 81.8326 -10.9448 0.0000 0.0000 0.0000
# 3 38.9919 -10.9448 111.7027 0.0000 0.0000 0.0000
# 4 0.0000 0.0000 0.0000 37.9154 0.0000 0.0000
# 5 0.0000 0.0000 0.0000 0.0000 43.3195 0.0000
# 6 0.0000 0.0000 0.0000 0.0000 0.0000 28.5065
#
#
#
# Elastic Compliance Matrix: (Units=1/GPa)
#
#
# Indices 1 2 3 4 5 6 
#
# 1 0.008213 -0.000629 -0.002929 0.000000 0.000000 0.000000
# 2 -0.000629 0.012431 0.001438 0.000000 0.000000 0.000000
# 3 -0.002929 0.001438 0.010115 0.000000 0.000000 0.000000
# 4 0.000000 0.000000 0.000000 0.026375 0.000000 0.000000
# 5 0.000000 0.000000 0.000000 0.000000 0.023084 0.000000
# 6 0.000000 0.000000 0.000000 0.000000 0.000000 0.035080
#
#
# Mechanical properties :
#
#
# Convention : Reuss Voigt Hill
#
# Bulk Modulus (GPa) = 37.70916 43.35581 40.53249
# Shear Modulus (GPa) = 38.94752 41.87900 40.41326
#
# Velocity S-wave (km/s) = 3.73842 3.87656 3.80812
# Velocity P-wave (km/s) = 5.67150 5.96613 5.82068
#
# Compressibility (1/GPa) = 0.02651875
#
# Stress axis : x y z
#
# Youngs Moduli (GPa) = 121.75443 80.44698 98.85830
#
# Poissons Ratio (x) = 0.05062 0.28952
# Poissons Ratio (y) = 0.07661 -0.14212
# Poissons Ratio (z) = 0.35658 -0.11565
#
# Static dielectric constant tensor:
#      x y z
#    x 5.328550 0.000000 0.000000 
#    y 0.000000 5.168420 0.000000 
#    z 0.000000 0.000000 4.795110 
# 
# 
# High freq. dielectric constant tensor:
#      x y z
#    x 2.150490 0.000000 0.000000 
#    y 0.000000 2.137020 0.000000 
#    z 0.000000 0.000000 2.122320 
# 
# From -- ./inp_files/1097.got.cif
#   From: 2010.03.12/outbox.cif.g09.slc.cpg/sg29_1_cif.got.tgz:1097.got - 2010.04.14 03:43:10.
