data_PCOD8169901
_publ_section_title
;
Structure prediction by ZEFSAII (Michael W. Deem and Ramdas Pophale) SiO2 
 PCOD8169901
Probable space group: P M N 21
;
_chemical_formula_sum "Si O2"
_cell_formula_units_Z 32
_cell_length_a 15.544248
_cell_length_b 11.700662
_cell_length_c 8.629531
_cell_angle_alpha 90.000000
_cell_angle_beta 90.000000
_cell_angle_gamma 90.000000
_cell_volume 1569.521769
_symmetry_space_group_name_H-M "P M N 21"
_symmetry_group_IT_number 31
_symmetry_cell_setting 'orthorhombic'
loop_
_space_group_symop_operation_xyz
x,y,z
1/2-x,-y,1/2+z
-x,y,z
1/2+x,-y,1/2+z
loop_
_atom_site_type_symbol
_atom_site_label
_atom_site_fract_x
_atom_site_fract_y
_atom_site_fract_z
Si Si1 0.899949 0.418234 0.047960
Si Si2 0.908102 0.703689 0.610569
Si Si3 0.405572 0.548793 0.194104
Si Si4 0.731419 0.381131 0.581955
Si Si5 0.901670 0.935899 0.133767
Si Si6 0.832686 0.173027 0.117205
Si Si7 0.689440 0.190745 0.360372
Si Si8 0.295852 0.210125 0.855533
O O1 0.836344 0.516354 0.115504
O O2 0.876863 0.297428 0.127099
O O3 0.000000 0.450229 0.082979
O O4 0.883975 0.403824 0.864736
O O5 0.909314 0.586840 0.705150
O O6 0.886310 0.802026 0.734341
O O7 0.841391 0.700827 0.470992
O O8 0.000000 0.732301 0.536838
O O9 0.500000 0.595710 0.139216
O O10 0.330619 0.578157 0.071666
O O11 0.706731 0.318850 0.423608
O O12 0.734585 0.286761 0.715036
O O13 0.860039 0.888877 0.293709
O O14 0.000000 0.891255 0.118780
O O15 0.903665 0.073447 0.128620
O O16 0.840897 0.894670 0.993385
O O17 0.773868 0.150291 0.268482
O O18 0.782474 0.155884 0.953531
#
# Coordination Sequence:
#
# PCOD8169901 Si02
#       8
#     4   4   4   4   4   4   4   4
#     4  11  23  37  62  93 125 163 204 246 302 374
#     4  10  19  34  55  86 119 152 191 244 299 355
#     4  10  21  36  57  87 124 162 200 244 300 373
#     4  11  21  38  60  88 123 158 195 252 302 358
#     4  11  23  40  61  87 117 153 203 261 308 360
#     4  11  22  41  61  85 120 162 200 247 306 370
#     4  10  22  37  62  84 115 154 201 245 306 364
#     4  10  22  37  61  88 115 156 203 251 299 360
#
# _framework density 20.388376000000001
#
# number of rings (size 3 to 8) (size 9 to 14) (size 15 to 20)
#    0.000    1.500    2.500    3.375    0.000    2.500 
#    0.000    2.500    0.000    0.000    0.000    0.000 
#    0.000    0.000    0.000    0.000    0.000    0.000 
#
# Total GULP energy -396598.689731 kJ/mol
# GULP energy per Si atom -12393.709054 kJ/mol
# Density = 2.034197 g / cm^3
# Si number density = 20.388376 Si / 1000 Ang^3
#
#
#
# Elastic Constant Matrix: (Units=GPa)
#
#
# Indices 1 2 3 4 5 6 
#
# 1 121.4177 30.8588 20.1370 0.0000 0.0000 0.0000
# 2 30.8588 90.6532 12.9781 0.0000 0.0000 0.0000
# 3 20.1370 12.9781 63.5537 0.0000 0.0000 0.0000
# 4 0.0000 0.0000 0.0000 20.8517 0.0000 0.0000
# 5 0.0000 0.0000 0.0000 0.0000 12.9727 0.0000
# 6 0.0000 0.0000 0.0000 0.0000 0.0000 25.8883
#
#
#
# Elastic Compliance Matrix: (Units=1/GPa)
#
#
# Indices 1 2 3 4 5 6 
#
# 1 0.009354 -0.002843 -0.002383 0.000000 0.000000 0.000000
# 2 -0.002843 0.012227 -0.001596 0.000000 0.000000 0.000000
# 3 -0.002383 -0.001596 0.016816 0.000000 0.000000 0.000000
# 4 0.000000 0.000000 0.000000 0.047958 0.000000 0.000000
# 5 0.000000 0.000000 0.000000 0.000000 0.077085 0.000000
# 6 0.000000 0.000000 0.000000 0.000000 0.000000 0.038628
#
#
# Mechanical properties :
#
#
# Convention : Reuss Voigt Hill
#
# Bulk Modulus (GPa) = 40.40010 44.84137 42.62074
# Shear Modulus (GPa) = 22.32514 26.05257 24.18886
#
# Velocity S-wave (km/s) = 3.31266 3.57853 3.44816
# Velocity P-wave (km/s) = 5.87281 6.25427 6.06654
#
# Compressibility (1/GPa) = 0.02475241
#
# Stress axis : x y z
#
# Youngs Moduli (GPa) = 106.90821 81.78431 59.46794
#
# Poissons Ratio (x) = 0.23250 0.14172
# Poissons Ratio (y) = 0.30393 0.09492
# Poissons Ratio (z) = 0.25479 0.13054
#
# Static dielectric constant tensor:
#      x y z
#    x 3.833320 0.000000 0.000000 
#    y 0.000000 3.503230 0.000000 
#    z 0.000000 0.000000 3.676130 
# 
# 
# High freq. dielectric constant tensor:
#      x y z
#    x 1.803820 0.000000 0.000000 
#    y 0.000000 1.784420 0.000000 
#    z 0.000000 0.000000 1.790010 
# 
# From -- ./inp_files/2595.got.cif
#   From: 2010.03.12/outbox.cif.g09.slc.cpg/sg31_2_cif.got.tgz:2595.got - 2010.04.14 01:42:59.
