data_PCOD8169908
_publ_section_title
;
Structure prediction by ZEFSAII (Michael W. Deem and Ramdas Pophale) SiO2 
 PCOD8169908
Probable space group: P M N 21
;
_chemical_formula_sum "Si O2"
_cell_formula_units_Z 32
_cell_length_a 9.089577
_cell_length_b 12.195106
_cell_length_c 14.447807
_cell_angle_alpha 90.000000
_cell_angle_beta 90.000000
_cell_angle_gamma 90.000000
_cell_volume 1601.515639
_symmetry_space_group_name_H-M "P M N 21"
_symmetry_group_IT_number 31
_symmetry_cell_setting 'orthorhombic'
loop_
_space_group_symop_operation_xyz
x,y,z
1/2-x,-y,1/2+z
-x,y,z
1/2+x,-y,1/2+z
loop_
_atom_site_type_symbol
_atom_site_label
_atom_site_fract_x
_atom_site_fract_y
_atom_site_fract_z
Si Si1 0.668636 0.332943 0.365530
Si Si2 0.170843 0.480724 0.730081
Si Si3 0.833746 0.173814 0.635963
Si Si4 0.667571 0.878996 0.429766
Si Si5 0.668935 0.964445 0.626374
Si Si6 0.674608 0.277002 0.805415
Si Si7 0.836026 0.399304 0.537097
Si Si8 0.825947 0.906073 0.814724
O O1 0.500000 0.327099 0.393841
O O2 0.691119 0.396132 0.267655
O O3 0.741777 0.408575 0.444453
O O4 0.732107 0.209721 0.357359
O O5 0.262798 0.399520 0.795695
O O6 0.226738 0.471850 0.623172
O O7 0.000000 0.442246 0.731898
O O8 0.742071 0.199237 0.727493
O O9 0.832949 0.272374 0.564559
O O10 0.000000 0.141765 0.664605
O O11 0.751231 0.072617 0.589012
O O12 0.500000 0.853966 0.399796
O O13 0.680213 0.881276 0.540691
O O14 0.773331 0.778670 0.400971
O O15 0.717299 0.994424 0.382770
O O16 0.500000 0.991147 0.650371
O O17 0.748229 0.917170 0.716136
O O18 0.500000 0.280475 0.799244
O O19 0.000000 0.439090 0.512934
O O20 0.000000 0.899018 0.798364
#
# Coordination Sequence:
#
# PCOD8169908 Si02
#       8
#     4   4   4   4   4   4   4   4
#     4  10  21  39  62  86 115 156 198 236 289 355
#     4   9  20  40  61  82 116 156 190 236 300 351
#     4  10  19  34  56  81 115 154 187 233 293 341
#     4  10  21  37  56  81 120 159 188 230 294 351
#     4  11  22  35  55  86 118 153 195 237 282 344
#     4  11  21  34  57  85 109 141 194 245 283 336
#     4   9  19  35  58  86 114 151 195 241 292 341
#     4  10  21  38  59  83 117 160 193 232 291 351
#
# _framework density 19.981072000000001
#
# number of rings (size 3 to 8) (size 9 to 14) (size 15 to 20)
#    0.000    2.000    1.250    3.375    0.000    5.500 
#    2.250    0.000    0.000    0.000    0.000    0.000 
#    0.000    0.000    0.000    0.000    0.000    0.000 
#
# Total GULP energy -396737.793467 kJ/mol
# GULP energy per Si atom -12398.056046 kJ/mol
# Density = 1.993559 g / cm^3
# Si number density = 19.981072 Si / 1000 Ang^3
#
#
#
# Elastic Constant Matrix: (Units=GPa)
#
#
# Indices 1 2 3 4 5 6 
#
# 1 79.7621 16.2030 28.0676 0.0000 0.0000 0.0000
# 2 16.2030 50.1795 15.4927 0.0000 0.0000 0.0000
# 3 28.0676 15.4927 96.2801 0.0000 0.0000 0.0000
# 4 0.0000 0.0000 0.0000 22.1830 0.0000 0.0000
# 5 0.0000 0.0000 0.0000 0.0000 30.7637 0.0000
# 6 0.0000 0.0000 0.0000 0.0000 0.0000 21.2791
#
#
#
# Elastic Compliance Matrix: (Units=1/GPa)
#
#
# Indices 1 2 3 4 5 6 
#
# 1 0.014553 -0.003566 -0.003669 0.000000 0.000000 0.000000
# 2 -0.003566 0.021844 -0.002475 0.000000 0.000000 0.000000
# 3 -0.003669 -0.002475 0.011854 0.000000 0.000000 0.000000
# 4 0.000000 0.000000 0.000000 0.045080 0.000000 0.000000
# 5 0.000000 0.000000 0.000000 0.000000 0.032506 0.000000
# 6 0.000000 0.000000 0.000000 0.000000 0.000000 0.046994
#
#
# Mechanical properties :
#
#
# Convention : Reuss Voigt Hill
#
# Bulk Modulus (GPa) = 34.68545 38.41648 36.55096
# Shear Modulus (GPa) = 24.76941 25.94237 25.35589
#
# Velocity S-wave (km/s) = 3.52468 3.60717 3.56616
# Velocity P-wave (km/s) = 5.82763 6.05120 5.94047
#
# Compressibility (1/GPa) = 0.02883053
#
# Stress axis : x y z
#
# Youngs Moduli (GPa) = 68.71576 45.77845 84.35881
#
# Poissons Ratio (x) = 0.16327 0.30947
# Poissons Ratio (y) = 0.24507 0.20882
# Poissons Ratio (z) = 0.25208 0.11332
#
# Static dielectric constant tensor:
#      x y z
#    x 3.618450 0.000000 0.000000 
#    y 0.000000 3.575860 0.000000 
#    z 0.000000 0.000000 3.551000 
# 
# 
# High freq. dielectric constant tensor:
#      x y z
#    x 1.773590 0.000000 0.000000 
#    y 0.000000 1.767070 0.000000 
#    z 0.000000 0.000000 1.778030 
# 
# From -- ./inp_files/5097.got.cif
#   From: 2010.03.12/outbox.cif.g09.slc.cpg/sg31_3_cif.got.tgz:5097.got - 2010.04.14 01:42:59.
