data_PCOD8169478
_publ_section_title
;
Structure prediction by ZEFSAII (Michael W. Deem and Ramdas Pophale) SiO2 
 PCOD8169478
Probable space group: P N C 2
;
_chemical_formula_sum "Si O2"
_cell_formula_units_Z 24
_cell_length_a 24.752720
_cell_length_b 8.693220
_cell_length_c 5.248455
_cell_angle_alpha 90.000000
_cell_angle_beta 90.000000
_cell_angle_gamma 90.000000
_cell_volume 1129.366959
_symmetry_space_group_name_H-M "P N C 2"
_symmetry_group_IT_number 30
_symmetry_cell_setting 'orthorhombic'
loop_
_space_group_symop_operation_xyz
x,y,z
-x,-y,z
-x,1/2+y,1/2+z
x,1/2-y,1/2+z
loop_
_atom_site_type_symbol
_atom_site_label
_atom_site_fract_x
_atom_site_fract_y
_atom_site_fract_z
Si Si1 0.150305 0.156008 0.931720
Si Si2 0.004400 0.680440 0.943791
Si Si3 0.276578 0.155765 0.929566
Si Si4 0.124430 0.686867 0.440806
Si Si5 0.467281 0.655369 0.428604
Si Si6 0.341374 0.655683 0.427639
O O1 0.133680 0.239851 0.671243
O O2 0.117986 0.996178 0.948261
O O3 0.213420 0.116329 0.937727
O O4 0.975054 0.738580 0.685351
O O5 0.066198 0.732676 0.923778
O O6 0.000000 0.500000 0.974399
O O7 0.292876 0.264469 0.164876
O O8 0.308503 0.999338 0.958107
O O9 0.155994 0.754070 0.687739
O O10 0.500000 0.500000 0.455514
O O11 0.483386 0.763861 0.664463
O O12 0.404317 0.613986 0.436890
O O13 0.325478 0.765898 0.661446
#
# Coordination Sequence:
#
# PCOD8169478 Si02
#       6
#     4   4   4   4   4   4
#     4  10  21  38  58  83 114 146 182 227 273 324
#     4  10  21  40  60  84 114 145 183 226 269 320
#     4  10  21  36  56  82 111 144 183 225 274 330
#     4  10  21  38  58  85 112 144 185 222 268 325
#     4  10  21  36  54  78 108 143 186 232 280 331
#     4  10  21  36  54  80 111 144 184 230 278 330
#
# _framework density 21.250843
#
# number of rings (size 3 to 8) (size 9 to 14) (size 15 to 20)
#    0.000    2.000    0.000    3.000    0.000    2.667 
#    0.000   20.000    0.000    0.000    0.000    0.000 
#    0.000    0.000    0.000    0.000    0.000    0.000 
#
# Total GULP energy -297621.968772 kJ/mol
# GULP energy per Si atom -12400.915365 kJ/mol
# Density = 2.120248 g / cm^3
# Si number density = 21.250843 Si / 1000 Ang^3
#
#
#
# Elastic Constant Matrix: (Units=GPa)
#
#
# Indices 1 2 3 4 5 6 
#
# 1 42.4882 35.6619 3.8895 0.0000 0.0000 0.0000
# 2 35.6619 123.6208 12.4515 0.0000 0.0000 0.0000
# 3 3.8895 12.4515 152.1863 0.0000 0.0000 0.0000
# 4 0.0000 0.0000 0.0000 38.3773 0.0000 0.0000
# 5 0.0000 0.0000 0.0000 0.0000 17.5911 0.0000
# 6 0.0000 0.0000 0.0000 0.0000 0.0000 42.9780
#
#
#
# Elastic Compliance Matrix: (Units=1/GPa)
#
#
# Indices 1 2 3 4 5 6 
#
# 1 0.031056 -0.008953 -0.000061 0.000000 0.000000 0.000000
# 2 -0.008953 0.010737 -0.000650 0.000000 0.000000 0.000000
# 3 -0.000061 -0.000650 0.006626 0.000000 0.000000 0.000000
# 4 0.000000 0.000000 0.000000 0.026057 0.000000 0.000000
# 5 0.000000 0.000000 0.000000 0.000000 0.056847 0.000000
# 6 0.000000 0.000000 0.000000 0.000000 0.000000 0.023268
#
#
# Mechanical properties :
#
#
# Convention : Reuss Voigt Hill
#
# Bulk Modulus (GPa) = 34.37427 46.92235 40.64831
# Shear Modulus (GPa) = 27.23087 37.54212 32.38650
#
# Velocity S-wave (km/s) = 3.58355 4.20768 3.90809
# Velocity P-wave (km/s) = 5.77348 6.76271 6.28758
#
# Compressibility (1/GPa) = 0.02909152
#
# Stress axis : x y z
#
# Youngs Moduli (GPa) = 32.19996 93.13264 150.92943
#
# Poissons Ratio (x) = 0.83380 0.00924
# Poissons Ratio (y) = 0.28828 0.09806
# Poissons Ratio (z) = 0.00197 0.06051
#
# Static dielectric constant tensor:
#      x y z
#    x 3.601280 0.000000 0.000000 
#    y 0.000000 3.726150 0.000000 
#    z 0.000000 0.000000 5.771900 
# 
# 
# High freq. dielectric constant tensor:
#      x y z
#    x 1.808730 0.000000 0.000000 
#    y 0.000000 1.841180 0.000000 
#    z 0.000000 0.000000 1.869290 
# 
# From -- ./inp_files/1059.got.cif
#   From: 2010.03.12/outbox.cif.g09.slc.cpg/sg30_1_cif.got.tgz:1059.got - 2010.04.14 01:38:02.
