data_PCOD8169211
_publ_section_title
;
Structure prediction by ZEFSAII (Michael W. Deem and Ramdas Pophale) SiO2 
 PCOD8169211
Probable space group: P C A 21
;
_chemical_formula_sum "Si O2"
_cell_formula_units_Z 32
_cell_length_a 19.156484
_cell_length_b 6.851041
_cell_length_c 10.998659
_cell_angle_alpha 90.000000
_cell_angle_beta 90.000000
_cell_angle_gamma 90.000000
_cell_volume 1443.484435
_symmetry_space_group_name_H-M "P C A 21"
_symmetry_group_IT_number 29
_symmetry_cell_setting 'orthorhombic'
loop_
_space_group_symop_operation_xyz
x,y,z
-x,-y,1/2+z
1/2-x,y,1/2+z
1/2+x,-y,z
loop_
_atom_site_type_symbol
_atom_site_label
_atom_site_fract_x
_atom_site_fract_y
_atom_site_fract_z
Si Si1 0.529220 0.007539 0.196970
Si Si2 0.108931 0.380188 0.151718
Si Si3 0.017844 0.675461 0.009005
Si Si4 0.629483 0.273394 0.327412
Si Si5 0.124460 0.506718 0.558671
Si Si6 0.095788 0.780606 0.775159
Si Si7 0.761498 0.015048 0.312298
Si Si8 0.749183 0.777052 0.062979
O O1 0.575181 0.814323 0.204840
O O2 0.447388 0.958875 0.214433
O O3 0.538627 0.118484 0.069353
O O4 0.558424 0.155075 0.299236
O O5 0.052585 0.488359 0.070095
O O6 0.132618 0.516124 0.262665
O O7 0.173687 0.321713 0.067645
O O8 0.935132 0.644168 0.016637
O O9 0.044146 0.686116 0.872817
O O10 0.628898 0.306269 0.470898
O O11 0.697710 0.158526 0.285387
O O12 0.111202 0.596888 0.690081
O O13 0.197076 0.397628 0.552715
O O14 0.167184 0.864346 0.830363
O O15 0.766714 0.888455 0.189028
O O16 0.746980 0.902572 0.438706
#
# Coordination Sequence:
#
# PCOD8169211 Si02
#       8
#     4   4   4   4   4   4   4   4
#     4  11  24  48  73 104 142 196 242 299 367 446
#     4  11  23  48  74 106 141 199 238 300 371 446
#     4  11  27  44  73 104 146 188 247 298 374 441
#     4  11  26  45  76 101 149 191 244 296 374 444
#     4  12  27  46  72 112 149 192 247 315 371 442
#     4  12  27  44  74 106 150 187 251 308 369 445
#     4  12  27  47  72 111 148 197 250 310 368 446
#     4  12  27  46  78 106 153 198 251 308 378 444
#
# _framework density 22.168579000000001
#
# number of rings (size 3 to 8) (size 9 to 14) (size 15 to 20)
#    0.000    0.500    2.500    4.500   10.500    1.000 
#    0.000    0.000    0.000    0.000    0.000    0.000 
#    0.000    0.000    0.000    0.000    0.000    0.000 
#
# Total GULP energy -396911.171206 kJ/mol
# GULP energy per Si atom -12403.474100 kJ/mol
# Density = 2.211812 g / cm^3
# Si number density = 22.168579 Si / 1000 Ang^3
#
#
#
# Elastic Constant Matrix: (Units=GPa)
#
#
# Indices 1 2 3 4 5 6 
#
# 1 100.6352 20.9732 5.6627 0.0000 0.0000 0.0000
# 2 20.9732 101.9316 36.1160 0.0000 0.0000 0.0000
# 3 5.6627 36.1160 121.7452 0.0000 0.0000 0.0000
# 4 0.0000 0.0000 0.0000 34.6998 0.0000 0.0000
# 5 0.0000 0.0000 0.0000 0.0000 32.2720 0.0000
# 6 0.0000 0.0000 0.0000 0.0000 0.0000 41.4400
#
#
#
# Elastic Compliance Matrix: (Units=1/GPa)
#
#
# Indices 1 2 3 4 5 6 
#
# 1 0.010385 -0.002197 0.000169 0.000000 0.000000 0.000000
# 2 -0.002197 0.011427 -0.003288 0.000000 0.000000 0.000000
# 3 0.000169 -0.003288 0.009181 0.000000 0.000000 0.000000
# 4 0.000000 0.000000 0.000000 0.028819 0.000000 0.000000
# 5 0.000000 0.000000 0.000000 0.000000 0.030987 0.000000
# 6 0.000000 0.000000 0.000000 0.000000 0.000000 0.024131
#
#
# Mechanical properties :
#
#
# Convention : Reuss Voigt Hill
#
# Bulk Modulus (GPa) = 49.11022 49.97955 49.54488
# Shear Modulus (GPa) = 37.77879 39.11970 38.44924
#
# Velocity S-wave (km/s) = 4.13262 4.20533 4.16913
# Velocity P-wave (km/s) = 6.70616 6.79514 6.75080
#
# Compressibility (1/GPa) = 0.02036236
#
# Stress axis : x y z
#
# Youngs Moduli (GPa) = 96.29113 87.50914 108.91624
#
# Poissons Ratio (x) = 0.19222 -0.01836
# Poissons Ratio (y) = 0.21151 0.35809
# Poissons Ratio (z) = -0.01623 0.28771
#
# Static dielectric constant tensor:
#      x y z
#    x 4.245050 0.000000 0.000000 
#    y 0.000000 4.067380 0.000000 
#    z 0.000000 0.000000 4.059370 
# 
# 
# High freq. dielectric constant tensor:
#      x y z
#    x 1.890140 0.000000 0.000000 
#    y 0.000000 1.882130 0.000000 
#    z 0.000000 0.000000 1.879300 
# 
# From -- ./inp_files/3820.got.cif
#   From: 2010.03.12/outbox.cif.g09.slc.cpg/sg29_2_cif.got.tgz:3820.got - 2010.04.14 03:43:10.
