data_PCOD8169003
_publ_section_title
;
Structure prediction by ZEFSAII (Michael W. Deem and Ramdas Pophale) SiO2 
 PCOD8169003
Probable space group: P C A 21
;
_chemical_formula_sum "Si O2"
_cell_formula_units_Z 32
_cell_length_a 14.546590
_cell_length_b 10.782514
_cell_length_c 8.709694
_cell_angle_alpha 90.000000
_cell_angle_beta 90.000000
_cell_angle_gamma 90.000000
_cell_volume 1366.105142
_symmetry_space_group_name_H-M "P C A 21"
_symmetry_group_IT_number 29
_symmetry_cell_setting 'orthorhombic'
loop_
_space_group_symop_operation_xyz
x,y,z
-x,-y,1/2+z
1/2-x,y,1/2+z
1/2+x,-y,z
loop_
_atom_site_type_symbol
_atom_site_label
_atom_site_fract_x
_atom_site_fract_y
_atom_site_fract_z
Si Si1 0.353430 0.616197 0.190450
Si Si2 0.476768 0.380320 0.188909
Si Si3 0.420622 0.026789 0.343956
Si Si4 0.735238 0.853333 0.402380
Si Si5 0.505153 0.738184 0.012543
Si Si6 0.329190 0.571977 0.545113
Si Si7 0.687533 0.693335 0.146185
Si Si8 0.045741 0.120551 0.527122
O O1 0.401924 0.485195 0.147132
O O2 0.347437 0.621984 0.374691
O O3 0.252532 0.647801 0.125016
O O4 0.410005 0.725297 0.104821
O O5 0.479432 0.359586 0.372391
O O6 0.578609 0.421495 0.143413
O O7 0.446707 0.259549 0.092974
O O8 0.310350 0.047843 0.339297
O O9 0.479627 0.127607 0.439689
O O10 0.455539 0.025411 0.169541
O O11 0.452331 0.898233 0.426246
O O12 0.730208 0.719179 0.313852
O O13 0.772611 0.816079 0.566649
O O14 0.633466 0.911001 0.417897
O O15 0.577671 0.705537 0.145897
O O16 0.285476 0.434184 0.564099
#
# Coordination Sequence:
#
# PCOD8169003 Si02
#       8
#     4   4   4   4   4   4   4   4
#     4  12  23  42  63 102 141 185 230 283 349 419
#     4  11  23  45  64 105 138 183 232 284 352 415
#     4  10  25  45  68 104 131 181 239 289 349 406
#     4  11  23  41  70 102 132 175 235 282 339 407
#     4  10  23  43  64  93 140 174 235 286 335 412
#     4  12  25  37  69 100 142 188 225 283 352 418
#     4  11  21  39  65  99 135 177 220 289 327 401
#     4  11  25  44  71  97 139 177 228 296 343 412
#
# _framework density 23.424257999999998
#
# number of rings (size 3 to 8) (size 9 to 14) (size 15 to 20)
#    0.000    1.000    3.750    2.250    7.000    1.000 
#    2.250    0.000    0.000    0.000    0.000    0.000 
#    0.000    0.000    0.000    0.000    0.000    0.000 
#
# Total GULP energy -396481.816540 kJ/mol
# GULP energy per Si atom -12390.056767 kJ/mol
# Density = 2.337094 g / cm^3
# Si number density = 23.424258 Si / 1000 Ang^3
#
#
#
# Elastic Constant Matrix: (Units=GPa)
#
#
# Indices 1 2 3 4 5 6 
#
# 1 142.4229 12.1584 46.7019 0.0000 0.0000 0.0000
# 2 12.1584 25.2191 22.3283 0.0000 0.0000 0.0000
# 3 46.7019 22.3283 92.5853 0.0000 0.0000 0.0000
# 4 0.0000 0.0000 0.0000 35.9009 0.0000 0.0000
# 5 0.0000 0.0000 0.0000 0.0000 36.1539 0.0000
# 6 0.0000 0.0000 0.0000 0.0000 0.0000 36.7959
#
#
#
# Elastic Compliance Matrix: (Units=1/GPa)
#
#
# Indices 1 2 3 4 5 6 
#
# 1 0.008416 -0.000380 -0.004153 0.000000 0.000000 0.000000
# 2 -0.000380 0.050435 -0.011971 0.000000 0.000000 0.000000
# 3 -0.004153 -0.011971 0.015783 0.000000 0.000000 0.000000
# 4 0.000000 0.000000 0.000000 0.027854 0.000000 0.000000
# 5 0.000000 0.000000 0.000000 0.000000 0.027660 0.000000
# 6 0.000000 0.000000 0.000000 0.000000 0.000000 0.027177
#
#
# Mechanical properties :
#
#
# Convention : Reuss Voigt Hill
#
# Bulk Modulus (GPa) = 24.02462 46.95605 35.49034
# Shear Modulus (GPa) = 24.48470 33.70605 29.09538
#
# Velocity S-wave (km/s) = 3.23657 3.79745 3.52817
# Velocity P-wave (km/s) = 4.92400 6.27032 5.63749
#
# Compressibility (1/GPa) = 0.04162396
#
# Stress axis : x y z
#
# Youngs Moduli (GPa) = 118.82505 19.82751 63.35920
#
# Poissons Ratio (x) = 0.00753 0.26316
# Poissons Ratio (y) = 0.04515 0.75850
# Poissons Ratio (z) = 0.49353 0.23736
#
# Static dielectric constant tensor:
#      x y z
#    x 4.369780 0.000000 0.000000 
#    y 0.000000 3.885880 0.000000 
#    z 0.000000 0.000000 4.297760 
# 
# 
# High freq. dielectric constant tensor:
#      x y z
#    x 1.936390 0.000000 0.000000 
#    y 0.000000 1.893340 0.000000 
#    z 0.000000 0.000000 1.938320 
# 
# From -- ./inp_files/1827.got.cif
#   From: 2010.03.12/outbox.cif.g09.slc.cpg/sg29_1_cif.got.tgz:1827.got - 2010.04.14 03:43:10.
