data_PCOD8169800
_publ_section_title
;
Structure prediction by ZEFSAII (Michael W. Deem and Ramdas Pophale) SiO2 
 PCOD8169800
Probable space group: P M N 21
;
_chemical_formula_sum "Si O2"
_cell_formula_units_Z 32
_cell_length_a 8.875071
_cell_length_b 10.219572
_cell_length_c 18.983859
_cell_angle_alpha 90.000000
_cell_angle_beta 90.000000
_cell_angle_gamma 90.000000
_cell_volume 1721.825135
_symmetry_space_group_name_H-M "P M N 21"
_symmetry_group_IT_number 31
_symmetry_cell_setting 'orthorhombic'
loop_
_space_group_symop_operation_xyz
x,y,z
1/2-x,-y,1/2+z
-x,y,z
1/2+x,-y,1/2+z
loop_
_atom_site_type_symbol
_atom_site_label
_atom_site_fract_x
_atom_site_fract_y
_atom_site_fract_z
Si Si1 0.678042 0.888022 0.522990
Si Si2 0.173646 0.362698 0.110814
Si Si3 0.676890 0.868189 0.098755
Si Si4 0.173660 0.505886 0.731833
Si Si5 0.671620 0.504221 0.390540
Si Si6 0.324097 0.225807 0.891717
Si Si7 0.322940 0.230358 0.731677
Si Si8 0.328661 0.371570 0.528902
O O1 0.500000 0.902265 0.521891
O O2 0.731406 0.764811 0.569584
O O3 0.735025 0.871339 0.443016
O O4 0.749128 0.017427 0.554387
O O5 0.269750 0.376515 0.182379
O O6 0.201831 0.486771 0.061533
O O7 0.000000 0.347312 0.131869
O O8 0.500000 0.889301 0.102010
O O9 0.742093 0.869226 0.178211
O O10 0.713349 0.731539 0.060750
O O11 0.198993 0.551379 0.812269
O O12 0.269830 0.377110 0.714326
O O13 0.000000 0.473312 0.716609
O O14 0.500000 0.556095 0.399523
O O15 0.781201 0.624435 0.406933
O O16 0.701983 0.386331 0.445135
O O17 0.500000 0.208161 0.905170
O O18 0.280084 0.189820 0.811236
O O19 0.500000 0.224803 0.718556
O O20 0.500000 0.324945 0.543734
#
# Coordination Sequence:
#
# PCOD8169800 Si02
#       8
#     4   4   4   4   4   4   4   4
#     4  11  23  41  61  82 113 156 194 232 287 348
#     4  10  20  35  58  83 111 148 188 226 279 343
#     4  12  25  39  57  86 117 150 194 241 284 334
#     4  10  19  31  54  86 116 145 185 239 286 328
#     4   9  18  34  55  82 114 150 190 230 281 341
#     4  10  20  34  57  87 115 144 186 238 284 334
#     4  10  20  36  57  82 114 152 189 228 282 343
#     4  10  19  36  59  82 112 149 188 230 279 343
#
# _framework density 18.584931000000001
#
# number of rings (size 3 to 8) (size 9 to 14) (size 15 to 20)
#    0.000    1.750    2.500    2.625    0.000    3.500 
#    0.000    1.250    0.000    3.000    0.000    0.000 
#    0.000    0.000    0.000    0.000    0.000    0.000 
#
# Total GULP energy -396896.034602 kJ/mol
# GULP energy per Si atom -12403.001081 kJ/mol
# Density = 1.854263 g / cm^3
# Si number density = 18.584931 Si / 1000 Ang^3
#
#
#
# Elastic Constant Matrix: (Units=GPa)
#
#
# Indices 1 2 3 4 5 6 
#
# 1 82.1023 28.3585 48.7711 0.0000 0.0000 0.0000
# 2 28.3585 60.2274 38.0466 0.0000 0.0000 0.0000
# 3 48.7711 38.0466 128.9315 0.0000 0.0000 0.0000
# 4 0.0000 0.0000 0.0000 31.0419 0.0000 0.0000
# 5 0.0000 0.0000 0.0000 0.0000 32.8683 0.0000
# 6 0.0000 0.0000 0.0000 0.0000 0.0000 25.2462
#
#
#
# Elastic Compliance Matrix: (Units=1/GPa)
#
#
# Indices 1 2 3 4 5 6 
#
# 1 0.016758 -0.004777 -0.004930 0.000000 0.000000 0.000000
# 2 -0.004777 0.021770 -0.004617 0.000000 0.000000 0.000000
# 3 -0.004930 -0.004617 0.010983 0.000000 0.000000 0.000000
# 4 0.000000 0.000000 0.000000 0.032215 0.000000 0.000000
# 5 0.000000 0.000000 0.000000 0.000000 0.030424 0.000000
# 6 0.000000 0.000000 0.000000 0.000000 0.000000 0.039610
#
#
# Mechanical properties :
#
#
# Convention : Reuss Voigt Hill
#
# Bulk Modulus (GPa) = 47.92885 55.73484 51.83185
# Shear Modulus (GPa) = 26.68642 28.23694 27.46168
#
# Velocity S-wave (km/s) = 3.79346 3.90211 3.84817
# Velocity P-wave (km/s) = 6.71060 7.09622 6.90610
#
# Compressibility (1/GPa) = 0.02086426
#
# Stress axis : x y z
#
# Youngs Moduli (GPa) = 59.67269 45.93568 91.04771
#
# Poissons Ratio (x) = 0.21942 0.44883
# Poissons Ratio (y) = 0.28503 0.42038
# Poissons Ratio (z) = 0.29416 0.21209
#
# Static dielectric constant tensor:
#      x y z
#    x 3.447160 0.000000 0.000000 
#    y 0.000000 3.125710 0.000000 
#    z 0.000000 0.000000 3.772070 
# 
# 
# High freq. dielectric constant tensor:
#      x y z
#    x 1.726870 0.000000 0.000000 
#    y 0.000000 1.685420 0.000000 
#    z 0.000000 0.000000 1.740470 
# 
# From -- ./inp_files/6270.got.cif
#   From: 2010.03.12/outbox.cif.g09.slc.cpg/sg31_4_cif.got.tgz:6270.got - 2010.04.14 01:42:59.
