data_PCOD8169280
_publ_section_title
;
Structure prediction by ZEFSAII (Michael W. Deem and Ramdas Pophale) SiO2 
 PCOD8169280
Probable space group: P C A 21
;
_chemical_formula_sum "Si O2"
_cell_formula_units_Z 24
_cell_length_a 8.993501
_cell_length_b 13.183605
_cell_length_c 8.464103
_cell_angle_alpha 90.000000
_cell_angle_beta 90.000000
_cell_angle_gamma 90.000000
_cell_volume 1003.561309
_symmetry_space_group_name_H-M "P C A 21"
_symmetry_group_IT_number 29
_symmetry_cell_setting 'orthorhombic'
loop_
_space_group_symop_operation_xyz
x,y,z
-x,-y,1/2+z
1/2-x,y,1/2+z
1/2+x,-y,z
loop_
_atom_site_type_symbol
_atom_site_label
_atom_site_fract_x
_atom_site_fract_y
_atom_site_fract_z
Si Si1 0.569598 0.900499 0.222290
Si Si2 0.714777 0.601529 0.852340
Si Si3 0.460915 0.701715 0.683554
Si Si4 0.543979 0.679044 0.140295
Si Si5 0.102445 0.090822 0.595562
Si Si6 0.728439 0.376055 0.459683
O O1 0.496260 0.794749 0.167893
O O2 0.726102 0.909521 0.137177
O O3 0.584433 0.904321 0.409229
O O4 0.463312 0.988159 0.163482
O O5 0.593463 0.620226 0.712875
O O6 0.878781 0.635574 0.797932
O O7 0.723500 0.484966 0.897517
O O8 0.664494 0.671117 0.998890
O O9 0.522679 0.815111 0.680743
O O10 0.340423 0.694535 0.824206
O O11 0.379569 0.675751 0.519693
O O12 0.395103 0.614752 0.100005
#
# Coordination Sequence:
#
# PCOD8169280 Si02
#       6
#     4   4   4   4   4   4
#     4  12  28  52  83 118 154 208 259 331 402 483
#     4  11  25  49  73 106 156 210 263 312 400 463
#     4  11  28  50  75 112 160 201 264 329 396 467
#     4  11  26  48  77 111 160 199 262 325 395 468
#     4  12  29  51  85 115 158 205 264 327 410 477
#     4  11  28  46  75 112 154 207 270 322 385 474
#
# _framework density 23.914829999999998
#
# number of rings (size 3 to 8) (size 9 to 14) (size 15 to 20)
#    0.000    0.667    1.667    3.000   11.667   10.667 
#    0.000    0.000    0.000    0.000    0.000    0.000 
#    0.000    0.000    0.000    0.000    0.000    0.000 
#
# Total GULP energy -297720.034420 kJ/mol
# GULP energy per Si atom -12405.001434 kJ/mol
# Density = 2.386040 g / cm^3
# Si number density = 23.914830 Si / 1000 Ang^3
#
#
#
# Elastic Constant Matrix: (Units=GPa)
#
#
# Indices 1 2 3 4 5 6 
#
# 1 84.7189 20.5958 19.0983 0.0000 0.0000 0.0000
# 2 20.5958 75.9025 15.2644 0.0000 0.0000 0.0000
# 3 19.0983 15.2644 70.9112 0.0000 0.0000 0.0000
# 4 0.0000 0.0000 0.0000 56.3852 0.0000 0.0000
# 5 0.0000 0.0000 0.0000 0.0000 61.8273 0.0000
# 6 0.0000 0.0000 0.0000 0.0000 0.0000 -129.9402
#
#
#
# Elastic Compliance Matrix: (Units=1/GPa)
#
#
# Indices 1 2 3 4 5 6 
#
# 1 0.013187 -0.002994 -0.002907 0.000000 0.000000 0.000000
# 2 -0.002994 0.014450 -0.002304 0.000000 0.000000 0.000000
# 3 -0.002907 -0.002304 0.015381 0.000000 0.000000 0.000000
# 4 0.000000 0.000000 0.000000 0.017735 0.000000 0.000000
# 5 0.000000 0.000000 0.000000 0.000000 0.016174 0.000000
# 6 0.000000 0.000000 0.000000 0.000000 0.000000 -0.007696
#
#
# Mechanical properties :
#
#
# Convention : Reuss Voigt Hill
#
# Bulk Modulus (GPa) = 37.58223 37.93883 37.76053
# Shear Modulus (GPa) = 52.90360 9.42609 31.16484
#
# Velocity S-wave (km/s) = 4.70847 1.98748 3.61385
# Velocity P-wave (km/s) = 6.73118 4.60058 5.76516
#
# Compressibility (1/GPa) = 0.02660832
#
# Stress axis : x y z
#
# Youngs Moduli (GPa) = 75.83310 69.20180 65.01457
#
# Poissons Ratio (x) = 0.20716 0.18901
# Poissons Ratio (y) = 0.22701 0.14982
# Poissons Ratio (z) = 0.22046 0.15947
#
# Static dielectric constant tensor:
#      x y z
#    x 4.700260 0.000000 0.000000 
#    y 0.000000 3.968040 0.000000 
#    z 0.000000 0.000000 4.709240 
# 
# 
# High freq. dielectric constant tensor:
#      x y z
#    x 1.964440 0.000000 0.000000 
#    y 0.000000 1.945940 0.000000 
#    z 0.000000 0.000000 1.970940 
# 
# From -- ./inp_files/1137.got.cif
#   From: 2010.03.12/outbox.cif.g09.slc.cpg/sg29_1_cif.got.tgz:1137.got - 2010.04.14 03:43:10.
