data_PCOD8169519
_publ_section_title
;
Structure prediction by ZEFSAII (Michael W. Deem and Ramdas Pophale) SiO2 
 PCOD8169519
Probable space group: P N C 2
;
_chemical_formula_sum "Si O2"
_cell_formula_units_Z 22
_cell_length_a 5.164194
_cell_length_b 13.704333
_cell_length_c 13.485650
_cell_angle_alpha 90.000000
_cell_angle_beta 90.000000
_cell_angle_gamma 90.000000
_cell_volume 954.404187
_symmetry_space_group_name_H-M "P N C 2"
_symmetry_group_IT_number 30
_symmetry_cell_setting 'orthorhombic'
loop_
_space_group_symop_operation_xyz
x,y,z
-x,-y,z
-x,1/2+y,1/2+z
x,1/2-y,1/2+z
loop_
_atom_site_type_symbol
_atom_site_label
_atom_site_fract_x
_atom_site_fract_y
_atom_site_fract_z
Si Si1 0.000000 0.000000 0.756260
Si Si2 0.523525 0.114556 0.223660
Si Si3 0.757201 0.058146 0.565324
Si Si4 0.667335 0.218663 0.414840
Si Si5 0.154810 0.342390 0.406345
Si Si6 0.022577 0.110535 0.125567
O O1 0.169381 0.073134 0.823562
O O2 0.806821 0.062901 0.684698
O O3 0.572722 0.136619 0.338335
O O4 0.257943 0.163822 0.183997
O O5 0.752507 0.161192 0.156270
O O6 0.500000 0.000000 0.206458
O O7 0.728524 0.166545 0.520021
O O8 0.500000 0.000000 0.540236
O O9 0.000000 0.000000 0.515281
O O10 0.440474 0.298710 0.422502
O O11 0.935337 0.264603 0.375318
O O12 0.061477 0.388783 0.508752
O O13 0.000000 0.000000 0.163543
#
# Coordination Sequence:
#
# PCOD8169519 Si02
#       6
#     2   4   4   4   4   4
#     4  10  28  48  74  98 150 204 236 282 380 448
#     4  10  22  41  68  94 133 173 220 280 355 415
#     4  10  24  47  73  98 142 197 240 288 364 448
#     4  12  26  42  69 110 136 178 238 306 341 417
#     4  12  26  43  70 100 144 182 239 289 352 426
#     4  10  21  42  64  92 123 180 220 271 337 415
#
# _framework density 23.051031999999999
#
# number of rings (size 3 to 8) (size 9 to 14) (size 15 to 20)
#    0.545    0.727    0.909    3.818    2.545    6.545 
#    0.000    0.000    0.000    0.000    0.000    0.000 
#    0.000    0.000    0.000    0.000    0.000    0.000 
#
# Total GULP energy -272721.345996 kJ/mol
# GULP energy per Si atom -12396.424818 kJ/mol
# Density = 2.299857 g / cm^3
# Si number density = 23.051032 Si / 1000 Ang^3
#
#
#
# Elastic Constant Matrix: (Units=GPa)
#
#
# Indices 1 2 3 4 5 6 
#
# 1 166.7083 39.0487 47.4092 0.0000 0.0000 0.0000
# 2 39.0487 71.0682 43.3024 0.0000 0.0000 0.0000
# 3 47.4092 43.3024 142.4803 0.0000 0.0000 0.0000
# 4 0.0000 0.0000 0.0000 29.5008 0.0000 0.0000
# 5 0.0000 0.0000 0.0000 0.0000 29.3506 0.0000
# 6 0.0000 0.0000 0.0000 0.0000 0.0000 27.9542
#
#
#
# Elastic Compliance Matrix: (Units=1/GPa)
#
#
# Indices 1 2 3 4 5 6 
#
# 1 0.007120 -0.003030 -0.001448 0.000000 0.000000 0.000000
# 2 -0.003030 0.018558 -0.004632 0.000000 0.000000 0.000000
# 3 -0.001448 -0.004632 0.008908 0.000000 0.000000 0.000000
# 4 0.000000 0.000000 0.000000 0.033897 0.000000 0.000000
# 5 0.000000 0.000000 0.000000 0.000000 0.034071 0.000000
# 6 0.000000 0.000000 0.000000 0.000000 0.000000 0.035773
#
#
# Mechanical properties :
#
#
# Convention : Reuss Voigt Hill
#
# Bulk Modulus (GPa) = 61.10170 71.08635 66.09402
# Shear Modulus (GPa) = 30.86369 34.06089 32.46229
#
# Velocity S-wave (km/s) = 3.66311 3.84817 3.75678
# Velocity P-wave (km/s) = 6.66752 7.11689 6.89587
#
# Compressibility (1/GPa) = 0.01636616
#
# Stress axis : x y z
#
# Youngs Moduli (GPa) = 140.44871 53.88527 112.25605
#
# Poissons Ratio (x) = 0.16325 0.16259
# Poissons Ratio (y) = 0.42551 0.51997
# Poissons Ratio (z) = 0.20342 0.24960
#
# Static dielectric constant tensor:
#      x y z
#    x 4.615360 0.000000 0.000000 
#    y 0.000000 3.862110 0.000000 
#    z 0.000000 0.000000 3.977790 
# 
# 
# High freq. dielectric constant tensor:
#      x y z
#    x 1.930390 0.000000 0.000000 
#    y 0.000000 1.885170 0.000000 
#    z 0.000000 0.000000 1.911290 
# 
# From -- ./inp_files/3105.got.cif
#   From: 2010.03.12/outbox.cif.g09.slc.cpg/sg30_2_cif.got.tgz:3105.got - 2010.04.14 01:38:02.
