data_PCOD8169103
_publ_section_title
;
Structure prediction by ZEFSAII (Michael W. Deem and Ramdas Pophale) SiO2 
 PCOD8169103
Probable space group: P C A 21
;
_chemical_formula_sum "Si O2"
_cell_formula_units_Z 20
_cell_length_a 12.672129
_cell_length_b 8.235811
_cell_length_c 9.437163
_cell_angle_alpha 90.000000
_cell_angle_beta 90.000000
_cell_angle_gamma 90.000000
_cell_volume 984.911965
_symmetry_space_group_name_H-M "P C A 21"
_symmetry_group_IT_number 29
_symmetry_cell_setting 'orthorhombic'
loop_
_space_group_symop_operation_xyz
x,y,z
-x,-y,1/2+z
1/2-x,y,1/2+z
1/2+x,-y,z
loop_
_atom_site_type_symbol
_atom_site_label
_atom_site_fract_x
_atom_site_fract_y
_atom_site_fract_z
Si Si1 0.327133 0.430393 0.837760
Si Si2 0.788060 0.387418 0.566130
Si Si3 0.287414 0.913128 0.231640
Si Si4 0.970224 0.262791 0.388072
Si Si5 0.172593 0.103672 0.465783
O O1 0.281695 0.469836 0.682872
O O2 0.452609 0.398411 0.817511
O O3 0.272539 0.269829 0.907694
O O4 0.299853 0.578055 0.945383
O O5 0.773708 0.215431 0.638280
O O6 0.903397 0.370407 0.497434
O O7 0.398064 0.831923 0.275787
O O8 0.216962 0.958239 0.367772
O O9 0.302424 0.069914 0.130433
O O10 0.045058 0.123725 0.457740
#
# Coordination Sequence:
#
# PCOD8169103 Si02
#       5
#     4   4   4   4   4
#     4  10  25  42  68  97 130 174 220 269 331 388
#     4  12  22  46  66  96 137 169 222 274 325 391
#     4  12  22  46  66  96 137 169 222 274 325 391
#     4  10  26  38  68 100 128 176 224 260 346 374
#     4  10  25  42  68  97 130 174 220 269 331 388
#
# _framework density 20.306384000000001
#
# number of rings (size 3 to 8) (size 9 to 14) (size 15 to 20)
#    1.200    0.000    4.000    1.200    5.600    0.000 
#    0.000    0.000    0.000    0.000    0.000    0.000 
#    0.000    0.000    0.000    0.000    0.000    0.000 
#
# Total GULP energy -247781.638585 kJ/mol
# GULP energy per Si atom -12389.081929 kJ/mol
# Density = 2.026017 g / cm^3
# Si number density = 20.306384 Si / 1000 Ang^3
#
#
#
# Elastic Constant Matrix: (Units=GPa)
#
#
# Indices 1 2 3 4 5 6 
#
# 1 82.6635 21.6687 29.3623 0.0000 0.0000 0.0000
# 2 21.6687 66.5976 33.4154 0.0000 0.0000 0.0000
# 3 29.3623 33.4154 124.1381 0.0000 0.0000 0.0000
# 4 0.0000 0.0000 0.0000 52.8496 0.0000 0.0000
# 5 0.0000 0.0000 0.0000 0.0000 31.8661 0.0000
# 6 0.0000 0.0000 0.0000 0.0000 0.0000 39.7173
#
#
#
# Elastic Compliance Matrix: (Units=1/GPa)
#
#
# Indices 1 2 3 4 5 6 
#
# 1 0.013807 -0.003299 -0.002378 0.000000 0.000000 0.000000
# 2 -0.003299 0.018149 -0.004105 0.000000 0.000000 0.000000
# 3 -0.002378 -0.004105 0.009723 0.000000 0.000000 0.000000
# 4 0.000000 0.000000 0.000000 0.018922 0.000000 0.000000
# 5 0.000000 0.000000 0.000000 0.000000 0.031381 0.000000
# 6 0.000000 0.000000 0.000000 0.000000 0.000000 0.025178
#
#
# Mechanical properties :
#
#
# Convention : Reuss Voigt Hill
#
# Bulk Modulus (GPa) = 45.21881 49.14354 47.18118
# Shear Modulus (GPa) = 34.69957 37.48344 36.09151
#
# Velocity S-wave (km/s) = 4.13825 4.30105 4.22043
# Velocity P-wave (km/s) = 6.71938 6.99421 6.85817
#
# Compressibility (1/GPa) = 0.02211469
#
# Stress axis : x y z
#
# Youngs Moduli (GPa) = 72.42912 55.10050 102.85050
#
# Poissons Ratio (x) = 0.18179 0.24453
# Poissons Ratio (y) = 0.23896 0.42219
# Poissons Ratio (z) = 0.17220 0.22618
#
# Static dielectric constant tensor:
#      x y z
#    x 3.478790 0.000000 0.000000 
#    y 0.000000 3.684100 0.000000 
#    z 0.000000 0.000000 3.771160 
# 
# 
# High freq. dielectric constant tensor:
#      x y z
#    x 1.775100 0.000000 0.000000 
#    y 0.000000 1.794630 0.000000 
#    z 0.000000 0.000000 1.801900 
# 
# From -- ./inp_files/1348.got.cif
#   From: 2010.03.12/outbox.cif.g09.slc.cpg/sg29_1_cif.got.tgz:1348.got - 2010.04.14 03:43:10.
