data_PCOD8169620
_publ_section_title
;
Structure prediction by ZEFSAII (Michael W. Deem and Ramdas Pophale) SiO2 
 PCOD8169620
Probable space group: P N C 2
;
_chemical_formula_sum "Si O2"
_cell_formula_units_Z 20
_cell_length_a 9.967837
_cell_length_b 13.957871
_cell_length_c 5.435007
_cell_angle_alpha 90.000000
_cell_angle_beta 90.000000
_cell_angle_gamma 90.000000
_cell_volume 756.171344
_symmetry_space_group_name_H-M "P N C 2"
_symmetry_group_IT_number 30
_symmetry_cell_setting 'orthorhombic'
loop_
_space_group_symop_operation_xyz
x,y,z
-x,-y,z
-x,1/2+y,1/2+z
x,1/2-y,1/2+z
loop_
_atom_site_type_symbol
_atom_site_label
_atom_site_fract_x
_atom_site_fract_y
_atom_site_fract_z
Si Si1 0.354452 0.792724 0.736440
Si Si2 0.922487 0.800162 0.584361
Si Si3 0.631998 0.844683 0.662023
Si Si4 0.500000 0.000000 0.324760
Si Si5 0.284241 0.980086 0.945602
Si Si6 0.000000 0.000000 0.797067
O O1 0.288548 0.747927 0.489811
O O2 0.515816 0.772320 0.756816
O O3 0.323891 0.906894 0.724642
O O4 0.978004 0.758035 0.324750
O O5 0.760474 0.789223 0.553579
O O6 0.964218 0.911108 0.616793
O O7 0.561610 0.911880 0.465316
O O8 0.680657 0.910522 0.886578
O O9 0.623381 0.049455 0.174837
O O10 0.123340 0.974957 0.980047
#
# Coordination Sequence:
#
# PCOD8169620 Si02
#       6
#     4   4   4   2   4   2
#     4  12  24  39  66 105 146 183 238 318 391 457
#     4  11  27  50  78 114 159 212 276 333 396 499
#     4  11  23  42  70 110 147 200 258 323 406 474
#     4  12  20  42  80 104 156 192 272 328 400 486
#     4  11  24  45  70 106 145 208 257 321 389 489
#     4  10  28  52  78 112 162 224 270 334 420 476
#
# _framework density 26.449031000000002
#
# number of rings (size 3 to 8) (size 9 to 14) (size 15 to 20)
#    0.000    0.800    4.000    2.400    5.600    2.400 
#    3.600    0.000    0.000    0.000    0.000    0.000 
#    0.000    0.000    0.000    0.000    0.000    0.000 
#
# Total GULP energy -247931.837883 kJ/mol
# GULP energy per Si atom -12396.591894 kJ/mol
# Density = 2.638883 g / cm^3
# Si number density = 26.449031 Si / 1000 Ang^3
#
#
#
# Elastic Constant Matrix: (Units=GPa)
#
#
# Indices 1 2 3 4 5 6 
#
# 1 133.3952 0.7829 32.2654 0.0000 0.0000 0.0000
# 2 0.7829 94.4504 32.1200 0.0000 0.0000 0.0000
# 3 32.2654 32.1200 145.8948 0.0000 0.0000 0.0000
# 4 0.0000 0.0000 0.0000 31.3606 0.0000 0.0000
# 5 0.0000 0.0000 0.0000 0.0000 5.7754 0.0000
# 6 0.0000 0.0000 0.0000 0.0000 0.0000 32.1332
#
#
#
# Elastic Compliance Matrix: (Units=1/GPa)
#
#
# Indices 1 2 3 4 5 6 
#
# 1 0.007949 0.000575 -0.001885 0.000000 0.000000 0.000000
# 2 0.000575 0.011486 -0.002656 0.000000 0.000000 0.000000
# 3 -0.001885 -0.002656 0.007856 0.000000 0.000000 0.000000
# 4 0.000000 0.000000 0.000000 0.031887 0.000000 0.000000
# 5 0.000000 0.000000 0.000000 0.000000 0.173148 0.000000
# 6 0.000000 0.000000 0.000000 0.000000 0.000000 0.031120
#
#
# Mechanical properties :
#
#
# Convention : Reuss Voigt Hill
#
# Bulk Modulus (GPa) = 51.65337 56.00853 53.83095
# Shear Modulus (GPa) = 17.99658 34.42532 26.21095
#
# Velocity S-wave (km/s) = 2.61133 3.61164 3.15143
# Velocity P-wave (km/s) = 5.35386 6.21401 5.79990
#
# Compressibility (1/GPa) = 0.01935982
#
# Stress axis : x y z
#
# Youngs Moduli (GPa) = 125.80236 87.06250 127.29531
#
# Poissons Ratio (x) = -0.05006 0.23989
# Poissons Ratio (y) = -0.07234 0.33808
# Poissons Ratio (z) = 0.23708 0.23123
#
# Static dielectric constant tensor:
#      x y z
#    x 5.087590 0.000000 0.000000 
#    y 0.000000 4.975190 0.000000 
#    z 0.000000 0.000000 4.528270 
# 
# 
# High freq. dielectric constant tensor:
#      x y z
#    x 2.055050 0.000000 0.000000 
#    y 0.000000 2.072230 0.000000 
#    z 0.000000 0.000000 2.046480 
# 
# From -- ./inp_files/648.got.cif
#   From: 2010.03.12/outbox.cif.g09.slc.cpg/sg30_1_cif.got.tgz:648.got - 2010.04.14 01:38:02.
