data_PCOD8169817
_publ_section_title
;
Structure prediction by ZEFSAII (Michael W. Deem and Ramdas Pophale) SiO2 
 PCOD8169817
Probable space group: P M N 21
;
_chemical_formula_sum "Si O2"
_cell_formula_units_Z 32
_cell_length_a 26.794427
_cell_length_b 4.822253
_cell_length_c 10.785253
_cell_angle_alpha 90.000000
_cell_angle_beta 90.000000
_cell_angle_gamma 90.000000
_cell_volume 1393.557212
_symmetry_space_group_name_H-M "P M N 21"
_symmetry_group_IT_number 31
_symmetry_cell_setting 'orthorhombic'
loop_
_space_group_symop_operation_xyz
x,y,z
1/2-x,-y,1/2+z
-x,y,z
1/2+x,-y,1/2+z
loop_
_atom_site_type_symbol
_atom_site_label
_atom_site_fract_x
_atom_site_fract_y
_atom_site_fract_z
Si Si1 0.308091 0.435089 0.578460
Si Si2 0.786262 0.663682 0.821630
Si Si3 0.880153 0.137333 0.464337
Si Si4 0.308091 0.435088 0.064799
Si Si5 0.715343 0.159193 0.821630
Si Si6 0.945139 0.655612 0.180788
Si Si7 0.880153 0.137333 0.178922
Si Si8 0.445139 0.344388 0.962471
O O1 0.320628 0.295022 0.444702
O O2 0.250000 0.500000 0.571631
O O3 0.317897 0.221794 0.695144
O O4 0.337220 0.723662 0.595482
O O5 0.820628 0.704977 0.698558
O O6 0.764097 0.352394 0.821630
O O7 0.736428 0.850059 0.821629
O O8 0.837220 0.276338 0.547777
O O9 0.858889 0.101224 0.321629
O O10 0.902571 0.852861 0.525448
O O11 0.927909 0.339522 0.464991
O O12 0.317897 0.221793 0.948115
O O13 0.902571 0.852861 0.117811
O O14 0.949079 0.765298 0.321630
O O15 0.000000 0.678269 0.117562
O O16 0.927908 0.339523 0.178268
O O17 0.500000 0.321731 0.025697
#
# Coordination Sequence:
#
# PCOD8169817 Si02
#       8
#     4   4   4   4   4   4   4   4
#     4  10  21  37  53  79 110 148 187 226 264 319
#     4  10  22  34  52  72 103 144 181 222 262 302
#     4  10  19  32  52  78 106 142 176 217 271 327
#     4  10  21  37  53  79 110 148 187 226 264 319
#     4  10  20  36  52  72 101 142 185 222 264 306
#     4   9  18  32  52  79 108 133 170 225 281 327
#     4  10  19  32  52  78 106 142 176 217 271 327
#     4   9  18  32  52  79 108 133 170 225 281 327
#
# _framework density 22.962817999999999
#
# number of rings (size 3 to 8) (size 9 to 14) (size 15 to 20)
#    0.000    2.250    1.250    1.500    0.000   11.000 
#    0.000    0.000    0.000    0.000    0.000    5.250 
#    0.000    0.000    0.000    0.000    0.000    0.000 
#
# Total GULP energy -396744.610030 kJ/mol
# GULP energy per Si atom -12398.269063 kJ/mol
# Density = 2.291055 g / cm^3
# Si number density = 22.962818 Si / 1000 Ang^3
#
#
#
# Elastic Constant Matrix: (Units=GPa)
#
#
# Indices 1 2 3 4 5 6 
#
# 1 89.1067 -3.9976 24.1839 0.0000 0.0000 0.0000
# 2 -3.9976 69.0250 23.3708 0.0000 0.0000 0.0000
# 3 24.1839 23.3708 156.8268 0.0000 0.0000 0.0000
# 4 0.0000 0.0000 0.0000 24.9209 0.0000 0.0000
# 5 0.0000 0.0000 0.0000 0.0000 15.0790 0.0000
# 6 0.0000 0.0000 0.0000 0.0000 0.0000 29.9430
#
#
#
# Elastic Compliance Matrix: (Units=1/GPa)
#
#
# Indices 1 2 3 4 5 6 
#
# 1 0.011835 0.001373 -0.002030 0.000000 0.000000 0.000000
# 2 0.001373 0.015417 -0.002509 0.000000 0.000000 0.000000
# 3 -0.002030 -0.002509 0.007063 0.000000 0.000000 0.000000
# 4 0.000000 0.000000 0.000000 0.040127 0.000000 0.000000
# 5 0.000000 0.000000 0.000000 0.000000 0.066317 0.000000
# 6 0.000000 0.000000 0.000000 0.000000 0.000000 0.033397
#
#
# Mechanical properties :
#
#
# Convention : Reuss Voigt Hill
#
# Bulk Modulus (GPa) = 35.73638 44.67475 40.20556
# Shear Modulus (GPa) = 26.34137 32.08201 29.21169
#
# Velocity S-wave (km/s) = 3.39061 3.74187 3.57056
# Velocity P-wave (km/s) = 5.56101 6.17789 5.87755
#
# Compressibility (1/GPa) = 0.02798269
#
# Stress axis : x y z
#
# Youngs Moduli (GPa) = 84.49569 64.86536 141.57583
#
# Poissons Ratio (x) = -0.08904 0.28734
# Poissons Ratio (y) = -0.11598 0.35523
# Poissons Ratio (z) = 0.17149 0.16275
#
# Static dielectric constant tensor:
#      x y z
#    x 4.183390 0.000000 0.000000 
#    y 0.000000 4.335850 0.000000 
#    z 0.000000 0.000000 5.608150 
# 
# 
# High freq. dielectric constant tensor:
#      x y z
#    x 1.913550 0.000000 0.000000 
#    y 0.000000 1.933640 0.000000 
#    z 0.000000 0.000000 1.849030 
# 
# From -- ./inp_files/4566.got.cif
#   From: 2010.03.12/outbox.cif.g09.slc.cpg/sg31_3_cif.got.tgz:4566.got - 2010.04.14 01:42:59.
