data_PCOD8169018
_publ_section_title
;
Structure prediction by ZEFSAII (Michael W. Deem and Ramdas Pophale) SiO2 
 PCOD8169018
Probable space group: P C A 21
;
_chemical_formula_sum "Si O2"
_cell_formula_units_Z 28
_cell_length_a 12.860241
_cell_length_b 10.107787
_cell_length_c 9.877617
_cell_angle_alpha 90.000000
_cell_angle_beta 90.000000
_cell_angle_gamma 90.000000
_cell_volume 1283.977376
_symmetry_space_group_name_H-M "P C A 21"
_symmetry_group_IT_number 29
_symmetry_cell_setting 'orthorhombic'
loop_
_space_group_symop_operation_xyz
x,y,z
-x,-y,1/2+z
1/2-x,y,1/2+z
1/2+x,-y,z
loop_
_atom_site_type_symbol
_atom_site_label
_atom_site_fract_x
_atom_site_fract_y
_atom_site_fract_z
Si Si1 0.444821 0.157129 0.965940
Si Si2 0.621646 0.799441 0.748943
Si Si3 0.843450 0.115509 0.010043
Si Si4 0.796705 0.621199 0.649444
Si Si5 0.652923 0.084828 0.827694
Si Si6 0.488676 0.341610 0.473484
Si Si7 0.353975 0.436667 0.926817
O O1 0.549051 0.156898 0.878051
O O2 0.377123 0.280308 0.914358
O O3 0.383988 0.020497 0.945043
O O4 0.461513 0.170560 0.128861
O O5 0.730920 0.753263 0.684040
O O6 0.577457 0.679036 0.837122
O O7 0.639915 0.926440 0.844883
O O8 0.739702 0.146215 0.925985
O O9 0.925736 0.229247 0.983975
O O10 0.820596 0.110778 0.170348
O O11 0.910796 0.664845 0.599960
O O12 0.735826 0.535482 0.536817
O O13 0.810576 0.524344 0.778848
O O14 0.542716 0.484479 0.467119
#
# Coordination Sequence:
#
# PCOD8169018 Si02
#       7
#     4   4   4   4   4   4   4
#     4  10  23  44  67  97 134 181 230 280 341 405
#     4  10  23  44  71  99 131 191 225 282 346 419
#     4  11  26  41  69 104 136 180 226 281 339 411
#     4  11  24  46  70 100 139 183 231 277 348 419
#     4  11  24  42  70 101 139 178 227 289 346 403
#     4  12  26  44  70 104 139 176 236 282 344 409
#     4  11  26  43  73  99 136 183 231 279 342 410
#
# _framework density 21.807238000000002
#
# number of rings (size 3 to 8) (size 9 to 14) (size 15 to 20)
#    0.000    1.143    2.857    1.714   10.000    2.286 
#    0.000    0.000    0.000    0.000    0.000    0.000 
#    0.000    0.000    0.000    0.000    0.000    0.000 
#
# Total GULP energy -347225.526208 kJ/mol
# GULP energy per Si atom -12400.911650 kJ/mol
# Density = 2.175760 g / cm^3
# Si number density = 21.807238 Si / 1000 Ang^3
#
#
#
# Elastic Constant Matrix: (Units=GPa)
#
#
# Indices 1 2 3 4 5 6 
#
# 1 126.3826 33.2116 72.6340 0.0000 0.0000 0.0000
# 2 33.2116 71.7136 26.0987 0.0000 0.0000 0.0000
# 3 72.6340 26.0987 142.1225 0.0000 0.0000 0.0000
# 4 0.0000 0.0000 0.0000 21.4009 0.0000 0.0000
# 5 0.0000 0.0000 0.0000 0.0000 45.7543 0.0000
# 6 0.0000 0.0000 0.0000 0.0000 0.0000 34.8482
#
#
#
# Elastic Compliance Matrix: (Units=1/GPa)
#
#
# Indices 1 2 3 4 5 6 
#
# 1 0.011996 -0.003562 -0.005477 0.000000 0.000000 0.000000
# 2 -0.003562 0.016001 -0.001118 0.000000 0.000000 0.000000
# 3 -0.005477 -0.001118 0.010040 0.000000 0.000000 0.000000
# 4 0.000000 0.000000 0.000000 0.046727 0.000000 0.000000
# 5 0.000000 0.000000 0.000000 0.000000 0.021856 0.000000
# 6 0.000000 0.000000 0.000000 0.000000 0.000000 0.028696
#
#
# Mechanical properties :
#
#
# Convention : Reuss Voigt Hill
#
# Bulk Modulus (GPa) = 56.42105 67.12304 61.77205
# Shear Modulus (GPa) = 30.95249 34.28563 32.61906
#
# Velocity S-wave (km/s) = 3.77154 3.96942 3.87174
# Velocity P-wave (km/s) = 6.70036 7.20106 6.95522
#
# Compressibility (1/GPa) = 0.01772388
#
# Stress axis : x y z
#
# Youngs Moduli (GPa) = 83.36003 62.49625 99.59807
#
# Poissons Ratio (x) = 0.22264 0.54546
# Poissons Ratio (y) = 0.29697 0.11132
# Poissons Ratio (z) = 0.45653 0.06985
#
# Static dielectric constant tensor:
#      x y z
#    x 3.863910 0.000000 0.000000 
#    y 0.000000 3.722720 0.000000 
#    z 0.000000 0.000000 4.198240 
# 
# 
# High freq. dielectric constant tensor:
#      x y z
#    x 1.857300 0.000000 0.000000 
#    y 0.000000 1.838110 0.000000 
#    z 0.000000 0.000000 1.875030 
# 
# From -- ./inp_files/1460.got.cif
#   From: 2010.03.12/outbox.cif.g09.slc.cpg/sg29_1_cif.got.tgz:1460.got - 2010.04.14 03:43:10.
