data_PCOD8169946
_publ_section_title
;
Structure prediction by ZEFSAII (Michael W. Deem and Ramdas Pophale) SiO2 
 PCOD8169946
Probable space group: P M N 21
;
_chemical_formula_sum "Si O2"
_cell_formula_units_Z 32
_cell_length_a 8.951324
_cell_length_b 14.658478
_cell_length_c 12.369681
_cell_angle_alpha 90.000000
_cell_angle_beta 90.000000
_cell_angle_gamma 90.000000
_cell_volume 1623.060305
_symmetry_space_group_name_H-M "P M N 21"
_symmetry_group_IT_number 31
_symmetry_cell_setting 'orthorhombic'
loop_
_space_group_symop_operation_xyz
x,y,z
1/2-x,-y,1/2+z
-x,y,z
1/2+x,-y,1/2+z
loop_
_atom_site_type_symbol
_atom_site_label
_atom_site_fract_x
_atom_site_fract_y
_atom_site_fract_z
Si Si1 0.171993 0.259979 0.719530
Si Si2 0.167451 0.834790 0.025956
Si Si3 0.836206 0.643969 0.917991
Si Si4 0.677895 0.826628 0.642587
Si Si5 0.672255 0.875825 0.403853
Si Si6 0.825913 0.368984 0.206868
Si Si7 0.175061 0.564191 0.144385
Si Si8 0.676927 0.946028 0.846699
O O1 0.251387 0.190471 0.637149
O O2 0.189126 0.219909 0.840343
O O3 0.243404 0.360880 0.719150
O O4 0.000000 0.268004 0.684792
O O5 0.000000 0.870493 0.053078
O O6 0.158419 0.748840 0.948543
O O7 0.256868 0.910933 0.960163
O O8 0.704924 0.628972 0.833864
O O9 0.000000 0.615183 0.872682
O O10 0.792724 0.583676 0.020091
O O11 0.500000 0.822289 0.646044
O O12 0.732680 0.864136 0.526645
O O13 0.743969 0.723634 0.656312
O O14 0.735949 0.890782 0.740886
O O15 0.500000 0.907551 0.404795
O O16 0.769326 0.949810 0.338434
O O17 0.757391 0.462919 0.160654
O O18 0.000000 0.368960 0.184301
O O19 0.000000 0.570398 0.172702
O O20 0.500000 0.939945 0.852480
#
# Coordination Sequence:
#
# PCOD8169946 Si02
#       8
#     4   4   4   4   4   4   4   4
#     4  10  21  37  59  86 117 152 199 247 286 344
#     4  10  20  36  59  82 112 150 189 241 298 347
#     4   9  18  33  52  79 110 143 186 236 288 338
#     4   9  20  39  60  84 116 153 193 237 292 351
#     4  10  23  41  59  84 119 159 195 237 295 351
#     4  10  19  35  59  83 111 150 194 237 283 346
#     4   9  20  36  56  83 116 155 194 236 295 354
#     4  11  22  37  60  89 115 148 196 243 289 349
#
# _framework density 19.715841999999999
#
# number of rings (size 3 to 8) (size 9 to 14) (size 15 to 20)
#    0.000    2.250    1.250    1.875    1.750    4.500 
#    0.000    3.750    0.000    0.000    0.000    0.000 
#    0.000    0.000    0.000    0.000    0.000    0.000 
#
# Total GULP energy -396709.118028 kJ/mol
# GULP energy per Si atom -12397.159938 kJ/mol
# Density = 1.967097 g / cm^3
# Si number density = 19.715842 Si / 1000 Ang^3
#
#
#
# Elastic Constant Matrix: (Units=GPa)
#
#
# Indices 1 2 3 4 5 6 
#
# 1 60.2585 32.1494 28.5824 0.0000 0.0000 0.0000
# 2 32.1494 129.0715 55.1411 0.0000 0.0000 0.0000
# 3 28.5824 55.1411 89.9946 0.0000 0.0000 0.0000
# 4 0.0000 0.0000 0.0000 19.9065 0.0000 0.0000
# 5 0.0000 0.0000 0.0000 0.0000 25.1547 0.0000
# 6 0.0000 0.0000 0.0000 0.0000 0.0000 28.5501
#
#
#
# Elastic Compliance Matrix: (Units=1/GPa)
#
#
# Indices 1 2 3 4 5 6 
#
# 1 0.020436 -0.003139 -0.004567 0.000000 0.000000 0.000000
# 2 -0.003139 0.010977 -0.005729 0.000000 0.000000 0.000000
# 3 -0.004567 -0.005729 0.016072 0.000000 0.000000 0.000000
# 4 0.000000 0.000000 0.000000 0.050235 0.000000 0.000000
# 5 0.000000 0.000000 0.000000 0.000000 0.039754 0.000000
# 6 0.000000 0.000000 0.000000 0.000000 0.000000 0.035026
#
#
# Mechanical properties :
#
#
# Convention : Reuss Voigt Hill
#
# Bulk Modulus (GPa) = 48.50720 56.78561 52.64640
# Shear Modulus (GPa) = 24.24326 25.61903 24.93114
#
# Velocity S-wave (km/s) = 3.51042 3.60865 3.55987
# Velocity P-wave (km/s) = 6.40994 6.79909 6.60738
#
# Compressibility (1/GPa) = 0.02061550
#
# Stress axis : x y z
#
# Youngs Moduli (GPa) = 48.93245 91.09992 62.21831
#
# Poissons Ratio (x) = 0.28598 0.28416
# Poissons Ratio (y) = 0.15361 0.35643
# Poissons Ratio (z) = 0.22348 0.52189
#
# Static dielectric constant tensor:
#      x y z
#    x 3.474750 0.000000 0.000000 
#    y 0.000000 3.786580 0.000000 
#    z 0.000000 0.000000 3.563540 
# 
# 
# High freq. dielectric constant tensor:
#      x y z
#    x 1.750150 0.000000 0.000000 
#    y 0.000000 1.774700 0.000000 
#    z 0.000000 0.000000 1.763360 
# 
# From -- ./inp_files/3652.got.cif
#   From: 2010.03.12/outbox.cif.g09.slc.cpg/sg31_2_cif.got.tgz:3652.got - 2010.04.14 01:42:59.
