data_PCOD8169175
_publ_section_title
;
Structure prediction by ZEFSAII (Michael W. Deem and Ramdas Pophale) SiO2 
 PCOD8169175
Probable space group: P C A 21
;
_chemical_formula_sum "Si O2"
_cell_formula_units_Z 32
_cell_length_a 14.435646
_cell_length_b 11.314431
_cell_length_c 9.247776
_cell_angle_alpha 90.000000
_cell_angle_beta 90.000000
_cell_angle_gamma 90.000000
_cell_volume 1510.449617
_symmetry_space_group_name_H-M "P C A 21"
_symmetry_group_IT_number 29
_symmetry_cell_setting 'orthorhombic'
loop_
_space_group_symop_operation_xyz
x,y,z
-x,-y,1/2+z
1/2-x,y,1/2+z
1/2+x,-y,z
loop_
_atom_site_type_symbol
_atom_site_label
_atom_site_fract_x
_atom_site_fract_y
_atom_site_fract_z
Si Si1 0.848650 0.928618 0.125000
Si Si2 0.837569 0.244335 0.469151
Si Si3 0.044291 0.230505 0.413265
Si Si4 0.995943 0.125827 0.119284
Si Si5 0.744681 0.375898 0.708582
Si Si6 0.052433 0.609313 0.556550
Si Si7 0.832661 0.969877 0.447504
Si Si8 0.592265 0.531951 0.282439
O O1 0.830065 0.902439 0.293845
O O2 0.911351 0.826340 0.055488
O O3 0.751705 0.925003 0.043178
O O4 0.900176 0.054124 0.112034
O O5 0.801217 0.270705 0.629527
O O6 0.777383 0.327018 0.365994
O O7 0.944262 0.282026 0.455554
O O8 0.823939 0.109274 0.424622
O O9 0.032598 0.134289 0.284437
O O10 0.105483 0.340566 0.358301
O O11 0.974000 0.253225 0.053983
O O12 0.071352 0.057393 0.025923
O O13 0.652759 0.412964 0.624584
O O14 0.807667 0.492578 0.723232
O O15 0.051184 0.564101 0.393157
O O16 0.977554 0.537153 0.648302
#
# Coordination Sequence:
#
# PCOD8169175 Si02
#       8
#     4   4   4   4   4   4   4   4
#     4  12  24  45  65 104 141 187 229 286 358 420
#     4  12  22  44  71 103 139 181 233 292 343 419
#     4  11  24  47  67  98 149 182 236 292 346 418
#     4  11  22  46  70  99 140 185 227 296 347 419
#     4  12  24  43  72 101 137 183 235 286 350 409
#     4  11  24  46  68 102 137 180 239 288 347 420
#     4  12  25  41  72 102 139 187 229 288 356 425
#     4  11  25  44  71  99 138 187 232 298 341 418
#
# _framework density 21.185745000000001
#
# number of rings (size 3 to 8) (size 9 to 14) (size 15 to 20)
#    0.000    0.500    6.250    3.000    0.000    2.000 
#    9.000    0.000    0.000    0.000    0.000    0.000 
#    0.000    0.000    0.000    0.000    0.000    0.000 
#
# Total GULP energy -396991.975251 kJ/mol
# GULP energy per Si atom -12405.999227 kJ/mol
# Density = 2.113753 g / cm^3
# Si number density = 21.185745 Si / 1000 Ang^3
#
#
#
# Elastic Constant Matrix: (Units=GPa)
#
#
# Indices 1 2 3 4 5 6 
#
# 1 112.9236 32.5839 37.2230 0.0000 0.0000 0.0000
# 2 32.5839 58.8431 8.5811 0.0000 0.0000 0.0000
# 3 37.2230 8.5811 74.7796 0.0000 0.0000 0.0000
# 4 0.0000 0.0000 0.0000 38.1325 0.0000 0.0000
# 5 0.0000 0.0000 0.0000 0.0000 32.4607 0.0000
# 6 0.0000 0.0000 0.0000 0.0000 0.0000 35.1499
#
#
#
# Elastic Compliance Matrix: (Units=1/GPa)
#
#
# Indices 1 2 3 4 5 6 
#
# 1 0.012416 -0.006076 -0.005483 0.000000 0.000000 0.000000
# 2 -0.006076 0.020257 0.000700 0.000000 0.000000 0.000000
# 3 -0.005483 0.000700 0.016022 0.000000 0.000000 0.000000
# 4 0.000000 0.000000 0.000000 0.026224 0.000000 0.000000
# 5 0.000000 0.000000 0.000000 0.000000 0.030806 0.000000
# 6 0.000000 0.000000 0.000000 0.000000 0.000000 0.028450
#
#
# Mechanical properties :
#
#
# Convention : Reuss Voigt Hill
#
# Bulk Modulus (GPa) = 37.06953 44.81357 40.94155
# Shear Modulus (GPa) = 30.32417 32.35919 31.34168
#
# Velocity S-wave (km/s) = 3.78742 3.91244 3.85044
# Velocity P-wave (km/s) = 6.05487 6.45044 6.25578
#
# Compressibility (1/GPa) = 0.02697633
#
# Stress axis : x y z
#
# Youngs Moduli (GPa) = 80.54068 49.36647 62.41550
#
# Poissons Ratio (x) = 0.29994 0.34223
# Poissons Ratio (y) = 0.48934 -0.04368
# Poissons Ratio (z) = 0.44162 -0.03455
#
# Static dielectric constant tensor:
#      x y z
#    x 3.965690 0.000000 0.000000 
#    y 0.000000 3.686630 0.000000 
#    z 0.000000 0.000000 4.030380 
# 
# 
# High freq. dielectric constant tensor:
#      x y z
#    x 1.841330 0.000000 0.000000 
#    y 0.000000 1.821610 0.000000 
#    z 0.000000 0.000000 1.842360 
# 
# From -- ./inp_files/1826.got.cif
#   From: 2010.03.12/outbox.cif.g09.slc.cpg/sg29_1_cif.got.tgz:1826.got - 2010.04.14 03:43:10.
