data_PCOD8169894
_publ_section_title
;
Structure prediction by ZEFSAII (Michael W. Deem and Ramdas Pophale) SiO2 
 PCOD8169894
Probable space group: P M N 21
;
_chemical_formula_sum "Si O2"
_cell_formula_units_Z 28
_cell_length_a 11.035374
_cell_length_b 5.119388
_cell_length_c 26.018687
_cell_angle_alpha 90.000000
_cell_angle_beta 90.000000
_cell_angle_gamma 90.000000
_cell_volume 1469.909102
_symmetry_space_group_name_H-M "P M N 21"
_symmetry_group_IT_number 31
_symmetry_cell_setting 'orthorhombic'
loop_
_space_group_symop_operation_xyz
x,y,z
1/2-x,-y,1/2+z
-x,y,z
1/2+x,-y,1/2+z
loop_
_atom_site_type_symbol
_atom_site_label
_atom_site_fract_x
_atom_site_fract_y
_atom_site_fract_z
Si Si1 0.000000 0.679259 0.433350
Si Si2 0.141112 0.731848 0.974122
Si Si3 0.734830 0.768758 0.416566
Si Si4 0.854849 0.705505 0.629044
Si Si5 0.000000 0.181219 0.496056
Si Si6 0.281625 0.788959 0.069901
Si Si7 0.356082 0.249906 0.246912
Si Si8 0.858303 0.250071 0.803651
O O1 0.122918 0.739500 0.402078
O O2 0.000000 0.373397 0.447266
O O3 0.000000 0.873810 0.482645
O O4 0.189553 0.451175 0.955976
O O5 0.000000 0.759708 0.961314
O O6 0.214671 0.952672 0.943319
O O7 0.159002 0.761939 0.036031
O O8 0.661184 0.749598 0.364238
O O9 0.795922 0.429960 0.613586
O O10 0.817510 0.752763 0.687704
O O11 0.000000 0.708040 0.621178
O O12 0.791748 0.928345 0.595425
O O13 0.115726 0.258237 0.528317
O O14 0.500000 0.251888 0.251544
O O15 0.299755 0.498042 0.276406
O O16 0.299671 0.000712 0.275966
O O17 0.000000 0.249338 0.792688
#
# Coordination Sequence:
#
# PCOD8169894 Si02
#       8
#     2   4   4   4   2   4   4   4
#     4  12  22  38  56  86 114 146 188 230 276 320
#     4  12  25  39  55  83 117 153 191 224 266 334
#     4  12  23  38  60  83 114 150 186 231 276 331
#     4  11  20  32  54  84 111 140 179 230 285 328
#     4  12  20  36  54  80 124 146 182 218 280 334
#     4  12  21  33  55  80 111 149 179 222 277 330
#     4   9  19  33  51  79 110 136 178 229 278 329
#     4  10  19  34  53  77 109 145 178 221 279 330
#
# _framework density 19.048795999999999
#
# number of rings (size 3 to 8) (size 9 to 14) (size 15 to 20)
#    0.000    0.857    4.286    4.714    0.000    3.429 
#    0.000    0.000    0.000    0.000   11.143    0.000 
#    0.000    0.000    0.000    0.000    0.000    0.000 
#
# Total GULP energy -347221.979520 kJ/mol
# GULP energy per Si atom -12400.784983 kJ/mol
# Density = 1.900544 g / cm^3
# Si number density = 19.048796 Si / 1000 Ang^3
#
#
#
# Elastic Constant Matrix: (Units=GPa)
#
#
# Indices 1 2 3 4 5 6 
#
# 1 51.5696 13.4016 3.9399 0.0000 0.0000 0.0000
# 2 13.4016 113.7572 31.4344 0.0000 0.0000 0.0000
# 3 3.9399 31.4344 92.2422 0.0000 0.0000 0.0000
# 4 0.0000 0.0000 0.0000 30.9392 0.0000 0.0000
# 5 0.0000 0.0000 0.0000 0.0000 44.6648 0.0000
# 6 0.0000 0.0000 0.0000 0.0000 0.0000 -12.5341
#
#
#
# Elastic Compliance Matrix: (Units=1/GPa)
#
#
# Indices 1 2 3 4 5 6 
#
# 1 0.020004 -0.002341 -0.000057 0.000000 0.000000 0.000000
# 2 -0.002341 0.009978 -0.003300 0.000000 0.000000 0.000000
# 3 -0.000057 -0.003300 0.011968 0.000000 0.000000 0.000000
# 4 0.000000 0.000000 0.000000 0.032321 0.000000 0.000000
# 5 0.000000 0.000000 0.000000 0.000000 0.022389 0.000000
# 6 0.000000 0.000000 0.000000 0.000000 0.000000 -0.079783
#
#
# Mechanical properties :
#
#
# Convention : Reuss Voigt Hill
#
# Bulk Modulus (GPa) = 32.72857 39.45787 36.09322
# Shear Modulus (GPa) = 130.00722 26.53354 78.27038
#
# Velocity S-wave (km/s) = 8.27029 3.73624 6.41706
# Velocity P-wave (km/s) = 10.41229 6.27469 8.59615
#
# Compressibility (1/GPa) = 0.03055434
#
# Stress axis : x y z
#
# Youngs Moduli (GPa) = 49.99014 100.21591 83.55492
#
# Poissons Ratio (x) = 0.23460 0.00473
# Poissons Ratio (y) = 0.11703 0.27577
# Poissons Ratio (z) = 0.00283 0.33076
#
# Static dielectric constant tensor:
#      x y z
#    x 2.617690 0.000000 0.000000 
#    y 0.000000 3.795640 0.000000 
#    z 0.000000 0.000000 3.443200 
# 
# 
# High freq. dielectric constant tensor:
#      x y z
#    x 1.698570 0.000000 0.000000 
#    y 0.000000 1.766310 0.000000 
#    z 0.000000 0.000000 1.736220 
# 
# From -- ./inp_files/6516.got.cif
#   From: 2010.03.12/outbox.cif.g09.slc.cpg/sg31_4_cif.got.tgz:6516.got - 2010.04.14 01:42:59.
