data_PCOD8169186
_publ_section_title
;
Structure prediction by ZEFSAII (Michael W. Deem and Ramdas Pophale) SiO2 
 PCOD8169186
Probable space group: P C A 21
;
_chemical_formula_sum "Si O2"
_cell_formula_units_Z 24
_cell_length_a 8.509842
_cell_length_b 13.157443
_cell_length_c 8.456047
_cell_angle_alpha 90.000000
_cell_angle_beta 90.000000
_cell_angle_gamma 90.000000
_cell_volume 946.804650
_symmetry_space_group_name_H-M "P C A 21"
_symmetry_group_IT_number 29
_symmetry_cell_setting 'orthorhombic'
loop_
_space_group_symop_operation_xyz
x,y,z
-x,-y,1/2+z
1/2-x,y,1/2+z
1/2+x,-y,z
loop_
_atom_site_type_symbol
_atom_site_label
_atom_site_fract_x
_atom_site_fract_y
_atom_site_fract_z
Si Si1 0.039488 0.115196 0.557590
Si Si2 0.544964 0.225152 0.612432
Si Si3 0.338547 0.723545 0.424786
Si Si4 0.129877 0.064937 0.918530
Si Si5 0.832578 0.592981 0.633361
Si Si6 0.418274 0.498383 0.316154
O O1 0.082335 0.084283 0.736610
O O2 0.191503 0.101061 0.444856
O O3 0.970860 0.231650 0.548715
O O4 0.896847 0.049729 0.479866
O O5 0.643325 0.202220 0.771792
O O6 0.663228 0.280494 0.492160
O O7 0.489155 0.122763 0.533842
O O8 0.389982 0.291884 0.663452
O O9 0.359798 0.610084 0.361179
O O10 0.652496 0.562303 0.661240
O O11 0.895679 0.577849 0.458252
O O12 0.903464 0.513247 0.761773
#
# Coordination Sequence:
#
# PCOD8169186 Si02
#       6
#     4   4   4   4   4   4
#     4  12  26  46  72 101 143 189 239 298 361 430
#     4  11  24  42  67  98 134 179 233 288 353 422
#     4  11  23  43  67  97 134 183 234 292 355 423
#     4  12  26  46  70 105 142 189 240 298 360 431
#     4  11  24  41  66  96 133 178 226 286 350 420
#     4  11  23  42  64  95 132 176 228 284 351 422
#
# _framework density 25.348417000000001
#
# number of rings (size 3 to 8) (size 9 to 14) (size 15 to 20)
#    0.000    0.667    0.000    9.000    0.000    6.667 
#    0.000    0.000    0.000    0.000    0.000    0.000 
#    0.000    0.000    0.000    0.000    0.000    0.000 
#
# Total GULP energy -297339.798417 kJ/mol
# GULP energy per Si atom -12389.158267 kJ/mol
# Density = 2.529072 g / cm^3
# Si number density = 25.348417 Si / 1000 Ang^3
#
#
#
# Elastic Constant Matrix: (Units=GPa)
#
#
# Indices 1 2 3 4 5 6 
#
# 1 57.2724 32.4857 -16.2779 0.0000 0.0000 0.0000
# 2 32.4857 65.6050 29.3124 0.0000 0.0000 0.0000
# 3 -16.2779 29.3124 108.0432 0.0000 0.0000 0.0000
# 4 0.0000 0.0000 0.0000 35.9045 0.0000 0.0000
# 5 0.0000 0.0000 0.0000 0.0000 40.9807 0.0000
# 6 0.0000 0.0000 0.0000 0.0000 0.0000 31.2090
#
#
#
# Elastic Compliance Matrix: (Units=1/GPa)
#
#
# Indices 1 2 3 4 5 6 
#
# 1 0.032051 -0.020515 0.010395 0.000000 0.000000 0.000000
# 2 -0.020515 0.030477 -0.011359 0.000000 0.000000 0.000000
# 3 0.010395 -0.011359 0.013903 0.000000 0.000000 0.000000
# 4 0.000000 0.000000 0.000000 0.027852 0.000000 0.000000
# 5 0.000000 0.000000 0.000000 0.000000 0.024402 0.000000
# 6 0.000000 0.000000 0.000000 0.000000 0.000000 0.032042
#
#
# Mechanical properties :
#
#
# Convention : Reuss Voigt Hill
#
# Bulk Modulus (GPa) = 29.87586 35.77344 32.82465
# Shear Modulus (GPa) = 23.27275 33.97887 28.62581
#
# Velocity S-wave (km/s) = 3.03333 3.66522 3.36414
# Velocity P-wave (km/s) = 4.90711 5.66172 5.29787
#
# Compressibility (1/GPa) = 0.03347184
#
# Stress axis : x y z
#
# Youngs Moduli (GPa) = 31.19995 32.81206 71.92481
#
# Poissons Ratio (x) = 0.67315 -0.74764
# Poissons Ratio (y) = 0.64007 0.81701
# Poissons Ratio (z) = -0.32431 0.37272
#
# Static dielectric constant tensor:
#      x y z
#    x 4.653870 0.000000 0.000000 
#    y 0.000000 4.367140 0.000000 
#    z 0.000000 0.000000 4.942290 
# 
# 
# High freq. dielectric constant tensor:
#      x y z
#    x 2.009590 0.000000 0.000000 
#    y 0.000000 2.009020 0.000000 
#    z 0.000000 0.000000 2.027310 
# 
# From -- ./inp_files/1159.got.cif
#   From: 2010.03.12/outbox.cif.g09.slc.cpg/sg29_1_cif.got.tgz:1159.got - 2010.04.14 03:43:10.
