data_PCOD8169589
_publ_section_title
;
Structure prediction by ZEFSAII (Michael W. Deem and Ramdas Pophale) SiO2 
 PCOD8169589
Probable space group: P N C 2
;
_chemical_formula_sum "Si O2"
_cell_formula_units_Z 12
_cell_length_a 8.193756
_cell_length_b 4.869932
_cell_length_c 12.344513
_cell_angle_alpha 90.000000
_cell_angle_beta 90.000000
_cell_angle_gamma 90.000000
_cell_volume 492.583529
_symmetry_space_group_name_H-M "P N C 2"
_symmetry_group_IT_number 30
_symmetry_cell_setting 'orthorhombic'
loop_
_space_group_symop_operation_xyz
x,y,z
-x,-y,z
-x,1/2+y,1/2+z
x,1/2-y,1/2+z
loop_
_atom_site_type_symbol
_atom_site_label
_atom_site_fract_x
_atom_site_fract_y
_atom_site_fract_z
Si Si1 0.305395 0.214177 0.651320
Si Si2 0.681731 0.300556 0.787122
Si Si3 0.500000 0.500000 0.470559
Si Si4 0.000000 0.000000 0.221498
O O1 0.383926 0.393240 0.752268
O O2 0.386315 0.294204 0.538115
O O3 0.112314 0.294967 0.647207
O O4 0.347044 0.899659 0.682043
O O5 0.879348 0.321365 0.798009
O O6 0.615301 0.195544 0.899948
#
# Coordination Sequence:
#
# PCOD8169589 Si02
#       4
#     4   4   2   2
#     4  10  23  43  68  97 146 180 234 297 345 419
#     4  10  23  43  70  99 142 184 235 294 346 424
#     4  12  24  42  74 110 138 188 248 288 362 412
#     4   8  22  48  62  94 146 190 226 300 342 422
#
# _framework density 24.361350999999999
#
# number of rings (size 3 to 8) (size 9 to 14) (size 15 to 20)
#    2.000    0.000    0.000    3.000    0.000    5.333 
#    6.000    0.000    0.000    0.000    0.000    0.000 
#    0.000    0.000    0.000    0.000    0.000    0.000 
#
# Total GULP energy -148673.341683 kJ/mol
# GULP energy per Si atom -12389.445140 kJ/mol
# Density = 2.430590 g / cm^3
# Si number density = 24.361351 Si / 1000 Ang^3
#
#
#
# Elastic Constant Matrix: (Units=GPa)
#
#
# Indices 1 2 3 4 5 6 
#
# 1 97.5479 9.6086 46.3394 0.0000 0.0000 0.0000
# 2 9.6086 128.9565 39.9152 0.0000 0.0000 0.0000
# 3 46.3394 39.9152 129.8450 0.0000 0.0000 0.0000
# 4 0.0000 0.0000 0.0000 28.3180 0.0000 0.0000
# 5 0.0000 0.0000 0.0000 0.0000 42.6100 0.0000
# 6 0.0000 0.0000 0.0000 0.0000 0.0000 48.1864
#
#
#
# Elastic Compliance Matrix: (Units=1/GPa)
#
#
# Indices 1 2 3 4 5 6 
#
# 1 0.012372 0.000492 -0.004567 0.000000 0.000000 0.000000
# 2 0.000492 0.008590 -0.002816 0.000000 0.000000 0.000000
# 3 -0.004567 -0.002816 0.010197 0.000000 0.000000 0.000000
# 4 0.000000 0.000000 0.000000 0.035313 0.000000 0.000000
# 5 0.000000 0.000000 0.000000 0.000000 0.023469 0.000000
# 6 0.000000 0.000000 0.000000 0.000000 0.000000 0.020753
#
#
# Mechanical properties :
#
#
# Convention : Reuss Voigt Hill
#
# Bulk Modulus (GPa) = 57.54777 60.89731 59.22254
# Shear Modulus (GPa) = 38.38260 41.18862 39.78561
#
# Velocity S-wave (km/s) = 3.97363 4.11632 4.04560
# Velocity P-wave (km/s) = 6.68781 6.90245 6.79598
#
# Compressibility (1/GPa) = 0.01737687
#
# Stress axis : x y z
#
# Youngs Moduli (GPa) = 80.82592 116.42100 98.06948
#
# Poissons Ratio (x) = -0.05723 0.44784
# Poissons Ratio (y) = -0.03973 0.27616
# Poissons Ratio (z) = 0.36910 0.32783
#
# Static dielectric constant tensor:
#      x y z
#    x 4.903030 0.000000 0.000000 
#    y 0.000000 4.407420 0.000000 
#    z 0.000000 0.000000 3.739340 
# 
# 
# High freq. dielectric constant tensor:
#      x y z
#    x 2.009970 0.000000 0.000000 
#    y 0.000000 1.981630 0.000000 
#    z 0.000000 0.000000 1.919230 
# 
# From -- ./inp_files/3351.got.cif
#   From: 2010.03.12/outbox.cif.g09.slc.cpg/sg30_2_cif.got.tgz:3351.got - 2010.04.14 01:38:02.
