data_PCOD8169846
_publ_section_title
;
Structure prediction by ZEFSAII (Michael W. Deem and Ramdas Pophale) SiO2 
 PCOD8169846
Probable space group: P M N 21
;
_chemical_formula_sum "Si O2"
_cell_formula_units_Z 32
_cell_length_a 8.866944
_cell_length_b 14.625175
_cell_length_c 12.369890
_cell_angle_alpha 90.000000
_cell_angle_beta 90.000000
_cell_angle_gamma 90.000000
_cell_volume 1604.134853
_symmetry_space_group_name_H-M "P M N 21"
_symmetry_group_IT_number 31
_symmetry_cell_setting 'orthorhombic'
loop_
_space_group_symop_operation_xyz
x,y,z
1/2-x,-y,1/2+z
-x,y,z
1/2+x,-y,1/2+z
loop_
_atom_site_type_symbol
_atom_site_label
_atom_site_fract_x
_atom_site_fract_y
_atom_site_fract_z
Si Si1 0.320685 0.174933 0.731430
Si Si2 0.321650 0.138544 0.971996
Si Si3 0.322340 0.940963 0.038064
Si Si4 0.828631 0.449018 0.242038
Si Si5 0.828702 0.368236 0.694465
Si Si6 0.321668 0.274312 0.152519
Si Si7 0.665645 0.657868 0.955052
Si Si8 0.673857 0.179355 0.371611
O O1 0.500000 0.171485 0.723393
O O2 0.260400 0.141704 0.849113
O O3 0.255339 0.109297 0.638723
O O4 0.266808 0.278313 0.718473
O O5 0.500000 0.141115 0.967178
O O6 0.265941 0.226105 0.041839
O O7 0.271084 0.046744 0.034736
O O8 0.500000 0.929364 0.052349
O O9 0.272638 0.902339 0.920839
O O10 0.741191 0.543783 0.250266
O O11 0.756496 0.373012 0.162686
O O12 0.816155 0.417886 0.364808
O O13 0.000000 0.464604 0.204033
O O14 0.821003 0.392800 0.568278
O O15 0.000000 0.353137 0.734228
O O16 0.500000 0.290548 0.155618
O O17 0.274449 0.206174 0.250569
O O18 0.500000 0.705950 0.944959
O O19 0.796768 0.733122 0.947889
O O20 0.500000 0.150936 0.376427
#
# Coordination Sequence:
#
# PCOD8169846 Si02
#       8
#     4   4   4   4   4   4   4   4
#     4  11  23  41  62  89 120 155 202 252 297 353
#     4   9  22  41  61  85 122 165 199 240 304 364
#     4  11  22  38  60  86 119 158 196 241 300 362
#     4  10  21  37  58  87 118 155 200 250 300 355
#     4  11  22  38  60  86 117 158 198 244 301 361
#     4   9  19  39  61  84 116 157 201 246 298 355
#     4   9  19  36  56  78 111 152 194 239 298 356
#     4  10  19  32  58  87 111 144 194 250 292 340
#
# _framework density 19.948447000000002
#
# number of rings (size 3 to 8) (size 9 to 14) (size 15 to 20)
#    0.000    2.000    1.250    1.875    1.750    2.500 
#    0.000    9.375    0.000    0.000    0.000    0.000 
#    0.000    0.000    0.000    0.000    0.000    0.000 
#
# Total GULP energy -396705.221011 kJ/mol
# GULP energy per Si atom -12397.038157 kJ/mol
# Density = 1.990304 g / cm^3
# Si number density = 19.948447 Si / 1000 Ang^3
#
#
#
# Elastic Constant Matrix: (Units=GPa)
#
#
# Indices 1 2 3 4 5 6 
#
# 1 78.7453 37.5523 33.5870 0.0000 0.0000 0.0000
# 2 37.5523 119.6617 51.0471 0.0000 0.0000 0.0000
# 3 33.5870 51.0471 92.2687 0.0000 0.0000 0.0000
# 4 0.0000 0.0000 0.0000 25.0090 0.0000 0.0000
# 5 0.0000 0.0000 0.0000 0.0000 26.1511 0.0000
# 6 0.0000 0.0000 0.0000 0.0000 0.0000 27.2182
#
#
#
# Elastic Compliance Matrix: (Units=1/GPa)
#
#
# Indices 1 2 3 4 5 6 
#
# 1 0.015979 -0.003316 -0.003982 0.000000 0.000000 0.000000
# 2 -0.003316 0.011627 -0.005225 0.000000 0.000000 0.000000
# 3 -0.003982 -0.005225 0.015178 0.000000 0.000000 0.000000
# 4 0.000000 0.000000 0.000000 0.039986 0.000000 0.000000
# 5 0.000000 0.000000 0.000000 0.000000 0.038239 0.000000
# 6 0.000000 0.000000 0.000000 0.000000 0.000000 0.036740
#
#
# Mechanical properties :
#
#
# Convention : Reuss Voigt Hill
#
# Bulk Modulus (GPa) = 56.37811 59.44982 57.91397
# Shear Modulus (GPa) = 26.49601 26.90828 26.70215
#
# Velocity S-wave (km/s) = 3.64844 3.67671 3.66260
# Velocity P-wave (km/s) = 6.78759 6.92031 6.85427
#
# Compressibility (1/GPa) = 0.01773738
#
# Stress axis : x y z
#
# Youngs Moduli (GPa) = 62.58263 86.01008 65.88340
#
# Poissons Ratio (x) = 0.28519 0.26235
# Poissons Ratio (y) = 0.20751 0.34426
# Poissons Ratio (z) = 0.24921 0.44943
#
# Static dielectric constant tensor:
#      x y z
#    x 3.648230 0.000000 0.000000 
#    y 0.000000 3.594350 0.000000 
#    z 0.000000 0.000000 3.831800 
# 
# 
# High freq. dielectric constant tensor:
#      x y z
#    x 1.772430 0.000000 0.000000 
#    y 0.000000 1.776500 0.000000 
#    z 0.000000 0.000000 1.781610 
# 
# From -- ./inp_files/3735.got.cif
#   From: 2010.03.12/outbox.cif.g09.slc.cpg/sg31_2_cif.got.tgz:3735.got - 2010.04.14 01:42:59.
