data_PCOD8169219
_publ_section_title
;
Structure prediction by ZEFSAII (Michael W. Deem and Ramdas Pophale) SiO2 
 PCOD8169219
Probable space group: P C A 21
;
_chemical_formula_sum "Si O2"
_cell_formula_units_Z 32
_cell_length_a 14.538410
_cell_length_b 10.768070
_cell_length_c 8.659478
_cell_angle_alpha 90.000000
_cell_angle_beta 90.000000
_cell_angle_gamma 90.000000
_cell_volume 1355.646620
_symmetry_space_group_name_H-M "P C A 21"
_symmetry_group_IT_number 29
_symmetry_cell_setting 'orthorhombic'
loop_
_space_group_symop_operation_xyz
x,y,z
-x,-y,1/2+z
1/2-x,y,1/2+z
1/2+x,-y,z
loop_
_atom_site_type_symbol
_atom_site_label
_atom_site_fract_x
_atom_site_fract_y
_atom_site_fract_z
Si Si1 0.907797 0.587294 0.776650
Si Si2 0.831408 0.111259 0.865555
Si Si3 0.442212 0.988185 0.612371
Si Si4 0.826550 0.237513 0.192330
Si Si5 0.785974 0.695424 0.212351
Si Si6 0.910040 0.483843 0.098195
Si Si7 0.271521 0.120480 0.468399
Si Si8 0.001279 0.829665 0.848905
O O1 0.807085 0.609983 0.702472
O O2 0.985248 0.548199 0.651246
O O3 0.932149 0.715493 0.864600
O O4 0.906917 0.484682 0.911800
O O5 0.771456 0.206440 0.763717
O O6 0.922702 0.101808 0.759841
O O7 0.795124 0.968241 0.867838
O O8 0.848238 0.157663 0.038471
O O9 0.352948 0.028184 0.516278
O O10 0.488307 0.110409 0.680049
O O11 0.512585 0.918919 0.496627
O O12 0.836131 0.381520 0.150359
O O13 0.893554 0.213708 0.338090
O O14 0.874417 0.613419 0.168595
O O15 0.803911 0.754198 0.380369
O O16 0.781057 0.821594 0.113286
#
# Coordination Sequence:
#
# PCOD8169219 Si02
#       8
#     4   4   4   4   4   4   4   4
#     4  11  26  49  67 103 143 185 247 294 355 423
#     4  12  22  43  68 102 137 179 225 288 350 428
#     4  12  24  41  68 103 141 181 227 289 360 433
#     4  11  24  42  67  97 139 175 232 281 350 416
#     4  12  25  45  76 104 142 190 243 298 358 428
#     4  11  29  46  73 102 139 192 241 301 351 424
#     4  12  22  41  73 104 137 182 236 290 359 425
#     4  11  24  43  64 101 140 180 225 291 351 425
#
# _framework density 23.604972
#
# number of rings (size 3 to 8) (size 9 to 14) (size 15 to 20)
#    0.000    0.500    6.250    0.750    3.500    2.000 
#    2.250    0.000    0.000    0.000    0.000    0.000 
#    0.000    0.000    0.000    0.000    0.000    0.000 
#
# Total GULP energy -396682.380576 kJ/mol
# GULP energy per Si atom -12396.324393 kJ/mol
# Density = 2.355125 g / cm^3
# Si number density = 23.604972 Si / 1000 Ang^3
#
#
#
# Elastic Constant Matrix: (Units=GPa)
#
#
# Indices 1 2 3 4 5 6 
#
# 1 45.2481 7.7506 9.5246 0.0000 0.0000 0.0000
# 2 7.7506 81.3387 14.7694 0.0000 0.0000 0.0000
# 3 9.5246 14.7694 82.2888 0.0000 0.0000 0.0000
# 4 0.0000 0.0000 0.0000 47.2537 0.0000 0.0000
# 5 0.0000 0.0000 0.0000 0.0000 28.4275 0.0000
# 6 0.0000 0.0000 0.0000 0.0000 0.0000 22.5567
#
#
#
# Elastic Compliance Matrix: (Units=1/GPa)
#
#
# Indices 1 2 3 4 5 6 
#
# 1 0.022893 -0.001758 -0.002334 0.000000 0.000000 0.000000
# 2 -0.001758 0.012843 -0.002102 0.000000 0.000000 0.000000
# 3 -0.002334 -0.002102 0.012800 0.000000 0.000000 0.000000
# 4 0.000000 0.000000 0.000000 0.021162 0.000000 0.000000
# 5 0.000000 0.000000 0.000000 0.000000 0.035177 0.000000
# 6 0.000000 0.000000 0.000000 0.000000 0.000000 0.044333
#
#
# Mechanical properties :
#
#
# Convention : Reuss Voigt Hill
#
# Bulk Modulus (GPa) = 27.66347 30.32941 28.99644
# Shear Modulus (GPa) = 28.79440 31.43632 30.11536
#
# Velocity S-wave (km/s) = 3.49642 3.65330 3.57572
# Velocity P-wave (km/s) = 5.29572 5.53824 5.41834
#
# Compressibility (1/GPa) = 0.03614875
#
# Stress axis : x y z
#
# Youngs Moduli (GPa) = 43.68188 77.86120 78.12668
#
# Poissons Ratio (x) = 0.13685 0.18237
# Poissons Ratio (y) = 0.07677 0.16420
# Poissons Ratio (z) = 0.10197 0.16364
#
# Static dielectric constant tensor:
#      x y z
#    x 4.044980 0.000000 0.000000 
#    y 0.000000 4.205150 0.000000 
#    z 0.000000 0.000000 4.218960 
# 
# 
# High freq. dielectric constant tensor:
#      x y z
#    x 1.924510 0.000000 0.000000 
#    y 0.000000 1.933250 0.000000 
#    z 0.000000 0.000000 1.944860 
# 
# From -- ./inp_files/1845.got.cif
#   From: 2010.03.12/outbox.cif.g09.slc.cpg/sg29_1_cif.got.tgz:1845.got - 2010.04.14 03:43:10.
