data_PCOD8169228
_publ_section_title
;
Structure prediction by ZEFSAII (Michael W. Deem and Ramdas Pophale) SiO2 
 PCOD8169228
Probable space group: P C A 21
;
_chemical_formula_sum "Si O2"
_cell_formula_units_Z 24
_cell_length_a 14.258237
_cell_length_b 8.262425
_cell_length_c 9.430050
_cell_angle_alpha 90.000000
_cell_angle_beta 90.000000
_cell_angle_gamma 90.000000
_cell_volume 1110.931689
_symmetry_space_group_name_H-M "P C A 21"
_symmetry_group_IT_number 29
_symmetry_cell_setting 'orthorhombic'
loop_
_space_group_symop_operation_xyz
x,y,z
-x,-y,1/2+z
1/2-x,y,1/2+z
1/2+x,-y,z
loop_
_atom_site_type_symbol
_atom_site_label
_atom_site_fract_x
_atom_site_fract_y
_atom_site_fract_z
Si Si1 0.399294 0.399058 0.920440
Si Si2 0.720968 0.179325 0.738126
Si Si3 0.966784 0.113596 0.100629
Si Si4 0.610129 0.961820 0.328328
Si Si5 0.283217 0.596990 0.492199
Si Si6 0.537614 0.531663 0.119518
O O1 0.367225 0.222102 0.871477
O O2 0.310772 0.497111 0.973535
O O3 0.448472 0.492034 0.787952
O O4 0.472954 0.389631 0.051480
O O5 0.629149 0.082446 0.687794
O O6 0.687529 0.319238 0.845307
O O7 0.772532 0.260973 0.606209
O O8 0.792138 0.055762 0.814224
O O9 0.053916 0.030660 0.180543
O O10 0.984095 0.303611 0.082893
O O11 0.957325 0.039440 0.945465
O O12 0.361964 0.471105 0.542159
#
# Coordination Sequence:
#
# PCOD8169228 Si02
#       6
#     4   4   4   4   4   4
#     4  11  25  44  67 108 131 187 241 291 350 425
#     4  12  24  48  70 100 143 188 229 289 364 422
#     4  11  26  47  68 104 141 186 234 287 364 423
#     4  11  27  43  70 102 144 184 233 289 363 422
#     4  12  24  44  74  97 136 188 237 293 349 419
#     4  11  24  44  71  99 141 177 246 291 344 421
#
# _framework density 21.603490000000001
#
# number of rings (size 3 to 8) (size 9 to 14) (size 15 to 20)
#    0.000    0.667    5.000    2.000    4.667    4.000 
#    0.000    0.000    0.000    0.000    0.000    0.000 
#    0.000    0.000    0.000    0.000    0.000    0.000 
#
# Total GULP energy -297722.101608 kJ/mol
# GULP energy per Si atom -12405.087567 kJ/mol
# Density = 2.155432 g / cm^3
# Si number density = 21.603490 Si / 1000 Ang^3
#
#
#
# Elastic Constant Matrix: (Units=GPa)
#
#
# Indices 1 2 3 4 5 6 
#
# 1 81.1814 47.5626 32.9194 0.0000 0.0000 0.0000
# 2 47.5626 64.7218 31.9926 0.0000 0.0000 0.0000
# 3 32.9194 31.9926 79.7706 0.0000 0.0000 0.0000
# 4 0.0000 0.0000 0.0000 36.1893 0.0000 0.0000
# 5 0.0000 0.0000 0.0000 0.0000 44.7108 0.0000
# 6 0.0000 0.0000 0.0000 0.0000 0.0000 34.6731
#
#
#
# Elastic Compliance Matrix: (Units=1/GPa)
#
#
# Indices 1 2 3 4 5 6 
#
# 1 0.022299 -0.014766 -0.003280 0.000000 0.000000 0.000000
# 2 -0.014766 0.029048 -0.005557 0.000000 0.000000 0.000000
# 3 -0.003280 -0.005557 0.016118 0.000000 0.000000 0.000000
# 4 0.000000 0.000000 0.000000 0.027632 0.000000 0.000000
# 5 0.000000 0.000000 0.000000 0.000000 0.022366 0.000000
# 6 0.000000 0.000000 0.000000 0.000000 0.000000 0.028841
#
#
# Mechanical properties :
#
#
# Convention : Reuss Voigt Hill
#
# Bulk Modulus (GPa) = 49.35754 50.06924 49.71339
# Shear Modulus (GPa) = 24.96703 30.66126 27.81415
#
# Velocity S-wave (km/s) = 3.40324 3.77141 3.59205
# Velocity P-wave (km/s) = 6.19188 6.49550 6.34550
#
# Compressibility (1/GPa) = 0.02026033
#
# Stress axis : x y z
#
# Youngs Moduli (GPa) = 44.84456 34.42533 62.04148
#
# Poissons Ratio (x) = 0.50831 0.20353
# Poissons Ratio (y) = 0.66216 0.34474
# Poissons Ratio (z) = 0.14711 0.19129
#
# Static dielectric constant tensor:
#      x y z
#    x 3.950860 0.000000 0.000000 
#    y 0.000000 3.829280 0.000000 
#    z 0.000000 0.000000 4.142880 
# 
# 
# High freq. dielectric constant tensor:
#      x y z
#    x 1.857690 0.000000 0.000000 
#    y 0.000000 1.836020 0.000000 
#    z 0.000000 0.000000 1.865080 
# 
# From -- ./inp_files/1397.got.cif
#   From: 2010.03.12/outbox.cif.g09.slc.cpg/sg29_1_cif.got.tgz:1397.got - 2010.04.14 03:43:10.
