data_PCOD8169535
_publ_section_title
;
Structure prediction by ZEFSAII (Michael W. Deem and Ramdas Pophale) SiO2 
 PCOD8169535
Probable space group: P N C 2
;
_chemical_formula_sum "Si O2"
_cell_formula_units_Z 26
_cell_length_a 11.573196
_cell_length_b 10.737832
_cell_length_c 9.177867
_cell_angle_alpha 90.000000
_cell_angle_beta 90.000000
_cell_angle_gamma 90.000000
_cell_volume 1140.543025
_symmetry_space_group_name_H-M "P N C 2"
_symmetry_group_IT_number 30
_symmetry_cell_setting 'orthorhombic'
loop_
_space_group_symop_operation_xyz
x,y,z
-x,-y,z
-x,1/2+y,1/2+z
x,1/2-y,1/2+z
loop_
_atom_site_type_symbol
_atom_site_label
_atom_site_fract_x
_atom_site_fract_y
_atom_site_fract_z
Si Si1 0.853406 0.642498 0.189970
Si Si2 0.527181 0.228134 0.350865
Si Si3 0.762192 0.252762 0.480223
Si Si4 0.113093 0.863922 0.714168
Si Si5 0.725520 0.842567 0.382646
Si Si6 0.665145 0.451403 0.656860
Si Si7 0.500000 0.000000 0.915647
O O1 0.869518 0.506435 0.261818
O O2 0.773669 0.725953 0.292007
O O3 0.984645 0.692172 0.193490
O O4 0.801069 0.638117 0.027176
O O5 0.628973 0.210946 0.468016
O O6 0.407779 0.183406 0.423153
O O7 0.561102 0.139849 0.214964
O O8 0.519444 0.377502 0.314286
O O9 0.831008 0.140804 0.553830
O O10 0.816390 0.277718 0.323882
O O11 0.769773 0.370920 0.589064
O O12 0.725298 0.964572 0.279884
O O13 0.610205 0.527193 0.521289
#
# Coordination Sequence:
#
# PCOD8169535 Si02
#       7
#     4   4   4   4   4   4   2
#     4  11  28  44  73 100 141 185 238 300 351 431
#     4  11  23  40  70 104 141 183 233 289 359 438
#     4  11  24  43  75  96 136 187 235 295 353 422
#     4  11  25  50  69 101 138 182 252 288 355 431
#     4  12  25  45  69 106 147 183 232 294 369 427
#     4  11  22  42  65 105 143 189 232 291 357 434
#     4  10  22  38  62 100 144 186 234 278 352 436
#
# _framework density 22.796158999999999
#
# number of rings (size 3 to 8) (size 9 to 14) (size 15 to 20)
#    0.000    0.923    3.077    2.769    8.615    0.000 
#    0.000    1.538    0.000    0.000    0.000    0.000 
#    0.000    0.000    0.000    0.000    0.000    0.000 
#
# Total GULP energy -322199.503654 kJ/mol
# GULP energy per Si atom -12392.288602 kJ/mol
# Density = 2.274427 g / cm^3
# Si number density = 22.796159 Si / 1000 Ang^3
#
#
#
# Elastic Constant Matrix: (Units=GPa)
#
#
# Indices 1 2 3 4 5 6 
#
# 1 145.6523 23.6282 53.3873 0.0000 0.0000 0.0000
# 2 23.6282 64.2560 32.1098 0.0000 0.0000 0.0000
# 3 53.3873 32.1098 97.5355 0.0000 0.0000 0.0000
# 4 0.0000 0.0000 0.0000 42.5725 0.0000 0.0000
# 5 0.0000 0.0000 0.0000 0.0000 24.6910 0.0000
# 6 0.0000 0.0000 0.0000 0.0000 0.0000 30.1540
#
#
#
# Elastic Compliance Matrix: (Units=1/GPa)
#
#
# Indices 1 2 3 4 5 6 
#
# 1 0.008639 -0.000974 -0.004408 0.000000 0.000000 0.000000
# 2 -0.000974 0.018737 -0.005635 0.000000 0.000000 0.000000
# 3 -0.004408 -0.005635 0.014521 0.000000 0.000000 0.000000
# 4 0.000000 0.000000 0.000000 0.023489 0.000000 0.000000
# 5 0.000000 0.000000 0.000000 0.000000 0.040501 0.000000
# 6 0.000000 0.000000 0.000000 0.000000 0.000000 0.033163
#
#
# Mechanical properties :
#
#
# Convention : Reuss Voigt Hill
#
# Bulk Modulus (GPa) = 50.34714 58.41047 54.37880
# Shear Modulus (GPa) = 29.81406 32.70474 31.25940
#
# Velocity S-wave (km/s) = 3.62035 3.79180 3.70707
# Velocity P-wave (km/s) = 6.29362 6.69693 6.49841
#
# Compressibility (1/GPa) = 0.01986210
#
# Stress axis : x y z
#
# Youngs Moduli (GPa) = 115.74779 53.37043 68.86671
#
# Poissons Ratio (x) = 0.05198 0.30358
# Poissons Ratio (y) = 0.11274 0.38808
# Poissons Ratio (z) = 0.51025 0.30076
#
# Static dielectric constant tensor:
#      x y z
#    x 4.209980 0.000000 0.000000 
#    y 0.000000 4.240090 0.000000 
#    z 0.000000 0.000000 3.962400 
# 
# 
# High freq. dielectric constant tensor:
#      x y z
#    x 1.900700 0.000000 0.000000 
#    y 0.000000 1.904350 0.000000 
#    z 0.000000 0.000000 1.892320 
# 
# From -- ./inp_files/2374.got.cif
#   From: 2010.03.12/outbox.cif.g09.slc.cpg/sg30_2_cif.got.tgz:2374.got - 2010.04.14 01:38:02.
