data_PCOD8169871
_publ_section_title
;
Structure prediction by ZEFSAII (Michael W. Deem and Ramdas Pophale) SiO2 
 PCOD8169871
Probable space group: P M N 21
;
_chemical_formula_sum "Si O2"
_cell_formula_units_Z 32
_cell_length_a 8.969222
_cell_length_b 13.607065
_cell_length_c 12.955273
_cell_angle_alpha 90.000000
_cell_angle_beta 90.000000
_cell_angle_gamma 90.000000
_cell_volume 1581.123531
_symmetry_space_group_name_H-M "P M N 21"
_symmetry_group_IT_number 31
_symmetry_cell_setting 'orthorhombic'
loop_
_space_group_symop_operation_xyz
x,y,z
1/2-x,-y,1/2+z
-x,y,z
1/2+x,-y,1/2+z
loop_
_atom_site_type_symbol
_atom_site_label
_atom_site_fract_x
_atom_site_fract_y
_atom_site_fract_z
Si Si1 0.824918 0.606158 0.689870
Si Si2 0.676459 0.107069 0.925248
Si Si3 0.822139 0.824291 0.649546
Si Si4 0.823488 0.746248 0.251124
Si Si5 0.677029 0.892140 0.856009
Si Si6 0.825004 0.746843 0.017535
Si Si7 0.334922 0.463878 0.811788
Si Si8 0.666982 0.545798 0.022903
O O1 0.763698 0.712299 0.657882
O O2 0.754189 0.566602 0.795284
O O3 0.770050 0.517973 0.616688
O O4 0.000000 0.613367 0.699004
O O5 0.500000 0.116876 0.923893
O O6 0.743581 0.178188 0.835738
O O7 0.727340 0.996806 0.901200
O O8 0.735639 0.135394 0.039254
O O9 0.747342 0.884566 0.742230
O O10 0.000000 0.832830 0.659504
O O11 0.783669 0.780917 0.134672
O O12 0.756689 0.636876 0.271653
O O13 0.000000 0.739643 0.266189
O O14 0.500000 0.882129 0.847092
O O15 0.737169 0.810349 0.933971
O O16 0.780143 0.634039 0.002421
O O17 0.000000 0.758198 0.995801
O O18 0.500000 0.472412 0.763126
O O19 0.341674 0.462360 0.935027
O O20 0.500000 0.587893 0.043721
#
# Coordination Sequence:
#
# PCOD8169871 Si02
#       8
#     4   4   4   4   4   4   4   4
#     4  10  20  34  54  82 114 149 185 226 279 336
#     4   9  20  39  63  87 113 150 196 245 299 351
#     4  10  21  40  63  87 116 153 199 244 289 355
#     4   9  18  35  59  87 115 151 198 241 286 347
#     4  11  24  40  61  88 118 154 194 246 304 349
#     4  11  22  37  60  88 120 157 198 240 285 350
#     4  10  19  33  55  82 112 150 191 230 274 331
#     4  10  20  34  55  83 118 154 189 234 286 337
#
# _framework density 20.238772999999998
#
# number of rings (size 3 to 8) (size 9 to 14) (size 15 to 20)
#    0.000    2.000    1.250    2.250    1.750    6.000 
#    0.000    0.625    0.000    5.250    0.000    0.000 
#    0.000    0.000    0.000    0.000    0.000    0.000 
#
# Total GULP energy -396647.609084 kJ/mol
# GULP energy per Si atom -12395.237784 kJ/mol
# Density = 2.019271 g / cm^3
# Si number density = 20.238773 Si / 1000 Ang^3
#
#
#
# Elastic Constant Matrix: (Units=GPa)
#
#
# Indices 1 2 3 4 5 6 
#
# 1 27.3023 31.4133 28.3440 0.0000 0.0000 0.0000
# 2 31.4133 109.8115 44.9824 0.0000 0.0000 0.0000
# 3 28.3440 44.9824 125.3985 0.0000 0.0000 0.0000
# 4 0.0000 0.0000 0.0000 35.0775 0.0000 0.0000
# 5 0.0000 0.0000 0.0000 0.0000 23.5789 0.0000
# 6 0.0000 0.0000 0.0000 0.0000 0.0000 22.7071
#
#
#
# Elastic Compliance Matrix: (Units=1/GPa)
#
#
# Indices 1 2 3 4 5 6 
#
# 1 0.062200 -0.014107 -0.008999 0.000000 0.000000 0.000000
# 2 -0.014107 0.013875 -0.001788 0.000000 0.000000 0.000000
# 3 -0.008999 -0.001788 0.010650 0.000000 0.000000 0.000000
# 4 0.000000 0.000000 0.000000 0.028508 0.000000 0.000000
# 5 0.000000 0.000000 0.000000 0.000000 0.042411 0.000000
# 6 0.000000 0.000000 0.000000 0.000000 0.000000 0.044039
#
#
# Mechanical properties :
#
#
# Convention : Reuss Voigt Hill
#
# Bulk Modulus (GPa) = 27.07354 52.44352 39.75853
# Shear Modulus (GPa) = 18.95489 26.79088 22.87288
#
# Velocity S-wave (km/s) = 3.06365 3.64227 3.36542
# Velocity P-wave (km/s) = 5.09124 6.60733 5.89820
#
# Compressibility (1/GPa) = 0.03693643
#
# Stress axis : x y z
#
# Youngs Moduli (GPa) = 16.07708 72.07378 93.89573
#
# Poissons Ratio (x) = 1.01676 0.84495
# Poissons Ratio (y) = 0.22680 0.16792
# Poissons Ratio (z) = 0.14467 0.12890
#
# Static dielectric constant tensor:
#      x y z
#    x 3.355160 0.000000 0.000000 
#    y 0.000000 3.754440 0.000000 
#    z 0.000000 0.000000 3.923830 
# 
# 
# High freq. dielectric constant tensor:
#      x y z
#    x 1.755760 0.000000 0.000000 
#    y 0.000000 1.794000 0.000000 
#    z 0.000000 0.000000 1.809720 
# 
# From -- ./inp_files/5103.got.cif
#   From: 2010.03.12/outbox.cif.g09.slc.cpg/sg31_3_cif.got.tgz:5103.got - 2010.04.14 01:42:59.
