data_PCOD8169771
_publ_section_title
;
Structure prediction by ZEFSAII (Michael W. Deem and Ramdas Pophale) SiO2 
 PCOD8169771
Probable space group: P M N 21
;
_chemical_formula_sum "Si O2"
_cell_formula_units_Z 32
_cell_length_a 8.859427
_cell_length_b 15.375427
_cell_length_c 12.194376
_cell_angle_alpha 90.000000
_cell_angle_beta 90.000000
_cell_angle_gamma 90.000000
_cell_volume 1661.087085
_symmetry_space_group_name_H-M "P M N 21"
_symmetry_group_IT_number 31
_symmetry_cell_setting 'orthorhombic'
loop_
_space_group_symop_operation_xyz
x,y,z
1/2-x,-y,1/2+z
-x,y,z
1/2+x,-y,1/2+z
loop_
_atom_site_type_symbol
_atom_site_label
_atom_site_fract_x
_atom_site_fract_y
_atom_site_fract_z
Si Si1 0.320925 0.752109 0.524630
Si Si2 0.320287 0.750747 0.774439
Si Si3 0.322466 0.093345 0.886519
Si Si4 0.679146 0.899863 0.934034
Si Si5 0.180118 0.415766 0.888613
Si Si6 0.329477 0.653349 0.164988
Si Si7 0.820010 0.400327 0.432646
Si Si8 0.828520 0.146725 0.673401
O O1 0.500000 0.759808 0.520683
O O2 0.259718 0.752160 0.649777
O O3 0.256790 0.835333 0.461817
O O4 0.266726 0.662650 0.467903
O O5 0.500000 0.751893 0.774990
O O6 0.256870 0.835367 0.839651
O O7 0.262540 0.662837 0.835093
O O8 0.500000 0.103419 0.901394
O O9 0.279603 0.099895 0.759250
O O10 0.263920 0.998015 0.920119
O O11 0.500000 0.894099 0.930057
O O12 0.737342 0.868250 0.052246
O O13 0.244196 0.399506 0.765634
O O14 0.254349 0.504079 0.926533
O O15 0.000000 0.422982 0.890619
O O16 0.500000 0.621265 0.152370
O O17 0.323456 0.752443 0.201532
O O18 0.252782 0.637178 0.047289
O O19 0.000000 0.403149 0.430846
O O20 0.000000 0.111178 0.683991
#
# Coordination Sequence:
#
# PCOD8169771 Si02
#       8
#     4   4   4   4   4   4   4   4
#     4  10  21  38  59  79 108 153 191 218 265 337
#     4   9  18  35  58  82 108 143 189 228 262 324
#     4  11  23  36  54  87 119 141 178 237 284 314
#     4   9  19  35  57  83 112 145 183 228 276 322
#     4  10  21  36  53  79 112 144 181 225 270 327
#     4   9  17  34  58  78 101 139 187 225 263 324
#     4  10  20  35  58  83 104 138 185 230 273 321
#     4  10  18  37  63  79 102 149 194 223 265 335
#
# _framework density 19.264492000000001
#
# number of rings (size 3 to 8) (size 9 to 14) (size 15 to 20)
#    0.000    2.250    2.500    0.375    3.500    0.500 
#    0.000    1.875    0.000    2.250    0.000    0.000 
#    0.000    0.000    0.000    0.000    0.000    0.000 
#
# Total GULP energy -396681.414216 kJ/mol
# GULP energy per Si atom -12396.294194 kJ/mol
# Density = 1.922064 g / cm^3
# Si number density = 19.264492 Si / 1000 Ang^3
#
#
#
# Elastic Constant Matrix: (Units=GPa)
#
#
# Indices 1 2 3 4 5 6 
#
# 1 17.5363 22.0226 19.2529 0.0000 0.0000 0.0000
# 2 22.0226 138.1756 62.5963 0.0000 0.0000 0.0000
# 3 19.2529 62.5963 150.2662 0.0000 0.0000 0.0000
# 4 0.0000 0.0000 0.0000 34.7669 0.0000 0.0000
# 5 0.0000 0.0000 0.0000 0.0000 16.6354 0.0000
# 6 0.0000 0.0000 0.0000 0.0000 0.0000 19.2651
#
#
#
# Elastic Compliance Matrix: (Units=1/GPa)
#
#
# Indices 1 2 3 4 5 6 
#
# 1 0.075072 -0.009377 -0.005712 0.000000 0.000000 0.000000
# 2 -0.009377 0.010092 -0.003003 0.000000 0.000000 0.000000
# 3 -0.005712 -0.003003 0.008638 0.000000 0.000000 0.000000
# 4 0.000000 0.000000 0.000000 0.028763 0.000000 0.000000
# 5 0.000000 0.000000 0.000000 0.000000 0.060113 0.000000
# 6 0.000000 0.000000 0.000000 0.000000 0.000000 0.051907
#
#
# Mechanical properties :
#
#
# Convention : Reuss Voigt Hill
#
# Bulk Modulus (GPa) = 17.35591 57.08019 37.21805
# Shear Modulus (GPa) = 17.24289 27.60724 22.42507
#
# Velocity S-wave (km/s) = 2.99500 3.78969 3.41554
# Velocity P-wave (km/s) = 4.58136 6.98878 5.90897
#
# Compressibility (1/GPa) = 0.05761728
#
# Stress axis : x y z
#
# Youngs Moduli (GPa) = 13.32052 99.08905 115.77398
#
# Poissons Ratio (x) = 0.92918 0.66134
# Poissons Ratio (y) = 0.12491 0.34761
# Poissons Ratio (z) = 0.07609 0.29752
#
# Static dielectric constant tensor:
#      x y z
#    x 3.040460 0.000000 0.000000 
#    y 0.000000 3.607250 0.000000 
#    z 0.000000 0.000000 3.912670 
# 
# 
# High freq. dielectric constant tensor:
#      x y z
#    x 1.697650 0.000000 0.000000 
#    y 0.000000 1.758220 0.000000 
#    z 0.000000 0.000000 1.771080 
# 
# From -- ./inp_files/3551.got.cif
#   From: 2010.03.12/outbox.cif.g09.slc.cpg/sg31_2_cif.got.tgz:3551.got - 2010.04.14 01:42:59.
