data_PCOD8169171
_publ_section_title
;
Structure prediction by ZEFSAII (Michael W. Deem and Ramdas Pophale) SiO2 
 PCOD8169171
Probable space group: P C A 21
;
_chemical_formula_sum "Si O2"
_cell_formula_units_Z 28
_cell_length_a 10.673559
_cell_length_b 5.364158
_cell_length_c 18.755299
_cell_angle_alpha 90.000000
_cell_angle_beta 90.000000
_cell_angle_gamma 90.000000
_cell_volume 1073.828209
_symmetry_space_group_name_H-M "P C A 21"
_symmetry_group_IT_number 29
_symmetry_cell_setting 'orthorhombic'
loop_
_space_group_symop_operation_xyz
x,y,z
-x,-y,1/2+z
1/2-x,y,1/2+z
1/2+x,-y,z
loop_
_atom_site_type_symbol
_atom_site_label
_atom_site_fract_x
_atom_site_fract_y
_atom_site_fract_z
Si Si1 0.282470 0.378923 0.863480
Si Si2 0.622534 0.945209 0.945734
Si Si3 0.079797 0.600379 0.487759
Si Si4 0.036823 0.557087 0.122527
Si Si5 0.564952 0.043621 0.687638
Si Si6 0.744899 0.132259 0.079384
Si Si7 0.943968 0.294331 0.329723
O O1 0.240254 0.104420 0.891989
O O2 0.306052 0.518637 0.938230
O O3 0.167016 0.502454 0.819571
O O4 0.411461 0.385196 0.817551
O O5 0.535968 0.697790 0.939723
O O6 0.554846 0.187395 0.911277
O O7 0.648990 0.971135 0.030804
O O8 0.040319 0.402381 0.548683
O O9 0.133537 0.837087 0.530194
O O10 0.009941 0.289634 0.158425
O O11 0.182925 0.599839 0.101429
O O12 0.010018 0.788857 0.175430
O O13 0.702622 0.007108 0.651860
O O14 0.582953 0.077784 0.772104
#
# Coordination Sequence:
#
# PCOD8169171 Si02
#       7
#     4   4   4   4   4   4   4
#     4  12  25  47  76 112 162 202 280 330 416 487
#     4  12  24  46  79 118 155 211 272 346 417 489
#     4  11  22  44  75 115 150 202 263 339 408 481
#     4  11  25  47  72 108 150 204 261 330 399 489
#     4  11  29  47  73 108 157 209 275 323 414 484
#     4  11  22  44  76 106 152 201 263 334 403 478
#     4  12  29  47  77 115 160 225 268 348 409 506
#
# _framework density 26.074935
#
# number of rings (size 3 to 8) (size 9 to 14) (size 15 to 20)
#    0.000    0.571    2.857    5.143    4.000    4.571 
#    0.000    0.000    0.000    0.000    0.000    0.000 
#    0.000    0.000    0.000    0.000    0.000    0.000 
#
# Total GULP energy -346923.735718 kJ/mol
# GULP energy per Si atom -12390.133419 kJ/mol
# Density = 2.601559 g / cm^3
# Si number density = 26.074935 Si / 1000 Ang^3
#
#
#
# Elastic Constant Matrix: (Units=GPa)
#
#
# Indices 1 2 3 4 5 6 
#
# 1 121.4491 15.8889 16.3486 0.0000 0.0000 0.0000
# 2 15.8889 77.1760 5.8259 0.0000 0.0000 0.0000
# 3 16.3486 5.8259 94.2195 0.0000 0.0000 0.0000
# 4 0.0000 0.0000 0.0000 38.8086 0.0000 0.0000
# 5 0.0000 0.0000 0.0000 0.0000 31.8933 0.0000
# 6 0.0000 0.0000 0.0000 0.0000 0.0000 28.2846
#
#
#
# Elastic Compliance Matrix: (Units=1/GPa)
#
#
# Indices 1 2 3 4 5 6 
#
# 1 0.008641 -0.001674 -0.001396 0.000000 0.000000 0.000000
# 2 -0.001674 0.013342 -0.000535 0.000000 0.000000 0.000000
# 3 -0.001396 -0.000535 0.010889 0.000000 0.000000 0.000000
# 4 0.000000 0.000000 0.000000 0.025767 0.000000 0.000000
# 5 0.000000 0.000000 0.000000 0.000000 0.031355 0.000000
# 6 0.000000 0.000000 0.000000 0.000000 0.000000 0.035355
#
#
# Mechanical properties :
#
#
# Convention : Reuss Voigt Hill
#
# Bulk Modulus (GPa) = 38.96537 40.99680 39.98108
# Shear Modulus (GPa) = 35.43299 36.78270 36.10785
#
# Velocity S-wave (km/s) = 3.69031 3.75994 3.72529
# Velocity P-wave (km/s) = 5.75621 5.88272 5.81981
#
# Compressibility (1/GPa) = 0.02566382
#
# Stress axis : x y z
#
# Youngs Moduli (GPa) = 115.73068 74.94953 91.83771
#
# Poissons Ratio (x) = 0.12543 0.12819
# Poissons Ratio (y) = 0.19368 0.04910
# Poissons Ratio (z) = 0.16154 0.04007
#
# Static dielectric constant tensor:
#      x y z
#    x 4.866200 0.000000 0.000000 
#    y 0.000000 4.271380 0.000000 
#    z 0.000000 0.000000 4.673160 
# 
# 
# High freq. dielectric constant tensor:
#      x y z
#    x 2.053860 0.000000 0.000000 
#    y 0.000000 2.025730 0.000000 
#    z 0.000000 0.000000 2.040940 
# 
# From -- ./inp_files/5477.got.cif
#   From: 2010.03.12/outbox.cif.g09.slc.cpg/sg29_3_cif.got.tgz:5477.got - 2010.04.14 03:43:10.
