data_PCOD8169221
_publ_section_title
;
Structure prediction by ZEFSAII (Michael W. Deem and Ramdas Pophale) SiO2 
 PCOD8169221
Probable space group: P C A 21
;
_chemical_formula_sum "Si O2"
_cell_formula_units_Z 32
_cell_length_a 14.332316
_cell_length_b 10.494193
_cell_length_c 9.373842
_cell_angle_alpha 90.000000
_cell_angle_beta 90.000000
_cell_angle_gamma 90.000000
_cell_volume 1409.882926
_symmetry_space_group_name_H-M "P C A 21"
_symmetry_group_IT_number 29
_symmetry_cell_setting 'orthorhombic'
loop_
_space_group_symop_operation_xyz
x,y,z
-x,-y,1/2+z
1/2-x,y,1/2+z
1/2+x,-y,z
loop_
_atom_site_type_symbol
_atom_site_label
_atom_site_fract_x
_atom_site_fract_y
_atom_site_fract_z
Si Si1 0.682844 0.284804 0.425250
Si Si2 0.520448 0.124260 0.313895
Si Si3 0.099367 0.490864 0.904212
Si Si4 0.635587 0.705077 0.682773
Si Si5 0.646298 0.246326 0.752885
Si Si6 0.519601 0.900237 0.125823
Si Si7 0.105594 0.455207 0.416354
Si Si8 0.157668 0.322692 0.143562
O O1 0.590639 0.239705 0.342254
O O2 0.683897 0.269134 0.594455
O O3 0.767293 0.204550 0.353216
O O4 0.688992 0.439200 0.408434
O O5 0.426444 0.174231 0.232871
O O6 0.508782 0.054915 0.467368
O O7 0.565927 0.019089 0.208015
O O8 0.154493 0.384843 0.816606
O O9 0.111232 0.630313 0.838842
O O10 0.988971 0.464437 0.894476
O O11 0.140199 0.458966 0.062548
O O12 0.586256 0.618482 0.563833
O O13 0.739421 0.739153 0.626713
O O14 0.564651 0.142863 0.733102
O O15 0.588054 0.784838 0.087655
O O16 0.129996 0.345106 0.306313
#
# Coordination Sequence:
#
# PCOD8169221 Si02
#       8
#     4   4   4   4   4   4   4   4
#     4  11  24  43  67 102 137 177 226 283 344 416
#     4  11  27  48  71  94 136 184 238 284 342 411
#     4  12  22  43  66 101 146 180 217 284 347 413
#     4  12  24  43  69 104 138 184 229 283 351 410
#     4  11  24  43  68 101 138 175 228 283 346 416
#     4  11  26  50  68  97 134 186 236 286 340 411
#     4  12  24  39  69 104 142 180 223 276 354 414
#     4  12  25  43  68 103 143 180 231 287 342 417
#
# _framework density 22.696919000000001
#
# number of rings (size 3 to 8) (size 9 to 14) (size 15 to 20)
#    0.000    0.500    5.000    3.750    3.500    2.000 
#    0.000    2.500    0.000    0.000    0.000    0.000 
#    0.000    0.000    0.000    0.000    0.000    0.000 
#
# Total GULP energy -396496.825770 kJ/mol
# GULP energy per Si atom -12390.525805 kJ/mol
# Density = 2.264526 g / cm^3
# Si number density = 22.696919 Si / 1000 Ang^3
#
#
#
# Elastic Constant Matrix: (Units=GPa)
#
#
# Indices 1 2 3 4 5 6 
#
# 1 92.6662 10.5792 37.5331 0.0000 0.0000 0.0000
# 2 10.5792 74.1976 49.5177 0.0000 0.0000 0.0000
# 3 37.5331 49.5177 104.7804 0.0000 0.0000 0.0000
# 4 0.0000 0.0000 0.0000 41.8852 0.0000 0.0000
# 5 0.0000 0.0000 0.0000 0.0000 31.8449 0.0000
# 6 0.0000 0.0000 0.0000 0.0000 0.0000 15.4804
#
#
#
# Elastic Compliance Matrix: (Units=1/GPa)
#
#
# Indices 1 2 3 4 5 6 
#
# 1 0.012786 0.001802 -0.005431 0.000000 0.000000 0.000000
# 2 0.001802 0.019940 -0.010069 0.000000 0.000000 0.000000
# 3 -0.005431 -0.010069 0.016248 0.000000 0.000000 0.000000
# 4 0.000000 0.000000 0.000000 0.023875 0.000000 0.000000
# 5 0.000000 0.000000 0.000000 0.000000 0.031402 0.000000
# 6 0.000000 0.000000 0.000000 0.000000 0.000000 0.064598
#
#
# Mechanical properties :
#
#
# Convention : Reuss Voigt Hill
#
# Bulk Modulus (GPa) = 46.34637 51.87826 49.11231
# Shear Modulus (GPa) = 24.57751 29.44305 27.01028
#
# Velocity S-wave (km/s) = 3.29425 3.60561 3.45344
# Velocity P-wave (km/s) = 5.91045 6.34354 6.13082
#
# Compressibility (1/GPa) = 0.02157666
#
# Stress axis : x y z
#
# Youngs Moduli (GPa) = 78.21277 50.14949 61.54687
#
# Poissons Ratio (x) = -0.09036 0.33429
# Poissons Ratio (y) = -0.14092 0.61971
# Poissons Ratio (z) = 0.42481 0.50495
#
# Static dielectric constant tensor:
#      x y z
#    x 4.221360 0.000000 0.000000 
#    y 0.000000 3.702100 0.000000 
#    z 0.000000 0.000000 4.169840 
# 
# 
# High freq. dielectric constant tensor:
#      x y z
#    x 1.897500 0.000000 0.000000 
#    y 0.000000 1.867770 0.000000 
#    z 0.000000 0.000000 1.913710 
# 
# From -- ./inp_files/1853.got.cif
#   From: 2010.03.12/outbox.cif.g09.slc.cpg/sg29_1_cif.got.tgz:1853.got - 2010.04.14 03:43:10.
