data_PCOD8169354
_publ_section_title
;
Structure prediction by ZEFSAII (Michael W. Deem and Ramdas Pophale) SiO2 
 PCOD8169354
Probable space group: P C A 21
;
_chemical_formula_sum "Si O2"
_cell_formula_units_Z 20
_cell_length_a 13.910740
_cell_length_b 5.230692
_cell_length_c 10.764399
_cell_angle_alpha 90.000000
_cell_angle_beta 90.000000
_cell_angle_gamma 90.000000
_cell_volume 783.247773
_symmetry_space_group_name_H-M "P C A 21"
_symmetry_group_IT_number 29
_symmetry_cell_setting 'orthorhombic'
loop_
_space_group_symop_operation_xyz
x,y,z
-x,-y,1/2+z
1/2-x,y,1/2+z
1/2+x,-y,z
loop_
_atom_site_type_symbol
_atom_site_label
_atom_site_fract_x
_atom_site_fract_y
_atom_site_fract_z
Si Si1 0.378725 0.014051 0.388290
Si Si2 0.477794 0.318288 0.769922
Si Si3 0.762294 0.731134 0.718041
Si Si4 0.735673 0.226770 0.556533
Si Si5 0.475775 0.651651 0.006799
O O1 0.446627 0.916925 0.275201
O O2 0.314736 0.783517 0.446603
O O3 0.310992 0.240242 0.333614
O O4 0.448111 0.115703 0.498116
O O5 0.368453 0.225868 0.772475
O O6 0.502015 0.469701 0.894107
O O7 0.504530 0.472969 0.643102
O O8 0.755065 0.453723 0.654149
O O9 0.737990 0.951786 0.621003
O O10 0.633293 0.258788 0.490397
#
# Coordination Sequence:
#
# PCOD8169354 Si02
#       5
#     4   4   4   4   4
#     4  12  28  50  82 124 162 226 280 350 422 508
#     4  12  28  50  84 119 167 220 283 346 424 505
#     4  12  29  53  83 119 169 219 280 350 423 503
#     4  12  29  53  83 119 169 219 280 350 423 503
#     4  12  28  50  84 119 167 220 283 346 424 505
#
# _framework density 25.534704999999999
#
# number of rings (size 3 to 8) (size 9 to 14) (size 15 to 20)
#    0.000    0.000    4.000    3.600   11.200    1.600 
#    0.000    0.000    0.000    0.000    0.000    0.000 
#    0.000    0.000    0.000    0.000    0.000    0.000 
#
# Total GULP energy -248026.075752 kJ/mol
# GULP energy per Si atom -12401.303788 kJ/mol
# Density = 2.547659 g / cm^3
# Si number density = 25.534705 Si / 1000 Ang^3
#
#
#
# Elastic Constant Matrix: (Units=GPa)
#
#
# Indices 1 2 3 4 5 6 
#
# 1 212.5221 27.3957 48.2976 0.0000 0.0000 0.0000
# 2 27.3957 73.3710 32.5853 0.0000 0.0000 0.0000
# 3 48.2976 32.5853 151.7626 0.0000 0.0000 0.0000
# 4 0.0000 0.0000 0.0000 46.3066 0.0000 0.0000
# 5 0.0000 0.0000 0.0000 0.0000 51.2468 0.0000
# 6 0.0000 0.0000 0.0000 0.0000 0.0000 30.5650
#
#
#
# Elastic Compliance Matrix: (Units=1/GPa)
#
#
# Indices 1 2 3 4 5 6 
#
# 1 0.005187 -0.001331 -0.001365 0.000000 0.000000 0.000000
# 2 -0.001331 0.015407 -0.002885 0.000000 0.000000 0.000000
# 3 -0.001365 -0.002885 0.007643 0.000000 0.000000 0.000000
# 4 0.000000 0.000000 0.000000 0.021595 0.000000 0.000000
# 5 0.000000 0.000000 0.000000 0.000000 0.019513 0.000000
# 6 0.000000 0.000000 0.000000 0.000000 0.000000 0.032717
#
#
# Mechanical properties :
#
#
# Convention : Reuss Voigt Hill
#
# Bulk Modulus (GPa) = 58.55887 72.69032 65.62459
# Shear Modulus (GPa) = 42.04638 47.58213 44.81426
#
# Velocity S-wave (km/s) = 4.06228 4.32143 4.19386
# Velocity P-wave (km/s) = 6.70713 7.30950 7.01478
#
# Compressibility (1/GPa) = 0.01707683
#
# Stress axis : x y z
#
# Youngs Moduli (GPa) = 192.78444 64.90423 130.83774
#
# Poissons Ratio (x) = 0.08636 0.17861
# Poissons Ratio (y) = 0.25651 0.37743
# Poissons Ratio (z) = 0.26317 0.18723
#
# Static dielectric constant tensor:
#      x y z
#    x 5.095520 0.000000 0.000000 
#    y 0.000000 4.479940 0.000000 
#    z 0.000000 0.000000 4.931380 
# 
# 
# High freq. dielectric constant tensor:
#      x y z
#    x 2.056430 0.000000 0.000000 
#    y 0.000000 1.995250 0.000000 
#    z 0.000000 0.000000 2.032570 
# 
# From -- ./inp_files/3285.got.cif
#   From: 2010.03.12/outbox.cif.g09.slc.cpg/sg29_2_cif.got.tgz:3285.got - 2010.04.14 03:43:10.
