data_PCOD8169062
_publ_section_title
;
Structure prediction by ZEFSAII (Michael W. Deem and Ramdas Pophale) SiO2 
 PCOD8169062
Probable space group: P C A 21
;
_chemical_formula_sum "Si O2"
_cell_formula_units_Z 32
_cell_length_a 8.885686
_cell_length_b 5.422717
_cell_length_c 28.424519
_cell_angle_alpha 90.000000
_cell_angle_beta 90.000000
_cell_angle_gamma 90.000000
_cell_volume 1369.622956
_symmetry_space_group_name_H-M "P C A 21"
_symmetry_group_IT_number 29
_symmetry_cell_setting 'orthorhombic'
loop_
_space_group_symop_operation_xyz
x,y,z
-x,-y,1/2+z
1/2-x,y,1/2+z
1/2+x,-y,z
loop_
_atom_site_type_symbol
_atom_site_label
_atom_site_fract_x
_atom_site_fract_y
_atom_site_fract_z
Si Si1 0.953682 0.714085 0.669800
Si Si2 0.379579 0.245524 0.028782
Si Si3 0.788379 0.984437 0.217383
Si Si4 0.389529 0.279998 0.920500
Si Si5 0.044895 0.670604 0.247099
Si Si6 0.458382 0.263344 0.561446
Si Si7 0.387942 0.668464 0.844141
Si Si8 0.132248 0.982815 0.872437
O O1 0.919791 0.460497 0.697406
O O2 0.998229 0.690465 0.615804
O O3 0.092668 0.824490 0.697811
O O4 0.802252 0.875031 0.672706
O O5 0.480410 0.486628 0.038194
O O6 0.221361 0.247918 0.055883
O O7 0.465444 0.988568 0.041319
O O8 0.339623 0.280461 0.974154
O O9 0.666470 0.107905 0.251681
O O10 0.873601 0.769090 0.246075
O O11 0.421648 0.539441 0.894336
O O12 0.544000 0.126284 0.917676
O O13 0.254623 0.173107 0.890123
O O14 0.077272 0.514648 0.295595
O O15 0.215866 0.764268 0.844102
O O16 0.508137 0.892125 0.839198
#
# Coordination Sequence:
#
# PCOD8169062 Si02
#       8
#     4   4   4   4   4   4   4   4
#     4  11  25  43  71  97 140 181 239 297 360 437
#     4  12  29  49  79 111 152 198 255 314 387 453
#     4  10  24  42  68  95 142 181 236 289 365 424
#     4  11  25  43  71  97 140 181 239 297 360 437
#     4  11  24  42  68 102 140 187 238 293 363 438
#     4  12  29  49  79 111 152 198 255 314 387 453
#     4  11  24  42  68 102 140 187 238 293 363 438
#     4  10  24  42  68  95 142 181 236 289 365 424
#
# _framework density 23.364093
#
# number of rings (size 3 to 8) (size 9 to 14) (size 15 to 20)
#    0.000    1.000    0.000    4.500   14.000    8.000 
#    0.000    0.000    0.000    0.000    0.000    0.000 
#    0.000    0.000    0.000    0.000    0.000    0.000 
#
# Total GULP energy -396525.384126 kJ/mol
# GULP energy per Si atom -12391.418254 kJ/mol
# Density = 2.331091 g / cm^3
# Si number density = 23.364093 Si / 1000 Ang^3
#
#
#
# Elastic Constant Matrix: (Units=GPa)
#
#
# Indices 1 2 3 4 5 6 
#
# 1 126.7784 28.6879 3.0947 0.0000 0.0000 0.0000
# 2 28.6879 102.1969 15.7465 0.0000 0.0000 0.0000
# 3 3.0947 15.7465 120.8137 0.0000 0.0000 0.0000
# 4 0.0000 0.0000 0.0000 27.7547 0.0000 0.0000
# 5 0.0000 0.0000 0.0000 0.0000 20.1310 0.0000
# 6 0.0000 0.0000 0.0000 0.0000 0.0000 21.4110
#
#
#
# Elastic Compliance Matrix: (Units=1/GPa)
#
#
# Indices 1 2 3 4 5 6 
#
# 1 0.008424 -0.002379 0.000094 0.000000 0.000000 0.000000
# 2 -0.002379 0.010658 -0.001328 0.000000 0.000000 0.000000
# 3 0.000094 -0.001328 0.008448 0.000000 0.000000 0.000000
# 4 0.000000 0.000000 0.000000 0.036030 0.000000 0.000000
# 5 0.000000 0.000000 0.000000 0.000000 0.049675 0.000000
# 6 0.000000 0.000000 0.000000 0.000000 0.000000 0.046705
#
#
# Mechanical properties :
#
#
# Convention : Reuss Voigt Hill
#
# Bulk Modulus (GPa) = 49.25319 49.42747 49.34033
# Shear Modulus (GPa) = 28.74677 34.01000 31.37839
#
# Velocity S-wave (km/s) = 3.51149 3.81944 3.66870
# Velocity P-wave (km/s) = 6.12921 6.37590 6.25377
#
# Compressibility (1/GPa) = 0.02030325
#
# Stress axis : x y z
#
# Youngs Moduli (GPa) = 118.71056 93.83027 118.37271
#
# Poissons Ratio (x) = 0.22324 -0.01116
# Poissons Ratio (y) = 0.28244 0.15721
# Poissons Ratio (z) = -0.01120 0.12462
#
# Static dielectric constant tensor:
#      x y z
#    x 4.423360 0.000000 0.000000 
#    y 0.000000 4.264310 0.000000 
#    z 0.000000 0.000000 4.183720 
# 
# 
# High freq. dielectric constant tensor:
#      x y z
#    x 1.951360 0.000000 0.000000 
#    y 0.000000 1.920430 0.000000 
#    z 0.000000 0.000000 1.921040 
# 
# From -- ./inp_files/5817.got.cif
#   From: 2010.03.12/outbox.cif.g09.slc.cpg/sg29_3_cif.got.tgz:5817.got - 2010.04.14 03:43:10.
