data_PCOD8169470
_publ_section_title
;
Structure prediction by ZEFSAII (Michael W. Deem and Ramdas Pophale) SiO2 
 PCOD8169470
Probable space group: P N C 2
;
_chemical_formula_sum "Si O2"
_cell_formula_units_Z 18
_cell_length_a 5.482263
_cell_length_b 13.898693
_cell_length_c 9.589141
_cell_angle_alpha 90.000000
_cell_angle_beta 90.000000
_cell_angle_gamma 90.000000
_cell_volume 730.656972
_symmetry_space_group_name_H-M "P N C 2"
_symmetry_group_IT_number 30
_symmetry_cell_setting 'orthorhombic'
loop_
_space_group_symop_operation_xyz
x,y,z
-x,-y,z
-x,1/2+y,1/2+z
x,1/2-y,1/2+z
loop_
_atom_site_type_symbol
_atom_site_label
_atom_site_fract_x
_atom_site_fract_y
_atom_site_fract_z
Si Si1 0.778002 0.326198 0.557040
Si Si2 0.000000 0.500000 0.133983
Si Si3 0.500000 0.500000 0.959515
Si Si4 0.539087 0.298936 0.829711
Si Si5 0.162300 0.349495 0.334414
Si Si6 0.500000 0.000000 0.963250
O O1 0.763838 0.290369 0.718001
O O2 0.604956 0.255134 0.471013
O O3 0.676450 0.435441 0.559089
O O4 0.041638 0.324211 0.484761
O O5 0.751144 0.497935 0.045927
O O6 0.019579 0.599971 0.223411
O O7 0.479942 0.408878 0.858663
O O8 0.293588 0.245911 0.771936
O O9 0.358499 0.432207 0.357671
#
# Coordination Sequence:
#
# PCOD8169470 Si02
#       6
#     4   2   2   4   4   2
#     4  11  24  44  76 105 152 202 264 324 403 477
#     4  12  26  50  84 116 162 212 278 334 416 480
#     4  12  30  52  76 116 169 213 270 348 401 489
#     4  11  28  48  72 114 157 207 270 327 406 479
#     4  11  24  45  80 112 154 206 266 331 402 496
#     4  10  20  44  66 112 143 199 250 330 385 481
#
# _framework density 24.635362000000001
#
# number of rings (size 3 to 8) (size 9 to 14) (size 15 to 20)
#    0.000    0.889    2.222    2.667    9.333    3.556 
#    4.000    0.000    0.000    0.000    0.000    0.000 
#    0.000    0.000    0.000    0.000    0.000    0.000 
#
# Total GULP energy -223134.299831 kJ/mol
# GULP energy per Si atom -12396.349991 kJ/mol
# Density = 2.457929 g / cm^3
# Si number density = 24.635362 Si / 1000 Ang^3
#
#
#
# Elastic Constant Matrix: (Units=GPa)
#
#
# Indices 1 2 3 4 5 6 
#
# 1 138.0073 43.7130 46.9155 0.0000 0.0000 0.0000
# 2 43.7130 171.6212 45.6152 0.0000 0.0000 0.0000
# 3 46.9155 45.6152 125.2643 0.0000 0.0000 0.0000
# 4 0.0000 0.0000 0.0000 20.8524 0.0000 0.0000
# 5 0.0000 0.0000 0.0000 0.0000 44.3307 0.0000
# 6 0.0000 0.0000 0.0000 0.0000 0.0000 33.0544
#
#
#
# Elastic Compliance Matrix: (Units=1/GPa)
#
#
# Indices 1 2 3 4 5 6 
#
# 1 0.008631 -0.001483 -0.002693 0.000000 0.000000 0.000000
# 2 -0.001483 0.006706 -0.001887 0.000000 0.000000 0.000000
# 3 -0.002693 -0.001887 0.009679 0.000000 0.000000 0.000000
# 4 0.000000 0.000000 0.000000 0.047956 0.000000 0.000000
# 5 0.000000 0.000000 0.000000 0.000000 0.022558 0.000000
# 6 0.000000 0.000000 0.000000 0.000000 0.000000 0.030253
#
#
# Mechanical properties :
#
#
# Convention : Reuss Voigt Hill
#
# Bulk Modulus (GPa) = 77.57030 78.59778 78.08404
# Shear Modulus (GPa) = 35.16083 39.55744 37.35914
#
# Velocity S-wave (km/s) = 3.78200 4.01149 3.89843
# Velocity P-wave (km/s) = 7.11527 7.30957 7.21307
#
# Compressibility (1/GPa) = 0.01289153
#
# Stress axis : x y z
#
# Youngs Moduli (GPa) = 115.86153 149.12274 103.32038
#
# Poissons Ratio (x) = 0.22110 0.27821
# Poissons Ratio (y) = 0.17179 0.19493
# Poissons Ratio (z) = 0.31198 0.28134
#
# Static dielectric constant tensor:
#      x y z
#    x 4.484330 0.000000 0.000000 
#    y 0.000000 4.954390 0.000000 
#    z 0.000000 0.000000 4.185400 
# 
# 
# High freq. dielectric constant tensor:
#      x y z
#    x 1.979120 0.000000 0.000000 
#    y 0.000000 2.001070 0.000000 
#    z 0.000000 0.000000 1.965880 
# 
# From -- ./inp_files/3047.got.cif
#   From: 2010.03.12/outbox.cif.g09.slc.cpg/sg30_2_cif.got.tgz:3047.got - 2010.04.14 01:38:02.
