data_PCOD8169896
_publ_section_title
;
Structure prediction by ZEFSAII (Michael W. Deem and Ramdas Pophale) SiO2 
 PCOD8169896
Probable space group: P M N 21
;
_chemical_formula_sum "Si O2"
_cell_formula_units_Z 32
_cell_length_a 8.664975
_cell_length_b 12.350225
_cell_length_c 14.720673
_cell_angle_alpha 90.000000
_cell_angle_beta 90.000000
_cell_angle_gamma 90.000000
_cell_volume 1575.323854
_symmetry_space_group_name_H-M "P M N 21"
_symmetry_group_IT_number 31
_symmetry_cell_setting 'orthorhombic'
loop_
_space_group_symop_operation_xyz
x,y,z
1/2-x,-y,1/2+z
-x,y,z
1/2+x,-y,1/2+z
loop_
_atom_site_type_symbol
_atom_site_label
_atom_site_fract_x
_atom_site_fract_y
_atom_site_fract_z
Si Si1 0.819749 0.111280 0.230270
Si Si2 0.322037 0.762895 0.473294
Si Si3 0.682918 0.164171 0.413194
Si Si4 0.819237 0.537362 0.146881
Si Si5 0.316843 0.404704 0.445809
Si Si6 0.320894 0.603154 0.320130
Si Si7 0.181942 0.010777 0.048340
Si Si8 0.678053 0.315007 0.145152
O O1 0.735009 0.094634 0.325865
O O2 0.753912 0.030283 0.151118
O O3 0.787390 0.232752 0.198123
O O4 0.000000 0.094019 0.245470
O O5 0.500000 0.745590 0.503394
O O6 0.296005 0.716707 0.372690
O O7 0.273665 0.888522 0.482267
O O8 0.213962 0.691127 0.538296
O O9 0.500000 0.165811 0.414992
O O10 0.747547 0.287307 0.412751
O O11 0.745819 0.099338 0.502410
O O12 0.778283 0.620266 0.228136
O O13 0.721703 0.433594 0.178950
O O14 0.000000 0.512025 0.142848
O O15 0.759471 0.579242 0.049451
O O16 0.500000 0.403412 0.444845
O O17 0.257958 0.501620 0.380939
O O18 0.500000 0.585336 0.296790
O O19 0.000000 0.004425 0.056808
O O20 0.500000 0.290090 0.167461
#
# Coordination Sequence:
#
# PCOD8169896 Si02
#       8
#     4   4   4   4   4   4   4   4
#     4  10  20  36  57  84 112 148 189 232 285 334
#     4   9  17  34  56  75 105 145 182 224 279 331
#     4  10  19  36  59  82 109 147 193 234 274 335
#     4  11  21  35  52  78 112 149 183 221 280 343
#     4   9  19  35  55  77 108 147 181 222 279 331
#     4  10  19  34  54  78 108 145 187 227 276 336
#     4   8  17  34  57  80 106 145 186 224 278 335
#     4  11  20  32  54  82 108 140 185 234 275 321
#
# _framework density 20.313283999999999
#
# number of rings (size 3 to 8) (size 9 to 14) (size 15 to 20)
#    0.000    2.250    1.250    3.375    0.000    1.500 
#    2.250    4.375    0.000    0.000    0.000    0.000 
#    0.000    0.000    0.000    0.000    0.000    0.000 
#
# Total GULP energy -396615.152591 kJ/mol
# GULP energy per Si atom -12394.223518 kJ/mol
# Density = 2.026705 g / cm^3
# Si number density = 20.313284 Si / 1000 Ang^3
#
#
#
# Elastic Constant Matrix: (Units=GPa)
#
#
# Indices 1 2 3 4 5 6 
#
# 1 28.2270 4.6347 9.2082 0.0000 0.0000 0.0000
# 2 4.6347 56.9939 18.0428 0.0000 0.0000 0.0000
# 3 9.2082 18.0428 116.4606 0.0000 0.0000 0.0000
# 4 0.0000 0.0000 0.0000 26.6747 0.0000 0.0000
# 5 0.0000 0.0000 0.0000 0.0000 31.6156 0.0000
# 6 0.0000 0.0000 0.0000 0.0000 0.0000 13.8171
#
#
#
# Elastic Compliance Matrix: (Units=1/GPa)
#
#
# Indices 1 2 3 4 5 6 
#
# 1 0.036618 -0.002167 -0.002559 0.000000 0.000000 0.000000
# 2 -0.002167 0.018579 -0.002707 0.000000 0.000000 0.000000
# 3 -0.002559 -0.002707 0.009208 0.000000 0.000000 0.000000
# 4 0.000000 0.000000 0.000000 0.037489 0.000000 0.000000
# 5 0.000000 0.000000 0.000000 0.000000 0.031630 0.000000
# 6 0.000000 0.000000 0.000000 0.000000 0.000000 0.072374
#
#
# Mechanical properties :
#
#
# Convention : Reuss Voigt Hill
#
# Bulk Modulus (GPa) = 20.18681 29.49477 24.84079
# Shear Modulus (GPa) = 21.07232 25.74122 23.40677
#
# Velocity S-wave (km/s) = 3.22431 3.56365 3.39822
# Velocity P-wave (km/s) = 4.88067 5.61109 5.25857
#
# Compressibility (1/GPa) = 0.04953729
#
# Stress axis : x y z
#
# Youngs Moduli (GPa) = 27.30909 53.82439 108.59718
#
# Poissons Ratio (x) = 0.11666 0.27795
# Poissons Ratio (y) = 0.05919 0.29397
# Poissons Ratio (z) = 0.06990 0.14570
#
# Static dielectric constant tensor:
#      x y z
#    x 3.327420 0.000000 0.000000 
#    y 0.000000 3.809270 0.000000 
#    z 0.000000 0.000000 3.935810 
# 
# 
# High freq. dielectric constant tensor:
#      x y z
#    x 1.756840 0.000000 0.000000 
#    y 0.000000 1.778210 0.000000 
#    z 0.000000 0.000000 1.801420 
# 
# From -- ./inp_files/5094.got.cif
#   From: 2010.03.12/outbox.cif.g09.slc.cpg/sg31_3_cif.got.tgz:5094.got - 2010.04.14 01:42:59.
