data_PCOD8169002
_publ_section_title
;
Structure prediction by ZEFSAII (Michael W. Deem and Ramdas Pophale) SiO2 
 PCOD8169002
Probable space group: P C A 21
;
_chemical_formula_sum "Si O2"
_cell_formula_units_Z 20
_cell_length_a 22.461242
_cell_length_b 7.416933
_cell_length_c 5.108313
_cell_angle_alpha 90.000000
_cell_angle_beta 90.000000
_cell_angle_gamma 90.000000
_cell_volume 851.011880
_symmetry_space_group_name_H-M "P C A 21"
_symmetry_group_IT_number 29
_symmetry_cell_setting 'orthorhombic'
loop_
_space_group_symop_operation_xyz
x,y,z
-x,-y,1/2+z
1/2-x,y,1/2+z
1/2+x,-y,z
loop_
_atom_site_type_symbol
_atom_site_label
_atom_site_fract_x
_atom_site_fract_y
_atom_site_fract_z
Si Si1 0.962476 0.525516 0.819610
Si Si2 0.618045 0.299799 0.628322
Si Si3 0.287545 0.999829 0.174070
Si Si4 0.288203 0.413727 0.193204
Si Si5 0.498128 0.881949 0.255220
O O1 0.947186 0.736478 0.750700
O O2 0.006466 0.448798 0.603190
O O3 0.906259 0.390774 0.855999
O O4 0.655857 0.459129 0.764706
O O5 0.562244 0.235170 0.805139
O O6 0.658001 0.124076 0.582138
O O7 0.235196 0.958373 0.966392
O O8 0.309312 0.206565 0.181038
O O9 0.261523 0.458379 0.909094
O O10 0.507411 0.034249 0.468124
#
# Coordination Sequence:
#
# PCOD8169002 Si02
#       5
#     4   4   4   4   4
#     4  10  23  43  63  96 133 171 223 272 322 392
#     4  11  24  43  73  94 132 181 216 264 346 384
#     4  10  23  43  66 100 133 165 219 274 326 396
#     4  10  23  43  65  99 131 165 219 275 323 396
#     4  11  25  44  65  99 139 172 227 281 323 396
#
# _framework density 23.501438
#
# number of rings (size 3 to 8) (size 9 to 14) (size 15 to 20)
#    0.000    1.600    0.000    3.600    2.800    9.600 
#    7.200    0.000    0.000    0.000    0.000    0.000 
#    0.000    0.000    0.000    0.000    0.000    0.000 
#
# Total GULP energy -247802.340701 kJ/mol
# GULP energy per Si atom -12390.117035 kJ/mol
# Density = 2.344795 g / cm^3
# Si number density = 23.501438 Si / 1000 Ang^3
#
#
#
# Elastic Constant Matrix: (Units=GPa)
#
#
# Indices 1 2 3 4 5 6 
#
# 1 88.2484 54.7326 14.7204 0.0000 0.0000 0.0000
# 2 54.7326 147.2115 25.6877 0.0000 0.0000 0.0000
# 3 14.7204 25.6877 91.8020 0.0000 0.0000 0.0000
# 4 0.0000 0.0000 0.0000 22.4046 0.0000 0.0000
# 5 0.0000 0.0000 0.0000 0.0000 11.7089 0.0000
# 6 0.0000 0.0000 0.0000 0.0000 0.0000 30.3905
#
#
#
# Elastic Compliance Matrix: (Units=1/GPa)
#
#
# Indices 1 2 3 4 5 6 
#
# 1 0.014794 -0.005348 -0.000876 0.000000 0.000000 0.000000
# 2 -0.005348 0.009075 -0.001682 0.000000 0.000000 0.000000
# 3 -0.000876 -0.001682 0.011504 0.000000 0.000000 0.000000
# 4 0.000000 0.000000 0.000000 0.044634 0.000000 0.000000
# 5 0.000000 0.000000 0.000000 0.000000 0.085405 0.000000
# 6 0.000000 0.000000 0.000000 0.000000 0.000000 0.032905
#
#
# Mechanical properties :
#
#
# Convention : Reuss Voigt Hill
#
# Bulk Modulus (GPa) = 51.11826 57.50479 54.31153
# Shear Modulus (GPa) = 22.66047 28.37554 25.51801
#
# Velocity S-wave (km/s) = 3.10855 3.47853 3.29873
# Velocity P-wave (km/s) = 5.88918 6.37615 6.13750
#
# Compressibility (1/GPa) = 0.01956248
#
# Stress axis : x y z
#
# Youngs Moduli (GPa) = 67.59298 110.19722 86.92602
#
# Poissons Ratio (x) = 0.58930 0.07614
# Poissons Ratio (y) = 0.36146 0.14619
# Poissons Ratio (z) = 0.05921 0.18532
#
# Static dielectric constant tensor:
#      x y z
#    x 4.060420 0.000000 0.000000 
#    y 0.000000 4.716950 0.000000 
#    z 0.000000 0.000000 4.096900 
# 
# 
# High freq. dielectric constant tensor:
#      x y z
#    x 1.902450 0.000000 0.000000 
#    y 0.000000 1.960440 0.000000 
#    z 0.000000 0.000000 1.927340 
# 
# From -- ./inp_files/350.got.cif
#   From: 2010.03.12/outbox.cif.g09.slc.cpg/sg29_1_cif.got.tgz:350.got - 2010.04.14 03:43:10.
