data_PCOD8169691
_publ_section_title
;
Structure prediction by ZEFSAII (Michael W. Deem and Ramdas Pophale) SiO2 
 PCOD8169691
Probable space group: P M N 21
;
_chemical_formula_sum "Si O2"
_cell_formula_units_Z 32
_cell_length_a 8.946230
_cell_length_b 21.748786
_cell_length_c 9.795601
_cell_angle_alpha 90.000000
_cell_angle_beta 90.000000
_cell_angle_gamma 90.000000
_cell_volume 1905.926578
_symmetry_space_group_name_H-M "P M N 21"
_symmetry_group_IT_number 31
_symmetry_cell_setting 'orthorhombic'
loop_
_space_group_symop_operation_xyz
x,y,z
1/2-x,-y,1/2+z
-x,y,z
1/2+x,-y,1/2+z
loop_
_atom_site_type_symbol
_atom_site_label
_atom_site_fract_x
_atom_site_fract_y
_atom_site_fract_z
Si Si1 0.331126 0.442174 0.724870
Si Si2 0.676396 0.638336 0.027327
Si Si3 0.672214 0.234746 0.493382
Si Si4 0.174627 0.870002 0.786597
Si Si5 0.824760 0.869529 0.200234
Si Si6 0.331044 0.473784 0.432347
Si Si7 0.177338 0.042366 0.493862
Si Si8 0.176348 0.903587 0.493188
O O1 0.500000 0.424820 0.766868
O O2 0.244934 0.380057 0.676318
O O3 0.330485 0.489373 0.595204
O O4 0.250062 0.471496 0.853980
O O5 0.500000 0.631455 0.031109
O O6 0.720620 0.707009 0.988465
O O7 0.743697 0.591283 0.913157
O O8 0.500000 0.256244 0.496471
O O9 0.707619 0.195165 0.358045
O O10 0.712315 0.195106 0.627837
O O11 0.264194 0.924525 0.858284
O O12 0.228415 0.867010 0.628918
O O13 0.000000 0.886097 0.799962
O O14 0.770881 0.866779 0.357912
O O15 0.000000 0.883919 0.185909
O O16 0.738205 0.925050 0.129151
O O17 0.500000 0.466699 0.377203
O O18 0.000000 0.045191 0.495314
O O19 0.239797 0.972861 0.493080
O O20 0.000000 0.907943 0.492115
#
# Coordination Sequence:
#
# PCOD8169691 Si02
#       8
#     4   4   4   4   4   4   4   4
#     4   9  18  31  51  78 107 133 164 200 237 284
#     4  10  19  31  52  74  98 133 168 201 243 288
#     4   9  17  31  49  67  88 122 168 207 238 284
#     4   9  18  32  50  68  92 126 162 200 245 294
#     4   9  18  32  50  68  92 126 162 200 245 294
#     4   9  18  31  51  78 107 133 164 200 237 284
#     4  10  18  28  45  71  98 122 156 197 242 299
#     4   9  17  30  48  70  94 121 156 201 249 297
#
# _framework density 16.789735
#
# number of rings (size 3 to 8) (size 9 to 14) (size 15 to 20)
#    0.750    2.000    0.000    3.375    0.000    2.000 
#    0.000    1.875    2.750    0.000    0.000    0.000 
#    0.000    0.000    0.000    0.000    0.000    0.000 
#
# Total GULP energy -396577.769598 kJ/mol
# GULP energy per Si atom -12393.055300 kJ/mol
# Density = 1.675152 g / cm^3
# Si number density = 16.789735 Si / 1000 Ang^3
#
#
#
# Elastic Constant Matrix: (Units=GPa)
#
#
# Indices 1 2 3 4 5 6 
#
# 1 81.9246 19.2172 11.9610 0.0000 0.0000 0.0000
# 2 19.2172 51.0983 12.6971 0.0000 0.0000 0.0000
# 3 11.9610 12.6971 90.8684 0.0000 0.0000 0.0000
# 4 0.0000 0.0000 0.0000 16.5632 0.0000 0.0000
# 5 0.0000 0.0000 0.0000 0.0000 22.2547 0.0000
# 6 0.0000 0.0000 0.0000 0.0000 0.0000 27.0962
#
#
#
# Elastic Compliance Matrix: (Units=1/GPa)
#
#
# Indices 1 2 3 4 5 6 
#
# 1 0.013494 -0.004800 -0.001105 0.000000 0.000000 0.000000
# 2 -0.004800 0.021982 -0.002440 0.000000 0.000000 0.000000
# 3 -0.001105 -0.002440 0.011491 0.000000 0.000000 0.000000
# 4 0.000000 0.000000 0.000000 0.060375 0.000000 0.000000
# 5 0.000000 0.000000 0.000000 0.000000 0.044934 0.000000
# 6 0.000000 0.000000 0.000000 0.000000 0.000000 0.036905
#
#
# Mechanical properties :
#
#
# Convention : Reuss Voigt Hill
#
# Bulk Modulus (GPa) = 33.02925 34.62691 33.82808
# Shear Modulus (GPa) = 23.15206 25.18391 24.16799
#
# Velocity S-wave (km/s) = 3.71744 3.87713 3.79812
# Velocity P-wave (km/s) = 6.17582 6.38056 6.27902
#
# Compressibility (1/GPa) = 0.03027619
#
# Stress axis : x y z
#
# Youngs Moduli (GPa) = 74.10866 45.49267 87.02213
#
# Poissons Ratio (x) = 0.21837 0.09620
# Poissons Ratio (y) = 0.35573 0.21231
# Poissons Ratio (z) = 0.08192 0.11099
#
# Static dielectric constant tensor:
#      x y z
#    x 3.056190 0.000000 0.000000 
#    y 0.000000 2.895300 0.000000 
#    z 0.000000 0.000000 3.379980 
# 
# 
# High freq. dielectric constant tensor:
#      x y z
#    x 1.644620 0.000000 0.000000 
#    y 0.000000 1.623110 0.000000 
#    z 0.000000 0.000000 1.639250 
# 
# From -- ./inp_files/1891.got.cif
#   From: 2010.03.12/outbox.cif.g09.slc.cpg/sg31_1_cif.got.tgz:1891.got - 2010.04.14 01:42:59.
