data_PCOD8169686
_publ_section_title
;
Structure prediction by ZEFSAII (Michael W. Deem and Ramdas Pophale) SiO2 
 PCOD8169686
Probable space group: P M N 21
;
_chemical_formula_sum "Si O2"
_cell_formula_units_Z 32
_cell_length_a 13.656706
_cell_length_b 9.711498
_cell_length_c 13.724368
_cell_angle_alpha 90.000000
_cell_angle_beta 90.000000
_cell_angle_gamma 90.000000
_cell_volume 1820.222757
_symmetry_space_group_name_H-M "P M N 21"
_symmetry_group_IT_number 31
_symmetry_cell_setting 'orthorhombic'
loop_
_space_group_symop_operation_xyz
x,y,z
1/2-x,-y,1/2+z
-x,y,z
1/2+x,-y,1/2+z
loop_
_atom_site_type_symbol
_atom_site_label
_atom_site_fract_x
_atom_site_fract_y
_atom_site_fract_z
Si Si1 0.112667 0.744077 0.588910
Si Si2 0.263776 0.875363 0.887824
Si Si3 0.226216 0.194953 0.613350
Si Si4 0.610543 0.341347 0.731896
Si Si5 0.889590 0.873144 0.399110
Si Si6 0.613129 0.615845 0.836935
Si Si7 0.113756 0.969358 0.742874
Si Si8 0.110420 0.452092 0.558357
O O1 0.161048 0.832872 0.501986
O O2 0.121580 0.824601 0.688429
O O3 0.161819 0.592804 0.597516
O O4 0.000000 0.720572 0.556803
O O5 0.308484 0.740755 0.833630
O O6 0.158260 0.926359 0.847567
O O7 0.335800 0.996220 0.854863
O O8 0.256456 0.862415 0.004565
O O9 0.326847 0.260700 0.651575
O O10 0.152643 0.320595 0.611406
O O11 0.178682 0.082544 0.685784
O O12 0.500000 0.341422 0.691583
O O13 0.618371 0.259164 0.831818
O O14 0.642083 0.499518 0.756456
O O15 0.000000 0.923240 0.415125
O O16 0.500000 0.665731 0.820351
O O17 0.621944 0.548183 0.942603
O O18 0.000000 0.017568 0.752792
O O19 0.000000 0.449607 0.593216
#
# Coordination Sequence:
#
# PCOD8169686 Si02
#       8
#     4   4   4   4   4   4   4   4
#     4   9  17  31  52  78 107 139 173 223 279 320
#     4  11  22  35  54  83 111 144 182 228 275 327
#     4  11  22  35  55  81 107 147 187 225 269 330
#     4  10  20  35  54  78 108 142 181 224 272 325
#     4  10  17  31  56  82 107 134 177 231 276 323
#     4   9  18  33  54  81 109 133 170 229 280 315
#     4  11  23  37  53  78 113 149 183 227 279 327
#     4   9  17  31  53  81 106 132 174 227 275 317
#
# _framework density 17.580265000000001
#
# number of rings (size 3 to 8) (size 9 to 14) (size 15 to 20)
#    0.000    2.000    3.750    0.750    1.750    1.500 
#    0.000    0.000    0.000    0.000    0.000    2.625 
#    0.000    0.000    0.000    0.000    0.000    0.000 
#
# Total GULP energy -396474.547284 kJ/mol
# GULP energy per Si atom -12389.829603 kJ/mol
# Density = 1.754025 g / cm^3
# Si number density = 17.580265 Si / 1000 Ang^3
#
#
#
# Elastic Constant Matrix: (Units=GPa)
#
#
# Indices 1 2 3 4 5 6 
#
# 1 82.1875 45.9831 44.4278 0.0000 0.0000 0.0000
# 2 45.9831 113.0838 34.7106 0.0000 0.0000 0.0000
# 3 44.4278 34.7106 53.8777 0.0000 0.0000 0.0000
# 4 0.0000 0.0000 0.0000 20.6136 0.0000 0.0000
# 5 0.0000 0.0000 0.0000 0.0000 23.9892 0.0000
# 6 0.0000 0.0000 0.0000 0.0000 0.0000 11.4178
#
#
#
# Elastic Compliance Matrix: (Units=1/GPa)
#
#
# Indices 1 2 3 4 5 6 
#
# 1 0.023680 -0.004531 -0.016607 0.000000 0.000000 0.000000
# 2 -0.004531 0.011890 -0.003923 0.000000 0.000000 0.000000
# 3 -0.016607 -0.003923 0.034783 0.000000 0.000000 0.000000
# 4 0.000000 0.000000 0.000000 0.048512 0.000000 0.000000
# 5 0.000000 0.000000 0.000000 0.000000 0.041685 0.000000
# 6 0.000000 0.000000 0.000000 0.000000 0.000000 0.087582
#
#
# Mechanical properties :
#
#
# Convention : Reuss Voigt Hill
#
# Bulk Modulus (GPa) = 49.43564 55.48799 52.46181
# Shear Modulus (GPa) = 16.39354 19.47264 17.93309
#
# Velocity S-wave (km/s) = 3.05699 3.33174 3.19732
# Velocity P-wave (km/s) = 6.37505 6.81409 6.59822
#
# Compressibility (1/GPa) = 0.02022832
#
# Stress axis : x y z
#
# Youngs Moduli (GPa) = 42.23005 84.10518 28.75002
#
# Poissons Ratio (x) = 0.38111 0.47746
# Poissons Ratio (y) = 0.19136 0.11280
# Poissons Ratio (z) = 0.70132 0.32998
#
# Static dielectric constant tensor:
#      x y z
#    x 3.188370 0.000000 0.000000 
#    y 0.000000 3.501790 0.000000 
#    z 0.000000 0.000000 3.072880 
# 
# 
# High freq. dielectric constant tensor:
#      x y z
#    x 1.656700 0.000000 0.000000 
#    y 0.000000 1.699840 0.000000 
#    z 0.000000 0.000000 1.660190 
# 
# From -- ./inp_files/4289.got.cif
#   From: 2010.03.12/outbox.cif.g09.slc.cpg/sg31_3_cif.got.tgz:4289.got - 2010.04.14 01:42:59.
