data_PCOD8169526
_publ_section_title
;
Structure prediction by ZEFSAII (Michael W. Deem and Ramdas Pophale) SiO2 
 PCOD8169526
Probable space group: P N C 2
;
_chemical_formula_sum "Si O2"
_cell_formula_units_Z 20
_cell_length_a 5.672563
_cell_length_b 12.155337
_cell_length_c 13.003939
_cell_angle_alpha 90.000000
_cell_angle_beta 90.000000
_cell_angle_gamma 90.000000
_cell_volume 896.646496
_symmetry_space_group_name_H-M "P N C 2"
_symmetry_group_IT_number 30
_symmetry_cell_setting 'orthorhombic'
loop_
_space_group_symop_operation_xyz
x,y,z
-x,-y,z
-x,1/2+y,1/2+z
x,1/2-y,1/2+z
loop_
_atom_site_type_symbol
_atom_site_label
_atom_site_fract_x
_atom_site_fract_y
_atom_site_fract_z
Si Si1 0.632478 0.889047 0.359310
Si Si2 0.055322 0.118825 0.553294
Si Si3 0.747188 0.268309 0.418609
Si Si4 0.006003 0.281434 0.726925
Si Si5 0.746620 0.062809 0.090005
O O1 0.740062 0.902228 0.472147
O O2 0.485557 0.776487 0.363432
O O3 0.816116 0.876282 0.265456
O O4 0.500000 0.000000 0.329867
O O5 0.833132 0.171009 0.494237
O O6 0.132521 0.201853 0.644186
O O7 0.000000 0.000000 0.602775
O O8 0.932722 0.290185 0.326468
O O9 0.704700 0.380931 0.478901
O O10 0.779665 0.343908 0.677612
O O11 0.500000 0.000000 0.113768
O O12 0.000000 0.000000 0.082897
#
# Coordination Sequence:
#
# PCOD8169526 Si02
#       5
#     4   4   4   4   4
#     4  11  23  42  71 101 136 183 234 293 353 417
#     4  10  21  44  66  95 138 180 228 291 353 415
#     4  10  24  44  66  98 139 181 230 288 349 420
#     4  10  26  41  69 105 136 179 244 287 344 429
#     4  11  28  47  72 103 146 190 233 293 359 415
#
# _framework density 22.305337000000002
#
# number of rings (size 3 to 8) (size 9 to 14) (size 15 to 20)
#    0.000    1.600    2.000    0.000   14.000    2.400 
#    0.000    0.000    0.000    0.000    0.000    0.000 
#    0.000    0.000    0.000    0.000    0.000    0.000 
#
# Total GULP energy -247890.096485 kJ/mol
# GULP energy per Si atom -12394.504824 kJ/mol
# Density = 2.225457 g / cm^3
# Si number density = 22.305337 Si / 1000 Ang^3
#
#
#
# Elastic Constant Matrix: (Units=GPa)
#
#
# Indices 1 2 3 4 5 6 
#
# 1 106.3419 37.9660 43.1693 0.0000 0.0000 0.0000
# 2 37.9660 97.5844 67.0607 0.0000 0.0000 0.0000
# 3 43.1693 67.0607 139.8802 0.0000 0.0000 0.0000
# 4 0.0000 0.0000 0.0000 28.3673 0.0000 0.0000
# 5 0.0000 0.0000 0.0000 0.0000 9.1116 0.0000
# 6 0.0000 0.0000 0.0000 0.0000 0.0000 36.1471
#
#
#
# Elastic Compliance Matrix: (Units=1/GPa)
#
#
# Indices 1 2 3 4 5 6 
#
# 1 0.011304 -0.002984 -0.002058 0.000000 0.000000 0.000000
# 2 -0.002984 0.016070 -0.006783 0.000000 0.000000 0.000000
# 3 -0.002058 -0.006783 0.011036 0.000000 0.000000 0.000000
# 4 0.000000 0.000000 0.000000 0.035252 0.000000 0.000000
# 5 0.000000 0.000000 0.000000 0.000000 0.109751 0.000000
# 6 0.000000 0.000000 0.000000 0.000000 0.000000 0.027665
#
#
# Mechanical properties :
#
#
# Convention : Reuss Voigt Hill
#
# Bulk Modulus (GPa) = 67.75072 71.13316 69.44194
# Shear Modulus (GPa) = 20.86389 27.76589 24.31489
#
# Velocity S-wave (km/s) = 3.06171 3.53201 3.30524
# Velocity P-wave (km/s) = 6.55278 6.97089 6.76507
#
# Compressibility (1/GPa) = 0.01475999
#
# Stress axis : x y z
#
# Youngs Moduli (GPa) = 88.46107 62.22806 90.61027
#
# Poissons Ratio (x) = 0.18566 0.18651
# Poissons Ratio (y) = 0.26393 0.61464
# Poissons Ratio (z) = 0.18208 0.42212
#
# Static dielectric constant tensor:
#      x y z
#    x 4.042270 0.000000 0.000000 
#    y 0.000000 3.858640 0.000000 
#    z 0.000000 0.000000 4.189410 
# 
# 
# High freq. dielectric constant tensor:
#      x y z
#    x 1.871910 0.000000 0.000000 
#    y 0.000000 1.864970 0.000000 
#    z 0.000000 0.000000 1.893210 
# 
# From -- ./inp_files/3055.got.cif
#   From: 2010.03.12/outbox.cif.g09.slc.cpg/sg30_2_cif.got.tgz:3055.got - 2010.04.14 01:38:02.
