data_PCOD8169991
_publ_section_title
;
Structure prediction by ZEFSAII (Michael W. Deem and Ramdas Pophale) SiO2 
 PCOD8169991
Probable space group: P M N 21
;
_chemical_formula_sum "Si O2"
_cell_formula_units_Z 32
_cell_length_a 8.858226
_cell_length_b 12.173748
_cell_length_c 15.341843
_cell_angle_alpha 90.000000
_cell_angle_beta 90.000000
_cell_angle_gamma 90.000000
_cell_volume 1654.430767
_symmetry_space_group_name_H-M "P M N 21"
_symmetry_group_IT_number 31
_symmetry_cell_setting 'orthorhombic'
loop_
_space_group_symop_operation_xyz
x,y,z
1/2-x,-y,1/2+z
-x,y,z
1/2+x,-y,1/2+z
loop_
_atom_site_type_symbol
_atom_site_label
_atom_site_fract_x
_atom_site_fract_y
_atom_site_fract_z
Si Si1 0.820212 0.008193 0.297400
Si Si2 0.830432 0.242624 0.343163
Si Si3 0.820646 0.473226 0.293740
Si Si4 0.323558 0.016836 0.599972
Si Si5 0.820691 0.612481 0.455829
Si Si6 0.179661 0.862799 0.458578
Si Si7 0.667608 0.770513 0.044523
Si Si8 0.323834 0.535562 0.116592
O O1 0.748940 0.128106 0.319040
O O2 0.766136 0.979197 0.200098
O O3 0.000000 0.009914 0.304786
O O4 0.759966 0.921624 0.369842
O O5 0.750983 0.349978 0.301849
O O6 0.830473 0.263794 0.445038
O O7 0.000000 0.234123 0.306323
O O8 0.755765 0.552882 0.369407
O O9 0.775140 0.517453 0.200979
O O10 0.000000 0.467503 0.303595
O O11 0.500000 0.992127 0.595276
O O12 0.240410 0.922980 0.544822
O O13 0.290004 0.136114 0.561269
O O14 0.759967 0.737615 0.458989
O O15 0.765123 0.545408 0.540544
O O16 0.000000 0.612853 0.452603
O O17 0.000000 0.867341 0.462472
O O18 0.500000 0.813733 0.070109
O O19 0.710125 0.661676 0.096080
O O20 0.500000 0.514816 0.134770
#
# Coordination Sequence:
#
# PCOD8169991 Si02
#       8
#     4   4   4   4   4   4   4   4
#     4   9  19  34  55  79 107 144 185 223 268 328
#     4   9  16  33  59  79  99 140 194 228 258 323
#     4  10  20  35  59  84 106 144 192 233 271 326
#     4  11  23  36  55  87 117 139 179 242 286 316
#     4   9  19  36  58  82 110 147 192 226 262 331
#     4  10  20  38  60  78 107 154 191 218 266 339
#     4  10  19  37  62  79 104 150 195 226 269 337
#     4  10  21  37  56  84 116 146 182 232 280 326
#
# _framework density 19.341999999999999
#
# number of rings (size 3 to 8) (size 9 to 14) (size 15 to 20)
#    0.000    2.250    2.500    0.375    3.500    0.500 
#    0.000    3.125    0.000    0.000    0.000    0.000 
#    0.000    0.000    0.000    0.000    0.000    0.000 
#
# Total GULP energy -396692.752487 kJ/mol
# GULP energy per Si atom -12396.648515 kJ/mol
# Density = 1.929798 g / cm^3
# Si number density = 19.342000 Si / 1000 Ang^3
#
#
#
# Elastic Constant Matrix: (Units=GPa)
#
#
# Indices 1 2 3 4 5 6 
#
# 1 17.4671 19.6711 14.4387 0.0000 0.0000 0.0000
# 2 19.6711 118.6489 45.0093 0.0000 0.0000 0.0000
# 3 14.4387 45.0093 106.3805 0.0000 0.0000 0.0000
# 4 0.0000 0.0000 0.0000 32.5157 0.0000 0.0000
# 5 0.0000 0.0000 0.0000 0.0000 27.4957 0.0000
# 6 0.0000 0.0000 0.0000 0.0000 0.0000 15.9461
#
#
#
# Elastic Compliance Matrix: (Units=1/GPa)
#
#
# Indices 1 2 3 4 5 6 
#
# 1 0.073202 -0.009967 -0.005718 0.000000 0.000000 0.000000
# 2 -0.009967 0.011397 -0.003469 0.000000 0.000000 0.000000
# 3 -0.005718 -0.003469 0.011644 0.000000 0.000000 0.000000
# 4 0.000000 0.000000 0.000000 0.030754 0.000000 0.000000
# 5 0.000000 0.000000 0.000000 0.000000 0.036369 0.000000
# 6 0.000000 0.000000 0.000000 0.000000 0.000000 0.062711
#
#
# Mechanical properties :
#
#
# Convention : Reuss Voigt Hill
#
# Bulk Modulus (GPa) = 17.26109 44.52609 30.89359
# Shear Modulus (GPa) = 17.62434 26.08332 21.85383
#
# Velocity S-wave (km/s) = 3.02188 3.67622 3.36499
# Velocity P-wave (km/s) = 4.59556 6.41014 5.57714
#
# Compressibility (1/GPa) = 0.05793379
#
# Stress axis : x y z
#
# Youngs Moduli (GPa) = 13.66077 87.74459 85.88010
#
# Poissons Ratio (x) = 0.87456 0.49110
# Poissons Ratio (y) = 0.13616 0.29793
# Poissons Ratio (z) = 0.07812 0.30440
#
# Static dielectric constant tensor:
#      x y z
#    x 3.060920 0.000000 0.000000 
#    y 0.000000 3.840540 0.000000 
#    z 0.000000 0.000000 3.586480 
# 
# 
# High freq. dielectric constant tensor:
#      x y z
#    x 1.699690 0.000000 0.000000 
#    y 0.000000 1.772890 0.000000 
#    z 0.000000 0.000000 1.761580 
# 
# From -- ./inp_files/5016.got.cif
#   From: 2010.03.12/outbox.cif.g09.slc.cpg/sg31_3_cif.got.tgz:5016.got - 2010.04.14 01:42:59.
