data_PCOD8169372
_publ_section_title
;
Structure prediction by ZEFSAII (Michael W. Deem and Ramdas Pophale) SiO2 
 PCOD8169372
Probable space group: P N C 2
;
_chemical_formula_sum "Si O2"
_cell_formula_units_Z 22
_cell_length_a 11.371013
_cell_length_b 18.633325
_cell_length_c 5.252345
_cell_angle_alpha 90.000000
_cell_angle_beta 90.000000
_cell_angle_gamma 90.000000
_cell_volume 1112.865707
_symmetry_space_group_name_H-M "P N C 2"
_symmetry_group_IT_number 30
_symmetry_cell_setting 'orthorhombic'
loop_
_space_group_symop_operation_xyz
x,y,z
-x,-y,z
-x,1/2+y,1/2+z
x,1/2-y,1/2+z
loop_
_atom_site_type_symbol
_atom_site_label
_atom_site_fract_x
_atom_site_fract_y
_atom_site_fract_z
Si Si1 0.898818 0.129321 0.254940
Si Si2 0.602954 0.832698 0.280163
Si Si3 0.965034 0.857857 0.775182
Si Si4 0.000000 0.500000 0.514806
Si Si5 0.657376 0.203271 0.296527
Si Si6 0.296608 0.173028 0.779340
O O1 0.762245 0.146776 0.272256
O O2 0.964594 0.151726 0.513338
O O3 0.957625 0.172446 0.014344
O O4 0.909567 0.043772 0.197318
O O5 0.462877 0.841271 0.268575
O O6 0.655023 0.870417 0.533930
O O7 0.639019 0.749323 0.297162
O O8 0.664518 0.869545 0.034853
O O9 0.843062 0.815107 0.759773
O O10 0.934662 0.942049 0.832447
O O11 0.664633 0.238196 0.574525
#
# Coordination Sequence:
#
# PCOD8169372 Si02
#       6
#     4   4   4   2   4   4
#     4  10  22  38  59  87 112 154 188 244 291 339
#     4  10  19  35  54  81 114 156 183 216 280 344
#     4  10  20  38  57  85 109 144 194 243 290 329
#     4   8  22  40  58  86 106 152 202 236 300 330
#     4  12  21  39  57  85 125 152 189 228 288 357
#     4  10  18  34  55  79 112 152 181 226 276 339
#
# _framework density 19.768782999999999
#
# number of rings (size 3 to 8) (size 9 to 14) (size 15 to 20)
#    1.091    0.727    3.636    2.727    0.000    0.000 
#   19.636    0.000    0.000    1.091    0.000    0.000 
#    0.000    0.000    0.000    0.000    0.000    0.000 
#
# Total GULP energy -272576.313718 kJ/mol
# GULP energy per Si atom -12389.832442 kJ/mol
# Density = 1.972379 g / cm^3
# Si number density = 19.768783 Si / 1000 Ang^3
#
#
#
# Elastic Constant Matrix: (Units=GPa)
#
#
# Indices 1 2 3 4 5 6 
#
# 1 151.0839 9.0018 47.9429 0.0000 0.0000 0.0000
# 2 9.0018 11.7952 0.4964 0.0000 0.0000 0.0000
# 3 47.9429 0.4964 175.6326 0.0000 0.0000 0.0000
# 4 0.0000 0.0000 0.0000 6.3489 0.0000 0.0000
# 5 0.0000 0.0000 0.0000 0.0000 37.0651 0.0000
# 6 0.0000 0.0000 0.0000 0.0000 0.0000 10.3419
#
#
#
# Elastic Compliance Matrix: (Units=1/GPa)
#
#
# Indices 1 2 3 4 5 6 
#
# 1 0.007614 -0.005724 -0.002062 0.000000 0.000000 0.000000
# 2 -0.005724 0.089094 0.001311 0.000000 0.000000 0.000000
# 3 -0.002062 0.001311 0.006253 0.000000 0.000000 0.000000
# 4 0.000000 0.000000 0.000000 0.157508 0.000000 0.000000
# 5 0.000000 0.000000 0.000000 0.000000 0.026980 0.000000
# 6 0.000000 0.000000 0.000000 0.000000 0.000000 0.096694
#
#
# Mechanical properties :
#
#
# Convention : Reuss Voigt Hill
#
# Bulk Modulus (GPa) = 11.10996 50.37709 30.74353
# Shear Modulus (GPa) = 11.70695 29.48923 20.59809
#
# Velocity S-wave (km/s) = 2.43614 3.86645 3.23143
# Velocity P-wave (km/s) = 3.68038 6.74322 5.43214
#
# Compressibility (1/GPa) = 0.09000931
#
# Stress axis : x y z
#
# Youngs Moduli (GPa) = 131.33131 11.22414 159.92435
#
# Poissons Ratio (x) = 0.06425 0.32982
# Poissons Ratio (y) = 0.75178 -0.20962
# Poissons Ratio (z) = 0.27085 -0.01471
#
# Static dielectric constant tensor:
#      x y z
#    x 3.579760 0.000000 0.000000 
#    y 0.000000 2.957090 0.000000 
#    z 0.000000 0.000000 6.588730 
# 
# 
# High freq. dielectric constant tensor:
#      x y z
#    x 1.771060 0.000000 0.000000 
#    y 0.000000 1.698640 0.000000 
#    z 0.000000 0.000000 1.808210 
# 
# From -- ./inp_files/471.got.cif
#   From: 2010.03.12/outbox.cif.g09.slc.cpg/sg30_1_cif.got.tgz:471.got - 2010.04.14 01:38:02.
