data_PCOD8169842
_publ_section_title
;
Structure prediction by ZEFSAII (Michael W. Deem and Ramdas Pophale) SiO2 
 PCOD8169842
Probable space group: P M N 21
;
_chemical_formula_sum "Si O2"
_cell_formula_units_Z 32
_cell_length_a 8.960246
_cell_length_b 11.918984
_cell_length_c 14.359767
_cell_angle_alpha 90.000000
_cell_angle_beta 90.000000
_cell_angle_gamma 90.000000
_cell_volume 1533.580449
_symmetry_space_group_name_H-M "P M N 21"
_symmetry_group_IT_number 31
_symmetry_cell_setting 'orthorhombic'
loop_
_space_group_symop_operation_xyz
x,y,z
1/2-x,-y,1/2+z
-x,y,z
1/2+x,-y,1/2+z
loop_
_atom_site_type_symbol
_atom_site_label
_atom_site_fract_x
_atom_site_fract_y
_atom_site_fract_z
Si Si1 0.668768 0.120743 0.170110
Si Si2 0.330519 0.794059 0.401194
Si Si3 0.670926 0.176815 0.371283
Si Si4 0.673976 0.548143 0.095470
Si Si5 0.175325 0.406739 0.383367
Si Si6 0.176143 0.628093 0.271098
Si Si7 0.327114 0.995300 0.991360
Si Si8 0.167138 0.324219 0.089999
O O1 0.500000 0.164283 0.149593
O O2 0.686426 0.095101 0.280222
O O3 0.789458 0.213979 0.146000
O O4 0.699060 0.013213 0.102892
O O5 0.500000 0.828805 0.376504
O O6 0.250864 0.739206 0.312949
O O7 0.242529 0.903437 0.433143
O O8 0.327222 0.699652 0.480598
O O9 0.500000 0.194581 0.398853
O O10 0.740899 0.297103 0.345256
O O11 0.752283 0.120956 0.459634
O O12 0.500000 0.565806 0.114603
O O13 0.768940 0.625564 0.164705
O O14 0.715881 0.419767 0.115735
O O15 0.719792 0.578669 0.990897
O O16 0.228296 0.515195 0.324990
O O17 0.000000 0.388457 0.371304
O O18 0.000000 0.642377 0.277019
O O19 0.500000 0.987982 0.966579
O O20 0.000000 0.360695 0.120566
#
# Coordination Sequence:
#
# PCOD8169842 Si02
#       8
#     4   4   4   4   4   4   4   4
#     4   9  20  38  61  88 116 155 199 243 300 358
#     4  10  20  36  59  86 116 150 192 243 296 349
#     4  11  23  40  62  89 120 155 200 252 302 357
#     4  11  22  37  56  83 120 162 199 238 297 360
#     4  10  23  41  60  85 122 163 198 240 298 360
#     4  11  22  38  60  89 121 156 201 247 295 357
#     4  10  21  40  64  87 116 155 199 247 299 357
#     4  10  19  32  56  87 117 150 194 246 289 342
#
# _framework density 20.866202000000001
#
# number of rings (size 3 to 8) (size 9 to 14) (size 15 to 20)
#    0.000    1.750    1.250    3.000    0.000    6.500 
#    2.250    0.000    0.000    0.000    0.000    0.000 
#    0.000    0.000    0.000    0.000    0.000    0.000 
#
# Total GULP energy -396832.161161 kJ/mol
# GULP energy per Si atom -12401.005036 kJ/mol
# Density = 2.081871 g / cm^3
# Si number density = 20.866202 Si / 1000 Ang^3
#
#
#
# Elastic Constant Matrix: (Units=GPa)
#
#
# Indices 1 2 3 4 5 6 
#
# 1 83.3957 16.1900 25.4905 0.0000 0.0000 0.0000
# 2 16.1900 37.9939 -2.0314 0.0000 0.0000 0.0000
# 3 25.4905 -2.0314 79.9047 0.0000 0.0000 0.0000
# 4 0.0000 0.0000 0.0000 23.5274 0.0000 0.0000
# 5 0.0000 0.0000 0.0000 0.0000 27.9227 0.0000
# 6 0.0000 0.0000 0.0000 0.0000 0.0000 28.8831
#
#
#
# Elastic Compliance Matrix: (Units=1/GPa)
#
#
# Indices 1 2 3 4 5 6 
#
# 1 0.014751 -0.006546 -0.004872 0.000000 0.000000 0.000000
# 2 -0.006546 0.029261 0.002832 0.000000 0.000000 0.000000
# 3 -0.004872 0.002832 0.014141 0.000000 0.000000 0.000000
# 4 0.000000 0.000000 0.000000 0.042504 0.000000 0.000000
# 5 0.000000 0.000000 0.000000 0.000000 0.035813 0.000000
# 6 0.000000 0.000000 0.000000 0.000000 0.000000 0.034622
#
#
# Mechanical properties :
#
#
# Convention : Reuss Voigt Hill
#
# Bulk Modulus (GPa) = 24.40166 31.17694 27.78930
# Shear Modulus (GPa) = 24.76165 26.84297 25.80231
#
# Velocity S-wave (km/s) = 3.44857 3.59058 3.52029
# Velocity P-wave (km/s) = 5.25134 5.67128 5.46535
#
# Compressibility (1/GPa) = 0.04098081
#
# Stress axis : x y z
#
# Youngs Moduli (GPa) = 67.79153 34.17522 70.71542
#
# Poissons Ratio (x) = 0.22372 0.34454
# Poissons Ratio (y) = 0.44378 -0.20028
# Poissons Ratio (z) = 0.33029 -0.09679
#
# Static dielectric constant tensor:
#      x y z
#    x 3.780230 0.000000 0.000000 
#    y 0.000000 3.476300 0.000000 
#    z 0.000000 0.000000 3.918160 
# 
# 
# High freq. dielectric constant tensor:
#      x y z
#    x 1.824220 0.000000 0.000000 
#    y 0.000000 1.795330 0.000000 
#    z 0.000000 0.000000 1.821780 
# 
# From -- ./inp_files/4966.got.cif
#   From: 2010.03.12/outbox.cif.g09.slc.cpg/sg31_3_cif.got.tgz:4966.got - 2010.04.14 01:42:59.
