data_PCOD8169635
_publ_section_title
;
Structure prediction by ZEFSAII (Michael W. Deem and Ramdas Pophale) SiO2 
 PCOD8169635
Probable space group: P N C 2
;
_chemical_formula_sum "Si O2"
_cell_formula_units_Z 24
_cell_length_a 5.182926
_cell_length_b 21.219150
_cell_length_c 8.808737
_cell_angle_alpha 90.000000
_cell_angle_beta 90.000000
_cell_angle_gamma 90.000000
_cell_volume 968.760973
_symmetry_space_group_name_H-M "P N C 2"
_symmetry_group_IT_number 30
_symmetry_cell_setting 'orthorhombic'
loop_
_space_group_symop_operation_xyz
x,y,z
-x,-y,z
-x,1/2+y,1/2+z
x,1/2-y,1/2+z
loop_
_atom_site_type_symbol
_atom_site_label
_atom_site_fract_x
_atom_site_fract_y
_atom_site_fract_z
Si Si1 0.790157 0.625509 0.653660
Si Si2 0.665144 0.241898 0.475256
Si Si3 0.732294 0.387767 0.836808
Si Si4 0.029382 0.642175 0.355004
Si Si5 0.308888 0.239129 0.728891
Si Si6 0.256628 0.540662 0.143906
O O1 0.506858 0.608393 0.717966
O O2 0.836507 0.700874 0.660616
O O3 0.009089 0.589361 0.751604
O O4 0.834984 0.607475 0.475604
O O5 0.800366 0.182650 0.395760
O O6 0.810728 0.307661 0.455078
O O7 0.592187 0.227759 0.650745
O O8 0.375580 0.248664 0.405057
O O9 0.669825 0.431033 0.980264
O O10 0.216943 0.593058 0.273562
O O11 0.871876 0.677380 0.219432
O O12 0.500000 0.500000 0.198892
O O13 0.000000 0.500000 0.128260
#
# Coordination Sequence:
#
# PCOD8169635 Si02
#       6
#     4   4   4   4   4   4
#     4  11  24  44  71 116 150 199 239 320 405 463
#     4  11  23  39  69 111 158 202 237 321 404 462
#     4  11  25  48  75 106 157 195 264 310 392 466
#     4  12  26  45  76 116 161 198 262 327 394 476
#     4  11  23  37  66 111 163 190 237 300 407 473
#     4  12  31  53  81 113 153 218 279 320 380 464
#
# _framework density 24.773914999999999
#
# number of rings (size 3 to 8) (size 9 to 14) (size 15 to 20)
#    0.000    0.667    3.333    4.000   11.667    0.000 
#    0.000    3.333    0.000    0.000    0.000    0.000 
#    0.000    0.000    0.000    0.000    0.000    0.000 
#
# Total GULP energy -297532.965410 kJ/mol
# GULP energy per Si atom -12397.206892 kJ/mol
# Density = 2.471753 g / cm^3
# Si number density = 24.773915 Si / 1000 Ang^3
#
#
#
# Elastic Constant Matrix: (Units=GPa)
#
#
# Indices 1 2 3 4 5 6 
#
# 1 125.7515 35.3259 43.6363 0.0000 0.0000 0.0000
# 2 35.3259 72.9366 20.4596 0.0000 0.0000 0.0000
# 3 43.6363 20.4596 97.5561 0.0000 0.0000 0.0000
# 4 0.0000 0.0000 0.0000 -7.8732 0.0000 0.0000
# 5 0.0000 0.0000 0.0000 0.0000 67.3978 0.0000
# 6 0.0000 0.0000 0.0000 0.0000 0.0000 38.6890
#
#
#
# Elastic Compliance Matrix: (Units=1/GPa)
#
#
# Indices 1 2 3 4 5 6 
#
# 1 0.010389 -0.003961 -0.003816 0.000000 0.000000 0.000000
# 2 -0.003961 0.016078 -0.001600 0.000000 0.000000 0.000000
# 3 -0.003816 -0.001600 0.012293 0.000000 0.000000 0.000000
# 4 0.000000 0.000000 0.000000 -0.127013 0.000000 0.000000
# 5 0.000000 0.000000 0.000000 0.000000 0.014837 0.000000
# 6 0.000000 0.000000 0.000000 0.000000 0.000000 0.025847
#
#
# Mechanical properties :
#
#
# Convention : Reuss Voigt Hill
#
# Bulk Modulus (GPa) = 49.98746 55.00976 52.49861
# Shear Modulus (GPa) = -225.79301 32.76421 -96.51440
#
# Velocity S-wave (km/s) = -9.55716 3.64060 -6.24841
# Velocity P-wave (km/s) = 10.07792 6.31862 5.55156
#
# Compressibility (1/GPa) = 0.02000502
#
# Stress axis : x y z
#
# Youngs Moduli (GPa) = 96.25291 62.19675 81.34673
#
# Poissons Ratio (x) = 0.24639 0.31044
# Poissons Ratio (y) = 0.38130 0.13015
# Poissons Ratio (z) = 0.36733 0.09951
#
# Static dielectric constant tensor:
#      x y z
#    x 4.059200 0.000000 0.000000 
#    y 0.000000 4.225020 0.000000 
#    z 0.000000 0.000000 4.697750 
# 
# 
# High freq. dielectric constant tensor:
#      x y z
#    x 1.997750 0.000000 0.000000 
#    y 0.000000 1.942820 0.000000 
#    z 0.000000 0.000000 2.006500 
# 
# From -- ./inp_files/1396.got.cif
#   From: 2010.03.12/outbox.cif.g09.slc.cpg/sg30_1_cif.got.tgz:1396.got - 2010.04.14 01:38:02.
