data_PCOD8169265
_publ_section_title
;
Structure prediction by ZEFSAII (Michael W. Deem and Ramdas Pophale) SiO2 
 PCOD8169265
Probable space group: P C A 21
;
_chemical_formula_sum "Si O2"
_cell_formula_units_Z 32
_cell_length_a 14.992787
_cell_length_b 8.660531
_cell_length_c 11.364498
_cell_angle_alpha 90.000000
_cell_angle_beta 90.000000
_cell_angle_gamma 90.000000
_cell_volume 1475.628886
_symmetry_space_group_name_H-M "P C A 21"
_symmetry_group_IT_number 29
_symmetry_cell_setting 'orthorhombic'
loop_
_space_group_symop_operation_xyz
x,y,z
-x,-y,1/2+z
1/2-x,y,1/2+z
1/2+x,-y,z
loop_
_atom_site_type_symbol
_atom_site_label
_atom_site_fract_x
_atom_site_fract_y
_atom_site_fract_z
Si Si1 0.030569 0.331058 0.147330
Si Si2 0.090697 0.635536 0.246912
Si Si3 0.868891 0.739587 0.057495
Si Si4 0.811271 0.205182 0.549943
Si Si5 0.632642 0.396392 0.504511
Si Si6 0.679499 0.848548 0.024119
Si Si7 0.930629 0.855837 0.296119
Si Si8 0.525144 0.190824 0.880363
O O1 0.068232 0.505452 0.149650
O O2 0.112317 0.213581 0.124789
O O3 0.988053 0.311986 0.276319
O O4 0.955086 0.302048 0.047523
O O5 0.156384 0.752630 0.180668
O O6 0.134294 0.566343 0.365178
O O7 0.005959 0.727897 0.291274
O O8 0.769344 0.753816 0.011165
O O9 0.876989 0.842919 0.174382
O O10 0.876855 0.555545 0.077654
O O11 0.941467 0.806191 0.967522
O O12 0.720796 0.298269 0.529000
O O13 0.885620 0.239610 0.450312
O O14 0.793824 0.023620 0.550464
O O15 0.636053 0.816113 0.899381
O O16 0.970504 0.024933 0.317647
#
# Coordination Sequence:
#
# PCOD8169265 Si02
#       8
#     4   4   4   4   4   4   4   4
#     4  12  25  46  71 102 141 186 233 295 358 428
#     4  12  24  47  73  99 144 187 233 296 359 429
#     4  12  26  47  70 106 147 184 240 297 361 428
#     4  11  27  46  70 105 143 183 239 295 357 431
#     4  12  27  44  74 108 139 192 237 296 364 434
#     4  11  28  45  69 107 141 188 242 295 360 434
#     4  11  25  45  73  98 142 189 235 297 356 424
#     4  11  26  46  70 103 141 189 235 297 357 424
#
# _framework density 21.685668
#
# number of rings (size 3 to 8) (size 9 to 14) (size 15 to 20)
#    0.000    0.500    5.000    1.500    8.750    3.000 
#    0.000    0.000    0.000    0.000    0.000    0.000 
#    0.000    0.000    0.000    0.000    0.000    0.000 
#
# Total GULP energy -396838.670700 kJ/mol
# GULP energy per Si atom -12401.208459 kJ/mol
# Density = 2.163631 g / cm^3
# Si number density = 21.685668 Si / 1000 Ang^3
#
#
#
# Elastic Constant Matrix: (Units=GPa)
#
#
# Indices 1 2 3 4 5 6 
#
# 1 140.6569 50.6353 40.9784 0.0000 0.0000 0.0000
# 2 50.6353 102.3604 29.7745 0.0000 0.0000 0.0000
# 3 40.9784 29.7745 88.8568 0.0000 0.0000 0.0000
# 4 0.0000 0.0000 0.0000 41.8118 0.0000 0.0000
# 5 0.0000 0.0000 0.0000 0.0000 22.7954 0.0000
# 6 0.0000 0.0000 0.0000 0.0000 0.0000 40.9137
#
#
#
# Elastic Compliance Matrix: (Units=1/GPa)
#
#
# Indices 1 2 3 4 5 6 
#
# 1 0.009344 -0.003733 -0.003059 0.000000 0.000000 0.000000
# 2 -0.003733 0.012316 -0.002405 0.000000 0.000000 0.000000
# 3 -0.003059 -0.002405 0.013471 0.000000 0.000000 0.000000
# 4 0.000000 0.000000 0.000000 0.023917 0.000000 0.000000
# 5 0.000000 0.000000 0.000000 0.000000 0.043869 0.000000
# 6 0.000000 0.000000 0.000000 0.000000 0.000000 0.024442
#
#
# Mechanical properties :
#
#
# Convention : Reuss Voigt Hill
#
# Bulk Modulus (GPa) = 59.74709 63.85004 61.79856
# Shear Modulus (GPa) = 33.04046 35.13659 34.08852
#
# Velocity S-wave (km/s) = 3.90758 4.02962 3.96907
# Velocity P-wave (km/s) = 6.92605 7.15247 7.04017
#
# Compressibility (1/GPa) = 0.01673722
#
# Stress axis : x y z
#
# Youngs Moduli (GPa) = 107.01690 81.19818 74.23594
#
# Poissons Ratio (x) = 0.30309 0.22706
# Poissons Ratio (y) = 0.39947 0.17856
# Poissons Ratio (z) = 0.32732 0.19531
#
# Static dielectric constant tensor:
#      x y z
#    x 4.072320 0.000000 0.000000 
#    y 0.000000 3.910870 0.000000 
#    z 0.000000 0.000000 4.124430 
# 
# 
# High freq. dielectric constant tensor:
#      x y z
#    x 1.861350 0.000000 0.000000 
#    y 0.000000 1.859100 0.000000 
#    z 0.000000 0.000000 1.861140 
# 
# From -- ./inp_files/3506.got.cif
#   From: 2010.03.12/outbox.cif.g09.slc.cpg/sg29_2_cif.got.tgz:3506.got - 2010.04.14 03:43:10.
