data_PCOD8169308
_publ_section_title
;
Structure prediction by ZEFSAII (Michael W. Deem and Ramdas Pophale) SiO2 
 PCOD8169308
Probable space group: P C A 21
;
_chemical_formula_sum "Si O2"
_cell_formula_units_Z 32
_cell_length_a 29.023367
_cell_length_b 6.799798
_cell_length_c 7.285502
_cell_angle_alpha 90.000000
_cell_angle_beta 90.000000
_cell_angle_gamma 90.000000
_cell_volume 1437.815916
_symmetry_space_group_name_H-M "P C A 21"
_symmetry_group_IT_number 29
_symmetry_cell_setting 'orthorhombic'
loop_
_space_group_symop_operation_xyz
x,y,z
-x,-y,1/2+z
1/2-x,y,1/2+z
1/2+x,-y,z
loop_
_atom_site_type_symbol
_atom_site_label
_atom_site_fract_x
_atom_site_fract_y
_atom_site_fract_z
Si Si1 0.312224 0.745678 0.537110
Si Si2 0.550444 0.893515 0.367796
Si Si3 0.753851 0.908265 0.950028
Si Si4 0.506695 0.751447 0.009306
Si Si5 0.849194 0.419770 0.174595
Si Si6 0.647972 0.078760 0.386256
Si Si7 0.053616 0.423911 0.665637
Si Si8 0.747188 0.590725 0.689264
O O1 0.279377 0.902941 0.426521
O O2 0.344453 0.656861 0.382089
O O3 0.346931 0.842902 0.679453
O O4 0.284212 0.580383 0.652761
O O5 0.543170 0.819367 0.161432
O O6 0.536372 0.732866 0.517715
O O7 0.516442 0.074270 0.396760
O O8 0.604120 0.938951 0.391292
O O9 0.807015 0.957247 0.937891
O O10 0.743645 0.660504 0.905172
O O11 0.743844 0.838199 0.161794
O O12 0.465549 0.635053 0.106952
O O13 0.535167 0.620784 0.867528
O O14 0.891021 0.572946 0.171673
O O15 0.802381 0.525507 0.115371
O O16 0.860350 0.249008 0.032109
#
# Coordination Sequence:
#
# PCOD8169308 Si02
#       8
#     4   4   4   4   4   4   4   4
#     4  12  26  45  68 104 148 192 238 299 352 414
#     4  12  27  48  78 110 144 188 239 300 370 440
#     4  12  23  43  70  97 141 194 239 284 357 421
#     4  12  26  49  80 108 146 188 238 299 376 444
#     4  12  26  45  72 106 144 184 242 298 350 429
#     4  12  26  45  72 106 144 184 242 298 350 429
#     4  12  27  48  78 110 144 188 239 300 370 440
#     4  12  23  43  70  97 141 194 239 284 357 421
#
# _framework density 22.255979
#
# number of rings (size 3 to 8) (size 9 to 14) (size 15 to 20)
#    0.000    0.000    7.500    3.000    0.000    6.000 
#    0.000    0.000    0.000    0.000    0.000    0.000 
#    0.000    0.000    0.000    0.000    0.000    0.000 
#
# Total GULP energy -396527.474032 kJ/mol
# GULP energy per Si atom -12391.483563 kJ/mol
# Density = 2.220532 g / cm^3
# Si number density = 22.255979 Si / 1000 Ang^3
#
#
#
# Elastic Constant Matrix: (Units=GPa)
#
#
# Indices 1 2 3 4 5 6 
#
# 1 93.0952 15.9945 23.3776 0.0000 0.0000 0.0000
# 2 15.9945 90.5576 32.9921 0.0000 0.0000 0.0000
# 3 23.3776 32.9921 84.5386 0.0000 0.0000 0.0000
# 4 0.0000 0.0000 0.0000 51.4738 0.0000 0.0000
# 5 0.0000 0.0000 0.0000 0.0000 30.9892 0.0000
# 6 0.0000 0.0000 0.0000 0.0000 0.0000 40.7243
#
#
#
# Elastic Compliance Matrix: (Units=1/GPa)
#
#
# Indices 1 2 3 4 5 6 
#
# 1 0.011625 -0.001028 -0.002813 0.000000 0.000000 0.000000
# 2 -0.001028 0.012964 -0.004775 0.000000 0.000000 0.000000
# 3 -0.002813 -0.004775 0.014470 0.000000 0.000000 0.000000
# 4 0.000000 0.000000 0.000000 0.019427 0.000000 0.000000
# 5 0.000000 0.000000 0.000000 0.000000 0.032269 0.000000
# 6 0.000000 0.000000 0.000000 0.000000 0.000000 0.024555
#
#
# Mechanical properties :
#
#
# Convention : Reuss Voigt Hill
#
# Bulk Modulus (GPa) = 45.81687 45.87996 45.84842
# Shear Modulus (GPa) = 35.76035 37.69262 36.72649
#
# Velocity S-wave (km/s) = 4.01281 4.11980 4.06665
# Velocity P-wave (km/s) = 6.48854 6.57949 6.53418
#
# Compressibility (1/GPa) = 0.02182602
#
# Stress axis : x y z
#
# Youngs Moduli (GPa) = 86.02283 77.13705 69.10663
#
# Poissons Ratio (x) = 0.07932 0.19442
# Poissons Ratio (y) = 0.08845 0.32998
# Poissons Ratio (z) = 0.24201 0.36833
#
# Static dielectric constant tensor:
#      x y z
#    x 3.737850 0.000000 0.000000 
#    y 0.000000 4.144880 0.000000 
#    z 0.000000 0.000000 4.623400 
# 
# 
# High freq. dielectric constant tensor:
#      x y z
#    x 1.864420 0.000000 0.000000 
#    y 0.000000 1.895790 0.000000 
#    z 0.000000 0.000000 1.922900 
# 
# From -- ./inp_files/2632.got.cif
#   From: 2010.03.12/outbox.cif.g09.slc.cpg/sg29_2_cif.got.tgz:2632.got - 2010.04.14 03:43:10.
