data_PCOD8169650
_publ_section_title
;
Structure prediction by ZEFSAII (Michael W. Deem and Ramdas Pophale) SiO2 
 PCOD8169650
Probable space group: P N C 2
;
_chemical_formula_sum "Si O2"
_cell_formula_units_Z 16
_cell_length_a 5.138410
_cell_length_b 5.312732
_cell_length_c 22.471926
_cell_angle_alpha 90.000000
_cell_angle_beta 90.000000
_cell_angle_gamma 90.000000
_cell_volume 613.461001
_symmetry_space_group_name_H-M "P N C 2"
_symmetry_group_IT_number 30
_symmetry_cell_setting 'orthorhombic'
loop_
_space_group_symop_operation_xyz
x,y,z
-x,-y,z
-x,1/2+y,1/2+z
x,1/2-y,1/2+z
loop_
_atom_site_type_symbol
_atom_site_label
_atom_site_fract_x
_atom_site_fract_y
_atom_site_fract_z
Si Si1 0.500000 0.500000 0.045861
Si Si2 0.000000 0.500000 0.235645
Si Si3 0.335579 0.255116 0.825408
Si Si4 0.738959 0.336022 0.645314
Si Si5 0.244341 0.166186 0.955432
O O1 0.351008 0.711096 0.083697
O O2 0.274971 0.381875 0.004676
O O3 0.109919 0.273400 0.276285
O O4 0.221157 0.618034 0.193734
O O5 0.500000 0.500000 0.808760
O O6 0.204711 0.291187 0.890314
O O7 0.500000 0.000000 0.823539
O O8 0.500000 0.500000 0.669958
O O9 0.000000 0.500000 0.634737
O O10 0.500000 0.000000 0.954451
O O11 0.000000 0.000000 0.973562
#
# Coordination Sequence:
#
# PCOD8169650 Si02
#       5
#     2   2   4   4   4
#     4  12  28  54  86 120 170 228 292 358 444 518
#     4  12  30  50  86 120 174 226 292 360 444 520
#     4  11  27  51  84 127 171 226 286 358 440 527
#     4  12  31  53  82 123 171 227 296 363 434 518
#     4  11  26  51  82 122 168 219 281 356 433 526
#
# _framework density 26.081527000000001
#
# number of rings (size 3 to 8) (size 9 to 14) (size 15 to 20)
#    0.000    0.500    2.500    2.250    8.750   11.000 
#    0.000    0.000    0.000    0.000    0.000    0.000 
#    0.000    0.000    0.000    0.000    0.000    0.000 
#
# Total GULP energy -198527.504378 kJ/mol
# GULP energy per Si atom -12407.969024 kJ/mol
# Density = 2.602216 g / cm^3
# Si number density = 26.081527 Si / 1000 Ang^3
#
#
#
# Elastic Constant Matrix: (Units=GPa)
#
#
# Indices 1 2 3 4 5 6 
#
# 1 170.2011 72.0949 60.2444 0.0000 0.0000 0.0000
# 2 72.0949 156.4655 64.5091 0.0000 0.0000 0.0000
# 3 60.2444 64.5091 187.0846 0.0000 0.0000 0.0000
# 4 0.0000 0.0000 0.0000 -1.4705 0.0000 0.0000
# 5 0.0000 0.0000 0.0000 0.0000 -37.8372 0.0000
# 6 0.0000 0.0000 0.0000 0.0000 0.0000 69.2174
#
#
#
# Elastic Compliance Matrix: (Units=1/GPa)
#
#
# Indices 1 2 3 4 5 6 
#
# 1 0.007623 -0.002915 -0.001450 0.000000 0.000000 0.000000
# 2 -0.002915 0.008565 -0.002015 0.000000 0.000000 0.000000
# 3 -0.001450 -0.002015 0.006507 0.000000 0.000000 0.000000
# 4 0.000000 0.000000 0.000000 -0.680035 0.000000 0.000000
# 5 0.000000 0.000000 0.000000 0.000000 -0.026429 0.000000
# 6 0.000000 0.000000 0.000000 0.000000 0.000000 0.014447
#
#
# Mechanical properties :
#
#
# Convention : Reuss Voigt Hill
#
# Bulk Modulus (GPa) = 100.64069 100.82755 100.73412
# Shear Modulus (GPa) = -7.65402 27.10879 9.72739
#
# Velocity S-wave (km/s) = -1.71494 3.22745 1.93331
# Velocity P-wave (km/s) = 5.89486 7.25473 6.60986
#
# Compressibility (1/GPa) = 0.00993634
#
# Stress axis : x y z
#
# Youngs Moduli (GPa) = 131.17763 116.75569 153.68804
#
# Poissons Ratio (x) = 0.34033 0.22281
# Poissons Ratio (y) = 0.38237 0.30963
# Poissons Ratio (z) = 0.19017 0.23522
#
# Static dielectric constant tensor:
#      x y z
#    x 4.645330 0.000000 0.000000 
#    y 0.000000 4.914490 0.000000 
#    z 0.000000 0.000000 5.224150 
# 
# 
# High freq. dielectric constant tensor:
#      x y z
#    x 2.046910 0.000000 0.000000 
#    y 0.000000 2.052420 0.000000 
#    z 0.000000 0.000000 2.066790 
# 
# From -- ./inp_files/7119.got.cif
#   From: 2010.03.12/outbox.cif.g09.slc.cpg/sg30_4_cif.got.tgz:7119.got - 2010.04.14 01:38:02.
