data_PCOD8169931
_publ_section_title
;
Structure prediction by ZEFSAII (Michael W. Deem and Ramdas Pophale) SiO2 
 PCOD8169931
Probable space group: P M N 21
;
_chemical_formula_sum "Si O2"
_cell_formula_units_Z 32
_cell_length_a 8.799822
_cell_length_b 21.463383
_cell_length_c 9.778840
_cell_angle_alpha 90.000000
_cell_angle_beta 90.000000
_cell_angle_gamma 90.000000
_cell_volume 1846.968136
_symmetry_space_group_name_H-M "P M N 21"
_symmetry_group_IT_number 31
_symmetry_cell_setting 'orthorhombic'
loop_
_space_group_symop_operation_xyz
x,y,z
1/2-x,-y,1/2+z
-x,y,z
1/2+x,-y,1/2+z
loop_
_atom_site_type_symbol
_atom_site_label
_atom_site_fract_x
_atom_site_fract_y
_atom_site_fract_z
Si Si1 0.172963 0.507424 0.201240
Si Si2 0.180697 0.137106 0.879287
Si Si3 0.680779 0.224829 0.659099
Si Si4 0.181131 0.137147 0.443770
Si Si5 0.822115 0.440831 0.941014
Si Si6 0.170517 0.642267 0.246665
Si Si7 0.818403 0.897697 0.661327
Si Si8 0.321497 0.962279 0.161520
O O1 0.272799 0.503141 0.338559
O O2 0.179576 0.580496 0.150187
O O3 0.000000 0.489397 0.236311
O O4 0.242571 0.460464 0.089259
O O5 0.249225 0.137060 0.030692
O O6 0.000000 0.147280 0.883321
O O7 0.258731 0.192894 0.796998
O O8 0.223774 0.072585 0.802061
O O9 0.500000 0.216062 0.645475
O O10 0.762768 0.198081 0.524726
O O11 0.733424 0.297155 0.668669
O O12 0.259133 0.136894 0.296170
O O13 0.237398 0.076730 0.530305
O O14 0.000000 0.139128 0.428880
O O15 0.759153 0.374018 0.889026
O O16 0.000000 0.437700 0.949143
O O17 0.000000 0.657386 0.292818
O O18 0.000000 0.895214 0.656381
O O19 0.752546 0.968408 0.662147
O O20 0.500000 0.967374 0.150003
#
# Coordination Sequence:
#
# PCOD8169931 Si02
#       8
#     4   4   4   4   4   4   4   4
#     4   8  16  30  46  72 105 130 156 195 237 279
#     4  10  20  34  51  73 101 130 160 207 256 293
#     4  10  19  35  56  73  92 129 174 208 240 294
#     4  10  20  34  51  73 101 130 161 206 255 294
#     4   9  16  27  49  75 100 130 162 192 234 282
#     4   8  17  32  51  72 101 129 160 201 240 280
#     4  11  20  32  50  73 100 129 165 203 246 306
#     4   8  17  32  50  73  98 127 162 200 248 302
#
# _framework density 17.325693000000001
#
# number of rings (size 3 to 8) (size 9 to 14) (size 15 to 20)
#    0.750    2.000    0.000    3.000    0.000    2.000 
#    0.000    6.250    2.750    0.000    0.000    0.000 
#    0.000    0.000    0.000    0.000    0.000    0.000 
#
# Total GULP energy -396469.765647 kJ/mol
# GULP energy per Si atom -12389.680176 kJ/mol
# Density = 1.728626 g / cm^3
# Si number density = 17.325693 Si / 1000 Ang^3
#
#
#
# Elastic Constant Matrix: (Units=GPa)
#
#
# Indices 1 2 3 4 5 6 
#
# 1 48.8957 10.0758 16.3246 0.0000 0.0000 0.0000
# 2 10.0758 31.4887 0.0107 0.0000 0.0000 0.0000
# 3 16.3246 0.0107 84.2341 0.0000 0.0000 0.0000
# 4 0.0000 0.0000 0.0000 16.4050 0.0000 0.0000
# 5 0.0000 0.0000 0.0000 0.0000 26.7244 0.0000
# 6 0.0000 0.0000 0.0000 0.0000 0.0000 24.9044
#
#
#
# Elastic Compliance Matrix: (Units=1/GPa)
#
#
# Indices 1 2 3 4 5 6 
#
# 1 0.023524 -0.007526 -0.004558 0.000000 0.000000 0.000000
# 2 -0.007526 0.034165 0.001454 0.000000 0.000000 0.000000
# 3 -0.004558 0.001454 0.012755 0.000000 0.000000 0.000000
# 4 0.000000 0.000000 0.000000 0.060957 0.000000 0.000000
# 5 0.000000 0.000000 0.000000 0.000000 0.037419 0.000000
# 6 0.000000 0.000000 0.000000 0.000000 0.000000 0.040154
#
#
# Mechanical properties :
#
#
# Convention : Reuss Voigt Hill
#
# Bulk Modulus (GPa) = 20.33149 24.16007 22.24578
# Shear Modulus (GPa) = 20.27347 22.82060 21.54703
#
# Velocity S-wave (km/s) = 3.42444 3.63320 3.53036
# Velocity P-wave (km/s) = 5.23413 5.61917 5.43006
#
# Compressibility (1/GPa) = 0.04918479
#
# Stress axis : x y z
#
# Youngs Moduli (GPa) = 42.50925 29.26974 78.40155
#
# Poissons Ratio (x) = 0.22028 0.35736
# Poissons Ratio (y) = 0.31991 -0.11401
# Poissons Ratio (z) = 0.19376 -0.04256
#
# Static dielectric constant tensor:
#      x y z
#    x 3.125320 0.000000 0.000000 
#    y 0.000000 3.284670 0.000000 
#    z 0.000000 0.000000 3.174130 
# 
# 
# High freq. dielectric constant tensor:
#      x y z
#    x 1.669060 0.000000 0.000000 
#    y 0.000000 1.646990 0.000000 
#    z 0.000000 0.000000 1.659460 
# 
# From -- ./inp_files/1880.got.cif
#   From: 2010.03.12/outbox.cif.g09.slc.cpg/sg31_1_cif.got.tgz:1880.got - 2010.04.14 01:42:59.
