data_PCOD8169078
_publ_section_title
;
Structure prediction by ZEFSAII (Michael W. Deem and Ramdas Pophale) SiO2 
 PCOD8169078
Probable space group: P C A 21
;
_chemical_formula_sum "Si O2"
_cell_formula_units_Z 32
_cell_length_a 18.486915
_cell_length_b 5.342979
_cell_length_c 14.699382
_cell_angle_alpha 90.000000
_cell_angle_beta 90.000000
_cell_angle_gamma 90.000000
_cell_volume 1451.934377
_symmetry_space_group_name_H-M "P C A 21"
_symmetry_group_IT_number 29
_symmetry_cell_setting 'orthorhombic'
loop_
_space_group_symop_operation_xyz
x,y,z
-x,-y,1/2+z
1/2-x,y,1/2+z
1/2+x,-y,z
loop_
_atom_site_type_symbol
_atom_site_label
_atom_site_fract_x
_atom_site_fract_y
_atom_site_fract_z
Si Si1 0.573643 0.975158 0.376450
Si Si2 0.976211 0.374435 0.639099
Si Si3 0.786377 0.792165 0.826859
Si Si4 0.529816 0.125088 0.722998
Si Si5 0.214766 0.320277 0.536647
Si Si6 0.689291 0.040821 0.688731
Si Si7 0.923894 0.471005 0.986285
Si Si8 0.185867 0.566258 0.172715
O O1 0.650212 0.008978 0.321894
O O2 0.500953 0.974861 0.318045
O O3 0.586844 0.701325 0.418280
O O4 0.562606 0.200799 0.444877
O O5 0.890884 0.325454 0.640911
O O6 0.993875 0.603705 0.707327
O O7 0.004310 0.473415 0.542984
O O8 0.013165 0.104509 0.654659
O O9 0.820288 0.556139 0.772638
O O10 0.713522 0.861538 0.772369
O O11 0.764316 0.739376 0.931930
O O12 0.615592 0.171448 0.722314
O O13 0.152696 0.539636 0.541449
O O14 0.287877 0.380044 0.591976
O O15 0.176602 0.093291 0.591589
O O16 0.754708 0.224381 0.675202
#
# Coordination Sequence:
#
# PCOD8169078 Si02
#       8
#     4   4   4   4   4   4   4   4
#     4  11  24  44  70 102 139 186 235 286 357 425
#     4  12  25  45  71 101 141 182 233 298 353 423
#     4  10  24  44  67 101 138 186 230 291 348 430
#     4  12  25  45  71 101 141 182 233 298 353 423
#     4  10  24  44  67 101 138 186 230 291 348 430
#     4  11  25  44  71 103 139 187 238 291 361 422
#     4  11  24  44  70 102 139 186 235 286 357 425
#     4  11  25  44  71 103 139 187 238 291 361 422
#
# _framework density 22.039565
#
# number of rings (size 3 to 8) (size 9 to 14) (size 15 to 20)
#    0.000    1.000    2.500    3.000   14.000    1.000 
#    4.500    0.000    0.000    0.000    0.000    0.000 
#    0.000    0.000    0.000    0.000    0.000    0.000 
#
# Total GULP energy -396521.341365 kJ/mol
# GULP energy per Si atom -12391.291918 kJ/mol
# Density = 2.198940 g / cm^3
# Si number density = 22.039565 Si / 1000 Ang^3
#
#
#
# Elastic Constant Matrix: (Units=GPa)
#
#
# Indices 1 2 3 4 5 6 
#
# 1 144.5614 23.9545 33.1290 0.0000 0.0000 0.0000
# 2 23.9545 71.4250 16.6941 0.0000 0.0000 0.0000
# 3 33.1290 16.6941 119.0798 0.0000 0.0000 0.0000
# 4 0.0000 0.0000 0.0000 23.7271 0.0000 0.0000
# 5 0.0000 0.0000 0.0000 0.0000 32.9924 0.0000
# 6 0.0000 0.0000 0.0000 0.0000 0.0000 41.6422
#
#
#
# Elastic Compliance Matrix: (Units=1/GPa)
#
#
# Indices 1 2 3 4 5 6 
#
# 1 0.007695 -0.002151 -0.001839 0.000000 0.000000 0.000000
# 2 -0.002151 0.015076 -0.001515 0.000000 0.000000 0.000000
# 3 -0.001839 -0.001515 0.009122 0.000000 0.000000 0.000000
# 4 0.000000 0.000000 0.000000 0.042146 0.000000 0.000000
# 5 0.000000 0.000000 0.000000 0.000000 0.030310 0.000000
# 6 0.000000 0.000000 0.000000 0.000000 0.000000 0.024014
#
#
# Mechanical properties :
#
#
# Convention : Reuss Voigt Hill
#
# Bulk Modulus (GPa) = 47.88698 53.62461 50.75580
# Shear Modulus (GPa) = 34.16808 37.09158 35.62983
#
# Velocity S-wave (km/s) = 3.94166 4.10683 4.02510
# Velocity P-wave (km/s) = 6.51848 6.84631 6.68440
#
# Compressibility (1/GPa) = 0.02088250
#
# Stress axis : x y z
#
# Youngs Moduli (GPa) = 129.94727 66.32957 109.62658
#
# Poissons Ratio (x) = 0.14267 0.20164
# Poissons Ratio (y) = 0.27951 0.16610
# Poissons Ratio (z) = 0.23902 0.10050
#
# Static dielectric constant tensor:
#      x y z
#    x 4.531360 0.000000 0.000000 
#    y 0.000000 4.077060 0.000000 
#    z 0.000000 0.000000 4.201110 
# 
# 
# High freq. dielectric constant tensor:
#      x y z
#    x 1.871840 0.000000 0.000000 
#    y 0.000000 1.873280 0.000000 
#    z 0.000000 0.000000 1.867970 
# 
# From -- ./inp_files/4818.got.cif
#   From: 2010.03.12/outbox.cif.g09.slc.cpg/sg29_3_cif.got.tgz:4818.got - 2010.04.14 03:43:10.
