data_PCOD8169786
_publ_section_title
;
Structure prediction by ZEFSAII (Michael W. Deem and Ramdas Pophale) SiO2 
 PCOD8169786
Probable space group: P M N 21
;
_chemical_formula_sum "Si O2"
_cell_formula_units_Z 32
_cell_length_a 9.305812
_cell_length_b 13.905560
_cell_length_c 14.038054
_cell_angle_alpha 90.000000
_cell_angle_beta 90.000000
_cell_angle_gamma 90.000000
_cell_volume 1816.559663
_symmetry_space_group_name_H-M "P M N 21"
_symmetry_group_IT_number 31
_symmetry_cell_setting 'orthorhombic'
loop_
_space_group_symop_operation_xyz
x,y,z
1/2-x,-y,1/2+z
-x,y,z
1/2+x,-y,1/2+z
loop_
_atom_site_type_symbol
_atom_site_label
_atom_site_fract_x
_atom_site_fract_y
_atom_site_fract_z
Si Si1 0.332106 0.861382 0.537700
Si Si2 0.665992 0.252384 0.771721
Si Si3 0.671779 0.869363 0.752779
Si Si4 0.839864 0.299114 0.592552
Si Si5 0.832266 0.337645 0.938833
Si Si6 0.164024 0.478200 0.477298
Si Si7 0.333669 0.052399 0.870412
Si Si8 0.333651 0.706286 0.884553
O O1 0.500000 0.884524 0.531171
O O2 0.271683 0.874695 0.644623
O O3 0.299075 0.752130 0.507092
O O4 0.251740 0.936374 0.469189
O O5 0.500000 0.281263 0.777550
O O6 0.719444 0.262553 0.664175
O O7 0.755132 0.325141 0.837529
O O8 0.692979 0.143579 0.803236
O O9 0.500000 0.866686 0.752081
O O10 0.738896 0.773654 0.803902
O O11 0.726168 0.961260 0.812203
O O12 0.829077 0.414780 0.574496
O O13 0.812812 0.246574 0.490219
O O14 0.000000 0.273948 0.630993
O O15 0.769560 0.432265 0.988897
O O16 0.000000 0.351126 0.920741
O O17 0.217039 0.406217 0.390320
O O18 0.000000 0.513237 0.459740
O O19 0.500000 0.040191 0.896766
O O20 0.500000 0.703174 0.859579
#
# Coordination Sequence:
#
# PCOD8169786 Si02
#       8
#     4   4   4   4   4   4   4   4
#     4   9  19  34  52  75 102 134 171 210 249 300
#     4  10  19  31  48  72  99 132 170 207 250 301
#     4   9  16  32  55  76 100 133 171 209 252 305
#     4   8  16  31  49  71  99 128 163 204 250 298
#     4  10  19  32  50  72 102 135 170 209 252 302
#     4   8  16  32  50  71 100 132 164 204 254 301
#     4   9  19  33  51  74 101 132 167 208 256 302
#     4   7  14  29  49  71  99 130 162 199 247 303
#
# _framework density 17.615715999999999
#
# number of rings (size 3 to 8) (size 9 to 14) (size 15 to 20)
#    0.750    2.500    0.000    0.750    0.000    2.500 
#    2.250    0.625    0.000    2.250    0.000    0.000 
#    0.000    0.000    0.000    0.000    0.000    0.000 
#
# Total GULP energy -396451.331270 kJ/mol
# GULP energy per Si atom -12389.104102 kJ/mol
# Density = 1.757562 g / cm^3
# Si number density = 17.615716 Si / 1000 Ang^3
#
#
#
# Elastic Constant Matrix: (Units=GPa)
#
#
# Indices 1 2 3 4 5 6 
#
# 1 60.9197 35.7406 39.8167 0.0000 0.0000 0.0000
# 2 35.7406 78.5088 51.0300 0.0000 0.0000 0.0000
# 3 39.8167 51.0300 110.3556 0.0000 0.0000 0.0000
# 4 0.0000 0.0000 0.0000 18.9209 0.0000 0.0000
# 5 0.0000 0.0000 0.0000 0.0000 26.9165 0.0000
# 6 0.0000 0.0000 0.0000 0.0000 0.0000 20.3184
#
#
#
# Elastic Compliance Matrix: (Units=1/GPa)
#
#
# Indices 1 2 3 4 5 6 
#
# 1 0.024340 -0.007681 -0.005230 0.000000 0.000000 0.000000
# 2 -0.007681 0.020635 -0.006771 0.000000 0.000000 0.000000
# 3 -0.005230 -0.006771 0.014079 0.000000 0.000000 0.000000
# 4 0.000000 0.000000 0.000000 0.052852 0.000000 0.000000
# 5 0.000000 0.000000 0.000000 0.000000 0.037152 0.000000
# 6 0.000000 0.000000 0.000000 0.000000 0.000000 0.049217
#
#
# Mechanical properties :
#
#
# Convention : Reuss Voigt Hill
#
# Bulk Modulus (GPa) = 50.78497 55.88431 53.33464
# Shear Modulus (GPa) = 20.47494 21.44428 20.95961
#
# Velocity S-wave (km/s) = 3.41297 3.49282 3.45313
# Velocity P-wave (km/s) = 6.66506 6.93249 6.80009
#
# Compressibility (1/GPa) = 0.01969087
#
# Stress axis : x y z
#
# Youngs Moduli (GPa) = 41.08510 48.46145 71.02549
#
# Poissons Ratio (x) = 0.37223 0.37147
# Poissons Ratio (y) = 0.31558 0.48088
# Poissons Ratio (z) = 0.21488 0.32811
#
# Static dielectric constant tensor:
#      x y z
#    x 2.991050 0.000000 0.000000 
#    y 0.000000 3.263380 0.000000 
#    z 0.000000 0.000000 3.260140 
# 
# 
# High freq. dielectric constant tensor:
#      x y z
#    x 1.655210 0.000000 0.000000 
#    y 0.000000 1.674560 0.000000 
#    z 0.000000 0.000000 1.672330 
# 
# From -- ./inp_files/5144.got.cif
#   From: 2010.03.12/outbox.cif.g09.slc.cpg/sg31_3_cif.got.tgz:5144.got - 2010.04.14 01:42:59.
