data_PCOD8169777
_publ_section_title
;
Structure prediction by ZEFSAII (Michael W. Deem and Ramdas Pophale) SiO2 
 PCOD8169777
Probable space group: P M N 21
;
_chemical_formula_sum "Si O2"
_cell_formula_units_Z 32
_cell_length_a 8.862302
_cell_length_b 11.607318
_cell_length_c 17.837878
_cell_angle_alpha 90.000000
_cell_angle_beta 90.000000
_cell_angle_gamma 90.000000
_cell_volume 1834.938941
_symmetry_space_group_name_H-M "P M N 21"
_symmetry_group_IT_number 31
_symmetry_cell_setting 'orthorhombic'
loop_
_space_group_symop_operation_xyz
x,y,z
1/2-x,-y,1/2+z
-x,y,z
1/2+x,-y,1/2+z
loop_
_atom_site_type_symbol
_atom_site_label
_atom_site_fract_x
_atom_site_fract_y
_atom_site_fract_z
Si Si1 0.820682 0.757027 0.387400
Si Si2 0.177506 0.123484 0.583603
Si Si3 0.331161 0.448959 0.676111
Si Si4 0.677697 0.558721 0.461642
Si Si5 0.821687 0.235502 0.737206
Si Si6 0.165855 0.673657 0.016919
Si Si7 0.324133 0.350866 0.109354
Si Si8 0.822052 0.877132 0.538761
O O1 0.737603 0.631496 0.390627
O O2 0.762535 0.815337 0.310362
O O3 0.763619 0.835722 0.457033
O O4 0.000000 0.741882 0.386542
O O5 0.236493 0.161620 0.665680
O O6 0.220493 0.219073 0.521109
O O7 0.000000 0.114566 0.585434
O O8 0.250168 0.000458 0.561003
O O9 0.500000 0.450653 0.709729
O O10 0.225437 0.368951 0.727078
O O11 0.330921 0.401404 0.592174
O O12 0.267194 0.580223 0.673743
O O13 0.500000 0.582377 0.477286
O O14 0.704686 0.419997 0.451503
O O15 0.784778 0.601230 0.528040
O O16 0.000000 0.226570 0.747189
O O17 0.000000 0.726519 0.004041
O O18 0.500000 0.369631 0.125094
O O19 0.281928 0.214570 0.104939
O O20 0.000000 0.889890 0.532464
#
# Coordination Sequence:
#
# PCOD8169777 Si02
#       8
#     4   4   4   4   4   4   4   4
#     4  10  19  31  48  68  93 122 152 192 242 292
#     4   9  17  30  48  68  91 123 163 199 229 274
#     4   9  16  27  43  64  91 118 146 182 227 275
#     4   9  16  27  43  64  91 117 145 183 228 276
#     4  10  19  30  47  70  94 120 153 194 240 290
#     4   8  15  26  41  64  91 115 140 181 229 265
#     4   9  15  25  43  66  91 117 148 185 228 273
#     4   8  16  30  47  68  92 122 161 200 235 273
#
# _framework density 17.439274000000001
#
# number of rings (size 3 to 8) (size 9 to 14) (size 15 to 20)
#    0.000    3.000    0.000    3.375    0.000    4.000 
#    0.000    3.750    0.000    1.500    0.000    5.250 
#    0.000    0.000    0.000    0.000    0.000    0.000 
#
# Total GULP energy -396453.827230 kJ/mol
# GULP energy per Si atom -12389.182101 kJ/mol
# Density = 1.739958 g / cm^3
# Si number density = 17.439274 Si / 1000 Ang^3
#
#
#
# Elastic Constant Matrix: (Units=GPa)
#
#
# Indices 1 2 3 4 5 6 
#
# 1 53.5417 34.6115 18.9537 0.0000 0.0000 0.0000
# 2 34.6115 130.1874 43.0393 0.0000 0.0000 0.0000
# 3 18.9537 43.0393 60.4308 0.0000 0.0000 0.0000
# 4 0.0000 0.0000 0.0000 16.4336 0.0000 0.0000
# 5 0.0000 0.0000 0.0000 0.0000 22.1487 0.0000
# 6 0.0000 0.0000 0.0000 0.0000 0.0000 18.3311
#
#
#
# Elastic Compliance Matrix: (Units=1/GPa)
#
#
# Indices 1 2 3 4 5 6 
#
# 1 0.023192 -0.004919 -0.003770 0.000000 0.000000 0.000000
# 2 -0.004919 0.011090 -0.006356 0.000000 0.000000 0.000000
# 3 -0.003770 -0.006356 0.022257 0.000000 0.000000 0.000000
# 4 0.000000 0.000000 0.000000 0.060851 0.000000 0.000000
# 5 0.000000 0.000000 0.000000 0.000000 0.045149 0.000000
# 6 0.000000 0.000000 0.000000 0.000000 0.000000 0.054552
#
#
# Mechanical properties :
#
#
# Convention : Reuss Voigt Hill
#
# Bulk Modulus (GPa) = 37.80963 48.59657 43.20310
# Shear Modulus (GPa) = 19.53141 21.21971 20.37556
#
# Velocity S-wave (km/s) = 3.35022 3.49202 3.42185
# Velocity P-wave (km/s) = 6.05748 6.64722 6.35919
#
# Compressibility (1/GPa) = 0.02644829
#
# Stress axis : x y z
#
# Youngs Moduli (GPa) = 43.11878 90.16962 44.92977
#
# Poissons Ratio (x) = 0.44357 0.16940
# Poissons Ratio (y) = 0.21211 0.28556
# Poissons Ratio (z) = 0.16258 0.57309
#
# Static dielectric constant tensor:
#      x y z
#    x 3.177510 0.000000 0.000000 
#    y 0.000000 3.623460 0.000000 
#    z 0.000000 0.000000 3.111520 
# 
# 
# High freq. dielectric constant tensor:
#      x y z
#    x 1.671260 0.000000 0.000000 
#    y 0.000000 1.664620 0.000000 
#    z 0.000000 0.000000 1.632890 
# 
# From -- ./inp_files/5893.got.cif
#   From: 2010.03.12/outbox.cif.g09.slc.cpg/sg31_3_cif.got.tgz:5893.got - 2010.04.14 01:42:59.
