data_PCOD8169269
_publ_section_title
;
Structure prediction by ZEFSAII (Michael W. Deem and Ramdas Pophale) SiO2 
 PCOD8169269
Probable space group: P C A 21
;
_chemical_formula_sum "Si O2"
_cell_formula_units_Z 32
_cell_length_a 14.931216
_cell_length_b 11.173911
_cell_length_c 8.532888
_cell_angle_alpha 90.000000
_cell_angle_beta 90.000000
_cell_angle_gamma 90.000000
_cell_volume 1423.627706
_symmetry_space_group_name_H-M "P C A 21"
_symmetry_group_IT_number 29
_symmetry_cell_setting 'orthorhombic'
loop_
_space_group_symop_operation_xyz
x,y,z
-x,-y,1/2+z
1/2-x,y,1/2+z
1/2+x,-y,z
loop_
_atom_site_type_symbol
_atom_site_label
_atom_site_fract_x
_atom_site_fract_y
_atom_site_fract_z
Si Si1 0.508588 0.337600 0.853000
Si Si2 0.465431 0.123741 0.061014
Si Si3 0.678585 0.052883 0.655406
Si Si4 0.433908 0.238525 0.381338
Si Si5 0.853612 0.515927 0.481927
Si Si6 0.859538 0.990503 0.508612
Si Si7 0.337610 0.495449 0.849383
Si Si8 0.400182 0.717009 0.039711
O O1 0.596625 0.393411 0.934410
O O2 0.419148 0.410108 0.897878
O O3 0.532751 0.339741 0.669843
O O4 0.486658 0.201965 0.906743
O O5 0.431896 0.214520 0.196144
O O6 0.385659 0.027453 0.044348
O O7 0.554761 0.047365 0.095794
O O8 0.672357 0.192866 0.611861
O O9 0.778980 0.009615 0.627956
O O10 0.654997 0.048095 0.838208
O O11 0.416301 0.375512 0.426395
O O12 0.369396 0.151931 0.481126
O O13 0.536215 0.208330 0.424578
O O14 0.760304 0.549156 0.398324
O O15 0.836649 0.497489 0.663706
O O16 0.347426 0.620214 0.938909
#
# Coordination Sequence:
#
# PCOD8169269 Si02
#       8
#     4   4   4   4   4   4   4   4
#     4  12  25  47  72 101 146 187 241 294 361 430
#     4  11  26  46  72 104 144 191 239 299 365 429
#     4  11  27  45  70 109 143 190 242 297 365 432
#     4  11  25  46  74 100 145 187 237 300 363 430
#     4  12  28  47  69 110 141 190 245 293 371 429
#     4  11  26  46  71 107 142 187 239 300 360 435
#     4  12  27  44  73 102 146 187 238 303 353 437
#     4  12  24  47  73 101 143 189 237 298 360 428
#
# _framework density 22.477785000000001
#
# number of rings (size 3 to 8) (size 9 to 14) (size 15 to 20)
#    0.000    0.500    5.000    1.500    8.750    3.000 
#    0.000    0.000    0.000    0.000    0.000    0.000 
#    0.000    0.000    0.000    0.000    0.000    0.000 
#
# Total GULP energy -396719.174529 kJ/mol
# GULP energy per Si atom -12397.474204 kJ/mol
# Density = 2.242662 g / cm^3
# Si number density = 22.477785 Si / 1000 Ang^3
#
#
#
# Elastic Constant Matrix: (Units=GPa)
#
#
# Indices 1 2 3 4 5 6 
#
# 1 115.0440 12.8546 8.1121 0.0000 0.0000 0.0000
# 2 12.8546 84.2627 27.3795 0.0000 0.0000 0.0000
# 3 8.1121 27.3795 76.8641 0.0000 0.0000 0.0000
# 4 0.0000 0.0000 0.0000 32.6743 0.0000 0.0000
# 5 0.0000 0.0000 0.0000 0.0000 30.9576 0.0000
# 6 0.0000 0.0000 0.0000 0.0000 0.0000 35.9836
#
#
#
# Elastic Compliance Matrix: (Units=1/GPa)
#
#
# Indices 1 2 3 4 5 6 
#
# 1 0.008861 -0.001185 -0.000513 0.000000 0.000000 0.000000
# 2 -0.001185 0.013580 -0.004712 0.000000 0.000000 0.000000
# 3 -0.000513 -0.004712 0.014743 0.000000 0.000000 0.000000
# 4 0.000000 0.000000 0.000000 0.030605 0.000000 0.000000
# 5 0.000000 0.000000 0.000000 0.000000 0.032302 0.000000
# 6 0.000000 0.000000 0.000000 0.000000 0.000000 0.027790
#
#
# Mechanical properties :
#
#
# Convention : Reuss Voigt Hill
#
# Bulk Modulus (GPa) = 41.04632 41.42925 41.23779
# Shear Modulus (GPa) = 33.59716 35.11139 34.35428
#
# Velocity S-wave (km/s) = 3.87031 3.95656 3.91367
# Velocity P-wave (km/s) = 6.18651 6.27246 6.22963
#
# Compressibility (1/GPa) = 0.02436272
#
# Stress axis : x y z
#
# Youngs Moduli (GPa) = 112.85516 73.64034 67.83069
#
# Poissons Ratio (x) = 0.08727 0.03480
# Poissons Ratio (y) = 0.13374 0.31962
# Poissons Ratio (z) = 0.05790 0.34700
#
# Static dielectric constant tensor:
#      x y z
#    x 4.190980 0.000000 0.000000 
#    y 0.000000 4.004450 0.000000 
#    z 0.000000 0.000000 3.964140 
# 
# 
# High freq. dielectric constant tensor:
#      x y z
#    x 1.895620 0.000000 0.000000 
#    y 0.000000 1.889890 0.000000 
#    z 0.000000 0.000000 1.888870 
# 
# From -- ./inp_files/1852.got.cif
#   From: 2010.03.12/outbox.cif.g09.slc.cpg/sg29_1_cif.got.tgz:1852.got - 2010.04.14 03:43:10.
