data_PCOD8169854
_publ_section_title
;
Structure prediction by ZEFSAII (Michael W. Deem and Ramdas Pophale) SiO2 
 PCOD8169854
Probable space group: P M N 21
;
_chemical_formula_sum "Si O2"
_cell_formula_units_Z 32
_cell_length_a 8.839964
_cell_length_b 14.177038
_cell_length_c 14.197196
_cell_angle_alpha 90.000000
_cell_angle_beta 90.000000
_cell_angle_gamma 90.000000
_cell_volume 1779.256569
_symmetry_space_group_name_H-M "P M N 21"
_symmetry_group_IT_number 31
_symmetry_cell_setting 'orthorhombic'
loop_
_space_group_symop_operation_xyz
x,y,z
1/2-x,-y,1/2+z
-x,y,z
1/2+x,-y,1/2+z
loop_
_atom_site_type_symbol
_atom_site_label
_atom_site_fract_x
_atom_site_fract_y
_atom_site_fract_z
Si Si1 0.320423 0.147942 0.828730
Si Si2 0.177073 0.507580 0.964356
Si Si3 0.680265 0.001017 0.461428
Si Si4 0.820981 0.142586 0.322129
Si Si5 0.178089 0.351008 0.815992
Si Si6 0.821725 0.509888 0.178631
Si Si7 0.177799 0.993507 0.172011
Si Si8 0.322468 0.644227 0.827251
O O1 0.500000 0.143959 0.839424
O O2 0.264483 0.253994 0.828570
O O3 0.266443 0.096839 0.732254
O O4 0.247477 0.093739 0.916575
O O5 0.224696 0.415555 0.905032
O O6 0.252603 0.600969 0.921892
O O7 0.000000 0.523619 0.958508
O O8 0.230959 0.494065 0.071525
O O9 0.500000 0.995553 0.458058
O O10 0.736554 0.094861 0.409518
O O11 0.746743 0.007053 0.567557
O O12 0.763348 0.249652 0.313138
O O13 0.000000 0.135190 0.339726
O O14 0.774616 0.089287 0.226005
O O15 0.233267 0.400376 0.720014
O O16 0.000000 0.332929 0.810981
O O17 0.774315 0.416251 0.235901
O O18 0.000000 0.529643 0.186370
O O19 0.000000 0.988630 0.161984
O O20 0.500000 0.643508 0.840568
#
# Coordination Sequence:
#
# PCOD8169854 Si02
#       8
#     4   4   4   4   4   4   4   4
#     4  10  20  36  54  74 102 136 168 203 250 306
#     4   9  19  34  52  73 101 133 166 204 250 300
#     4  10  19  33  53  76  99 128 166 209 248 290
#     4   9  18  34  52  72  99 132 165 202 247 298
#     4  10  20  34  52  77 104 132 168 213 254 293
#     4   9  18  34  53  73  98 134 172 205 245 299
#     4   8  17  33  52  71  96 130 166 200 242 294
#     4   9  18  32  52  74  97 127 167 208 246 290
#
# _framework density 17.985040000000001
#
# number of rings (size 3 to 8) (size 9 to 14) (size 15 to 20)
#    0.000    2.750    0.000    1.875    0.000    3.500 
#    0.000   13.750    0.000    3.000    0.000    0.000 
#    0.000    0.000    0.000    0.000    0.000    0.000 
#
# Total GULP energy -396789.108694 kJ/mol
# GULP energy per Si atom -12399.659647 kJ/mol
# Density = 1.794410 g / cm^3
# Si number density = 17.985040 Si / 1000 Ang^3
#
#
#
# Elastic Constant Matrix: (Units=GPa)
#
#
# Indices 1 2 3 4 5 6 
#
# 1 43.2090 35.2037 33.6622 0.0000 0.0000 0.0000
# 2 35.2037 141.7863 65.7553 0.0000 0.0000 0.0000
# 3 33.6622 65.7553 158.8843 0.0000 0.0000 0.0000
# 4 0.0000 0.0000 0.0000 13.3004 0.0000 0.0000
# 5 0.0000 0.0000 0.0000 0.0000 27.3755 0.0000
# 6 0.0000 0.0000 0.0000 0.0000 0.0000 30.5704
#
#
#
# Elastic Compliance Matrix: (Units=1/GPa)
#
#
# Indices 1 2 3 4 5 6 
#
# 1 0.031126 -0.005779 -0.004203 0.000000 0.000000 0.000000
# 2 -0.005779 0.009801 -0.002832 0.000000 0.000000 0.000000
# 3 -0.004203 -0.002832 0.008356 0.000000 0.000000 0.000000
# 4 0.000000 0.000000 0.000000 0.075186 0.000000 0.000000
# 5 0.000000 0.000000 0.000000 0.000000 0.036529 0.000000
# 6 0.000000 0.000000 0.000000 0.000000 0.000000 0.032711
#
#
# Mechanical properties :
#
#
# Convention : Reuss Voigt Hill
#
# Bulk Modulus (GPa) = 42.27290 68.12465 55.19877
# Shear Modulus (GPa) = 22.00491 28.19983 25.10237
#
# Velocity S-wave (km/s) = 3.50167 3.96404 3.74001
# Velocity P-wave (km/s) = 6.31699 7.67543 7.02911
#
# Compressibility (1/GPa) = 0.02365582
#
# Stress axis : x y z
#
# Youngs Moduli (GPa) = 32.12761 102.03012 119.67021
#
# Poissons Ratio (x) = 0.58964 0.50295
# Poissons Ratio (y) = 0.18567 0.33889
# Poissons Ratio (z) = 0.13503 0.28893
#
# Static dielectric constant tensor:
#      x y z
#    x 3.187470 0.000000 0.000000 
#    y 0.000000 3.435390 0.000000 
#    z 0.000000 0.000000 3.645670 
# 
# 
# High freq. dielectric constant tensor:
#      x y z
#    x 1.685900 0.000000 0.000000 
#    y 0.000000 1.700060 0.000000 
#    z 0.000000 0.000000 1.699780 
# 
# From -- ./inp_files/5145.got.cif
#   From: 2010.03.12/outbox.cif.g09.slc.cpg/sg31_3_cif.got.tgz:5145.got - 2010.04.14 01:42:59.
