data_PCOD8169256
_publ_section_title
;
Structure prediction by ZEFSAII (Michael W. Deem and Ramdas Pophale) SiO2 
 PCOD8169256
Probable space group: P C A 21
;
_chemical_formula_sum "Si O2"
_cell_formula_units_Z 32
_cell_length_a 23.269639
_cell_length_b 5.086279
_cell_length_c 10.592628
_cell_angle_alpha 90.000000
_cell_angle_beta 90.000000
_cell_angle_gamma 90.000000
_cell_volume 1253.699768
_symmetry_space_group_name_H-M "P C A 21"
_symmetry_group_IT_number 29
_symmetry_cell_setting 'orthorhombic'
loop_
_space_group_symop_operation_xyz
x,y,z
-x,-y,1/2+z
1/2-x,y,1/2+z
1/2+x,-y,z
loop_
_atom_site_type_symbol
_atom_site_label
_atom_site_fract_x
_atom_site_fract_y
_atom_site_fract_z
Si Si1 0.846913 0.179816 0.263130
Si Si2 0.005781 0.897194 0.117683
Si Si3 0.307958 0.388651 0.629788
Si Si4 0.871743 0.089078 0.715363
Si Si5 0.081939 0.302313 0.796235
Si Si6 0.751883 0.509067 0.371872
Si Si7 0.641395 0.263519 0.474193
Si Si8 0.986195 0.409491 0.984578
O O1 0.890599 0.412363 0.298126
O O2 0.785123 0.245422 0.324449
O O3 0.844848 0.144443 0.111234
O O4 0.868319 0.910217 0.327411
O O5 0.060720 0.850984 0.205413
O O6 0.013135 0.703411 0.996861
O O7 0.945421 0.767639 0.161958
O O8 0.994370 0.207314 0.102169
O O9 0.333717 0.677556 0.654610
O O10 0.259173 0.329054 0.739410
O O11 0.287010 0.352599 0.485314
O O12 0.358594 0.176637 0.640267
O O13 0.857899 0.042270 0.863928
O O14 0.026495 0.267397 0.883414
O O15 0.691448 0.462938 0.438664
O O16 0.581479 0.419082 0.455665
#
# Coordination Sequence:
#
# PCOD8169256 Si02
#       8
#     4   4   4   4   4   4   4   4
#     4  12  27  48  76 110 154 198 257 320 390 455
#     4  12  24  45  71 110 148 194 243 307 381 469
#     4  11  27  48  77 108 150 204 256 323 382 451
#     4  11  27  46  75 110 152 198 251 311 393 461
#     4  12  26  47  72 112 147 197 247 313 387 460
#     4  11  27  53  76 111 151 206 266 324 382 464
#     4  11  24  51  75 109 148 202 254 317 380 461
#     4  12  26  44  74 110 154 195 248 311 385 461
#
# _framework density 25.524452
#
# number of rings (size 3 to 8) (size 9 to 14) (size 15 to 20)
#    0.000    0.500    5.000    1.500    5.250    8.000 
#    0.000    0.000    0.000    0.000    0.000    0.000 
#    0.000    0.000    0.000    0.000    0.000    0.000 
#
# Total GULP energy -396470.634996 kJ/mol
# GULP energy per Si atom -12389.707344 kJ/mol
# Density = 2.546636 g / cm^3
# Si number density = 25.524452 Si / 1000 Ang^3
#
#
#
# Elastic Constant Matrix: (Units=GPa)
#
#
# Indices 1 2 3 4 5 6 
#
# 1 97.3171 17.9768 49.5500 0.0000 0.0000 0.0000
# 2 17.9768 83.0058 22.7369 0.0000 0.0000 0.0000
# 3 49.5500 22.7369 96.1839 0.0000 0.0000 0.0000
# 4 0.0000 0.0000 0.0000 23.2970 0.0000 0.0000
# 5 0.0000 0.0000 0.0000 0.0000 43.5649 0.0000
# 6 0.0000 0.0000 0.0000 0.0000 0.0000 15.4478
#
#
#
# Elastic Compliance Matrix: (Units=1/GPa)
#
#
# Indices 1 2 3 4 5 6 
#
# 1 0.014028 -0.001132 -0.006959 0.000000 0.000000 0.000000
# 2 -0.001132 0.012973 -0.002484 0.000000 0.000000 0.000000
# 3 -0.006959 -0.002484 0.014569 0.000000 0.000000 0.000000
# 4 0.000000 0.000000 0.000000 0.042924 0.000000 0.000000
# 5 0.000000 0.000000 0.000000 0.000000 0.022954 0.000000
# 6 0.000000 0.000000 0.000000 0.000000 0.000000 0.064734
#
#
# Mechanical properties :
#
#
# Convention : Reuss Voigt Hill
#
# Bulk Modulus (GPa) = 48.96999 50.78160 49.87580
# Shear Modulus (GPa) = 24.98277 28.87815 26.93046
#
# Velocity S-wave (km/s) = 3.13194 3.36727 3.25173
# Velocity P-wave (km/s) = 5.68383 5.92085 5.80355
#
# Compressibility (1/GPa) = 0.02042067
#
# Stress axis : x y z
#
# Youngs Moduli (GPa) = 71.28560 77.08457 68.63940
#
# Poissons Ratio (x) = 0.08725 0.47767
# Poissons Ratio (y) = 0.08068 0.17047
# Poissons Ratio (z) = 0.49609 0.19144
#
# Static dielectric constant tensor:
#      x y z
#    x 4.860870 0.000000 0.000000 
#    y 0.000000 4.305030 0.000000 
#    z 0.000000 0.000000 4.903240 
# 
# 
# High freq. dielectric constant tensor:
#      x y z
#    x 2.039770 0.000000 0.000000 
#    y 0.000000 1.998970 0.000000 
#    z 0.000000 0.000000 2.024230 
# 
# From -- ./inp_files/3836.got.cif
#   From: 2010.03.12/outbox.cif.g09.slc.cpg/sg29_2_cif.got.tgz:3836.got - 2010.04.14 03:43:10.
