data_PCOD8169930
_publ_section_title
;
Structure prediction by ZEFSAII (Michael W. Deem and Ramdas Pophale) SiO2 
 PCOD8169930
Probable space group: P M N 21
;
_chemical_formula_sum "Si O2"
_cell_formula_units_Z 32
_cell_length_a 8.945282
_cell_length_b 11.687376
_cell_length_c 14.486485
_cell_angle_alpha 90.000000
_cell_angle_beta 90.000000
_cell_angle_gamma 90.000000
_cell_volume 1514.516724
_symmetry_space_group_name_H-M "P M N 21"
_symmetry_group_IT_number 31
_symmetry_cell_setting 'orthorhombic'
loop_
_space_group_symop_operation_xyz
x,y,z
1/2-x,-y,1/2+z
-x,y,z
1/2+x,-y,1/2+z
loop_
_atom_site_type_symbol
_atom_site_label
_atom_site_fract_x
_atom_site_fract_y
_atom_site_fract_z
Si Si1 0.829347 0.066765 0.998410
Si Si2 0.676454 0.130814 0.820505
Si Si3 0.676122 0.657260 0.730894
Si Si4 0.672910 0.719864 0.180511
Si Si5 0.326080 0.414314 0.409805
Si Si6 0.324402 0.914579 0.705255
Si Si7 0.676470 0.484806 0.082968
Si Si8 0.667224 0.187706 0.515647
O O1 0.733451 0.138136 0.925395
O O2 0.000000 0.110609 0.995229
O O3 0.760211 0.080996 0.100882
O O4 0.817400 0.934429 0.967060
O O5 0.500000 0.130768 0.821526
O O6 0.734806 0.245983 0.771280
O O7 0.741474 0.017236 0.768336
O O8 0.500000 0.634643 0.728338
O O9 0.749755 0.577626 0.809689
O O10 0.712857 0.790932 0.749132
O O11 0.747680 0.623745 0.632187
O O12 0.500000 0.731264 0.203882
O O13 0.716310 0.593298 0.147085
O O14 0.715563 0.807296 0.099014
O O15 0.500000 0.446948 0.401380
O O16 0.247373 0.500534 0.481393
O O17 0.299132 0.284179 0.440733
O O18 0.500000 0.935094 0.697645
O O19 0.500000 0.467156 0.072223
O O20 0.500000 0.203599 0.557264
#
# Coordination Sequence:
#
# PCOD8169930 Si02
#       8
#     4   4   4   4   4   4   4   4
#     4  10  19  35  55  81 117 157 192 229 285 346
#     4  11  21  36  57  85 118 153 192 235 287 348
#     4  11  22  39  62  88 118 159 201 243 296 353
#     4  10  20  35  57  82 109 144 188 238 290 340
#     4  10  20  36  61  92 118 152 197 245 297 351
#     4   9  20  38  59  83 120 160 190 233 293 350
#     4  10  22  41  62  86 116 152 197 250 296 346
#     4   9  17  32  57  83 114 151 189 235 282 336
#
# _framework density 21.128851999999998
#
# number of rings (size 3 to 8) (size 9 to 14) (size 15 to 20)
#    0.000    2.000    1.250    2.625    0.000    2.500 
#    2.250    3.125    0.000    0.000    0.000    0.000 
#    0.000    0.000    0.000    0.000    0.000    0.000 
#
# Total GULP energy -396818.563996 kJ/mol
# GULP energy per Si atom -12400.580125 kJ/mol
# Density = 2.108076 g / cm^3
# Si number density = 21.128852 Si / 1000 Ang^3
#
#
#
# Elastic Constant Matrix: (Units=GPa)
#
#
# Indices 1 2 3 4 5 6 
#
# 1 78.0412 11.7873 26.8138 0.0000 0.0000 0.0000
# 2 11.7873 23.8447 -0.4875 0.0000 0.0000 0.0000
# 3 26.8138 -0.4875 92.6052 0.0000 0.0000 0.0000
# 4 0.0000 0.0000 0.0000 28.6500 0.0000 0.0000
# 5 0.0000 0.0000 0.0000 0.0000 38.7083 0.0000
# 6 0.0000 0.0000 0.0000 0.0000 0.0000 23.3932
#
#
#
# Elastic Compliance Matrix: (Units=1/GPa)
#
#
# Indices 1 2 3 4 5 6 
#
# 1 0.015550 -0.007780 -0.004543 0.000000 0.000000 0.000000
# 2 -0.007780 0.045835 0.002494 0.000000 0.000000 0.000000
# 3 -0.004543 0.002494 0.012127 0.000000 0.000000 0.000000
# 4 0.000000 0.000000 0.000000 0.034904 0.000000 0.000000
# 5 0.000000 0.000000 0.000000 0.000000 0.025834 0.000000
# 6 0.000000 0.000000 0.000000 0.000000 0.000000 0.042747
#
#
# Mechanical properties :
#
#
# Convention : Reuss Voigt Hill
#
# Bulk Modulus (GPa) = 18.56897 30.07985 24.32441
# Shear Modulus (GPa) = 23.29839 28.57547 25.93693
#
# Velocity S-wave (km/s) = 3.32427 3.68154 3.50746
# Velocity P-wave (km/s) = 4.85199 5.68673 5.28587
#
# Compressibility (1/GPa) = 0.05385329
#
# Stress axis : x y z
#
# Youngs Moduli (GPa) = 64.30936 21.81750 82.45929
#
# Poissons Ratio (x) = 0.16973 0.37465
# Poissons Ratio (y) = 0.50031 -0.20564
# Poissons Ratio (z) = 0.29218 -0.05441
#
# Static dielectric constant tensor:
#      x y z
#    x 3.630520 0.000000 0.000000 
#    y 0.000000 3.712200 0.000000 
#    z 0.000000 0.000000 3.752290 
# 
# 
# High freq. dielectric constant tensor:
#      x y z
#    x 1.815290 0.000000 0.000000 
#    y 0.000000 1.815540 0.000000 
#    z 0.000000 0.000000 1.829340 
# 
# From -- ./inp_files/5044.got.cif
#   From: 2010.03.12/outbox.cif.g09.slc.cpg/sg31_3_cif.got.tgz:5044.got - 2010.04.14 01:42:59.
