data_PCOD8169995
_publ_section_title
;
Structure prediction by ZEFSAII (Michael W. Deem and Ramdas Pophale) SiO2 
 PCOD8169995
Probable space group: P M N 21
;
_chemical_formula_sum "Si O2"
_cell_formula_units_Z 24
_cell_length_a 8.936083
_cell_length_b 7.468165
_cell_length_c 18.714457
_cell_angle_alpha 90.000000
_cell_angle_beta 90.000000
_cell_angle_gamma 90.000000
_cell_volume 1248.930665
_symmetry_space_group_name_H-M "P M N 21"
_symmetry_group_IT_number 31
_symmetry_cell_setting 'orthorhombic'
loop_
_space_group_symop_operation_xyz
x,y,z
1/2-x,-y,1/2+z
-x,y,z
1/2+x,-y,1/2+z
loop_
_atom_site_type_symbol
_atom_site_label
_atom_site_fract_x
_atom_site_fract_y
_atom_site_fract_z
Si Si1 0.172637 0.569141 0.695550
Si Si2 0.173070 0.263097 0.805047
Si Si3 0.822825 0.971589 0.693308
Si Si4 0.173601 0.105062 0.540750
Si Si5 0.676564 0.465044 0.552497
Si Si6 0.673097 0.243719 0.955075
O O1 0.192067 0.455009 0.767268
O O2 0.267627 0.476885 0.633626
O O3 0.000000 0.572081 0.670295
O O4 0.231207 0.770120 0.710766
O O5 0.237070 0.106365 0.753860
O O6 0.273267 0.266849 0.874764
O O7 0.000000 0.228805 0.825196
O O8 0.761789 0.028794 0.615640
O O9 0.000000 0.982842 0.691944
O O10 0.264134 0.281121 0.517899
O O11 0.000000 0.155826 0.548957
O O12 0.199291 0.960497 0.478735
O O13 0.500000 0.465379 0.550559
O O14 0.734345 0.631153 0.507385
O O15 0.500000 0.297327 0.961087
#
# Coordination Sequence:
#
# PCOD8169995 Si02
#       6
#     4   4   4   4   4   4
#     4  10  19  37  63  89 119 161 204 240 292 366
#     4  10  21  37  59  89 125 157 194 247 305 361
#     4   9  17  34  62  88 112 151 202 244 287 354
#     4  10  20  39  65  88 114 159 207 246 296 360
#     4  12  24  37  60  93 125 157 200 256 304 353
#     4  11  24  42  63  87 123 163 203 249 302 366
#
# _framework density 19.216439999999999
#
# number of rings (size 3 to 8) (size 9 to 14) (size 15 to 20)
#    0.000    1.667    3.333    2.000    0.000    3.333 
#    0.000    2.500    0.000    0.000    0.000    0.000 
#    0.000    0.000    0.000    0.000    0.000    0.000 
#
# Total GULP energy -297690.617923 kJ/mol
# GULP energy per Si atom -12403.775747 kJ/mol
# Density = 1.917270 g / cm^3
# Si number density = 19.216440 Si / 1000 Ang^3
#
#
#
# Elastic Constant Matrix: (Units=GPa)
#
#
# Indices 1 2 3 4 5 6 
#
# 1 90.7211 37.0660 28.9544 0.0000 0.0000 0.0000
# 2 37.0660 95.0252 4.4232 0.0000 0.0000 0.0000
# 3 28.9544 4.4232 72.0216 0.0000 0.0000 0.0000
# 4 0.0000 0.0000 0.0000 27.7601 0.0000 0.0000
# 5 0.0000 0.0000 0.0000 0.0000 32.1770 0.0000
# 6 0.0000 0.0000 0.0000 0.0000 0.0000 17.3639
#
#
#
# Elastic Compliance Matrix: (Units=1/GPa)
#
#
# Indices 1 2 3 4 5 6 
#
# 1 0.015166 -0.005648 -0.005750 0.000000 0.000000 0.000000
# 2 -0.005648 0.012657 0.001493 0.000000 0.000000 0.000000
# 3 -0.005750 0.001493 0.016105 0.000000 0.000000 0.000000
# 4 0.000000 0.000000 0.000000 0.036023 0.000000 0.000000
# 5 0.000000 0.000000 0.000000 0.000000 0.031078 0.000000
# 6 0.000000 0.000000 0.000000 0.000000 0.000000 0.057591
#
#
# Mechanical properties :
#
#
# Convention : Reuss Voigt Hill
#
# Bulk Modulus (GPa) = 41.46295 44.29500 42.87897
# Shear Modulus (GPa) = 25.44946 27.94848 26.69897
#
# Velocity S-wave (km/s) = 3.64312 3.81780 3.73148
# Velocity P-wave (km/s) = 6.27057 6.52187 6.39746
#
# Compressibility (1/GPa) = 0.02411792
#
# Stress axis : x y z
#
# Youngs Moduli (GPa) = 65.93898 79.00730 62.09377
#
# Poissons Ratio (x) = 0.44622 0.35704
# Poissons Ratio (y) = 0.37242 -0.09272
# Poissons Ratio (z) = 0.37915 -0.11798
#
# Static dielectric constant tensor:
#      x y z
#    x 3.305790 0.000000 0.000000 
#    y 0.000000 3.856750 0.000000 
#    z 0.000000 0.000000 3.445890 
# 
# 
# High freq. dielectric constant tensor:
#      x y z
#    x 1.723790 0.000000 0.000000 
#    y 0.000000 1.766000 0.000000 
#    z 0.000000 0.000000 1.741210 
# 
# From -- ./inp_files/5705.got.cif
#   From: 2010.03.12/outbox.cif.g09.slc.cpg/sg31_3_cif.got.tgz:5705.got - 2010.04.14 01:42:59.
