data_PCOD8169886
_publ_section_title
;
Structure prediction by ZEFSAII (Michael W. Deem and Ramdas Pophale) SiO2 
 PCOD8169886
Probable space group: P M N 21
;
_chemical_formula_sum "Si O2"
_cell_formula_units_Z 32
_cell_length_a 8.728810
_cell_length_b 11.287088
_cell_length_c 16.091645
_cell_angle_alpha 90.000000
_cell_angle_beta 90.000000
_cell_angle_gamma 90.000000
_cell_volume 1585.394672
_symmetry_space_group_name_H-M "P M N 21"
_symmetry_group_IT_number 31
_symmetry_cell_setting 'orthorhombic'
loop_
_space_group_symop_operation_xyz
x,y,z
1/2-x,-y,1/2+z
-x,y,z
1/2+x,-y,1/2+z
loop_
_atom_site_type_symbol
_atom_site_label
_atom_site_fract_x
_atom_site_fract_y
_atom_site_fract_z
Si Si1 0.320169 0.313959 0.532020
Si Si2 0.322332 0.435302 0.046644
Si Si3 0.830365 0.067054 0.085638
Si Si4 0.323693 0.862208 0.147606
Si Si5 0.824648 0.739545 0.688964
Si Si6 0.327469 0.759485 0.437611
Si Si7 0.677724 0.179218 0.366743
Si Si8 0.320404 0.069285 0.816694
O O1 0.500000 0.296228 0.542876
O O2 0.282000 0.451832 0.529756
O O3 0.233774 0.263443 0.613346
O O4 0.261675 0.249326 0.447841
O O5 0.500000 0.469382 0.038483
O O6 0.286000 0.381658 0.138796
O O7 0.279692 0.342455 0.974789
O O8 0.784894 0.156796 0.158439
O O9 0.000000 0.017996 0.105824
O O10 0.709550 0.959165 0.075603
O O11 0.830375 0.129569 0.998013
O O12 0.500000 0.853633 0.173543
O O13 0.222305 0.918691 0.220589
O O14 0.797707 0.730877 0.788227
O O15 0.000000 0.775195 0.668920
O O16 0.500000 0.710898 0.421936
O O17 0.256205 0.811981 0.354039
O O18 0.500000 0.147585 0.376898
O O19 0.762723 0.054687 0.354607
O O20 0.500000 0.075549 0.831067
#
# Coordination Sequence:
#
# PCOD8169886 Si02
#       8
#     4   4   4   4   4   4   4   4
#     4  11  24  42  62  87 123 165 209 256 307 364
#     4  10  21  40  63  88 120 159 209 256 300 359
#     4  10  19  33  57  89 120 152 193 241 295 354
#     4  12  24  39  59  84 121 163 200 245 305 367
#     4   9  18  35  61  88 116 156 201 246 297 358
#     4  10  21  38  61  88 120 159 198 242 299 360
#     4  10  21  39  63  91 122 159 201 249 308 370
#     4  12  24  38  60  93 126 155 197 251 307 366
#
# _framework density 20.184248
#
# number of rings (size 3 to 8) (size 9 to 14) (size 15 to 20)
#    0.000    1.500    1.250    4.500    0.000    6.000 
#    2.250    0.000    0.000    0.000    0.000    0.000 
#    0.000    0.000    0.000    0.000    0.000    0.000 
#
# Total GULP energy -396754.735060 kJ/mol
# GULP energy per Si atom -12398.585471 kJ/mol
# Density = 2.013831 g / cm^3
# Si number density = 20.184248 Si / 1000 Ang^3
#
#
#
# Elastic Constant Matrix: (Units=GPa)
#
#
# Indices 1 2 3 4 5 6 
#
# 1 80.3474 22.0464 30.4807 0.0000 0.0000 0.0000
# 2 22.0464 92.8143 40.4146 0.0000 0.0000 0.0000
# 3 30.4807 40.4146 68.8450 0.0000 0.0000 0.0000
# 4 0.0000 0.0000 0.0000 28.2063 0.0000 0.0000
# 5 0.0000 0.0000 0.0000 0.0000 24.2474 0.0000
# 6 0.0000 0.0000 0.0000 0.0000 0.0000 37.4078
#
#
#
# Elastic Compliance Matrix: (Units=1/GPa)
#
#
# Indices 1 2 3 4 5 6 
#
# 1 0.015014 -0.000903 -0.006118 0.000000 0.000000 0.000000
# 2 -0.000903 0.014528 -0.008129 0.000000 0.000000 0.000000
# 3 -0.006118 -0.008129 0.022006 0.000000 0.000000 0.000000
# 4 0.000000 0.000000 0.000000 0.035453 0.000000 0.000000
# 5 0.000000 0.000000 0.000000 0.000000 0.041242 0.000000
# 6 0.000000 0.000000 0.000000 0.000000 0.000000 0.026732
#
#
# Mechanical properties :
#
#
# Convention : Reuss Voigt Hill
#
# Bulk Modulus (GPa) = 47.05859 47.54333 47.30096
# Shear Modulus (GPa) = 25.99324 27.90995 26.95159
#
# Velocity S-wave (km/s) = 3.59248 3.72258 3.65811
# Velocity P-wave (km/s) = 6.36970 6.48711 6.42867
#
# Compressibility (1/GPa) = 0.02125011
#
# Stress axis : x y z
#
# Youngs Moduli (GPa) = 66.60264 68.83140 45.44211
#
# Poissons Ratio (x) = 0.06212 0.27800
# Poissons Ratio (y) = 0.06011 0.36940
# Poissons Ratio (z) = 0.40746 0.55953
#
# Static dielectric constant tensor:
#      x y z
#    x 3.694840 0.000000 0.000000 
#    y 0.000000 3.518080 0.000000 
#    z 0.000000 0.000000 3.797790 
# 
# 
# High freq. dielectric constant tensor:
#      x y z
#    x 1.793150 0.000000 0.000000 
#    y 0.000000 1.776550 0.000000 
#    z 0.000000 0.000000 1.789650 
# 
# From -- ./inp_files/5933.got.cif
#   From: 2010.03.12/outbox.cif.g09.slc.cpg/sg31_3_cif.got.tgz:5933.got - 2010.04.14 01:42:59.
