data_PCOD8169110
_publ_section_title
;
Structure prediction by ZEFSAII (Michael W. Deem and Ramdas Pophale) SiO2 
 PCOD8169110
Probable space group: P C A 21
;
_chemical_formula_sum "Si O2"
_cell_formula_units_Z 28
_cell_length_a 13.298343
_cell_length_b 10.686709
_cell_length_c 8.717258
_cell_angle_alpha 90.000000
_cell_angle_beta 90.000000
_cell_angle_gamma 90.000000
_cell_volume 1238.857670
_symmetry_space_group_name_H-M "P C A 21"
_symmetry_group_IT_number 29
_symmetry_cell_setting 'orthorhombic'
loop_
_space_group_symop_operation_xyz
x,y,z
-x,-y,1/2+z
1/2-x,y,1/2+z
1/2+x,-y,z
loop_
_atom_site_type_symbol
_atom_site_label
_atom_site_fract_x
_atom_site_fract_y
_atom_site_fract_z
Si Si1 0.087387 0.307082 0.941750
Si Si2 0.755647 0.033137 0.643676
Si Si3 0.555424 0.706655 0.289453
Si Si4 0.771931 0.852951 0.896016
Si Si5 0.640439 0.185828 0.881278
Si Si6 0.293983 0.558028 0.507734
Si Si7 0.601518 0.436643 0.333057
O O1 0.155449 0.193310 0.874740
O O2 0.982066 0.326104 0.848769
O O3 0.056748 0.264214 0.110519
O O4 0.153056 0.433610 0.944913
O O5 0.679821 0.134085 0.717160
O O6 0.832238 0.097662 0.524942
O O7 0.809624 0.965085 0.785126
O O8 0.704180 0.913489 0.561246
O O9 0.662796 0.730096 0.368288
O O10 0.479042 0.801566 0.371210
O O11 0.533072 0.560834 0.318815
O O12 0.681153 0.324789 0.900696
O O13 0.327821 0.583493 0.683363
O O14 0.172372 0.549469 0.484808
#
# Coordination Sequence:
#
# PCOD8169110 Si02
#       7
#     4   4   4   4   4   4   4
#     4  11  24  44  73 109 144 190 233 298 364 431
#     4  10  25  45  72  95 143 186 242 285 361 407
#     4  11  24  43  72 104 145 186 242 292 361 432
#     4  11  22  48  72 101 140 186 238 301 347 430
#     4  11  24  47  68 104 140 191 236 304 346 430
#     4  11  24  43  71 104 149 188 227 300 364 423
#     4  11  25  42  70 111 147 189 234 284 373 439
#
# _framework density 22.601465999999999
#
# number of rings (size 3 to 8) (size 9 to 14) (size 15 to 20)
#    0.000    1.143    4.286    0.857    4.000    2.286 
#    0.000    0.000    0.000    0.000    0.000    0.000 
#    0.000    0.000    0.000    0.000    0.000    0.000 
#
# Total GULP energy -346920.374127 kJ/mol
# GULP energy per Si atom -12390.013362 kJ/mol
# Density = 2.255002 g / cm^3
# Si number density = 22.601466 Si / 1000 Ang^3
#
#
#
# Elastic Constant Matrix: (Units=GPa)
#
#
# Indices 1 2 3 4 5 6 
#
# 1 132.9531 38.3296 62.8714 0.0000 0.0000 0.0000
# 2 38.3296 90.6847 43.2489 0.0000 0.0000 0.0000
# 3 62.8714 43.2489 106.8626 0.0000 0.0000 0.0000
# 4 0.0000 0.0000 0.0000 45.1751 0.0000 0.0000
# 5 0.0000 0.0000 0.0000 0.0000 24.9667 0.0000
# 6 0.0000 0.0000 0.0000 0.0000 0.0000 34.1963
#
#
#
# Elastic Compliance Matrix: (Units=1/GPa)
#
#
# Indices 1 2 3 4 5 6 
#
# 1 0.010673 -0.001879 -0.005519 0.000000 0.000000 0.000000
# 2 -0.001879 0.013996 -0.004559 0.000000 0.000000 0.000000
# 3 -0.005519 -0.004559 0.014450 0.000000 0.000000 0.000000
# 4 0.000000 0.000000 0.000000 0.022136 0.000000 0.000000
# 5 0.000000 0.000000 0.000000 0.000000 0.040053 0.000000
# 6 0.000000 0.000000 0.000000 0.000000 0.000000 0.029243
#
#
# Mechanical properties :
#
#
# Convention : Reuss Voigt Hill
#
# Bulk Modulus (GPa) = 65.76764 68.82223 67.29494
# Shear Modulus (GPa) = 31.34165 33.27097 32.30631
#
# Velocity S-wave (km/s) = 3.72789 3.84092 3.78483
# Velocity P-wave (km/s) = 6.90591 7.08426 6.99565
#
# Compressibility (1/GPa) = 0.01520505
#
# Stress axis : x y z
#
# Youngs Moduli (GPa) = 93.69494 71.45127 69.20568
#
# Poissons Ratio (x) = 0.13427 0.38193
# Poissons Ratio (y) = 0.17606 0.31548
# Poissons Ratio (z) = 0.51708 0.32572
#
# Static dielectric constant tensor:
#      x y z
#    x 3.965870 0.000000 0.000000 
#    y 0.000000 4.181960 0.000000 
#    z 0.000000 0.000000 4.115930 
# 
# 
# High freq. dielectric constant tensor:
#      x y z
#    x 1.874740 0.000000 0.000000 
#    y 0.000000 1.900290 0.000000 
#    z 0.000000 0.000000 1.892470 
# 
# From -- ./inp_files/1456.got.cif
#   From: 2010.03.12/outbox.cif.g09.slc.cpg/sg29_1_cif.got.tgz:1456.got - 2010.04.14 03:43:10.
