data_PCOD8169136
_publ_section_title
;
Structure prediction by ZEFSAII (Michael W. Deem and Ramdas Pophale) SiO2 
 PCOD8169136
Probable space group: P C A 21
;
_chemical_formula_sum "Si O2"
_cell_formula_units_Z 28
_cell_length_a 14.412585
_cell_length_b 17.435065
_cell_length_c 4.899290
_cell_angle_alpha 90.000000
_cell_angle_beta 90.000000
_cell_angle_gamma 90.000000
_cell_volume 1231.114934
_symmetry_space_group_name_H-M "P C A 21"
_symmetry_group_IT_number 29
_symmetry_cell_setting 'orthorhombic'
loop_
_space_group_symop_operation_xyz
x,y,z
-x,-y,1/2+z
1/2-x,y,1/2+z
1/2+x,-y,z
loop_
_atom_site_type_symbol
_atom_site_label
_atom_site_fract_x
_atom_site_fract_y
_atom_site_fract_z
Si Si1 0.814859 0.835257 0.954120
Si Si2 0.190982 0.615091 0.528641
Si Si3 0.542291 0.711733 0.449523
Si Si4 0.014147 0.547194 0.788673
Si Si5 0.429235 0.753706 0.963256
Si Si6 0.188947 0.890799 0.296270
Si Si7 0.939666 0.979118 0.947629
O O1 0.770739 0.847296 0.657989
O O2 0.856069 0.748912 0.993720
O O3 0.901391 0.893377 0.001302
O O4 0.281424 0.600547 0.715367
O O5 0.109639 0.559934 0.626021
O O6 0.158881 0.703406 0.557414
O O7 0.545690 0.624692 0.335025
O O8 0.485557 0.708574 0.730313
O O9 0.493662 0.766648 0.225838
O O10 0.959883 0.491557 0.578454
O O11 0.396878 0.835061 0.852088
O O12 0.222180 0.877334 0.988283
O O13 0.150353 0.975730 0.339854
O O14 0.977418 0.016806 0.227234
#
# Coordination Sequence:
#
# PCOD8169136 Si02
#       7
#     4   4   4   4   4   4   4
#     4  12  25  44  66  94 129 171 220 274 318 371
#     4  11  21  37  60  91 121 155 196 248 308 371
#     4  11  23  42  65  90 121 166 212 250 312 387
#     4  11  23  42  65  90 125 165 206 257 317 384
#     4  11  21  38  62  91 125 161 200 248 308 385
#     4  12  23  37  58  91 125 157 197 253 309 359
#     4  12  24  42  64  89 124 169 217 262 314 371
#
# _framework density 22.743608999999999
#
# number of rings (size 3 to 8) (size 9 to 14) (size 15 to 20)
#    0.000    0.571    0.000   11.143    0.000    0.000 
#    0.000    4.286    0.000    0.000    0.000    0.000 
#    0.000    0.000    0.000    0.000    0.000    0.000 
#
# Total GULP energy -347324.175072 kJ/mol
# GULP energy per Si atom -12404.434824 kJ/mol
# Density = 2.269184 g / cm^3
# Si number density = 22.743609 Si / 1000 Ang^3
#
#
#
# Elastic Constant Matrix: (Units=GPa)
#
#
# Indices 1 2 3 4 5 6 
#
# 1 78.6116 33.6562 20.5158 0.0000 0.0000 0.0000
# 2 33.6562 100.3330 11.6856 0.0000 0.0000 0.0000
# 3 20.5158 11.6856 93.9398 0.0000 0.0000 0.0000
# 4 0.0000 0.0000 0.0000 28.8019 0.0000 0.0000
# 5 0.0000 0.0000 0.0000 0.0000 52.2832 0.0000
# 6 0.0000 0.0000 0.0000 0.0000 0.0000 24.7187
#
#
#
# Elastic Compliance Matrix: (Units=1/GPa)
#
#
# Indices 1 2 3 4 5 6 
#
# 1 0.015541 -0.004889 -0.002786 0.000000 0.000000 0.000000
# 2 -0.004889 0.011651 -0.000382 0.000000 0.000000 0.000000
# 3 -0.002786 -0.000382 0.011301 0.000000 0.000000 0.000000
# 4 0.000000 0.000000 0.000000 0.034720 0.000000 0.000000
# 5 0.000000 0.000000 0.000000 0.000000 0.019127 0.000000
# 6 0.000000 0.000000 0.000000 0.000000 0.000000 0.040455
#
#
# Mechanical properties :
#
#
# Convention : Reuss Voigt Hill
#
# Bulk Modulus (GPa) = 44.68168 44.95552 44.81860
# Shear Modulus (GPa) = 31.97598 34.96252 33.46925
#
# Velocity S-wave (km/s) = 3.75364 3.92503 3.84029
# Velocity P-wave (km/s) = 6.20282 6.35218 6.27794
#
# Compressibility (1/GPa) = 0.02238054
#
# Stress axis : x y z
#
# Youngs Moduli (GPa) = 64.34677 85.82856 88.48760
#
# Poissons Ratio (x) = 0.41958 0.24652
# Poissons Ratio (y) = 0.31457 0.03378
# Poissons Ratio (z) = 0.17926 0.03276
#
# Static dielectric constant tensor:
#      x y z
#    x 3.864220 0.000000 0.000000 
#    y 0.000000 3.962830 0.000000 
#    z 0.000000 0.000000 4.254170 
# 
# 
# High freq. dielectric constant tensor:
#      x y z
#    x 1.886210 0.000000 0.000000 
#    y 0.000000 1.890830 0.000000 
#    z 0.000000 0.000000 1.918200 
# 
# From -- ./inp_files/109.got.cif
#   From: 2010.03.12/outbox.cif.g09.slc.cpg/sg29_1_cif.got.tgz:109.got - 2010.04.14 03:43:10.
