data_PCOD8169105
_publ_section_title
;
Structure prediction by ZEFSAII (Michael W. Deem and Ramdas Pophale) SiO2 
 PCOD8169105
Probable space group: P C A 21
;
_chemical_formula_sum "Si O2"
_cell_formula_units_Z 32
_cell_length_a 12.479958
_cell_length_b 8.844976
_cell_length_c 14.413478
_cell_angle_alpha 90.000000
_cell_angle_beta 90.000000
_cell_angle_gamma 90.000000
_cell_volume 1591.030746
_symmetry_space_group_name_H-M "P C A 21"
_symmetry_group_IT_number 29
_symmetry_cell_setting 'orthorhombic'
loop_
_space_group_symop_operation_xyz
x,y,z
-x,-y,1/2+z
1/2-x,y,1/2+z
1/2+x,-y,z
loop_
_atom_site_type_symbol
_atom_site_label
_atom_site_fract_x
_atom_site_fract_y
_atom_site_fract_z
Si Si1 0.697622 0.138117 0.462130
Si Si2 0.523380 0.666330 0.656073
Si Si3 0.813983 0.623894 0.427456
Si Si4 0.619004 0.806391 0.486320
Si Si5 0.921369 0.147593 0.366997
Si Si6 0.145306 0.580651 0.750158
Si Si7 0.495817 0.181789 0.350761
Si Si8 0.796027 0.383885 0.586639
O O1 0.810458 0.105235 0.415190
O O2 0.615906 0.210911 0.387664
O O3 0.715961 0.259572 0.543286
O O4 0.646240 0.983432 0.500901
O O5 0.615715 0.731851 0.588496
O O6 0.552621 0.496491 0.687873
O O7 0.519212 0.761556 0.748277
O O8 0.413767 0.681472 0.600439
O O9 0.707719 0.726329 0.421838
O O10 0.820474 0.508060 0.342580
O O11 0.915777 0.736549 0.423515
O O12 0.809028 0.531880 0.523138
O O13 0.504537 0.774408 0.437765
O O14 0.899226 0.255414 0.278970
O O15 0.976074 0.994433 0.335527
O O16 0.251924 0.581261 0.688574
#
# Coordination Sequence:
#
# PCOD8169105 Si02
#       8
#     4   4   4   4   4   4   4   4
#     4  11  23  43  69  92 129 175 220 270 323 393
#     4  11  24  43  61 100 131 168 218 273 322 394
#     4  11  23  43  67  95 136 170 209 271 325 392
#     4  11  23  43  67  94 134 172 220 269 326 387
#     4  11  22  45  65  96 127 175 217 268 328 389
#     4  11  25  40  66  98 131 171 216 267 331 392
#     4  10  25  43  68  93 132 175 217 265 332 388
#     4  12  25  42  67  98 130 168 221 269 329 393
#
# _framework density 20.112746000000001
#
# number of rings (size 3 to 8) (size 9 to 14) (size 15 to 20)
#    0.000    1.000    5.000    0.750    5.250    1.000 
#    0.000    1.250    0.000    0.000    0.000    0.000 
#    0.000    0.000    0.000    0.000    0.000    0.000 
#
# Total GULP energy -396792.275731 kJ/mol
# GULP energy per Si atom -12399.758617 kJ/mol
# Density = 2.006697 g / cm^3
# Si number density = 20.112746 Si / 1000 Ang^3
#
#
#
# Elastic Constant Matrix: (Units=GPa)
#
#
# Indices 1 2 3 4 5 6 
#
# 1 119.1428 23.1023 35.0162 0.0000 0.0000 0.0000
# 2 23.1023 89.3895 36.4573 0.0000 0.0000 0.0000
# 3 35.0162 36.4573 76.1773 0.0000 0.0000 0.0000
# 4 0.0000 0.0000 0.0000 27.4604 0.0000 0.0000
# 5 0.0000 0.0000 0.0000 0.0000 37.1405 0.0000
# 6 0.0000 0.0000 0.0000 0.0000 0.0000 31.4847
#
#
#
# Elastic Compliance Matrix: (Units=1/GPa)
#
#
# Indices 1 2 3 4 5 6 
#
# 1 0.009757 -0.000860 -0.004073 0.000000 0.000000 0.000000
# 2 -0.000860 0.013976 -0.006293 0.000000 0.000000 0.000000
# 3 -0.004073 -0.006293 0.018011 0.000000 0.000000 0.000000
# 4 0.000000 0.000000 0.000000 0.036416 0.000000 0.000000
# 5 0.000000 0.000000 0.000000 0.000000 0.026925 0.000000
# 6 0.000000 0.000000 0.000000 0.000000 0.000000 0.031761
#
#
# Mechanical properties :
#
#
# Convention : Reuss Voigt Hill
#
# Bulk Modulus (GPa) = 51.83793 52.65123 52.24458
# Shear Modulus (GPa) = 30.16931 31.89271 31.03101
#
# Velocity S-wave (km/s) = 3.87720 3.98640 3.93218
# Velocity P-wave (km/s) = 6.77297 6.88646 6.82995
#
# Compressibility (1/GPa) = 0.01929089
#
# Stress axis : x y z
#
# Youngs Moduli (GPa) = 102.48753 71.55107 55.52016
#
# Poissons Ratio (x) = 0.06156 0.22615
# Poissons Ratio (y) = 0.08818 0.34940
# Poissons Ratio (z) = 0.41746 0.45029
#
# Static dielectric constant tensor:
#      x y z
#    x 3.899530 0.000000 0.000000 
#    y 0.000000 3.761220 0.000000 
#    z 0.000000 0.000000 3.714810 
# 
# 
# High freq. dielectric constant tensor:
#      x y z
#    x 1.796390 0.000000 0.000000 
#    y 0.000000 1.792230 0.000000 
#    z 0.000000 0.000000 1.784040 
# 
# From -- ./inp_files/4535.got.cif
#   From: 2010.03.12/outbox.cif.g09.slc.cpg/sg29_3_cif.got.tgz:4535.got - 2010.04.14 03:43:10.
