data_PCOD8169827
_publ_section_title
;
Structure prediction by ZEFSAII (Michael W. Deem and Ramdas Pophale) SiO2 
 PCOD8169827
Probable space group: P M N 21
;
_chemical_formula_sum "Si O2"
_cell_formula_units_Z 32
_cell_length_a 9.059404
_cell_length_b 14.505877
_cell_length_c 13.828627
_cell_angle_alpha 90.000000
_cell_angle_beta 90.000000
_cell_angle_gamma 90.000000
_cell_volume 1817.283487
_symmetry_space_group_name_H-M "P M N 21"
_symmetry_group_IT_number 31
_symmetry_cell_setting 'orthorhombic'
loop_
_space_group_symop_operation_xyz
x,y,z
1/2-x,-y,1/2+z
-x,y,z
1/2+x,-y,1/2+z
loop_
_atom_site_type_symbol
_atom_site_label
_atom_site_fract_x
_atom_site_fract_y
_atom_site_fract_z
Si Si1 0.327553 0.345879 0.172310
Si Si2 0.331645 0.002391 0.268216
Si Si3 0.667311 0.886178 0.440615
Si Si4 0.825604 0.823290 0.267047
Si Si5 0.666222 0.512431 0.033087
Si Si6 0.173683 0.153153 0.154388
Si Si7 0.825864 0.519517 0.836145
Si Si8 0.669728 0.645729 0.208367
O O1 0.500000 0.318663 0.175902
O O2 0.295588 0.416589 0.085339
O O3 0.227947 0.257357 0.155034
O O4 0.274355 0.392958 0.272428
O O5 0.500000 0.005307 0.231459
O O6 0.251925 0.097040 0.240249
O O7 0.324927 0.986133 0.385614
O O8 0.247175 0.915145 0.219083
O O9 0.500000 0.847452 0.437265
O O10 0.770709 0.815373 0.379472
O O11 0.719083 0.893147 0.551558
O O12 0.771792 0.735466 0.207135
O O13 0.000000 0.831469 0.262259
O O14 0.500000 0.508684 0.993051
O O15 0.685318 0.597826 0.104841
O O16 0.774881 0.530330 0.945066
O O17 0.000000 0.150150 0.172222
O O18 0.767757 0.423984 0.790030
O O19 0.000000 0.515907 0.829880
O O20 0.500000 0.673566 0.228421
#
# Coordination Sequence:
#
# PCOD8169827 Si02
#       8
#     4   4   4   4   4   4   4   4
#     4   9  20  37  53  78 111 146 180 218 275 329
#     4   9  19  37  55  75 107 143 170 212 275 323
#     4   8  19  36  53  76 108 139 169 209 270 320
#     4  10  19  32  53  80 104 130 174 222 256 308
#     4   9  19  34  53  76 105 141 183 224 264 317
#     4  11  21  35  57  84 109 139 182 227 263 317
#     4   9  19  35  54  74 106 145 179 218 269 322
#     4   9  18  34  52  73 106 143 173 214 274 324
#
# _framework density 17.608699999999999
#
# number of rings (size 3 to 8) (size 9 to 14) (size 15 to 20)
#    0.750    2.000    0.000    3.000    1.750    3.000 
#    0.000    3.750    0.000    1.500    0.000    0.000 
#    0.000    0.000    0.000    0.000    0.000    0.000 
#
# Total GULP energy -396589.672281 kJ/mol
# GULP energy per Si atom -12393.427259 kJ/mol
# Density = 1.756862 g / cm^3
# Si number density = 17.608700 Si / 1000 Ang^3
#
#
#
# Elastic Constant Matrix: (Units=GPa)
#
#
# Indices 1 2 3 4 5 6 
#
# 1 80.5897 43.4071 21.6671 0.0000 0.0000 0.0000
# 2 43.4071 82.1221 33.7280 0.0000 0.0000 0.0000
# 3 21.6671 33.7280 72.2503 0.0000 0.0000 0.0000
# 4 0.0000 0.0000 0.0000 18.0674 0.0000 0.0000
# 5 0.0000 0.0000 0.0000 0.0000 27.7665 0.0000
# 6 0.0000 0.0000 0.0000 0.0000 0.0000 29.2452
#
#
#
# Elastic Compliance Matrix: (Units=1/GPa)
#
#
# Indices 1 2 3 4 5 6 
#
# 1 0.017424 -0.008739 -0.001146 0.000000 0.000000 0.000000
# 2 -0.008739 0.019449 -0.006458 0.000000 0.000000 0.000000
# 3 -0.001146 -0.006458 0.017199 0.000000 0.000000 0.000000
# 4 0.000000 0.000000 0.000000 0.055348 0.000000 0.000000
# 5 0.000000 0.000000 0.000000 0.000000 0.036015 0.000000
# 6 0.000000 0.000000 0.000000 0.000000 0.000000 0.034194
#
#
# Mechanical properties :
#
#
# Convention : Reuss Voigt Hill
#
# Bulk Modulus (GPa) = 46.76051 48.06294 47.41172
# Shear Modulus (GPa) = 22.78504 24.09315 23.43910
#
# Velocity S-wave (km/s) = 3.60108 3.70300 3.65239
# Velocity P-wave (km/s) = 6.62596 6.75553 6.69106
#
# Compressibility (1/GPa) = 0.02138557
#
# Stress axis : x y z
#
# Youngs Moduli (GPa) = 57.39365 51.41749 58.14223
#
# Poissons Ratio (x) = 0.44934 0.06661
# Poissons Ratio (y) = 0.50156 0.37550
# Poissons Ratio (z) = 0.06575 0.33207
#
# Static dielectric constant tensor:
#      x y z
#    x 3.160480 0.000000 0.000000 
#    y 0.000000 3.115200 0.000000 
#    z 0.000000 0.000000 3.151420 
# 
# 
# High freq. dielectric constant tensor:
#      x y z
#    x 1.681160 0.000000 0.000000 
#    y 0.000000 1.670590 0.000000 
#    z 0.000000 0.000000 1.666050 
# 
# From -- ./inp_files/5129.got.cif
#   From: 2010.03.12/outbox.cif.g09.slc.cpg/sg31_3_cif.got.tgz:5129.got - 2010.04.14 01:42:59.
