data_PCOD8169039
_publ_section_title
;
Structure prediction by ZEFSAII (Michael W. Deem and Ramdas Pophale) SiO2 
 PCOD8169039
Probable space group: P C A 21
;
_chemical_formula_sum "Si O2"
_cell_formula_units_Z 24
_cell_length_a 11.748076
_cell_length_b 8.039237
_cell_length_c 11.212690
_cell_angle_alpha 90.000000
_cell_angle_beta 90.000000
_cell_angle_gamma 90.000000
_cell_volume 1058.988868
_symmetry_space_group_name_H-M "P C A 21"
_symmetry_group_IT_number 29
_symmetry_cell_setting 'orthorhombic'
loop_
_space_group_symop_operation_xyz
x,y,z
-x,-y,1/2+z
1/2-x,y,1/2+z
1/2+x,-y,z
loop_
_atom_site_type_symbol
_atom_site_label
_atom_site_fract_x
_atom_site_fract_y
_atom_site_fract_z
Si Si1 0.033856 0.734864 0.198130
Si Si2 0.851126 0.808221 0.371120
Si Si3 0.668084 0.347290 0.416890
Si Si4 0.464217 0.376328 0.581910
Si Si5 0.402623 0.835745 0.462914
Si Si6 0.613878 0.706377 0.329968
O O1 0.108631 0.766254 0.316399
O O2 0.054197 0.564299 0.125642
O O3 0.903303 0.748848 0.243648
O O4 0.072409 0.873973 0.102742
O O5 0.879727 0.672043 0.473543
O O6 0.715989 0.834292 0.356195
O O7 0.901415 0.988451 0.398962
O O8 0.594194 0.345750 0.539079
O O9 0.791075 0.275490 0.444902
O O10 0.671728 0.528339 0.356386
O O11 0.433149 0.264923 0.696499
O O12 0.508659 0.727710 0.417609
#
# Coordination Sequence:
#
# PCOD8169039 Si02
#       6
#     4   4   4   4   4   4
#     4  10  24  48  72 103 142 194 245 302 358 438
#     4  11  28  45  72 109 150 188 245 303 374 430
#     4  10  24  46  74 105 139 189 251 293 362 436
#     4  10  23  47  75 102 141 191 246 300 358 433
#     4  12  27  45  74 106 148 191 242 303 373 427
#     4  11  26  45  73 103 144 189 243 299 363 434
#
# _framework density 22.663129999999999
#
# number of rings (size 3 to 8) (size 9 to 14) (size 15 to 20)
#    0.000    1.333    1.667    1.000   16.333    1.333 
#    0.000    0.000    0.000    0.000    0.000    0.000 
#    0.000    0.000    0.000    0.000    0.000    0.000 
#
# Total GULP energy -297536.150445 kJ/mol
# GULP energy per Si atom -12397.339602 kJ/mol
# Density = 2.261155 g / cm^3
# Si number density = 22.663130 Si / 1000 Ang^3
#
#
#
# Elastic Constant Matrix: (Units=GPa)
#
#
# Indices 1 2 3 4 5 6 
#
# 1 167.8672 27.5208 66.1767 0.0000 0.0000 0.0000
# 2 27.5208 70.7937 34.8908 0.0000 0.0000 0.0000
# 3 66.1767 34.8908 149.5400 0.0000 0.0000 0.0000
# 4 0.0000 0.0000 0.0000 29.1523 0.0000 0.0000
# 5 0.0000 0.0000 0.0000 0.0000 35.2864 0.0000
# 6 0.0000 0.0000 0.0000 0.0000 0.0000 25.1174
#
#
#
# Elastic Compliance Matrix: (Units=1/GPa)
#
#
# Indices 1 2 3 4 5 6 
#
# 1 0.007339 -0.001415 -0.002918 0.000000 0.000000 0.000000
# 2 -0.001415 0.016234 -0.003161 0.000000 0.000000 0.000000
# 3 -0.002918 -0.003161 0.008716 0.000000 0.000000 0.000000
# 4 0.000000 0.000000 0.000000 0.034303 0.000000 0.000000
# 5 0.000000 0.000000 0.000000 0.000000 0.028340 0.000000
# 6 0.000000 0.000000 0.000000 0.000000 0.000000 0.039813
#
#
# Mechanical properties :
#
#
# Convention : Reuss Voigt Hill
#
# Bulk Modulus (GPa) = 57.80167 71.70860 64.75514
# Shear Modulus (GPa) = 32.15442 35.21874 33.68658
#
# Velocity S-wave (km/s) = 3.77078 3.94637 3.85957
# Velocity P-wave (km/s) = 6.67222 7.24396 6.96396
#
# Compressibility (1/GPa) = 0.01730054
#
# Stress axis : x y z
#
# Youngs Moduli (GPa) = 136.25242 61.59987 114.73146
#
# Poissons Ratio (x) = 0.08717 0.33476
# Poissons Ratio (y) = 0.19281 0.36272
# Poissons Ratio (z) = 0.39755 0.19474
#
# Static dielectric constant tensor:
#      x y z
#    x 4.031810 0.000000 0.000000 
#    y 0.000000 3.825920 0.000000 
#    z 0.000000 0.000000 4.426420 
# 
# 
# High freq. dielectric constant tensor:
#      x y z
#    x 1.895840 0.000000 0.000000 
#    y 0.000000 1.882120 0.000000 
#    z 0.000000 0.000000 1.908850 
# 
# From -- ./inp_files/3090.got.cif
#   From: 2010.03.12/outbox.cif.g09.slc.cpg/sg29_2_cif.got.tgz:3090.got - 2010.04.14 03:43:10.
