data_PCOD8169359
_publ_section_title
;
Structure prediction by ZEFSAII (Michael W. Deem and Ramdas Pophale) SiO2 
 PCOD8169359
Probable space group: P N C 2
;
_chemical_formula_sum "Si O2"
_cell_formula_units_Z 32
_cell_length_a 10.268950
_cell_length_b 9.118031
_cell_length_c 19.003538
_cell_angle_alpha 90.000000
_cell_angle_beta 90.000000
_cell_angle_gamma 90.000000
_cell_volume 1779.350756
_symmetry_space_group_name_H-M "P N C 2"
_symmetry_group_IT_number 30
_symmetry_cell_setting 'orthorhombic'
loop_
_space_group_symop_operation_xyz
x,y,z
-x,-y,z
-x,1/2+y,1/2+z
x,1/2-y,1/2+z
loop_
_atom_site_type_symbol
_atom_site_label
_atom_site_fract_x
_atom_site_fract_y
_atom_site_fract_z
Si Si1 0.961107 0.340161 0.057030
Si Si2 0.552653 0.335114 0.849338
Si Si3 0.600330 0.130289 0.194920
Si Si4 0.130078 0.583316 0.639934
Si Si5 0.877560 0.913345 0.001292
Si Si6 0.472462 0.656215 0.071796
Si Si7 0.659103 0.737284 0.952528
Si Si8 0.739922 0.416667 0.956846
O O1 0.894178 0.255674 0.122747
O O2 0.000000 0.500000 0.086149
O O3 0.084225 0.244810 0.033185
O O4 0.876511 0.359167 0.985776
O O5 0.500000 0.500000 0.855043
O O6 0.571282 0.286830 0.768516
O O7 0.446782 0.235142 0.890504
O O8 0.694667 0.328419 0.886853
O O9 0.749668 0.069448 0.194255
O O10 0.583059 0.238771 0.130703
O O11 0.500000 0.000000 0.184993
O O12 0.171508 0.513815 0.565290
O O13 0.000000 0.500000 0.669514
O O14 0.756805 0.878438 0.949550
O O15 0.000000 0.000000 0.964740
O O16 0.500000 0.500000 0.109247
O O17 0.593702 0.729331 0.030312
O O18 0.366462 0.617993 0.014574
O O19 0.742713 0.589817 0.939592
#
# Coordination Sequence:
#
# PCOD8169359 Si02
#       8
#     4   4   4   4   4   4   4   4
#     4  10  16  27  50  78  96 131 171 213 251 298
#     4   8  18  30  49  73 102 130 166 218 256 296
#     4  11  19  33  54  76 103 140 172 207 257 316
#     4   9  20  33  47  77 116 131 166 212 263 313
#     4   9  18  28  45  74 110 131 160 212 258 308
#     4   9  18  29  52  75  98 126 167 221 260 296
#     4   9  15  30  49  75 102 128 166 215 262 293
#     4   9  15  29  49  76  97 123 170 217 250 292
#
# _framework density 17.984088
#
# number of rings (size 3 to 8) (size 9 to 14) (size 15 to 20)
#    0.000    3.000    2.500    2.250    0.000    0.000 
#    0.000    0.625    5.500    0.000    0.000    3.500 
#    0.000    0.000    0.000    0.000    0.000    0.000 
#
# Total GULP energy -396440.662620 kJ/mol
# GULP energy per Si atom -12388.770707 kJ/mol
# Density = 1.794315 g / cm^3
# Si number density = 17.984088 Si / 1000 Ang^3
#
#
#
# Elastic Constant Matrix: (Units=GPa)
#
#
# Indices 1 2 3 4 5 6 
#
# 1 97.4999 34.6995 32.4095 0.0000 0.0000 0.0000
# 2 34.6995 80.9147 16.1852 0.0000 0.0000 0.0000
# 3 32.4095 16.1852 40.9145 0.0000 0.0000 0.0000
# 4 0.0000 0.0000 0.0000 -11.9613 0.0000 0.0000
# 5 0.0000 0.0000 0.0000 0.0000 -26.8085 0.0000
# 6 0.0000 0.0000 0.0000 0.0000 0.0000 32.5875
#
#
#
# Elastic Compliance Matrix: (Units=1/GPa)
#
#
# Indices 1 2 3 4 5 6 
#
# 1 0.015290 -0.004489 -0.010335 0.000000 0.000000 0.000000
# 2 -0.004489 0.014739 -0.002274 0.000000 0.000000 0.000000
# 3 -0.010335 -0.002274 0.033528 0.000000 0.000000 0.000000
# 4 0.000000 0.000000 0.000000 -0.083603 0.000000 0.000000
# 5 0.000000 0.000000 0.000000 0.000000 -0.037302 0.000000
# 6 0.000000 0.000000 0.000000 0.000000 0.000000 0.030687
#
#
# Mechanical properties :
#
#
# Convention : Reuss Voigt Hill
#
# Bulk Modulus (GPa) = 34.06213 42.87973 38.47093
# Shear Modulus (GPa) = 288.63745 7.83255 148.23500
#
# Velocity S-wave (km/s) = 12.68245 2.08919 9.08871
# Velocity P-wave (km/s) = 15.27876 5.45110 11.47073
#
# Compressibility (1/GPa) = 0.02935812
#
# Stress axis : x y z
#
# Youngs Moduli (GPa) = 65.40326 67.84775 29.82593
#
# Poissons Ratio (x) = 0.30460 0.30826
# Poissons Ratio (y) = 0.29363 0.06783
# Poissons Ratio (z) = 0.67597 0.15430
#
# Static dielectric constant tensor:
#      x y z
#    x 4.075140 0.000000 0.000000 
#    y 0.000000 3.673810 0.000000 
#    z 0.000000 0.000000 3.215390 
# 
# 
# High freq. dielectric constant tensor:
#      x y z
#    x 1.701590 0.000000 0.000000 
#    y 0.000000 1.685570 0.000000 
#    z 0.000000 0.000000 1.651760 
# 
# From -- ./inp_files/6572.got.cif
#   From: 2010.03.12/outbox.cif.g09.slc.cpg/sg30_4_cif.got.tgz:6572.got - 2010.04.14 01:38:02.
