data_PCOD8169321
_publ_section_title
;
Structure prediction by ZEFSAII (Michael W. Deem and Ramdas Pophale) SiO2 
 PCOD8169321
Probable space group: P C A 21
;
_chemical_formula_sum "Si O2"
_cell_formula_units_Z 32
_cell_length_a 8.697397
_cell_length_b 11.061493
_cell_length_c 14.065923
_cell_angle_alpha 90.000000
_cell_angle_beta 90.000000
_cell_angle_gamma 90.000000
_cell_volume 1353.228946
_symmetry_space_group_name_H-M "P C A 21"
_symmetry_group_IT_number 29
_symmetry_cell_setting 'orthorhombic'
loop_
_space_group_symop_operation_xyz
x,y,z
-x,-y,1/2+z
1/2-x,y,1/2+z
1/2+x,-y,z
loop_
_atom_site_type_symbol
_atom_site_label
_atom_site_fract_x
_atom_site_fract_y
_atom_site_fract_z
Si Si1 0.419669 0.909784 0.323190
Si Si2 0.809058 0.509435 0.767214
Si Si3 0.366415 0.067795 0.652450
Si Si4 0.379514 0.647882 0.594561
Si Si5 0.422660 0.637389 0.374457
Si Si6 0.591081 0.117533 0.358804
Si Si7 0.665800 0.145911 0.563232
Si Si8 0.122954 0.257538 0.722456
O O1 0.511172 0.973380 0.233704
O O2 0.469564 0.775531 0.351038
O O3 0.239940 0.923480 0.293841
O O4 0.483883 0.006716 0.400010
O O5 0.865141 0.469328 0.662125
O O6 0.735779 0.394041 0.820960
O O7 0.947205 0.551742 0.832939
O O8 0.686186 0.614820 0.756622
O O9 0.483366 0.134044 0.579568
O O10 0.257179 0.164901 0.701442
O O11 0.271785 0.964717 0.598504
O O12 0.406803 0.609245 0.486083
O O13 0.227222 0.730047 0.609406
O O14 0.526481 0.727132 0.625792
O O15 0.687068 0.166460 0.449815
O O16 0.488782 0.217949 0.308261
#
# Coordination Sequence:
#
# PCOD8169321 Si02
#       8
#     4   4   4   4   4   4   4   4
#     4  12  24  46  73 111 153 204 248 319 394 465
#     4  12  28  52  75 111 153 204 267 331 391 465
#     4  12  25  44  75 110 156 199 254 313 392 472
#     4  12  28  50  78 109 155 201 269 330 396 475
#     4  12  28  50  79 112 152 209 269 322 399 471
#     4  12  26  46  74 111 157 200 253 323 393 479
#     4  12  26  45  76 116 154 200 259 321 391 481
#     4  12  27  49  74 106 152 209 253 323 402 460
#
# _framework density 23.647144000000001
#
# number of rings (size 3 to 8) (size 9 to 14) (size 15 to 20)
#    0.000    0.000    3.750    6.750    3.500    1.000 
#    0.000    0.000    0.000    0.000    0.000    0.000 
#    0.000    0.000    0.000    0.000    0.000    0.000 
#
# Total GULP energy -396742.922661 kJ/mol
# GULP energy per Si atom -12398.216333 kJ/mol
# Density = 2.359332 g / cm^3
# Si number density = 23.647144 Si / 1000 Ang^3
#
#
#
# Elastic Constant Matrix: (Units=GPa)
#
#
# Indices 1 2 3 4 5 6 
#
# 1 142.1959 44.7441 53.9367 0.0000 0.0000 0.0000
# 2 44.7441 101.2752 47.8767 0.0000 0.0000 0.0000
# 3 53.9367 47.8767 143.8626 0.0000 0.0000 0.0000
# 4 0.0000 0.0000 0.0000 35.3276 0.0000 0.0000
# 5 0.0000 0.0000 0.0000 0.0000 39.1177 0.0000
# 6 0.0000 0.0000 0.0000 0.0000 0.0000 43.9040
#
#
#
# Elastic Compliance Matrix: (Units=1/GPa)
#
#
# Indices 1 2 3 4 5 6 
#
# 1 0.008806 -0.002765 -0.002381 0.000000 0.000000 0.000000
# 2 -0.002765 0.012586 -0.003152 0.000000 0.000000 0.000000
# 3 -0.002381 -0.003152 0.008893 0.000000 0.000000 0.000000
# 4 0.000000 0.000000 0.000000 0.028307 0.000000 0.000000
# 5 0.000000 0.000000 0.000000 0.000000 0.025564 0.000000
# 6 0.000000 0.000000 0.000000 0.000000 0.000000 0.022777
#
#
# Mechanical properties :
#
#
# Convention : Reuss Voigt Hill
#
# Bulk Modulus (GPa) = 73.05512 75.60540 74.33026
# Shear Modulus (GPa) = 39.03499 39.72158 39.37828
#
# Velocity S-wave (km/s) = 4.06732 4.10294 4.08517
# Velocity P-wave (km/s) = 7.28137 7.38154 7.33163
#
# Compressibility (1/GPa) = 0.01368829
#
# Stress axis : x y z
#
# Youngs Moduli (GPa) = 113.56169 79.45611 112.45017
#
# Poissons Ratio (x) = 0.21967 0.26779
# Poissons Ratio (y) = 0.31396 0.35443
# Poissons Ratio (z) = 0.27043 0.25044
#
# Static dielectric constant tensor:
#      x y z
#    x 4.837740 0.000000 0.000000 
#    y 0.000000 4.179730 0.000000 
#    z 0.000000 0.000000 4.452230 
# 
# 
# High freq. dielectric constant tensor:
#      x y z
#    x 1.961900 0.000000 0.000000 
#    y 0.000000 1.939440 0.000000 
#    z 0.000000 0.000000 1.942120 
# 
# From -- ./inp_files/4342.got.cif
#   From: 2010.03.12/outbox.cif.g09.slc.cpg/sg29_3_cif.got.tgz:4342.got - 2010.04.14 03:43:10.
