data_PCOD8169196
_publ_section_title
;
Structure prediction by ZEFSAII (Michael W. Deem and Ramdas Pophale) SiO2 
 PCOD8169196
Probable space group: P C A 21
;
_chemical_formula_sum "Si O2"
_cell_formula_units_Z 28
_cell_length_a 11.353072
_cell_length_b 11.216928
_cell_length_c 9.082021
_cell_angle_alpha 90.000000
_cell_angle_beta 90.000000
_cell_angle_gamma 90.000000
_cell_volume 1156.564416
_symmetry_space_group_name_H-M "P C A 21"
_symmetry_group_IT_number 29
_symmetry_cell_setting 'orthorhombic'
loop_
_space_group_symop_operation_xyz
x,y,z
-x,-y,1/2+z
1/2-x,y,1/2+z
1/2+x,-y,z
loop_
_atom_site_type_symbol
_atom_site_label
_atom_site_fract_x
_atom_site_fract_y
_atom_site_fract_z
Si Si1 0.312255 0.346447 0.497700
Si Si2 0.548948 0.848830 0.181435
Si Si3 0.227554 0.992920 0.360650
Si Si4 0.396375 0.049792 0.131122
Si Si5 0.185965 0.740219 0.816117
Si Si6 0.648007 0.395535 0.110283
Si Si7 0.904957 0.688557 0.175352
O O1 0.369891 0.238824 0.588720
O O2 0.362012 0.472552 0.546422
O O3 0.173825 0.353123 0.536739
O O4 0.328136 0.321701 0.324514
O O5 0.440312 0.774254 0.249026
O O6 0.621450 0.923059 0.302693
O O7 0.492853 0.952985 0.079138
O O8 0.220427 0.850715 0.324992
O O9 0.353870 0.033975 0.300107
O O10 0.222189 0.022707 0.534800
O O11 0.448549 0.180739 0.127137
O O12 0.246090 0.631191 0.725005
O O13 0.161907 0.698286 0.980389
O O14 0.523501 0.385847 0.194669
#
# Coordination Sequence:
#
# PCOD8169196 Si02
#       7
#     4   4   4   4   4   4   4
#     4  12  30  49  77 110 155 202 274 322 396 468
#     4  11  26  43  76 107 154 194 252 323 386 468
#     4  11  23  44  70 109 149 190 242 316 388 468
#     4  11  24  42  72 104 146 190 248 308 392 463
#     4  11  26  49  75 118 153 206 261 318 393 474
#     4  12  29  49  81 108 158 206 268 321 395 467
#     4  12  28  52  77 110 151 206 259 326 400 472
#
# _framework density 24.209631999999999
#
# number of rings (size 3 to 8) (size 9 to 14) (size 15 to 20)
#    0.000    0.571    1.429    5.143   12.000    1.143 
#    0.000    0.000    0.000    0.000    0.000    0.000 
#    0.000    0.000    0.000    0.000    0.000    0.000 
#
# Total GULP energy -347058.847459 kJ/mol
# GULP energy per Si atom -12394.958838 kJ/mol
# Density = 2.415453 g / cm^3
# Si number density = 24.209632 Si / 1000 Ang^3
#
#
#
# Elastic Constant Matrix: (Units=GPa)
#
#
# Indices 1 2 3 4 5 6 
#
# 1 94.4232 17.8248 13.3286 0.0000 0.0000 0.0000
# 2 17.8248 119.6960 14.9108 0.0000 0.0000 0.0000
# 3 13.3286 14.9108 75.9283 0.0000 0.0000 0.0000
# 4 0.0000 0.0000 0.0000 32.7263 0.0000 0.0000
# 5 0.0000 0.0000 0.0000 0.0000 20.6938 0.0000
# 6 0.0000 0.0000 0.0000 0.0000 0.0000 17.6212
#
#
#
# Elastic Compliance Matrix: (Units=1/GPa)
#
#
# Indices 1 2 3 4 5 6 
#
# 1 0.011098 -0.001445 -0.001664 0.000000 0.000000 0.000000
# 2 -0.001445 0.008752 -0.001465 0.000000 0.000000 0.000000
# 3 -0.001664 -0.001465 0.013750 0.000000 0.000000 0.000000
# 4 0.000000 0.000000 0.000000 0.030556 0.000000 0.000000
# 5 0.000000 0.000000 0.000000 0.000000 0.048324 0.000000
# 6 0.000000 0.000000 0.000000 0.000000 0.000000 0.056750
#
#
# Mechanical properties :
#
#
# Convention : Reuss Voigt Hill
#
# Bulk Modulus (GPa) = 40.89779 42.46398 41.68088
# Shear Modulus (GPa) = 26.80522 30.47383 28.63953
#
# Velocity S-wave (km/s) = 3.33109 3.55173 3.44318
# Velocity P-wave (km/s) = 5.63247 5.86498 5.74990
#
# Compressibility (1/GPa) = 0.02445120
#
# Stress axis : x y z
#
# Youngs Moduli (GPa) = 90.10298 114.25635 72.72627
#
# Poissons Ratio (x) = 0.16515 0.12104
# Poissons Ratio (y) = 0.13024 0.10655
# Poissons Ratio (z) = 0.14997 0.16739
#
# Static dielectric constant tensor:
#      x y z
#    x 4.285440 0.000000 0.000000 
#    y 0.000000 4.568950 0.000000 
#    z 0.000000 0.000000 4.377640 
# 
# 
# High freq. dielectric constant tensor:
#      x y z
#    x 1.960960 0.000000 0.000000 
#    y 0.000000 1.976140 0.000000 
#    z 0.000000 0.000000 1.962950 
# 
# From -- ./inp_files/1486.got.cif
#   From: 2010.03.12/outbox.cif.g09.slc.cpg/sg29_1_cif.got.tgz:1486.got - 2010.04.14 03:43:10.
