data_PCOD8169483
_publ_section_title
;
Structure prediction by ZEFSAII (Michael W. Deem and Ramdas Pophale) SiO2 
 PCOD8169483
Probable space group: P N C 2
;
_chemical_formula_sum "Si O2"
_cell_formula_units_Z 32
_cell_length_a 18.075121
_cell_length_b 5.135323
_cell_length_c 15.966863
_cell_angle_alpha 90.000000
_cell_angle_beta 90.000000
_cell_angle_gamma 90.000000
_cell_volume 1482.069525
_symmetry_space_group_name_H-M "P N C 2"
_symmetry_group_IT_number 30
_symmetry_cell_setting 'orthorhombic'
loop_
_space_group_symop_operation_xyz
x,y,z
-x,-y,z
-x,1/2+y,1/2+z
x,1/2-y,1/2+z
loop_
_atom_site_type_symbol
_atom_site_label
_atom_site_fract_x
_atom_site_fract_y
_atom_site_fract_z
Si Si1 0.710497 0.276036 0.980070
Si Si2 0.952046 0.251438 0.458386
Si Si3 0.783299 0.862458 0.205613
Si Si4 0.545898 0.242558 0.221834
Si Si5 0.547156 0.242868 0.415216
Si Si6 0.297615 0.619237 0.161953
Si Si7 0.834657 0.582544 0.529855
Si Si8 0.833100 0.535371 0.881808
O O1 0.625408 0.221562 0.960060
O O2 0.751957 0.417502 0.903104
O O3 0.716581 0.448045 0.064415
O O4 0.752036 0.006965 0.002431
O O5 0.894510 0.344801 0.531478
O O6 0.000000 0.500000 0.430505
O O7 0.899014 0.178211 0.379143
O O8 0.000000 0.000000 0.488353
O O9 0.716839 0.649996 0.211633
O O10 0.833229 0.796394 0.123717
O O11 0.829589 0.829009 0.291302
O O12 0.755969 0.158258 0.198142
O O13 0.500000 0.500000 0.208916
O O14 0.565019 0.191806 0.318384
O O15 0.620099 0.274063 0.169961
O O16 0.500000 0.000000 0.184549
O O17 0.500000 0.500000 0.430683
O O18 0.500000 0.000000 0.451724
O O19 0.860252 0.782065 0.458205
#
# Coordination Sequence:
#
# PCOD8169483 Si02
#       8
#     4   4   4   4   4   4   4   4
#     4  10  23  39  64  93 127 168 222 273 328 388
#     4  11  23  43  72  98 135 179 209 257 324 385
#     4  11  25  40  65  99 130 164 221 269 322 383
#     4  10  21  37  54  80 120 165 215 267 330 395
#     4  10  23  37  56  86 122 167 219 270 327 393
#     4  11  23  40  60  91 126 164 216 280 325 386
#     4  10  23  44  67 101 132 169 220 268 321 389
#     4  11  23  42  72  97 132 177 212 273 323 382
#
# _framework density 21.591431
#
# number of rings (size 3 to 8) (size 9 to 14) (size 15 to 20)
#    0.000    1.500    2.500    1.500    7.000    2.000 
#    0.000    1.250    0.000    0.000    0.000    0.000 
#    0.000    0.000    0.000    0.000    0.000    0.000 
#
# Total GULP energy -396650.498404 kJ/mol
# GULP energy per Si atom -12395.328075 kJ/mol
# Density = 2.154229 g / cm^3
# Si number density = 21.591431 Si / 1000 Ang^3
#
#
#
# Elastic Constant Matrix: (Units=GPa)
#
#
# Indices 1 2 3 4 5 6 
#
# 1 132.3236 43.2238 44.7855 0.0000 0.0000 0.0000
# 2 43.2238 111.9271 42.4205 0.0000 0.0000 0.0000
# 3 44.7855 42.4205 124.9976 0.0000 0.0000 0.0000
# 4 0.0000 0.0000 0.0000 24.2833 0.0000 0.0000
# 5 0.0000 0.0000 0.0000 0.0000 13.4223 0.0000
# 6 0.0000 0.0000 0.0000 0.0000 0.0000 32.2840
#
#
#
# Elastic Compliance Matrix: (Units=1/GPa)
#
#
# Indices 1 2 3 4 5 6 
#
# 1 0.009240 -0.002655 -0.002410 0.000000 0.000000 0.000000
# 2 -0.002655 0.011016 -0.002787 0.000000 0.000000 0.000000
# 3 -0.002410 -0.002787 0.009809 0.000000 0.000000 0.000000
# 4 0.000000 0.000000 0.000000 0.041181 0.000000 0.000000
# 5 0.000000 0.000000 0.000000 0.000000 0.074503 0.000000
# 6 0.000000 0.000000 0.000000 0.000000 0.000000 0.030975
#
#
# Mechanical properties :
#
#
# Convention : Reuss Voigt Hill
#
# Bulk Modulus (GPa) = 69.62945 70.01200 69.82072
# Shear Modulus (GPa) = 25.35304 29.91915 27.63609
#
# Velocity S-wave (km/s) = 3.43040 3.72653 3.58153
# Velocity P-wave (km/s) = 6.92884 7.14229 7.03638
#
# Compressibility (1/GPa) = 0.01436174
#
# Stress axis : x y z
#
# Youngs Moduli (GPa) = 108.22453 90.77634 101.94313
#
# Poissons Ratio (x) = 0.24102 0.24564
# Poissons Ratio (y) = 0.28734 0.28414
# Poissons Ratio (z) = 0.26077 0.25302
#
# Static dielectric constant tensor:
#      x y z
#    x 3.894220 0.000000 0.000000 
#    y 0.000000 4.020420 0.000000 
#    z 0.000000 0.000000 3.777890 
# 
# 
# High freq. dielectric constant tensor:
#      x y z
#    x 1.849060 0.000000 0.000000 
#    y 0.000000 1.858300 0.000000 
#    z 0.000000 0.000000 1.825240 
# 
# From -- ./inp_files/5661.got.cif
#   From: 2010.03.12/outbox.cif.g09.slc.cpg/sg30_3_cif.got.tgz:5661.got - 2010.04.14 01:38:02.
