data_PCOD8169454
_publ_section_title
;
Structure prediction by ZEFSAII (Michael W. Deem and Ramdas Pophale) SiO2 
 PCOD8169454
Probable space group: P N C 2
;
_chemical_formula_sum "Si O2"
_cell_formula_units_Z 30
_cell_length_a 8.707371
_cell_length_b 21.127810
_cell_length_c 8.436311
_cell_angle_alpha 90.000000
_cell_angle_beta 90.000000
_cell_angle_gamma 90.000000
_cell_volume 1552.008563
_symmetry_space_group_name_H-M "P N C 2"
_symmetry_group_IT_number 30
_symmetry_cell_setting 'orthorhombic'
loop_
_space_group_symop_operation_xyz
x,y,z
-x,-y,z
-x,1/2+y,1/2+z
x,1/2-y,1/2+z
loop_
_atom_site_type_symbol
_atom_site_label
_atom_site_fract_x
_atom_site_fract_y
_atom_site_fract_z
Si Si1 0.500000 0.000000 0.279021
Si Si2 0.331843 0.278139 0.776376
Si Si3 0.651968 0.443897 0.064795
Si Si4 0.188915 0.682701 0.090320
Si Si5 0.360931 0.786194 0.890541
Si Si6 0.163833 0.179919 0.584940
Si Si7 0.331472 0.430726 0.218124
Si Si8 0.565143 0.616244 0.549847
O O1 0.639348 0.019436 0.396388
O O2 0.467123 0.060438 0.171929
O O3 0.495561 0.243654 0.796013
O O4 0.209089 0.225661 0.728319
O O5 0.334253 0.330821 0.638779
O O6 0.275823 0.308938 0.937860
O O7 0.772592 0.388576 0.038592
O O8 0.490083 0.414286 0.124940
O O9 0.706427 0.494701 0.197831
O O10 0.224648 0.690979 0.275659
O O11 0.012599 0.692799 0.045044
O O12 0.293949 0.732524 0.001326
O O13 0.410686 0.848509 0.989663
O O14 0.191331 0.108254 0.642244
O O15 0.342997 0.413648 0.403162
#
# Coordination Sequence:
#
# PCOD8169454 Si02
#       8
#     2   4   4   4   4   4   4   4
#     4  10  22  36  62  98 116 154 212 278 304 360
#     4  12  21  40  63  91 123 168 212 264 305 390
#     4  10  21  41  65  90 128 163 223 261 311 375
#     4  12  25  39  62  95 131 163 199 271 326 388
#     4  12  22  39  63  93 122 162 213 259 323 369
#     4  12  23  39  60  93 130 166 211 255 340 377
#     4  10  20  39  63  91 116 170 216 262 301 379
#     4  12  21  36  67  92 121 153 220 269 308 362
#
# _framework density 19.329789999999999
#
# number of rings (size 3 to 8) (size 9 to 14) (size 15 to 20)
#    0.000    0.800    5.333    4.800    0.000    0.533 
#    0.000    0.000    0.000    0.000    0.000    0.000 
#    0.000    0.000    0.000    0.000    0.000    0.000 
#
# Total GULP energy -371991.454879 kJ/mol
# GULP energy per Si atom -12399.715163 kJ/mol
# Density = 1.928579 g / cm^3
# Si number density = 19.329790 Si / 1000 Ang^3
#
#
#
# Elastic Constant Matrix: (Units=GPa)
#
#
# Indices 1 2 3 4 5 6 
#
# 1 70.8934 31.9338 18.0704 0.0000 0.0000 0.0000
# 2 31.9338 116.3272 49.5174 0.0000 0.0000 0.0000
# 3 18.0704 49.5174 102.8884 0.0000 0.0000 0.0000
# 4 0.0000 0.0000 0.0000 45.4268 0.0000 0.0000
# 5 0.0000 0.0000 0.0000 0.0000 22.3008 0.0000
# 6 0.0000 0.0000 0.0000 0.0000 0.0000 23.9371
#
#
#
# Elastic Compliance Matrix: (Units=1/GPa)
#
#
# Indices 1 2 3 4 5 6 
#
# 1 0.016160 -0.004060 -0.000884 0.000000 0.000000 0.000000
# 2 -0.004060 0.011831 -0.004981 0.000000 0.000000 0.000000
# 3 -0.000884 -0.004981 0.012272 0.000000 0.000000 0.000000
# 4 0.000000 0.000000 0.000000 0.022013 0.000000 0.000000
# 5 0.000000 0.000000 0.000000 0.000000 0.044841 0.000000
# 6 0.000000 0.000000 0.000000 0.000000 0.000000 0.041776
#
#
# Mechanical properties :
#
#
# Convention : Reuss Voigt Hill
#
# Bulk Modulus (GPa) = 48.98914 54.35022 51.66968
# Shear Modulus (GPa) = 28.48224 31.03879 29.76052
#
# Velocity S-wave (km/s) = 3.84277 4.01153 3.92805
# Velocity P-wave (km/s) = 6.71476 7.04520 6.88197
#
# Compressibility (1/GPa) = 0.02041269
#
# Stress axis : x y z
#
# Youngs Moduli (GPa) = 61.88201 84.52245 81.48752
#
# Poissons Ratio (x) = 0.34314 0.07206
# Poissons Ratio (y) = 0.25122 0.40589
# Poissons Ratio (z) = 0.05472 0.42101
#
# Static dielectric constant tensor:
#      x y z
#    x 3.208160 0.000000 0.000000 
#    y 0.000000 3.792030 0.000000 
#    z 0.000000 0.000000 3.723820 
# 
# 
# High freq. dielectric constant tensor:
#      x y z
#    x 1.712100 0.000000 0.000000 
#    y 0.000000 1.772390 0.000000 
#    z 0.000000 0.000000 1.766250 
# 
# From -- ./inp_files/2111.got.cif
#   From: 2010.03.12/outbox.cif.g09.slc.cpg/sg30_2_cif.got.tgz:2111.got - 2010.04.14 01:38:02.
