data_PCOD8169049
_publ_section_title
;
Structure prediction by ZEFSAII (Michael W. Deem and Ramdas Pophale) SiO2 
 PCOD8169049
Probable space group: P C A 21
;
_chemical_formula_sum "Si O2"
_cell_formula_units_Z 28
_cell_length_a 9.412672
_cell_length_b 14.316657
_cell_length_c 9.168275
_cell_angle_alpha 90.000000
_cell_angle_beta 90.000000
_cell_angle_gamma 90.000000
_cell_volume 1235.498370
_symmetry_space_group_name_H-M "P C A 21"
_symmetry_group_IT_number 29
_symmetry_cell_setting 'orthorhombic'
loop_
_space_group_symop_operation_xyz
x,y,z
-x,-y,1/2+z
1/2-x,y,1/2+z
1/2+x,-y,z
loop_
_atom_site_type_symbol
_atom_site_label
_atom_site_fract_x
_atom_site_fract_y
_atom_site_fract_z
Si Si1 0.752367 0.497051 0.926890
Si Si2 0.157511 0.909730 0.964803
Si Si3 0.156083 0.376005 0.174221
Si Si4 0.158211 0.208181 0.750850
Si Si5 0.663683 0.201924 0.247438
Si Si6 0.166376 0.096353 0.467045
Si Si7 0.350316 0.629157 0.182174
O O1 0.847922 0.551497 0.808791
O O2 0.654066 0.427516 0.833915
O O3 0.661245 0.570941 0.019541
O O4 0.845102 0.438557 0.042197
O O5 0.234590 0.826182 0.879704
O O6 0.161065 0.883247 0.134018
O O7 0.994600 0.920899 0.910423
O O8 0.240623 0.005115 0.939858
O O9 0.287779 0.305080 0.182739
O O10 0.005235 0.321602 0.177895
O O11 0.164964 0.123551 0.636026
O O12 0.995924 0.222533 0.803797
O O13 0.260660 0.182502 0.884062
O O14 0.724765 0.295280 0.173274
#
# Coordination Sequence:
#
# PCOD8169049 Si02
#       7
#     4   4   4   4   4   4   4
#     4  10  24  40  62  92 124 160 206 258 310 364
#     4  11  24  42  65  93 125 162 205 252 305 365
#     4  11  23  41  64  90 123 163 207 255 308 365
#     4  11  25  42  63  93 127 163 205 253 306 365
#     4  11  25  42  63  93 127 163 205 253 306 365
#     4  11  24  42  65  93 125 162 205 252 305 365
#     4  11  23  41  64  90 123 163 207 255 308 365
#
# _framework density 22.662918999999999
#
# number of rings (size 3 to 8) (size 9 to 14) (size 15 to 20)
#    0.000    1.143    0.000    5.143    0.000   18.286 
#    0.000    0.000    0.000    0.000    0.000    0.000 
#    0.000    0.000    0.000    0.000    0.000    0.000 
#
# Total GULP energy -347258.302585 kJ/mol
# GULP energy per Si atom -12402.082235 kJ/mol
# Density = 2.261134 g / cm^3
# Si number density = 22.662919 Si / 1000 Ang^3
#
#
#
# Elastic Constant Matrix: (Units=GPa)
#
#
# Indices 1 2 3 4 5 6 
#
# 1 170.0378 26.9914 17.0428 0.0000 0.0000 0.0000
# 2 26.9914 78.5975 4.4818 0.0000 0.0000 0.0000
# 3 17.0428 4.4818 89.4717 0.0000 0.0000 0.0000
# 4 0.0000 0.0000 0.0000 32.2487 0.0000 0.0000
# 5 0.0000 0.0000 0.0000 0.0000 21.7905 0.0000
# 6 0.0000 0.0000 0.0000 0.0000 0.0000 35.5860
#
#
#
# Elastic Compliance Matrix: (Units=1/GPa)
#
#
# Indices 1 2 3 4 5 6 
#
# 1 0.006326 -0.002110 -0.001099 0.000000 0.000000 0.000000
# 2 -0.002110 0.013463 -0.000273 0.000000 0.000000 0.000000
# 3 -0.001099 -0.000273 0.011400 0.000000 0.000000 0.000000
# 4 0.000000 0.000000 0.000000 0.031009 0.000000 0.000000
# 5 0.000000 0.000000 0.000000 0.000000 0.045892 0.000000
# 6 0.000000 0.000000 0.000000 0.000000 0.000000 0.028101
#
#
# Mechanical properties :
#
#
# Convention : Reuss Voigt Hill
#
# Bulk Modulus (GPa) = 41.27840 48.34880 44.81360
# Shear Modulus (GPa) = 33.06243 37.23111 35.14677
#
# Velocity S-wave (km/s) = 3.82367 4.05757 3.94235
# Velocity P-wave (km/s) = 6.14390 6.58271 6.36709
#
# Compressibility (1/GPa) = 0.02422574
#
# Stress axis : x y z
#
# Youngs Moduli (GPa) = 158.07439 74.27699 87.72105
#
# Poissons Ratio (x) = 0.15671 0.09644
# Poissons Ratio (y) = 0.33350 0.02390
# Poissons Ratio (z) = 0.17378 0.02024
#
# Static dielectric constant tensor:
#      x y z
#    x 4.045880 0.000000 0.000000 
#    y 0.000000 3.866390 0.000000 
#    z 0.000000 0.000000 4.115870 
# 
# 
# High freq. dielectric constant tensor:
#      x y z
#    x 1.900840 0.000000 0.000000 
#    y 0.000000 1.890960 0.000000 
#    z 0.000000 0.000000 1.901040 
# 
# From -- ./inp_files/1192.got.cif
#   From: 2010.03.12/outbox.cif.g09.slc.cpg/sg29_1_cif.got.tgz:1192.got - 2010.04.14 03:43:10.
