data_PCOD8169291
_publ_section_title
;
Structure prediction by ZEFSAII (Michael W. Deem and Ramdas Pophale) SiO2 
 PCOD8169291
Probable space group: P C A 21
;
_chemical_formula_sum "Si O2"
_cell_formula_units_Z 20
_cell_length_a 9.951666
_cell_length_b 8.919900
_cell_length_c 9.138383
_cell_angle_alpha 90.000000
_cell_angle_beta 90.000000
_cell_angle_gamma 90.000000
_cell_volume 811.194754
_symmetry_space_group_name_H-M "P C A 21"
_symmetry_group_IT_number 29
_symmetry_cell_setting 'orthorhombic'
loop_
_space_group_symop_operation_xyz
x,y,z
-x,-y,1/2+z
1/2-x,y,1/2+z
1/2+x,-y,z
loop_
_atom_site_type_symbol
_atom_site_label
_atom_site_fract_x
_atom_site_fract_y
_atom_site_fract_z
Si Si1 0.279680 0.422231 0.272530
Si Si2 0.952433 0.144596 0.108104
Si Si3 0.821063 0.297223 0.614567
Si Si4 0.038021 0.159473 0.787256
Si Si5 0.004333 0.365067 0.361573
O O1 0.230025 0.531319 0.140297
O O2 0.333211 0.256815 0.230027
O O3 0.410585 0.490152 0.349469
O O4 0.158337 0.411911 0.391709
O O5 0.799526 0.188384 0.069296
O O6 0.013131 0.274520 0.210013
O O7 0.954267 0.992755 0.198231
O O8 0.042640 0.129706 0.962114
O O9 0.938884 0.274161 0.494370
O O10 0.893751 0.240331 0.761775
#
# Coordination Sequence:
#
# PCOD8169291 Si02
#       5
#     4   4   4   4   4
#     4  11  26  45  80 116 150 204 252 323 389 460
#     4  11  27  50  75 112 155 211 256 325 390 465
#     4  11  26  50  75 115 154 200 264 327 385 472
#     4  12  27  50  78 110 159 204 267 315 396 473
#     4  11  26  47  76 115 154 197 259 320 392 458
#
# _framework density 24.654990999999999
#
# number of rings (size 3 to 8) (size 9 to 14) (size 15 to 20)
#    0.000    0.800    2.000    3.600    8.400    0.000 
#    3.600    0.000    0.000    0.000    0.000    0.000 
#    0.000    0.000    0.000    0.000    0.000    0.000 
#
# Total GULP energy -247901.928023 kJ/mol
# GULP energy per Si atom -12395.096401 kJ/mol
# Density = 2.459888 g / cm^3
# Si number density = 24.654991 Si / 1000 Ang^3
#
#
#
# Elastic Constant Matrix: (Units=GPa)
#
#
# Indices 1 2 3 4 5 6 
#
# 1 158.9824 61.6185 30.9447 0.0000 0.0000 0.0000
# 2 61.6185 122.4146 57.1752 0.0000 0.0000 0.0000
# 3 30.9447 57.1752 130.6639 0.0000 0.0000 0.0000
# 4 0.0000 0.0000 0.0000 31.8031 0.0000 0.0000
# 5 0.0000 0.0000 0.0000 0.0000 38.7603 0.0000
# 6 0.0000 0.0000 0.0000 0.0000 0.0000 32.1573
#
#
#
# Elastic Compliance Matrix: (Units=1/GPa)
#
#
# Indices 1 2 3 4 5 6 
#
# 1 0.007817 -0.003859 -0.000163 0.000000 0.000000 0.000000
# 2 -0.003859 0.012172 -0.004412 0.000000 0.000000 0.000000
# 3 -0.000163 -0.004412 0.009623 0.000000 0.000000 0.000000
# 4 0.000000 0.000000 0.000000 0.031444 0.000000 0.000000
# 5 0.000000 0.000000 0.000000 0.000000 0.025800 0.000000
# 6 0.000000 0.000000 0.000000 0.000000 0.000000 0.031097
#
#
# Mechanical properties :
#
#
# Convention : Reuss Voigt Hill
#
# Bulk Modulus (GPa) = 78.46859 79.05976 78.76417
# Shear Modulus (GPa) = 35.95355 38.03231 36.99293
#
# Velocity S-wave (km/s) = 3.82287 3.93183 3.87773
# Velocity P-wave (km/s) = 7.16809 7.26281 7.21561
#
# Compressibility (1/GPa) = 0.01274395
#
# Stress axis : x y z
#
# Youngs Moduli (GPa) = 127.92108 82.15437 103.92296
#
# Poissons Ratio (x) = 0.31702 0.01692
# Poissons Ratio (y) = 0.49363 0.45855
# Poissons Ratio (z) = 0.02083 0.36249
#
# Static dielectric constant tensor:
#      x y z
#    x 4.649670 0.000000 0.000000 
#    y 0.000000 4.421610 0.000000 
#    z 0.000000 0.000000 4.323250 
# 
# 
# High freq. dielectric constant tensor:
#      x y z
#    x 1.992020 0.000000 0.000000 
#    y 0.000000 1.981000 0.000000 
#    z 0.000000 0.000000 1.974540 
# 
# From -- ./inp_files/1060.got.cif
#   From: 2010.03.12/outbox.cif.g09.slc.cpg/sg29_1_cif.got.tgz:1060.got - 2010.04.14 03:43:10.
