data_PCOD8169564
_publ_section_title
;
Structure prediction by ZEFSAII (Michael W. Deem and Ramdas Pophale) SiO2 
 PCOD8169564
Probable space group: P N C 2
;
_chemical_formula_sum "Si O2"
_cell_formula_units_Z 16
_cell_length_a 7.733939
_cell_length_b 9.237396
_cell_length_c 8.813676
_cell_angle_alpha 90.000000
_cell_angle_beta 90.000000
_cell_angle_gamma 90.000000
_cell_volume 629.661857
_symmetry_space_group_name_H-M "P N C 2"
_symmetry_group_IT_number 30
_symmetry_cell_setting 'orthorhombic'
loop_
_space_group_symop_operation_xyz
x,y,z
-x,-y,z
-x,1/2+y,1/2+z
x,1/2-y,1/2+z
loop_
_atom_site_type_symbol
_atom_site_label
_atom_site_fract_x
_atom_site_fract_y
_atom_site_fract_z
Si Si1 0.238969 0.848431 0.430530
Si Si2 0.263383 0.329974 0.868176
Si Si3 0.463094 0.160954 0.079056
Si Si4 0.039118 0.662853 0.645049
O O1 0.402228 0.774199 0.508527
O O2 0.066837 0.775606 0.507666
O O3 0.219342 0.835091 0.246090
O O4 0.241074 0.019865 0.460142
O O5 0.281996 0.205839 0.996229
O O6 0.437525 0.333848 0.760992
O O7 0.106815 0.286310 0.760537
O O8 0.500000 0.000000 0.022477
O O9 0.000000 0.500000 0.586096
#
# Coordination Sequence:
#
# PCOD8169564 Si02
#       4
#     4   4   4   4
#     4  11  23  44  72 101 138 183 232 288 349 415
#     4  11  25  45  68 100 139 181 234 290 345 414
#     4  12  24  42  66  99 139 183 232 288 344 412
#     4  10  22  43  68 100 136 179 232 292 348 413
#
# _framework density 25.410463
#
# number of rings (size 3 to 8) (size 9 to 14) (size 15 to 20)
#    0.000    1.000    0.000    8.250    0.000    4.000 
#    0.000    6.250    0.000    0.000    0.000    0.000 
#    0.000    0.000    0.000    0.000    0.000    0.000 
#
# Total GULP energy -198365.669110 kJ/mol
# GULP energy per Si atom -12397.854319 kJ/mol
# Density = 2.535263 g / cm^3
# Si number density = 25.410463 Si / 1000 Ang^3
#
#
#
# Elastic Constant Matrix: (Units=GPa)
#
#
# Indices 1 2 3 4 5 6 
#
# 1 29.3797 23.5664 9.6377 0.0000 0.0000 0.0000
# 2 23.5664 154.8750 95.4230 0.0000 0.0000 0.0000
# 3 9.6377 95.4230 120.1368 0.0000 0.0000 0.0000
# 4 0.0000 0.0000 0.0000 50.3439 0.0000 0.0000
# 5 0.0000 0.0000 0.0000 0.0000 33.7048 0.0000
# 6 0.0000 0.0000 0.0000 0.0000 0.0000 50.0668
#
#
#
# Elastic Compliance Matrix: (Units=1/GPa)
#
#
# Indices 1 2 3 4 5 6 
#
# 1 0.039362 -0.007920 0.003133 0.000000 0.000000 0.000000
# 2 -0.007920 0.014239 -0.010674 0.000000 0.000000 0.000000
# 3 0.003133 -0.010674 0.016551 0.000000 0.000000 0.000000
# 4 0.000000 0.000000 0.000000 0.019863 0.000000 0.000000
# 5 0.000000 0.000000 0.000000 0.000000 0.029669 0.000000
# 6 0.000000 0.000000 0.000000 0.000000 0.000000 0.019973
#
#
# Mechanical properties :
#
#
# Convention : Reuss Voigt Hill
#
# Bulk Modulus (GPa) = 25.49109 62.40505 43.94807
# Shear Modulus (GPa) = 27.22478 38.54074 32.88276
#
# Velocity S-wave (km/s) = 3.27678 3.89874 3.60121
# Velocity P-wave (km/s) = 4.93658 6.69918 5.88425
#
# Compressibility (1/GPa) = 0.03922940
#
# Stress axis : x y z
#
# Youngs Moduli (GPa) = 25.40514 70.23175 60.41979
#
# Poissons Ratio (x) = 0.55621 -0.18928
# Poissons Ratio (y) = 0.20120 0.64493
# Poissons Ratio (z) = -0.07959 0.74967
#
# Static dielectric constant tensor:
#      x y z
#    x 5.279300 0.000000 0.000000 
#    y 0.000000 4.377070 0.000000 
#    z 0.000000 0.000000 4.807910 
# 
# 
# High freq. dielectric constant tensor:
#      x y z
#    x 2.057000 0.000000 0.000000 
#    y 0.000000 1.994520 0.000000 
#    z 0.000000 0.000000 2.022210 
# 
# From -- ./inp_files/1555.got.cif
#   From: 2010.03.12/outbox.cif.g09.slc.cpg/sg30_1_cif.got.tgz:1555.got - 2010.04.14 01:38:02.
