data_PCOD8169513
_publ_section_title
;
Structure prediction by ZEFSAII (Michael W. Deem and Ramdas Pophale) SiO2 
 PCOD8169513
Probable space group: P N C 2
;
_chemical_formula_sum "Si O2"
_cell_formula_units_Z 26
_cell_length_a 8.675225
_cell_length_b 9.137875
_cell_length_c 15.929494
_cell_angle_alpha 90.000000
_cell_angle_beta 90.000000
_cell_angle_gamma 90.000000
_cell_volume 1262.780716
_symmetry_space_group_name_H-M "P N C 2"
_symmetry_group_IT_number 30
_symmetry_cell_setting 'orthorhombic'
loop_
_space_group_symop_operation_xyz
x,y,z
-x,-y,z
-x,1/2+y,1/2+z
x,1/2-y,1/2+z
loop_
_atom_site_type_symbol
_atom_site_label
_atom_site_fract_x
_atom_site_fract_y
_atom_site_fract_z
Si Si1 0.636608 0.201811 0.673070
Si Si2 0.267062 0.475816 0.883889
Si Si3 0.824259 0.532780 0.072987
Si Si4 0.341196 0.325510 0.599784
Si Si5 0.500000 0.000000 0.970657
Si Si6 0.513617 0.255521 0.850944
Si Si7 0.835025 0.028952 0.212661
O O1 0.514095 0.261032 0.605554
O O2 0.538206 0.183733 0.758811
O O3 0.780461 0.309014 0.688448
O O4 0.707294 0.052550 0.635328
O O5 0.339735 0.312092 0.872451
O O6 0.388970 0.600296 0.863227
O O7 0.139379 0.500222 0.811907
O O8 0.198763 0.507424 0.975586
O O9 0.787492 0.703770 0.082489
O O10 0.000000 0.500000 0.099240
O O11 0.353330 0.442686 0.524353
O O12 0.294223 0.413325 0.682989
O O13 0.566793 0.130736 0.914624
O O14 0.000000 0.000000 0.168365
#
# Coordination Sequence:
#
# PCOD8169513 Si02
#       7
#     4   4   4   4   2   4   4
#     4  11  23  42  66  95 126 169 222 268 315 395
#     4  10  21  41  63  93 129 169 220 264 323 391
#     4  12  26  42  64  99 134 172 215 273 339 393
#     4  12  23  40  65  95 126 167 221 269 321 391
#     4  12  22  38  62  98 120 158 214 276 320 364
#     4  10  22  38  64  96 122 165 222 270 315 381
#     4  11  22  40  65  93 131 174 211 267 331 388
#
# _framework density 20.589483000000001
#
# number of rings (size 3 to 8) (size 9 to 14) (size 15 to 20)
#    0.000    0.923    4.615    2.769    4.308    0.000 
#    0.000    0.000    0.000    0.000    0.000    0.000 
#    0.000    0.000    0.000    0.000    0.000    0.000 
#
# Total GULP energy -322279.256711 kJ/mol
# GULP energy per Si atom -12395.356027 kJ/mol
# Density = 2.054262 g / cm^3
# Si number density = 20.589483 Si / 1000 Ang^3
#
#
#
# Elastic Constant Matrix: (Units=GPa)
#
#
# Indices 1 2 3 4 5 6 
#
# 1 85.6244 28.4319 15.4946 0.0000 0.0000 0.0000
# 2 28.4319 107.2622 42.9681 0.0000 0.0000 0.0000
# 3 15.4946 42.9681 102.8287 0.0000 0.0000 0.0000
# 4 0.0000 0.0000 0.0000 34.2325 0.0000 0.0000
# 5 0.0000 0.0000 0.0000 0.0000 -30.6321 0.0000
# 6 0.0000 0.0000 0.0000 0.0000 0.0000 26.2553
#
#
#
# Elastic Compliance Matrix: (Units=1/GPa)
#
#
# Indices 1 2 3 4 5 6 
#
# 1 0.012838 -0.003156 -0.000616 0.000000 0.000000 0.000000
# 2 -0.003156 0.011973 -0.004528 0.000000 0.000000 0.000000
# 3 -0.000616 -0.004528 0.011710 0.000000 0.000000 0.000000
# 4 0.000000 0.000000 0.000000 0.029212 0.000000 0.000000
# 5 0.000000 0.000000 0.000000 0.000000 -0.032645 0.000000
# 6 0.000000 0.000000 0.000000 0.000000 0.000000 0.038088
#
#
# Mechanical properties :
#
#
# Convention : Reuss Voigt Hill
#
# Bulk Modulus (GPa) = 50.19552 52.16718 51.18135
# Shear Modulus (GPa) = 52.95749 19.89251 36.42500
#
# Velocity S-wave (km/s) = 5.07706 3.11167 4.21064
# Velocity P-wave (km/s) = 7.66817 6.18884 6.96787
#
# Compressibility (1/GPa) = 0.01992209
#
# Stress axis : x y z
#
# Youngs Moduli (GPa) = 77.89113 83.51901 85.40032
#
# Poissons Ratio (x) = 0.26363 0.05257
# Poissons Ratio (y) = 0.24586 0.38665
# Poissons Ratio (z) = 0.04795 0.37814
#
# Static dielectric constant tensor:
#      x y z
#    x 3.601350 0.000000 0.000000 
#    y 0.000000 3.770700 0.000000 
#    z 0.000000 0.000000 3.893210 
# 
# 
# High freq. dielectric constant tensor:
#      x y z
#    x 1.785260 0.000000 0.000000 
#    y 0.000000 1.807840 0.000000 
#    z 0.000000 0.000000 1.815050 
# 
# From -- ./inp_files/6324.got.cif
#   From: 2010.03.12/outbox.cif.g09.slc.cpg/sg30_4_cif.got.tgz:6324.got - 2010.04.14 01:38:02.
