data_PCOD8169546
_publ_section_title
;
Structure prediction by ZEFSAII (Michael W. Deem and Ramdas Pophale) SiO2 
 PCOD8169546
Probable space group: P N C 2
;
_chemical_formula_sum "Si O2"
_cell_formula_units_Z 18
_cell_length_a 8.434778
_cell_length_b 11.916665
_cell_length_c 8.913904
_cell_angle_alpha 90.000000
_cell_angle_beta 90.000000
_cell_angle_gamma 90.000000
_cell_volume 895.975924
_symmetry_space_group_name_H-M "P N C 2"
_symmetry_group_IT_number 30
_symmetry_cell_setting 'orthorhombic'
loop_
_space_group_symop_operation_xyz
x,y,z
-x,-y,z
-x,1/2+y,1/2+z
x,1/2-y,1/2+z
loop_
_atom_site_type_symbol
_atom_site_label
_atom_site_fract_x
_atom_site_fract_y
_atom_site_fract_z
Si Si1 0.566199 0.616113 0.311600
Si Si2 0.500000 0.500000 0.022889
Si Si3 0.899105 0.275519 0.612856
Si Si4 0.932140 0.880899 0.850142
Si Si5 0.320952 0.819247 0.367263
O O1 0.500000 0.500000 0.384976
O O2 0.573007 0.598074 0.129946
O O3 0.744212 0.632139 0.367051
O O4 0.453876 0.720464 0.356786
O O5 0.617221 0.441364 0.907961
O O6 0.810255 0.199491 0.493079
O O7 0.762824 0.337021 0.707706
O O8 0.008692 0.205670 0.725479
O O9 0.004159 0.362173 0.518617
O O10 0.000000 0.000000 0.795192
#
# Coordination Sequence:
#
# PCOD8169546 Si02
#       5
#     4   2   4   4   4
#     4  10  22  41  70  92 129 172 214 270 324 386
#     4  10  22  40  68  94 128 170 214 278 322 366
#     4  10  23  41  64  92 132 170 211 269 320 392
#     4  11  23  43  63  95 131 170 212 266 335 379
#     4  11  20  44  64  95 129 171 218 264 324 385
#
# _framework density 20.089825000000001
#
# number of rings (size 3 to 8) (size 9 to 14) (size 15 to 20)
#    0.667    0.889    2.222    4.000    3.111    0.000 
#   10.000    2.222    0.000    0.000    0.000    0.000 
#    0.000    0.000    0.000    0.000    0.000    0.000 
#
# Total GULP energy -223010.152431 kJ/mol
# GULP energy per Si atom -12389.452913 kJ/mol
# Density = 2.004410 g / cm^3
# Si number density = 20.089825 Si / 1000 Ang^3
#
#
#
# Elastic Constant Matrix: (Units=GPa)
#
#
# Indices 1 2 3 4 5 6 
#
# 1 145.4088 32.0187 41.5181 0.0000 0.0000 0.0000
# 2 32.0187 59.0970 22.5674 0.0000 0.0000 0.0000
# 3 41.5181 22.5674 97.4841 0.0000 0.0000 0.0000
# 4 0.0000 0.0000 0.0000 79.3292 0.0000 0.0000
# 5 0.0000 0.0000 0.0000 0.0000 26.2906 0.0000
# 6 0.0000 0.0000 0.0000 0.0000 0.0000 32.6174
#
#
#
# Elastic Compliance Matrix: (Units=1/GPa)
#
#
# Indices 1 2 3 4 5 6 
#
# 1 0.008445 -0.003513 -0.002784 0.000000 0.000000 0.000000
# 2 -0.003513 0.020023 -0.003139 0.000000 0.000000 0.000000
# 3 -0.002784 -0.003139 0.012170 0.000000 0.000000 0.000000
# 4 0.000000 0.000000 0.000000 0.012606 0.000000 0.000000
# 5 0.000000 0.000000 0.000000 0.000000 0.038036 0.000000
# 6 0.000000 0.000000 0.000000 0.000000 0.000000 0.030659
#
#
# Mechanical properties :
#
#
# Convention : Reuss Voigt Hill
#
# Bulk Modulus (GPa) = 45.93957 54.91092 50.42524
# Shear Modulus (GPa) = 33.76842 41.37314 37.57078
#
# Velocity S-wave (km/s) = 4.10429 4.54299 4.32920
# Velocity P-wave (km/s) = 6.73625 7.41016 7.08122
#
# Compressibility (1/GPa) = 0.02176773
#
# Stress axis : x y z
#
# Youngs Moduli (GPa) = 118.40643 49.94169 82.16658
#
# Poissons Ratio (x) = 0.17543 0.22873
# Poissons Ratio (y) = 0.41593 0.25795
# Poissons Ratio (z) = 0.32961 0.15678
#
# Static dielectric constant tensor:
#      x y z
#    x 3.802790 0.000000 0.000000 
#    y 0.000000 3.321430 0.000000 
#    z 0.000000 0.000000 3.851940 
# 
# 
# High freq. dielectric constant tensor:
#      x y z
#    x 1.791320 0.000000 0.000000 
#    y 0.000000 1.771160 0.000000 
#    z 0.000000 0.000000 1.791230 
# 
# From -- ./inp_files/1633.got.cif
#   From: 2010.03.12/outbox.cif.g09.slc.cpg/sg30_1_cif.got.tgz:1633.got - 2010.04.14 01:38:02.
