data_PCOD8169355
_publ_section_title
;
Structure prediction by ZEFSAII (Michael W. Deem and Ramdas Pophale) SiO2 
 PCOD8169355
Probable space group: P C A 21
;
_chemical_formula_sum "Si O2"
_cell_formula_units_Z 32
_cell_length_a 10.128513
_cell_length_b 9.700843
_cell_length_c 15.540731
_cell_angle_alpha 90.000000
_cell_angle_beta 90.000000
_cell_angle_gamma 90.000000
_cell_volume 1526.956303
_symmetry_space_group_name_H-M "P C A 21"
_symmetry_group_IT_number 29
_symmetry_cell_setting 'orthorhombic'
loop_
_space_group_symop_operation_xyz
x,y,z
-x,-y,1/2+z
1/2-x,y,1/2+z
1/2+x,-y,z
loop_
_atom_site_type_symbol
_atom_site_label
_atom_site_fract_x
_atom_site_fract_y
_atom_site_fract_z
Si Si1 0.917556 0.146333 0.435610
Si Si2 0.709869 0.924579 0.637583
Si Si3 0.976990 0.439565 0.381441
Si Si4 0.709867 0.924580 0.436896
Si Si5 0.756319 0.627008 0.386990
Si Si6 0.243684 0.372994 0.187489
Si Si7 0.417557 0.853668 0.638872
Si Si8 0.976987 0.439564 0.693039
O O1 0.911517 0.287324 0.380876
O O2 0.909378 0.179949 0.537241
O O3 0.054223 0.063984 0.414743
O O4 0.792727 0.056061 0.403253
O O5 0.733458 0.910135 0.537240
O O6 0.775883 0.789761 0.679194
O O7 0.554225 0.936016 0.659738
O O8 0.792729 0.056058 0.671229
O O9 0.878453 0.544942 0.430774
O O10 0.118046 0.423409 0.430316
O O11 0.000003 0.499996 0.287239
O O12 0.775882 0.789764 0.395284
O O13 0.750004 0.586598 0.287240
O O14 0.121554 0.455065 0.143705
O O15 0.381958 0.423409 0.144163
O O16 0.411517 0.712679 0.693608
#
# Coordination Sequence:
#
# PCOD8169355 Si02
#       8
#     4   4   4   4   4   4   4   4
#     4   9  18  33  52  74 100 129 162 201 244 290
#     4   9  18  33  51  72  99 127 159 201 244 289
#     4   9  18  33  50  70  99 131 164 203 243 287
#     4   9  18  33  51  72  99 127 159 201 244 289
#     4   9  18  33  49  70  98 129 163 199 242 288
#     4   9  18  33  49  70  98 129 163 199 242 288
#     4   9  18  33  52  74 100 129 162 201 244 290
#     4   9  18  33  50  70  99 131 164 203 243 287
#
# _framework density 20.956723
#
# number of rings (size 3 to 8) (size 9 to 14) (size 15 to 20)
#    0.000    3.000    0.000    0.000    0.000    3.000 
#    0.000   15.000    0.000    0.000    0.000    0.000 
#    0.000    0.000    0.000    0.000    0.000    0.000 
#
# Total GULP energy -396484.151097 kJ/mol
# GULP energy per Si atom -12390.129722 kJ/mol
# Density = 2.090902 g / cm^3
# Si number density = 20.956723 Si / 1000 Ang^3
#
#
#
# Elastic Constant Matrix: (Units=GPa)
#
#
# Indices 1 2 3 4 5 6 
#
# 1 63.3240 48.1250 17.4280 0.0000 0.0000 0.0000
# 2 48.1250 115.6273 27.3110 0.0000 0.0000 0.0000
# 3 17.4280 27.3110 20.5590 0.0000 0.0000 0.0000
# 4 0.0000 0.0000 0.0000 13.4701 0.0000 0.0000
# 5 0.0000 0.0000 0.0000 0.0000 11.5463 0.0000
# 6 0.0000 0.0000 0.0000 0.0000 0.0000 53.1000
#
#
#
# Elastic Compliance Matrix: (Units=1/GPa)
#
#
# Indices 1 2 3 4 5 6 
#
# 1 0.024576 -0.007735 -0.010558 0.000000 0.000000 0.000000
# 2 -0.007735 0.015037 -0.013419 0.000000 0.000000 0.000000
# 3 -0.010558 -0.013419 0.075417 0.000000 0.000000 0.000000
# 4 0.000000 0.000000 0.000000 0.074238 0.000000 0.000000
# 5 0.000000 0.000000 0.000000 0.000000 0.086608 0.000000
# 6 0.000000 0.000000 0.000000 0.000000 0.000000 0.018832
#
#
# Mechanical properties :
#
#
# Convention : Reuss Voigt Hill
#
# Bulk Modulus (GPa) = 19.37753 42.80427 31.09090
# Shear Modulus (GPa) = 13.32144 22.73302 18.02723
#
# Velocity S-wave (km/s) = 2.52397 3.29714 2.93612
# Velocity P-wave (km/s) = 4.21431 5.91306 5.13443
#
# Compressibility (1/GPa) = 0.05160615
#
# Stress axis : x y z
#
# Youngs Moduli (GPa) = 40.69017 66.50100 13.25966
#
# Poissons Ratio (x) = 0.51438 0.14000
# Poissons Ratio (y) = 0.31474 0.17793
# Poissons Ratio (z) = 0.42961 0.89238
#
# Static dielectric constant tensor:
#      x y z
#    x 4.803180 0.000000 0.000000 
#    y 0.000000 3.828060 0.000000 
#    z 0.000000 0.000000 3.333240 
# 
# 
# High freq. dielectric constant tensor:
#      x y z
#    x 1.836530 0.000000 0.000000 
#    y 0.000000 1.817580 0.000000 
#    z 0.000000 0.000000 1.779830 
# 
# From -- ./inp_files/5155.got.cif
#   From: 2010.03.12/outbox.cif.g09.slc.cpg/sg29_3_cif.got.tgz:5155.got - 2010.04.14 03:43:10.
