data_PCOD8169413
_publ_section_title
;
Structure prediction by ZEFSAII (Michael W. Deem and Ramdas Pophale) SiO2 
 PCOD8169413
Probable space group: P N C 2
;
_chemical_formula_sum "Si O2"
_cell_formula_units_Z 26
_cell_length_a 8.479157
_cell_length_b 15.364570
_cell_length_c 9.682931
_cell_angle_alpha 90.000000
_cell_angle_beta 90.000000
_cell_angle_gamma 90.000000
_cell_volume 1261.478707
_symmetry_space_group_name_H-M "P N C 2"
_symmetry_group_IT_number 30
_symmetry_cell_setting 'orthorhombic'
loop_
_space_group_symop_operation_xyz
x,y,z
-x,-y,z
-x,1/2+y,1/2+z
x,1/2-y,1/2+z
loop_
_atom_site_type_symbol
_atom_site_label
_atom_site_fract_x
_atom_site_fract_y
_atom_site_fract_z
Si Si1 0.451306 0.589570 0.770240
Si Si2 0.788519 0.849247 0.185848
Si Si3 0.481616 0.594028 0.250322
Si Si4 0.718001 0.787299 0.896939
Si Si5 0.000000 0.000000 0.110282
Si Si6 0.731889 0.393720 0.505392
Si Si7 0.603322 0.209184 0.502519
O O1 0.500000 0.500000 0.845843
O O2 0.601850 0.639327 0.708620
O O3 0.343251 0.564674 0.641960
O O4 0.347337 0.645624 0.877625
O O5 0.829518 0.773989 0.299365
O O6 0.891582 0.937296 0.208580
O O7 0.821068 0.821270 0.026429
O O8 0.500000 0.500000 0.176528
O O9 0.647077 0.633330 0.305474
O O10 0.362707 0.573422 0.374224
O O11 0.396261 0.661277 0.148877
O O12 0.574354 0.735935 0.967261
O O13 0.094627 0.935237 0.006977
O O14 0.727009 0.288381 0.512518
#
# Coordination Sequence:
#
# PCOD8169413 Si02
#       7
#     4   4   4   4   2   4   4
#     4  11  19  36  64  89 117 153 203 260 300 355
#     4  11  21  40  62  89 122 157 213 245 310 359
#     4  11  19  34  63  96 120 145 197 259 305 354
#     4  10  19  37  63  90 120 159 195 256 306 364
#     4  12  26  40  60  90 120 178 208 248 286 380
#     4  11  21  39  59  86 121 159 209 244 296 358
#     4  10  20  35  61  94 121 149 194 259 318 345
#
# _framework density 20.610733
#
# number of rings (size 3 to 8) (size 9 to 14) (size 15 to 20)
#    0.000    1.231    6.154    3.692    0.000    0.000 
#    5.538    0.000    0.000    1.846    0.000    0.000 
#    0.000    0.000    0.000    0.000    0.000    0.000 
#
# Total GULP energy -322227.835435 kJ/mol
# GULP energy per Si atom -12393.378286 kJ/mol
# Density = 2.056382 g / cm^3
# Si number density = 20.610733 Si / 1000 Ang^3
#
#
#
# Elastic Constant Matrix: (Units=GPa)
#
#
# Indices 1 2 3 4 5 6 
#
# 1 59.2865 38.3639 28.2434 0.0000 0.0000 0.0000
# 2 38.3639 153.3854 52.4755 0.0000 0.0000 0.0000
# 3 28.2434 52.4755 100.2926 0.0000 0.0000 0.0000
# 4 0.0000 0.0000 0.0000 20.4644 0.0000 0.0000
# 5 0.0000 0.0000 0.0000 0.0000 6.0576 0.0000
# 6 0.0000 0.0000 0.0000 0.0000 0.0000 35.4448
#
#
#
# Elastic Compliance Matrix: (Units=1/GPa)
#
#
# Indices 1 2 3 4 5 6 
#
# 1 0.021315 -0.003992 -0.003914 0.000000 0.000000 0.000000
# 2 -0.003992 0.008689 -0.003422 0.000000 0.000000 0.000000
# 3 -0.003914 -0.003422 0.012863 0.000000 0.000000 0.000000
# 4 0.000000 0.000000 0.000000 0.048865 0.000000 0.000000
# 5 0.000000 0.000000 0.000000 0.000000 0.165083 0.000000
# 6 0.000000 0.000000 0.000000 0.000000 0.000000 0.028213
#
#
# Mechanical properties :
#
#
# Convention : Reuss Voigt Hill
#
# Bulk Modulus (GPa) = 49.47686 61.23667 55.35677
# Shear Modulus (GPa) = 15.90225 25.31880 20.61052
#
# Velocity S-wave (km/s) = 2.78070 3.50870 3.16569
# Velocity P-wave (km/s) = 5.86235 6.79633 6.34655
#
# Compressibility (1/GPa) = 0.02021147
#
# Stress axis : x y z
#
# Youngs Moduli (GPa) = 46.91523 115.09169 77.74012
#
# Poissons Ratio (x) = 0.45948 0.30425
# Poissons Ratio (y) = 0.18730 0.26602
# Poissons Ratio (z) = 0.18361 0.39383
#
# Static dielectric constant tensor:
#      x y z
#    x 3.247710 0.000000 0.000000 
#    y 0.000000 4.096460 0.000000 
#    z 0.000000 0.000000 3.794580 
# 
# 
# High freq. dielectric constant tensor:
#      x y z
#    x 1.750940 0.000000 0.000000 
#    y 0.000000 1.829140 0.000000 
#    z 0.000000 0.000000 1.802280 
# 
# From -- ./inp_files/3718.got.cif
#   From: 2010.03.12/outbox.cif.g09.slc.cpg/sg30_2_cif.got.tgz:3718.got - 2010.04.14 01:38:02.
