data_PCOD8169055
_publ_section_title
;
Structure prediction by ZEFSAII (Michael W. Deem and Ramdas Pophale) SiO2 
 PCOD8169055
Probable space group: P C A 21
;
_chemical_formula_sum "Si O2"
_cell_formula_units_Z 24
_cell_length_a 8.344988
_cell_length_b 10.602942
_cell_length_c 11.647593
_cell_angle_alpha 90.000000
_cell_angle_beta 90.000000
_cell_angle_gamma 90.000000
_cell_volume 1030.595612
_symmetry_space_group_name_H-M "P C A 21"
_symmetry_group_IT_number 29
_symmetry_cell_setting 'orthorhombic'
loop_
_space_group_symop_operation_xyz
x,y,z
-x,-y,1/2+z
1/2-x,y,1/2+z
1/2+x,-y,z
loop_
_atom_site_type_symbol
_atom_site_label
_atom_site_fract_x
_atom_site_fract_y
_atom_site_fract_z
Si Si1 0.560131 0.156279 0.700480
Si Si2 0.485812 0.435819 0.351394
Si Si3 0.537495 0.841856 0.463041
Si Si4 0.792270 0.987773 0.581537
Si Si5 0.733962 0.403623 0.700932
Si Si6 0.291787 0.404803 0.002989
O O1 0.512124 0.176517 0.831892
O O2 0.399543 0.128284 0.627716
O O3 0.648470 0.279987 0.647781
O O4 0.679433 0.037112 0.685588
O O5 0.389054 0.551775 0.297981
O O6 0.591810 0.363006 0.254618
O O7 0.614590 0.486337 0.439400
O O8 0.357588 0.353069 0.424684
O O9 0.685388 0.938664 0.475184
O O10 0.588352 0.711174 0.524715
O O11 0.388714 0.892935 0.534925
O O12 0.767847 0.524163 0.618126
#
# Coordination Sequence:
#
# PCOD8169055 Si02
#       6
#     4   4   4   4   4   4
#     4  11  24  48  70 102 141 184 233 289 340 414
#     4  10  24  42  62 104 134 180 220 274 362 406
#     4  11  24  48  70 102 141 184 233 289 340 414
#     4  10  26  44  74 104 136 188 238 282 340 400
#     4  11  24  42  70 102 137 178 228 282 349 415
#     4  11  24  42  70 102 137 178 228 282 349 415
#
# _framework density 23.287504999999999
#
# number of rings (size 3 to 8) (size 9 to 14) (size 15 to 20)
#    0.000    1.333    1.667    2.000    9.333    0.000 
#    9.000    0.000    0.000    0.000    0.000    0.000 
#    0.000    0.000    0.000    0.000    0.000    0.000 
#
# Total GULP energy -297432.816311 kJ/mol
# GULP energy per Si atom -12393.034013 kJ/mol
# Density = 2.323450 g / cm^3
# Si number density = 23.287505 Si / 1000 Ang^3
#
#
#
# Elastic Constant Matrix: (Units=GPa)
#
#
# Indices 1 2 3 4 5 6 
#
# 1 116.3307 39.9037 38.3550 0.0000 0.0000 0.0000
# 2 39.9037 103.9992 34.7520 0.0000 0.0000 0.0000
# 3 38.3550 34.7520 93.7972 0.0000 0.0000 0.0000
# 4 0.0000 0.0000 0.0000 25.9455 0.0000 0.0000
# 5 0.0000 0.0000 0.0000 0.0000 29.5022 0.0000
# 6 0.0000 0.0000 0.0000 0.0000 0.0000 35.1418
#
#
#
# Elastic Compliance Matrix: (Units=1/GPa)
#
#
# Indices 1 2 3 4 5 6 
#
# 1 0.010706 -0.003019 -0.003260 0.000000 0.000000 0.000000
# 2 -0.003019 0.011825 -0.003147 0.000000 0.000000 0.000000
# 3 -0.003260 -0.003147 0.013160 0.000000 0.000000 0.000000
# 4 0.000000 0.000000 0.000000 0.038542 0.000000 0.000000
# 5 0.000000 0.000000 0.000000 0.000000 0.033896 0.000000
# 6 0.000000 0.000000 0.000000 0.000000 0.000000 0.028456
#
#
# Mechanical properties :
#
#
# Convention : Reuss Voigt Hill
#
# Bulk Modulus (GPa) = 59.37741 60.01649 59.69695
# Shear Modulus (GPa) = 31.04623 31.52566 31.28595
#
# Velocity S-wave (km/s) = 3.65522 3.68334 3.66931
# Velocity P-wave (km/s) = 6.58537 6.62701 6.60622
#
# Compressibility (1/GPa) = 0.01684142
#
# Stress axis : x y z
#
# Youngs Moduli (GPa) = 93.40243 84.56462 75.98732
#
# Poissons Ratio (x) = 0.25528 0.24768
# Poissons Ratio (y) = 0.28196 0.23912
# Poissons Ratio (z) = 0.30445 0.26611
#
# Static dielectric constant tensor:
#      x y z
#    x 4.726200 0.000000 0.000000 
#    y 0.000000 3.908290 0.000000 
#    z 0.000000 0.000000 4.110130 
# 
# 
# High freq. dielectric constant tensor:
#      x y z
#    x 1.946820 0.000000 0.000000 
#    y 0.000000 1.899050 0.000000 
#    z 0.000000 0.000000 1.910340 
# 
# From -- ./inp_files/2842.got.cif
#   From: 2010.03.12/outbox.cif.g09.slc.cpg/sg29_2_cif.got.tgz:2842.got - 2010.04.14 03:43:10.
