data_PCOD8169463
_publ_section_title
;
Structure prediction by ZEFSAII (Michael W. Deem and Ramdas Pophale) SiO2 
 PCOD8169463
Probable space group: P N C 2
;
_chemical_formula_sum "Si O2"
_cell_formula_units_Z 18
_cell_length_a 5.913380
_cell_length_b 9.544716
_cell_length_c 14.289864
_cell_angle_alpha 90.000000
_cell_angle_beta 90.000000
_cell_angle_gamma 90.000000
_cell_volume 806.541826
_symmetry_space_group_name_H-M "P N C 2"
_symmetry_group_IT_number 30
_symmetry_cell_setting 'orthorhombic'
loop_
_space_group_symop_operation_xyz
x,y,z
-x,-y,z
-x,1/2+y,1/2+z
x,1/2-y,1/2+z
loop_
_atom_site_type_symbol
_atom_site_label
_atom_site_fract_x
_atom_site_fract_y
_atom_site_fract_z
Si Si1 0.761792 0.058503 0.515260
Si Si2 0.343539 0.709742 0.640294
Si Si3 0.249495 0.251864 0.998517
Si Si4 0.000000 0.500000 0.565137
Si Si5 0.433646 0.845815 0.343445
O O1 0.803577 0.158642 0.604059
O O2 0.779263 0.142556 0.415785
O O3 0.109990 0.096777 0.518955
O O4 0.500000 0.000000 0.512799
O O5 0.577073 0.713597 0.582023
O O6 0.204591 0.563485 0.627819
O O7 0.378861 0.739843 0.749920
O O8 0.365196 0.263717 0.897533
O O9 0.075762 0.124633 0.996022
O O10 0.500000 0.000000 0.307834
#
# Coordination Sequence:
#
# PCOD8169463 Si02
#       5
#     4   4   4   2   4
#     4  10  20  42  67  88 124 172 216 251 321 387
#     4  11  22  40  65  93 126 165 215 269 311 379
#     4  10  22  42  64  90 129 173 207 261 328 380
#     4  12  22  36  66  96 130 164 214 266 324 376
#     4   9  20  38  65  90 124 168 213 266 317 382
#
# _framework density 22.317505000000001
#
# number of rings (size 3 to 8) (size 9 to 14) (size 15 to 20)
#    0.000    1.778    2.222    4.000    1.556    0.000 
#    0.000    8.889   12.222    0.000    0.000    0.000 
#    0.000    0.000    0.000    0.000    0.000    0.000 
#
# Total GULP energy -223025.725283 kJ/mol
# GULP energy per Si atom -12390.318071 kJ/mol
# Density = 2.226671 g / cm^3
# Si number density = 22.317505 Si / 1000 Ang^3
#
#
#
# Elastic Constant Matrix: (Units=GPa)
#
#
# Indices 1 2 3 4 5 6 
#
# 1 91.8161 55.2869 49.8839 0.0000 0.0000 0.0000
# 2 55.2869 158.9147 80.8996 0.0000 0.0000 0.0000
# 3 49.8839 80.8996 199.2369 0.0000 0.0000 0.0000
# 4 0.0000 0.0000 0.0000 29.4399 0.0000 0.0000
# 5 0.0000 0.0000 0.0000 0.0000 16.9862 0.0000
# 6 0.0000 0.0000 0.0000 0.0000 0.0000 51.7599
#
#
#
# Elastic Compliance Matrix: (Units=1/GPa)
#
#
# Indices 1 2 3 4 5 6 
#
# 1 0.014370 -0.003993 -0.001976 0.000000 0.000000 0.000000
# 2 -0.003993 0.009042 -0.002672 0.000000 0.000000 0.000000
# 3 -0.001976 -0.002672 0.006599 0.000000 0.000000 0.000000
# 4 0.000000 0.000000 0.000000 0.033968 0.000000 0.000000
# 5 0.000000 0.000000 0.000000 0.000000 0.058871 0.000000
# 6 0.000000 0.000000 0.000000 0.000000 0.000000 0.019320
#
#
# Mechanical properties :
#
#
# Convention : Reuss Voigt Hill
#
# Bulk Modulus (GPa) = 78.56692 91.34540 84.95616
# Shear Modulus (GPa) = 30.54474 37.23035 33.88754
#
# Velocity S-wave (km/s) = 3.70353 4.08881 3.90093
# Velocity P-wave (km/s) = 7.31907 7.95675 7.64456
#
# Compressibility (1/GPa) = 0.01272800
#
# Stress axis : x y z
#
# Youngs Moduli (GPa) = 69.59170 110.59517 151.54198
#
# Poissons Ratio (x) = 0.44161 0.29951
# Poissons Ratio (y) = 0.27788 0.40488
# Poissons Ratio (z) = 0.13754 0.29548
#
# Static dielectric constant tensor:
#      x y z
#    x 4.964990 0.000000 0.000000 
#    y 0.000000 4.778800 0.000000 
#    z 0.000000 0.000000 3.693430 
# 
# 
# High freq. dielectric constant tensor:
#      x y z
#    x 1.913390 0.000000 0.000000 
#    y 0.000000 1.890570 0.000000 
#    z 0.000000 0.000000 1.850420 
# 
# From -- ./inp_files/4574.got.cif
#   From: 2010.03.12/outbox.cif.g09.slc.cpg/sg30_3_cif.got.tgz:4574.got - 2010.04.14 01:38:02.
