data_PCOD8169881
_publ_section_title
;
Structure prediction by ZEFSAII (Michael W. Deem and Ramdas Pophale) SiO2 
 PCOD8169881
Probable space group: P M N 21
;
_chemical_formula_sum "Si O2"
_cell_formula_units_Z 32
_cell_length_a 8.805640
_cell_length_b 13.658753
_cell_length_c 13.033537
_cell_angle_alpha 90.000000
_cell_angle_beta 90.000000
_cell_angle_gamma 90.000000
_cell_volume 1567.596434
_symmetry_space_group_name_H-M "P M N 21"
_symmetry_group_IT_number 31
_symmetry_cell_setting 'orthorhombic'
loop_
_space_group_symop_operation_xyz
x,y,z
1/2-x,-y,1/2+z
-x,y,z
1/2+x,-y,1/2+z
loop_
_atom_site_type_symbol
_atom_site_label
_atom_site_fract_x
_atom_site_fract_y
_atom_site_fract_z
Si Si1 0.180621 0.178739 0.832310
Si Si2 0.179316 0.111899 0.607469
Si Si3 0.179506 0.763647 0.711502
Si Si4 0.833277 0.538220 0.014567
Si Si5 0.169426 0.393675 0.843088
Si Si6 0.680015 0.908736 0.546443
Si Si7 0.325258 0.249112 0.444326
Si Si8 0.324381 0.453519 0.193140
O O1 0.233686 0.130910 0.724877
O O2 0.251756 0.288431 0.838335
O O3 0.000000 0.183053 0.837956
O O4 0.240841 0.120972 0.932749
O O5 0.222120 0.201420 0.532614
O O6 0.000000 0.095335 0.604170
O O7 0.264010 0.017426 0.566245
O O8 0.259315 0.838738 0.635669
O O9 0.218391 0.789272 0.830426
O O10 0.246003 0.655191 0.686542
O O11 0.000000 0.770203 0.692591
O O12 0.698311 0.520547 0.093574
O O13 0.000000 0.553028 0.066452
O O14 0.838642 0.434643 0.956904
O O15 0.798361 0.633422 0.945091
O O16 0.255318 0.479217 0.779906
O O17 0.000000 0.379199 0.796689
O O18 0.500000 0.905443 0.549683
O O19 0.500000 0.222838 0.467585
O O20 0.500000 0.438163 0.220034
#
# Coordination Sequence:
#
# PCOD8169881 Si02
#       8
#     4   4   4   4   4   4   4   4
#     4   9  20  38  60  85 118 154 197 245 298 361
#     4  11  24  42  64  91 117 155 203 255 310 364
#     4  10  21  39  61  89 125 164 203 246 301 364
#     4  10  19  33  56  85 118 157 198 239 287 345
#     4   9  16  32  56  81 110 152 193 225 274 347
#     4  11  24  42  64  91 117 155 203 255 310 364
#     4  10  21  39  61  89 125 164 203 246 301 364
#     4  10  19  33  56  85 118 157 198 239 287 345
#
# _framework density 20.413416999999999
#
# number of rings (size 3 to 8) (size 9 to 14) (size 15 to 20)
#    0.000    2.000    1.250    2.250    1.750    3.500 
#    0.000    2.500    0.000    6.000    0.000    0.000 
#    0.000    0.000    0.000    0.000    0.000    0.000 
#
# Total GULP energy -396536.570168 kJ/mol
# GULP energy per Si atom -12391.767818 kJ/mol
# Density = 2.036695 g / cm^3
# Si number density = 20.413417 Si / 1000 Ang^3
#
#
#
# Elastic Constant Matrix: (Units=GPa)
#
#
# Indices 1 2 3 4 5 6 
#
# 1 36.3157 20.2666 30.1068 0.0000 0.0000 0.0000
# 2 20.2666 126.8236 53.5930 0.0000 0.0000 0.0000
# 3 30.1068 53.5930 137.4853 0.0000 0.0000 0.0000
# 4 0.0000 0.0000 0.0000 38.1199 0.0000 0.0000
# 5 0.0000 0.0000 0.0000 0.0000 29.2873 0.0000
# 6 0.0000 0.0000 0.0000 0.0000 0.0000 7.0234
#
#
#
# Elastic Compliance Matrix: (Units=1/GPa)
#
#
# Indices 1 2 3 4 5 6 
#
# 1 0.034440 -0.002773 -0.006461 0.000000 0.000000 0.000000
# 2 -0.002773 0.009663 -0.003160 0.000000 0.000000 0.000000
# 3 -0.006461 -0.003160 0.009920 0.000000 0.000000 0.000000
# 4 0.000000 0.000000 0.000000 0.026233 0.000000 0.000000
# 5 0.000000 0.000000 0.000000 0.000000 0.034144 0.000000
# 6 0.000000 0.000000 0.000000 0.000000 0.000000 0.142382
#
#
# Mechanical properties :
#
#
# Convention : Reuss Voigt Hill
#
# Bulk Modulus (GPa) = 34.20428 56.50637 45.35533
# Shear Modulus (GPa) = 17.16355 27.99667 22.58011
#
# Velocity S-wave (km/s) = 2.90280 3.70737 3.32948
# Velocity P-wave (km/s) = 5.29407 6.78729 6.08664
#
# Compressibility (1/GPa) = 0.02923611
#
# Stress axis : x y z
#
# Youngs Moduli (GPa) = 29.03586 103.48416 100.80768
#
# Poissons Ratio (x) = 0.28701 0.65128
# Poissons Ratio (y) = 0.08053 0.31850
# Poissons Ratio (z) = 0.18759 0.32696
#
# Static dielectric constant tensor:
#      x y z
#    x 3.365500 0.000000 0.000000 
#    y 0.000000 3.893270 0.000000 
#    z 0.000000 0.000000 3.845630 
# 
# 
# High freq. dielectric constant tensor:
#      x y z
#    x 1.756700 0.000000 0.000000 
#    y 0.000000 1.811910 0.000000 
#    z 0.000000 0.000000 1.807010 
# 
# From -- ./inp_files/3744.got.cif
#   From: 2010.03.12/outbox.cif.g09.slc.cpg/sg31_2_cif.got.tgz:3744.got - 2010.04.14 01:42:59.
