data_PCOD8169547
_publ_section_title
;
Structure prediction by ZEFSAII (Michael W. Deem and Ramdas Pophale) SiO2 
 PCOD8169547
Probable space group: P N C 2
;
_chemical_formula_sum "Si O2"
_cell_formula_units_Z 24
_cell_length_a 12.078672
_cell_length_b 9.601786
_cell_length_c 8.875772
_cell_angle_alpha 90.000000
_cell_angle_beta 90.000000
_cell_angle_gamma 90.000000
_cell_volume 1029.383845
_symmetry_space_group_name_H-M "P N C 2"
_symmetry_group_IT_number 30
_symmetry_cell_setting 'orthorhombic'
loop_
_space_group_symop_operation_xyz
x,y,z
-x,-y,z
-x,1/2+y,1/2+z
x,1/2-y,1/2+z
loop_
_atom_site_type_symbol
_atom_site_label
_atom_site_fract_x
_atom_site_fract_y
_atom_site_fract_z
Si Si1 0.891518 0.849838 0.072460
Si Si2 0.408057 0.095566 0.477537
Si Si3 0.198346 0.605297 0.021942
Si Si4 0.864369 0.356730 0.688426
Si Si5 0.829797 0.600130 0.249085
Si Si6 0.412466 0.110522 0.813663
O O1 0.810649 0.729818 0.134158
O O2 0.012070 0.817552 0.137657
O O3 0.835242 0.990029 0.131665
O O4 0.904787 0.856503 0.891093
O O5 0.452570 0.135670 0.643174
O O6 0.398076 0.240624 0.392184
O O7 0.500000 0.000000 0.395367
O O8 0.299147 0.998106 0.484393
O O9 0.136643 0.646293 0.869108
O O10 0.223634 0.750642 0.110385
O O11 0.119771 0.523207 0.143914
O O12 0.711220 0.546292 0.312425
O O13 0.500000 0.000000 0.889616
#
# Coordination Sequence:
#
# PCOD8169547 Si02
#       6
#     4   4   4   4   4   4
#     4  11  23  40  65  95 132 175 225 273 332 399
#     4  10  23  41  65  98 130 171 221 273 333 398
#     4  11  24  42  65  94 135 176 224 277 333 398
#     4  11  24  41  61  96 132 176 224 275 335 394
#     4  11  22  41  65  94 130 175 221 275 334 398
#     4  10  22  41  63  93 130 168 217 271 331 396
#
# _framework density 23.314917000000001
#
# number of rings (size 3 to 8) (size 9 to 14) (size 15 to 20)
#    0.000    1.333    0.000    6.000    0.000    9.333 
#    0.000    0.000    0.000    0.000    0.000    0.000 
#    0.000    0.000    0.000    0.000    0.000    0.000 
#
# Total GULP energy -297346.498547 kJ/mol
# GULP energy per Si atom -12389.437439 kJ/mol
# Density = 2.326185 g / cm^3
# Si number density = 23.314917 Si / 1000 Ang^3
#
#
#
# Elastic Constant Matrix: (Units=GPa)
#
#
# Indices 1 2 3 4 5 6 
#
# 1 78.2216 35.9763 32.9726 0.0000 0.0000 0.0000
# 2 35.9763 158.1638 64.4518 0.0000 0.0000 0.0000
# 3 32.9726 64.4518 177.6945 0.0000 0.0000 0.0000
# 4 0.0000 0.0000 0.0000 53.6607 0.0000 0.0000
# 5 0.0000 0.0000 0.0000 0.0000 20.2877 0.0000
# 6 0.0000 0.0000 0.0000 0.0000 0.0000 34.9717
#
#
#
# Elastic Compliance Matrix: (Units=1/GPa)
#
#
# Indices 1 2 3 4 5 6 
#
# 1 0.014744 -0.002627 -0.001783 0.000000 0.000000 0.000000
# 2 -0.002627 0.007887 -0.002373 0.000000 0.000000 0.000000
# 3 -0.001783 -0.002373 0.006819 0.000000 0.000000 0.000000
# 4 0.000000 0.000000 0.000000 0.018636 0.000000 0.000000
# 5 0.000000 0.000000 0.000000 0.000000 0.049291 0.000000
# 6 0.000000 0.000000 0.000000 0.000000 0.000000 0.028595
#
#
# Mechanical properties :
#
#
# Convention : Reuss Voigt Hill
#
# Bulk Modulus (GPa) = 62.95743 75.65348 69.30546
# Shear Modulus (GPa) = 34.52247 40.49597 37.50922
#
# Velocity S-wave (km/s) = 3.85217 4.17215 4.01535
# Velocity P-wave (km/s) = 6.84451 7.46512 7.16154
#
# Compressibility (1/GPa) = 0.01588375
#
# Stress axis : x y z
#
# Youngs Moduli (GPa) = 67.82387 126.78665 146.64246
#
# Poissons Ratio (x) = 0.33309 0.26146
# Poissons Ratio (y) = 0.17818 0.34803
# Poissons Ratio (z) = 0.12093 0.30090
#
# Static dielectric constant tensor:
#      x y z
#    x 3.881650 0.000000 0.000000 
#    y 0.000000 4.425210 0.000000 
#    z 0.000000 0.000000 4.458770 
# 
# 
# High freq. dielectric constant tensor:
#      x y z
#    x 1.894150 0.000000 0.000000 
#    y 0.000000 1.940150 0.000000 
#    z 0.000000 0.000000 1.931220 
# 
# From -- ./inp_files/2634.got.cif
#   From: 2010.03.12/outbox.cif.g09.slc.cpg/sg30_2_cif.got.tgz:2634.got - 2010.04.14 01:38:02.
