data_PCOD8169262
_publ_section_title
;
Structure prediction by ZEFSAII (Michael W. Deem and Ramdas Pophale) SiO2 
 PCOD8169262
Probable space group: P C A 21
;
_chemical_formula_sum "Si O2"
_cell_formula_units_Z 24
_cell_length_a 13.386038
_cell_length_b 6.478883
_cell_length_c 11.773305
_cell_angle_alpha 90.000000
_cell_angle_beta 90.000000
_cell_angle_gamma 90.000000
_cell_volume 1021.058408
_symmetry_space_group_name_H-M "P C A 21"
_symmetry_group_IT_number 29
_symmetry_cell_setting 'orthorhombic'
loop_
_space_group_symop_operation_xyz
x,y,z
-x,-y,1/2+z
1/2-x,y,1/2+z
1/2+x,-y,z
loop_
_atom_site_type_symbol
_atom_site_label
_atom_site_fract_x
_atom_site_fract_y
_atom_site_fract_z
Si Si1 0.109036 0.716114 0.943330
Si Si2 0.434349 0.975682 0.932711
Si Si3 0.238563 0.933307 0.585222
Si Si4 0.136621 0.219899 0.220278
Si Si5 0.803894 0.440131 0.225372
Si Si6 0.477562 0.592241 0.070007
O O1 0.126857 0.568149 0.836620
O O2 0.040110 0.913632 0.922104
O O3 0.216958 0.790106 0.985562
O O4 0.053546 0.587547 0.040240
O O5 0.373214 0.051056 0.821281
O O6 0.366241 0.031613 0.042905
O O7 0.455534 0.730789 0.955998
O O8 0.228774 0.795092 0.698780
O O9 0.313158 0.117130 0.611138
O O10 0.209535 0.411672 0.251562
O O11 0.027322 0.285025 0.176130
O O12 0.874039 0.506383 0.117888
#
# Coordination Sequence:
#
# PCOD8169262 Si02
#       6
#     4   4   4   4   4   4
#     4  12  24  44  72 102 143 187 240 299 358 437
#     4  11  26  45  72 103 143 190 240 294 370 427
#     4  11  25  45  69 104 141 184 240 302 358 431
#     4  12  24  45  73 102 141 190 239 304 360 431
#     4  11  26  45  69 105 142 187 242 293 366 430
#     4  11  25  46  69 106 144 186 241 304 362 430
#
# _framework density 23.505022
#
# number of rings (size 3 to 8) (size 9 to 14) (size 15 to 20)
#    0.000    0.667    5.000    2.000    2.333    6.667 
#    0.000    0.000    0.000    0.000    0.000    0.000 
#    0.000    0.000    0.000    0.000    0.000    0.000 
#
# Total GULP energy -297352.688711 kJ/mol
# GULP energy per Si atom -12389.695363 kJ/mol
# Density = 2.345152 g / cm^3
# Si number density = 23.505022 Si / 1000 Ang^3
#
#
#
# Elastic Constant Matrix: (Units=GPa)
#
#
# Indices 1 2 3 4 5 6 
#
# 1 94.5363 12.3592 14.9617 0.0000 0.0000 0.0000
# 2 12.3592 37.3424 18.2527 0.0000 0.0000 0.0000
# 3 14.9617 18.2527 66.8682 0.0000 0.0000 0.0000
# 4 0.0000 0.0000 0.0000 35.4996 0.0000 0.0000
# 5 0.0000 0.0000 0.0000 0.0000 46.8875 0.0000
# 6 0.0000 0.0000 0.0000 0.0000 0.0000 40.8527
#
#
#
# Elastic Compliance Matrix: (Units=1/GPa)
#
#
# Indices 1 2 3 4 5 6 
#
# 1 0.011227 -0.002871 -0.001728 0.000000 0.000000 0.000000
# 2 -0.002871 0.031636 -0.007993 0.000000 0.000000 0.000000
# 3 -0.001728 -0.007993 0.017523 0.000000 0.000000 0.000000
# 4 0.000000 0.000000 0.000000 0.028169 0.000000 0.000000
# 5 0.000000 0.000000 0.000000 0.000000 0.021328 0.000000
# 6 0.000000 0.000000 0.000000 0.000000 0.000000 0.024478
#
#
# Mechanical properties :
#
#
# Convention : Reuss Voigt Hill
#
# Bulk Modulus (GPa) = 28.40782 32.21045 30.30914
# Shear Modulus (GPa) = 29.19182 34.85951 32.02567
#
# Velocity S-wave (km/s) = 3.52794 3.85524 3.69521
# Velocity P-wave (km/s) = 5.35791 5.79228 5.57933
#
# Compressibility (1/GPa) = 0.03520157
#
# Stress axis : x y z
#
# Youngs Moduli (GPa) = 89.07245 31.60908 57.06654
#
# Poissons Ratio (x) = 0.09075 0.09863
# Poissons Ratio (y) = 0.25572 0.45615
# Poissons Ratio (z) = 0.15395 0.25266
#
# Static dielectric constant tensor:
#      x y z
#    x 4.372010 0.000000 0.000000 
#    y 0.000000 4.027230 0.000000 
#    z 0.000000 0.000000 4.061880 
# 
# 
# High freq. dielectric constant tensor:
#      x y z
#    x 1.953190 0.000000 0.000000 
#    y 0.000000 1.915200 0.000000 
#    z 0.000000 0.000000 1.921480 
# 
# From -- ./inp_files/3342.got.cif
#   From: 2010.03.12/outbox.cif.g09.slc.cpg/sg29_2_cif.got.tgz:3342.got - 2010.04.14 03:43:10.
