data_PCOD8169726
_publ_section_title
;
Structure prediction by ZEFSAII (Michael W. Deem and Ramdas Pophale) SiO2 
 PCOD8169726
Probable space group: P M N 21
;
_chemical_formula_sum "Si O2"
_cell_formula_units_Z 32
_cell_length_a 9.195382
_cell_length_b 12.076056
_cell_length_c 14.609624
_cell_angle_alpha 90.000000
_cell_angle_beta 90.000000
_cell_angle_gamma 90.000000
_cell_volume 1622.310327
_symmetry_space_group_name_H-M "P M N 21"
_symmetry_group_IT_number 31
_symmetry_cell_setting 'orthorhombic'
loop_
_space_group_symop_operation_xyz
x,y,z
1/2-x,-y,1/2+z
-x,y,z
1/2+x,-y,1/2+z
loop_
_atom_site_type_symbol
_atom_site_label
_atom_site_fract_x
_atom_site_fract_y
_atom_site_fract_z
Si Si1 0.166731 0.996840 0.368130
Si Si2 0.328021 0.408112 0.268660
Si Si3 0.836127 0.310037 0.955223
Si Si4 0.664290 0.440752 0.474690
Si Si5 0.167368 0.839410 0.747221
Si Si6 0.673151 0.615823 0.149577
Si Si7 0.170793 0.761094 0.284899
Si Si8 0.832379 0.875841 0.546493
O O1 0.203820 0.889073 0.307645
O O2 0.207020 0.974283 0.475264
O O3 0.000000 0.029222 0.358425
O O4 0.255067 0.101138 0.331594
O O5 0.500000 0.419434 0.266710
O O6 0.273164 0.423054 0.372659
O O7 0.276000 0.286799 0.234391
O O8 0.268167 0.505696 0.202653
O O9 0.735302 0.313545 0.865947
O O10 0.000000 0.273448 0.928019
O O11 0.836972 0.430170 0.999838
O O12 0.770840 0.228135 0.030140
O O13 0.500000 0.392632 0.483715
O O14 0.772887 0.382282 0.545183
O O15 0.191789 0.908454 0.652674
O O16 0.000000 0.835840 0.774692
O O17 0.500000 0.626136 0.152377
O O18 0.744958 0.725430 0.193561
O O19 0.000000 0.738372 0.275028
O O20 0.000000 0.839661 0.528955
#
# Coordination Sequence:
#
# PCOD8169726 Si02
#       8
#     4   4   4   4   4   4   4   4
#     4   9  20  38  57  79 112 145 179 235 292 335
#     4   9  19  37  57  80 116 151 181 229 285 334
#     4  10  18  31  55  83 112 146 187 232 271 328
#     4  10  20  35  52  78 118 154 181 223 285 340
#     4  10  20  37  61  83 108 150 195 233 278 340
#     4  11  21  36  58  85 113 147 192 234 276 340
#     4  10  20  36  57  79 109 146 183 231 290 335
#     4   9  19  36  57  83 112 145 188 239 291 334
#
# _framework density 19.724957
#
# number of rings (size 3 to 8) (size 9 to 14) (size 15 to 20)
#    0.000    2.250    1.250    2.625    0.000    5.000 
#    2.250    1.875    0.000    0.000    0.000    0.000 
#    0.000    0.000    0.000    0.000    0.000    0.000 
#
# Total GULP energy -396708.474338 kJ/mol
# GULP energy per Si atom -12397.139823 kJ/mol
# Density = 1.968006 g / cm^3
# Si number density = 19.724957 Si / 1000 Ang^3
#
#
#
# Elastic Constant Matrix: (Units=GPa)
#
#
# Indices 1 2 3 4 5 6 
#
# 1 65.7523 14.3536 20.4619 0.0000 0.0000 0.0000
# 2 14.3536 44.6226 12.7591 0.0000 0.0000 0.0000
# 3 20.4619 12.7591 90.7094 0.0000 0.0000 0.0000
# 4 0.0000 0.0000 0.0000 25.0358 0.0000 0.0000
# 5 0.0000 0.0000 0.0000 0.0000 30.3419 0.0000
# 6 0.0000 0.0000 0.0000 0.0000 0.0000 27.5892
#
#
#
# Elastic Compliance Matrix: (Units=1/GPa)
#
#
# Indices 1 2 3 4 5 6 
#
# 1 0.017223 -0.004615 -0.003236 0.000000 0.000000 0.000000
# 2 -0.004615 0.024586 -0.002417 0.000000 0.000000 0.000000
# 3 -0.003236 -0.002417 0.012094 0.000000 0.000000 0.000000
# 4 0.000000 0.000000 0.000000 0.039943 0.000000 0.000000
# 5 0.000000 0.000000 0.000000 0.000000 0.032958 0.000000
# 6 0.000000 0.000000 0.000000 0.000000 0.000000 0.036246
#
#
# Mechanical properties :
#
#
# Convention : Reuss Voigt Hill
#
# Bulk Modulus (GPa) = 29.96975 32.91481 31.44228
# Shear Modulus (GPa) = 25.67950 26.82736 26.25343
#
# Velocity S-wave (km/s) = 3.61207 3.69192 3.65221
# Velocity P-wave (km/s) = 5.71164 5.90735 5.81032
#
# Compressibility (1/GPa) = 0.03336697
#
# Stress axis : x y z
#
# Youngs Moduli (GPa) = 58.06186 40.67396 82.68434
#
# Poissons Ratio (x) = 0.18770 0.26757
# Poissons Ratio (y) = 0.26794 0.19987
# Poissons Ratio (z) = 0.18789 0.09832
#
# Static dielectric constant tensor:
#      x y z
#    x 3.475990 0.000000 0.000000 
#    y 0.000000 3.434870 0.000000 
#    z 0.000000 0.000000 3.597720 
# 
# 
# High freq. dielectric constant tensor:
#      x y z
#    x 1.756220 0.000000 0.000000 
#    y 0.000000 1.748830 0.000000 
#    z 0.000000 0.000000 1.771130 
# 
# From -- ./inp_files/5084.got.cif
#   From: 2010.03.12/outbox.cif.g09.slc.cpg/sg31_3_cif.got.tgz:5084.got - 2010.04.14 01:42:59.
