data_PCOD8169625
_publ_section_title
;
Structure prediction by ZEFSAII (Michael W. Deem and Ramdas Pophale) SiO2 
 PCOD8169625
Probable space group: P N C 2
;
_chemical_formula_sum "Si O2"
_cell_formula_units_Z 24
_cell_length_a 15.402464
_cell_length_b 8.895491
_cell_length_c 8.712368
_cell_angle_alpha 90.000000
_cell_angle_beta 90.000000
_cell_angle_gamma 90.000000
_cell_volume 1193.703145
_symmetry_space_group_name_H-M "P N C 2"
_symmetry_group_IT_number 30
_symmetry_cell_setting 'orthorhombic'
loop_
_space_group_symop_operation_xyz
x,y,z
-x,-y,z
-x,1/2+y,1/2+z
x,1/2-y,1/2+z
loop_
_atom_site_type_symbol
_atom_site_label
_atom_site_fract_x
_atom_site_fract_y
_atom_site_fract_z
Si Si1 0.756056 0.147556 0.928790
Si Si2 0.338747 0.209432 0.127139
Si Si3 0.758100 0.047149 0.268165
Si Si4 0.594774 0.556184 0.357497
Si Si5 0.839261 0.679311 0.981175
Si Si6 0.902625 0.949117 0.793480
O O1 0.739252 0.322741 0.892146
O O2 0.663226 0.073958 0.894027
O O3 0.833180 0.081713 0.824049
O O4 0.784274 0.123440 0.106190
O O5 0.370160 0.356261 0.211438
O O6 0.252116 0.250115 0.033337
O O7 0.322826 0.067079 0.240744
O O8 0.412767 0.164095 0.005392
O O9 0.832302 0.943037 0.344131
O O10 0.500000 0.500000 0.314622
O O11 0.890181 0.606817 0.120962
O O12 0.893216 0.817073 0.915816
O O13 0.000000 0.000000 0.814147
#
# Coordination Sequence:
#
# PCOD8169625 Si02
#       6
#     4   4   4   4   4   4
#     4  11  23  42  63 104 134 178 230 290 338 401
#     4  11  20  44  70  92 131 192 220 275 346 410
#     4  11  22  39  74  90 133 184 226 278 347 406
#     4  11  24  41  68 101 135 176 236 279 338 413
#     4  12  20  46  70  92 133 191 226 275 349 414
#     4  12  25  42  69 101 136 179 238 283 340 412
#
# _framework density 20.105499999999999
#
# number of rings (size 3 to 8) (size 9 to 14) (size 15 to 20)
#    0.000    0.667    8.333    1.000    0.000    5.333 
#    0.000    2.500    0.000    0.000    0.000    0.000 
#    0.000    0.000    0.000    0.000    0.000    0.000 
#
# Total GULP energy -297549.183322 kJ/mol
# GULP energy per Si atom -12397.882638 kJ/mol
# Density = 2.005974 g / cm^3
# Si number density = 20.105500 Si / 1000 Ang^3
#
#
#
# Elastic Constant Matrix: (Units=GPa)
#
#
# Indices 1 2 3 4 5 6 
#
# 1 114.4948 44.5200 42.2836 0.0000 0.0000 0.0000
# 2 44.5200 116.1742 50.8021 0.0000 0.0000 0.0000
# 3 42.2836 50.8021 109.8760 0.0000 0.0000 0.0000
# 4 0.0000 0.0000 0.0000 37.3441 0.0000 0.0000
# 5 0.0000 0.0000 0.0000 0.0000 -1.7745 0.0000
# 6 0.0000 0.0000 0.0000 0.0000 0.0000 27.7138
#
#
#
# Elastic Compliance Matrix: (Units=1/GPa)
#
#
# Indices 1 2 3 4 5 6 
#
# 1 0.010929 -0.002944 -0.002845 0.000000 0.000000 0.000000
# 2 -0.002944 0.011582 -0.004222 0.000000 0.000000 0.000000
# 3 -0.002845 -0.004222 0.012148 0.000000 0.000000 0.000000
# 4 0.000000 0.000000 0.000000 0.026778 0.000000 0.000000
# 5 0.000000 0.000000 0.000000 0.000000 -0.563525 0.000000
# 6 0.000000 0.000000 0.000000 0.000000 0.000000 0.036083
#
#
# Mechanical properties :
#
#
# Convention : Reuss Voigt Hill
#
# Bulk Modulus (GPa) = 68.31743 68.41738 68.36740
# Shear Modulus (GPa) = -11.33523 26.18598 7.42537
#
# Velocity S-wave (km/s) = -2.37700 3.61283 1.92386
# Velocity P-wave (km/s) = 5.14973 7.17680 6.24605
#
# Compressibility (1/GPa) = 0.01463755
#
# Stress axis : x y z
#
# Youngs Moduli (GPa) = 91.49581 86.33772 82.31820
#
# Poissons Ratio (x) = 0.25422 0.23416
# Poissons Ratio (y) = 0.26940 0.34756
# Poissons Ratio (z) = 0.26027 0.36453
#
# Static dielectric constant tensor:
#      x y z
#    x 3.880630 0.000000 0.000000 
#    y 0.000000 3.922670 0.000000 
#    z 0.000000 0.000000 4.068170 
# 
# 
# High freq. dielectric constant tensor:
#      x y z
#    x 1.750040 0.000000 0.000000 
#    y 0.000000 1.800460 0.000000 
#    z 0.000000 0.000000 1.805720 
# 
# From -- ./inp_files/2614.got.cif
#   From: 2010.03.12/outbox.cif.g09.slc.cpg/sg30_2_cif.got.tgz:2614.got - 2010.04.14 01:38:02.
