data_PCOD8169807
_publ_section_title
;
Structure prediction by ZEFSAII (Michael W. Deem and Ramdas Pophale) SiO2 
 PCOD8169807
Probable space group: P M N 21
;
_chemical_formula_sum "Si O2"
_cell_formula_units_Z 32
_cell_length_a 8.785224
_cell_length_b 14.709357
_cell_length_c 14.091482
_cell_angle_alpha 90.000000
_cell_angle_beta 90.000000
_cell_angle_gamma 90.000000
_cell_volume 1820.971707
_symmetry_space_group_name_H-M "P M N 21"
_symmetry_group_IT_number 31
_symmetry_cell_setting 'orthorhombic'
loop_
_space_group_symop_operation_xyz
x,y,z
1/2-x,-y,1/2+z
-x,y,z
1/2+x,-y,1/2+z
loop_
_atom_site_type_symbol
_atom_site_label
_atom_site_fract_x
_atom_site_fract_y
_atom_site_fract_z
Si Si1 0.679433 0.350374 0.412530
Si Si2 0.826162 0.384149 0.216525
Si Si3 0.178544 0.134817 0.962872
Si Si4 0.181116 0.994018 0.314422
Si Si5 0.177894 0.979010 0.103822
Si Si6 0.178534 0.690341 0.543344
Si Si7 0.681608 0.146190 0.438502
Si Si8 0.173714 0.488254 0.040751
O O1 0.500000 0.346185 0.401272
O O2 0.746074 0.394583 0.317299
O O3 0.743177 0.249306 0.431179
O O4 0.728570 0.414072 0.501519
O O5 0.743478 0.306775 0.151837
O O6 0.815535 0.479889 0.156630
O O7 0.000000 0.354333 0.232256
O O8 0.240113 0.235234 0.978999
O O9 0.000000 0.136230 0.941135
O O10 0.216927 0.075006 0.055303
O O11 0.264692 0.092780 0.873318
O O12 0.248485 0.978472 0.208707
O O13 0.000000 0.001565 0.316531
O O14 0.250016 0.088323 0.352335
O O15 0.240886 0.896652 0.038042
O O16 0.000000 0.965091 0.113588
O O17 0.220925 0.592155 0.496952
O O18 0.000000 0.707252 0.544187
O O19 0.500000 0.140666 0.431859
O O20 0.000000 0.470658 0.008245
#
# Coordination Sequence:
#
# PCOD8169807 Si02
#       8
#     4   4   4   4   4   4   4   4
#     4  10  19  34  57  80 105 138 180 223 266 317
#     4   9  19  34  52  77 107 137 171 212 267 318
#     4  10  19  34  53  75 104 140 172 214 271 321
#     4  10  19  32  50  75 103 138 180 223 259 311
#     4   8  17  33  51  71 103 139 173 211 262 314
#     4  10  19  33  53  78 102 131 174 219 258 309
#     4   9  19  35  53  77 105 140 177 219 269 318
#     4   8  18  35  51  73 107 141 169 213 270 320
#
# _framework density 17.573036999999999
#
# number of rings (size 3 to 8) (size 9 to 14) (size 15 to 20)
#    0.750    2.000    0.000    2.625    1.750    1.000 
#    0.000    6.875    0.000    3.000    0.000    0.000 
#    0.000    0.000    0.000    0.000    0.000    0.000 
#
# Total GULP energy -396527.703984 kJ/mol
# GULP energy per Si atom -12391.490750 kJ/mol
# Density = 1.753304 g / cm^3
# Si number density = 17.573037 Si / 1000 Ang^3
#
#
#
# Elastic Constant Matrix: (Units=GPa)
#
#
# Indices 1 2 3 4 5 6 
#
# 1 40.0838 24.8705 23.4956 0.0000 0.0000 0.0000
# 2 24.8705 114.1446 60.9520 0.0000 0.0000 0.0000
# 3 23.4956 60.9520 121.3071 0.0000 0.0000 0.0000
# 4 0.0000 0.0000 0.0000 18.9270 0.0000 0.0000
# 5 0.0000 0.0000 0.0000 0.0000 25.5394 0.0000
# 6 0.0000 0.0000 0.0000 0.0000 0.0000 20.5283
#
#
#
# Elastic Compliance Matrix: (Units=1/GPa)
#
#
# Indices 1 2 3 4 5 6 
#
# 1 0.029860 -0.004671 -0.003437 0.000000 0.000000 0.000000
# 2 -0.004671 0.012704 -0.005479 0.000000 0.000000 0.000000
# 3 -0.003437 -0.005479 0.011662 0.000000 0.000000 0.000000
# 4 0.000000 0.000000 0.000000 0.052835 0.000000 0.000000
# 5 0.000000 0.000000 0.000000 0.000000 0.039155 0.000000
# 6 0.000000 0.000000 0.000000 0.000000 0.000000 0.048713
#
#
# Mechanical properties :
#
#
# Convention : Reuss Voigt Hill
#
# Bulk Modulus (GPa) = 36.96313 54.90795 45.93554
# Shear Modulus (GPa) = 21.63381 24.08009 22.85695
#
# Velocity S-wave (km/s) = 3.51248 3.70575 3.61041
# Velocity P-wave (km/s) = 6.12615 7.04440 6.60126
#
# Compressibility (1/GPa) = 0.02705398
#
# Stress axis : x y z
#
# Youngs Moduli (GPa) = 33.48927 78.71497 85.74927
#
# Poissons Ratio (x) = 0.36768 0.29468
# Poissons Ratio (y) = 0.15643 0.46978
# Poissons Ratio (z) = 0.11509 0.43124
#
# Static dielectric constant tensor:
#      x y z
#    x 3.124370 0.000000 0.000000 
#    y 0.000000 3.278660 0.000000 
#    z 0.000000 0.000000 3.358000 
# 
# 
# High freq. dielectric constant tensor:
#      x y z
#    x 1.673090 0.000000 0.000000 
#    y 0.000000 1.668060 0.000000 
#    z 0.000000 0.000000 1.669670 
# 
# From -- ./inp_files/5119.got.cif
#   From: 2010.03.12/outbox.cif.g09.slc.cpg/sg31_3_cif.got.tgz:5119.got - 2010.04.14 01:42:59.
