data_PCOD8169829
_publ_section_title
;
Structure prediction by ZEFSAII (Michael W. Deem and Ramdas Pophale) SiO2 
 PCOD8169829
Probable space group: P M N 21
;
_chemical_formula_sum "Si O2"
_cell_formula_units_Z 32
_cell_length_a 9.098874
_cell_length_b 13.641902
_cell_length_c 12.961344
_cell_angle_alpha 90.000000
_cell_angle_beta 90.000000
_cell_angle_gamma 90.000000
_cell_volume 1608.839104
_symmetry_space_group_name_H-M "P M N 21"
_symmetry_group_IT_number 31
_symmetry_cell_setting 'orthorhombic'
loop_
_space_group_symop_operation_xyz
x,y,z
1/2-x,-y,1/2+z
-x,y,z
1/2+x,-y,1/2+z
loop_
_atom_site_type_symbol
_atom_site_label
_atom_site_fract_x
_atom_site_fract_y
_atom_site_fract_z
Si Si1 0.663744 0.035833 0.599560
Si Si2 0.674030 0.109098 0.984198
Si Si3 0.324515 0.249280 0.534041
Si Si4 0.324628 0.327281 0.946246
Si Si5 0.664735 0.967008 0.816739
Si Si6 0.673151 0.385922 0.719839
Si Si7 0.674821 0.748953 0.822927
Si Si8 0.173358 0.400251 0.145951
O O1 0.500000 0.016420 0.556457
O O2 0.727149 0.136902 0.552989
O O3 0.765046 0.938518 0.588439
O O4 0.661231 0.043034 0.722504
O O5 0.500000 0.111775 0.980175
O O6 0.734478 0.217160 0.964692
O O7 0.745817 0.030280 0.904312
O O8 0.500000 0.256809 0.524168
O O9 0.265971 0.313658 0.630587
O O10 0.249499 0.288401 0.429155
O O11 0.500000 0.335571 0.953614
O O12 0.265090 0.360027 0.833801
O O13 0.254450 0.392662 0.036220
O O14 0.500000 0.944703 0.854521
O O15 0.734230 0.859218 0.799253
O O16 0.500000 0.373171 0.723800
O O17 0.719892 0.496140 0.694091
O O18 0.500000 0.739578 0.834684
O O19 0.727394 0.682612 0.726636
O O20 0.000000 0.393444 0.126122
#
# Coordination Sequence:
#
# PCOD8169829 Si02
#       8
#     4   4   4   4   4   4   4   4
#     4  10  19  32  53  80 108 144 186 223 262 319
#     4  10  19  33  53  78 109 145 179 217 267 321
#     4  10  20  35  57  84 114 147 188 235 278 327
#     4  10  21  38  60  85 113 146 190 236 278 336
#     4   9  17  31  51  74 106 146 180 210 261 326
#     4   9  20  39  60  83 112 148 187 231 286 339
#     4  10  20  35  56  82 114 149 186 229 279 337
#     4  10  22  39  60  84 112 149 188 233 287 337
#
# _framework density 19.890118000000001
#
# number of rings (size 3 to 8) (size 9 to 14) (size 15 to 20)
#    0.000    2.250    1.250    1.500    1.750    5.000 
#    0.000    2.500    0.000    3.000    0.000    0.000 
#    0.000    0.000    0.000    0.000    0.000    0.000 
#
# Total GULP energy -396587.885311 kJ/mol
# GULP energy per Si atom -12393.371416 kJ/mol
# Density = 1.984485 g / cm^3
# Si number density = 19.890118 Si / 1000 Ang^3
#
#
#
# Elastic Constant Matrix: (Units=GPa)
#
#
# Indices 1 2 3 4 5 6 
#
# 1 20.5450 20.8114 25.8332 0.0000 0.0000 0.0000
# 2 20.8114 107.2987 42.1159 0.0000 0.0000 0.0000
# 3 25.8332 42.1159 126.5263 0.0000 0.0000 0.0000
# 4 0.0000 0.0000 0.0000 38.7359 0.0000 0.0000
# 5 0.0000 0.0000 0.0000 0.0000 29.5512 0.0000
# 6 0.0000 0.0000 0.0000 0.0000 0.0000 20.9841
#
#
#
# Elastic Compliance Matrix: (Units=1/GPa)
#
#
# Indices 1 2 3 4 5 6 
#
# 1 0.073144 -0.009576 -0.011746 0.000000 0.000000 0.000000
# 2 -0.009576 0.011974 -0.002031 0.000000 0.000000 0.000000
# 3 -0.011746 -0.002031 0.010978 0.000000 0.000000 0.000000
# 4 0.000000 0.000000 0.000000 0.025816 0.000000 0.000000
# 5 0.000000 0.000000 0.000000 0.000000 0.033840 0.000000
# 6 0.000000 0.000000 0.000000 0.000000 0.000000 0.047655
#
#
# Mechanical properties :
#
#
# Convention : Reuss Voigt Hill
#
# Bulk Modulus (GPa) = 20.24722 47.98788 34.11755
# Shear Modulus (GPa) = 18.75636 28.89487 23.82561
#
# Velocity S-wave (km/s) = 3.07416 3.81560 3.46477
# Velocity P-wave (km/s) = 4.77517 6.60232 5.76163
#
# Compressibility (1/GPa) = 0.04938951
#
# Stress axis : x y z
#
# Youngs Moduli (GPa) = 13.67163 83.51294 91.09395
#
# Poissons Ratio (x) = 0.79975 1.07003
# Poissons Ratio (y) = 0.13092 0.18497
# Poissons Ratio (z) = 0.16059 0.16958
#
# Static dielectric constant tensor:
#      x y z
#    x 3.219730 0.000000 0.000000 
#    y 0.000000 3.797410 0.000000 
#    z 0.000000 0.000000 3.707560 
# 
# 
# High freq. dielectric constant tensor:
#      x y z
#    x 1.731580 0.000000 0.000000 
#    y 0.000000 1.784520 0.000000 
#    z 0.000000 0.000000 1.789050 
# 
# From -- ./inp_files/3723.got.cif
#   From: 2010.03.12/outbox.cif.g09.slc.cpg/sg31_2_cif.got.tgz:3723.got - 2010.04.14 01:42:59.
