data_PCOD8169427
_publ_section_title
;
Structure prediction by ZEFSAII (Michael W. Deem and Ramdas Pophale) SiO2 
 PCOD8169427
Probable space group: P N C 2
;
_chemical_formula_sum "Si O2"
_cell_formula_units_Z 32
_cell_length_a 6.605804
_cell_length_b 22.181532
_cell_length_c 12.723329
_cell_angle_alpha 90.000000
_cell_angle_beta 90.000000
_cell_angle_gamma 90.000000
_cell_volume 1864.309356
_symmetry_space_group_name_H-M "P N C 2"
_symmetry_group_IT_number 30
_symmetry_cell_setting 'orthorhombic'
loop_
_space_group_symop_operation_xyz
x,y,z
-x,-y,z
-x,1/2+y,1/2+z
x,1/2-y,1/2+z
loop_
_atom_site_type_symbol
_atom_site_label
_atom_site_fract_x
_atom_site_fract_y
_atom_site_fract_z
Si Si1 0.421022 0.262219 0.117250
Si Si2 0.755720 0.174583 0.485107
Si Si3 0.110580 0.650117 0.377032
Si Si4 0.017837 0.220513 0.070353
Si Si5 0.911123 0.060917 0.591594
Si Si6 0.768262 0.228249 0.264429
Si Si7 0.388134 0.941045 0.780095
Si Si8 0.227607 0.131207 0.722117
O O1 0.262935 0.217656 0.057290
O O2 0.567839 0.224749 0.192840
O O3 0.264959 0.300638 0.186992
O O4 0.543719 0.302741 0.034003
O O5 0.790880 0.103808 0.510091
O O6 0.747804 0.181341 0.359526
O O7 0.936914 0.213946 0.533987
O O8 0.202685 0.703633 0.305622
O O9 0.264284 0.593444 0.371774
O O10 0.084703 0.669625 0.497236
O O11 0.892554 0.630886 0.332039
O O12 0.954704 0.207802 0.190872
O O13 0.764741 0.040542 0.686808
O O14 0.101430 0.097580 0.633576
O O15 0.000000 0.000000 0.537312
O O16 0.552895 0.896999 0.732589
O O17 0.500000 0.000000 0.826980
#
# Coordination Sequence:
#
# PCOD8169427 Si02
#       8
#     4   4   4   4   4   4   4   4
#     4  11  18  31  52  73 105 144 171 207 264 321
#     4  10  21  32  49  79 108 135 175 218 257 317
#     4  10  21  31  50  79 104 139 178 213 259 320
#     4  10  20  34  50  73 109 142 172 211 264 317
#     4  11  20  32  50  79 106 136 174 214 265 321
#     4  10  20  33  49  74 110 139 174 215 259 315
#     4  11  20  33  52  77 108 136 168 218 265 315
#     4  11  18  31  49  75 107 134 170 210 261 315
#
# _framework density 17.164532000000001
#
# number of rings (size 3 to 8) (size 9 to 14) (size 15 to 20)
#    0.000    1.500    6.250    1.500    1.750    1.000 
#    0.000    0.000    0.000    0.000    3.250    0.875 
#    0.000    0.000    0.000    0.000    0.000    0.000 
#
# Total GULP energy -396726.517156 kJ/mol
# GULP energy per Si atom -12397.703661 kJ/mol
# Density = 1.712546 g / cm^3
# Si number density = 17.164532 Si / 1000 Ang^3
#
#
#
# Elastic Constant Matrix: (Units=GPa)
#
#
# Indices 1 2 3 4 5 6 
#
# 1 108.7166 31.3676 35.8626 0.0000 0.0000 0.0000
# 2 31.3676 84.2114 45.2233 0.0000 0.0000 0.0000
# 3 35.8626 45.2233 97.4098 0.0000 0.0000 0.0000
# 4 0.0000 0.0000 0.0000 19.5517 0.0000 0.0000
# 5 0.0000 0.0000 0.0000 0.0000 15.1728 0.0000
# 6 0.0000 0.0000 0.0000 0.0000 0.0000 28.2966
#
#
#
# Elastic Compliance Matrix: (Units=1/GPa)
#
#
# Indices 1 2 3 4 5 6 
#
# 1 0.010859 -0.002528 -0.002824 0.000000 0.000000 0.000000
# 2 -0.002528 0.016407 -0.006686 0.000000 0.000000 0.000000
# 3 -0.002824 -0.006686 0.014410 0.000000 0.000000 0.000000
# 4 0.000000 0.000000 0.000000 0.051146 0.000000 0.000000
# 5 0.000000 0.000000 0.000000 0.000000 0.065907 0.000000
# 6 0.000000 0.000000 0.000000 0.000000 0.000000 0.035340
#
#
# Mechanical properties :
#
#
# Convention : Reuss Voigt Hill
#
# Bulk Modulus (GPa) = 56.82227 57.24944 57.03585
# Shear Modulus (GPa) = 22.31998 24.46318 23.39158
#
# Velocity S-wave (km/s) = 3.60996 3.77930 3.69560
# Velocity P-wave (km/s) = 7.11000 7.24361 7.17711
#
# Compressibility (1/GPa) = 0.01759873
#
# Stress axis : x y z
#
# Youngs Moduli (GPa) = 92.08666 60.94806 69.39657
#
# Poissons Ratio (x) = 0.15409 0.19599
# Poissons Ratio (y) = 0.23282 0.46402
# Poissons Ratio (z) = 0.26007 0.40753
#
# Static dielectric constant tensor:
#      x y z
#    x 3.415810 0.000000 0.000000 
#    y 0.000000 3.081590 0.000000 
#    z 0.000000 0.000000 3.009230 
# 
# 
# High freq. dielectric constant tensor:
#      x y z
#    x 1.684660 0.000000 0.000000 
#    y 0.000000 1.632990 0.000000 
#    z 0.000000 0.000000 1.631250 
# 
# From -- ./inp_files/3285.got.cif
#   From: 2010.03.12/outbox.cif.g09.slc.cpg/sg30_2_cif.got.tgz:3285.got - 2010.04.14 01:38:02.
