data_PCOD8169257
_publ_section_title
;
Structure prediction by ZEFSAII (Michael W. Deem and Ramdas Pophale) SiO2 
 PCOD8169257
Probable space group: P C A 21
;
_chemical_formula_sum "Si O2"
_cell_formula_units_Z 32
_cell_length_a 19.297004
_cell_length_b 6.498375
_cell_length_c 10.683031
_cell_angle_alpha 90.000000
_cell_angle_beta 90.000000
_cell_angle_gamma 90.000000
_cell_volume 1339.643203
_symmetry_space_group_name_H-M "P C A 21"
_symmetry_group_IT_number 29
_symmetry_cell_setting 'orthorhombic'
loop_
_space_group_symop_operation_xyz
x,y,z
-x,-y,1/2+z
1/2-x,y,1/2+z
1/2+x,-y,z
loop_
_atom_site_type_symbol
_atom_site_label
_atom_site_fract_x
_atom_site_fract_y
_atom_site_fract_z
Si Si1 0.446421 0.846494 0.398020
Si Si2 0.053580 0.653507 0.159146
Si Si3 0.931053 0.383772 0.143380
Si Si4 0.342196 0.195600 0.394323
Si Si5 0.212124 0.950992 0.335669
Si Si6 0.931053 0.116229 0.913786
Si Si7 0.842196 0.695599 0.662844
Si Si8 0.787876 0.450991 0.221498
O O1 0.416036 0.750000 0.528583
O O2 0.445873 0.689879 0.284091
O O3 0.400533 0.038512 0.343873
O O4 0.526418 0.904662 0.424177
O O5 0.054128 0.810123 0.273074
O O6 0.099467 0.461489 0.213293
O O7 0.973582 0.595340 0.132991
O O8 0.847962 0.396914 0.122429
O O9 0.960777 0.250003 0.028582
O O10 0.371418 0.250001 0.528584
O O11 0.330172 0.407239 0.320126
O O12 0.268751 0.081921 0.408010
O O13 0.152038 0.896914 0.434738
O O14 0.250000 0.750001 0.278584
O O15 0.169828 0.092761 0.237041
O O16 0.768751 0.581920 0.649157
#
# Coordination Sequence:
#
# PCOD8169257 Si02
#       8
#     4   4   4   4   4   4   4   4
#     4  12  25  47  72 106 154 196 252 315 376 459
#     4  12  25  47  72 106 154 196 252 315 376 459
#     4  12  26  43  74 103 148 191 248 305 376 438
#     4  11  25  42  73 101 142 193 248 298 380 452
#     4  11  25  45  68 107 143 193 243 314 369 446
#     4  12  26  43  74 103 148 191 248 305 376 438
#     4  11  25  42  73 101 142 193 248 298 380 452
#     4  11  25  45  68 107 143 193 243 314 369 446
#
# _framework density 23.886956999999999
#
# number of rings (size 3 to 8) (size 9 to 14) (size 15 to 20)
#    0.000    0.500    2.500    5.250    3.500    1.000 
#    0.000    0.000    0.000    0.000    0.000    0.000 
#    0.000    0.000    0.000    0.000    0.000    0.000 
#
# Total GULP energy -396516.375291 kJ/mol
# GULP energy per Si atom -12391.136728 kJ/mol
# Density = 2.383259 g / cm^3
# Si number density = 23.886957 Si / 1000 Ang^3
#
#
#
# Elastic Constant Matrix: (Units=GPa)
#
#
# Indices 1 2 3 4 5 6 
#
# 1 128.4365 28.2114 -4.7697 0.0000 0.0000 0.0000
# 2 28.2114 105.2696 22.4525 0.0000 0.0000 0.0000
# 3 -4.7697 22.4525 109.2311 0.0000 0.0000 0.0000
# 4 0.0000 0.0000 0.0000 35.4407 0.0000 0.0000
# 5 0.0000 0.0000 0.0000 0.0000 26.9732 0.0000
# 6 0.0000 0.0000 0.0000 0.0000 0.0000 58.9796
#
#
#
# Elastic Compliance Matrix: (Units=1/GPa)
#
#
# Indices 1 2 3 4 5 6 
#
# 1 0.008350 -0.002422 0.000862 0.000000 0.000000 0.000000
# 2 -0.002422 0.010637 -0.002292 0.000000 0.000000 0.000000
# 3 0.000862 -0.002292 0.009664 0.000000 0.000000 0.000000
# 4 0.000000 0.000000 0.000000 0.028216 0.000000 0.000000
# 5 0.000000 0.000000 0.000000 0.000000 0.037074 0.000000
# 6 0.000000 0.000000 0.000000 0.000000 0.000000 0.016955
#
#
# Mechanical properties :
#
#
# Convention : Reuss Voigt Hill
#
# Bulk Modulus (GPa) = 47.73745 48.30285 48.02015
# Shear Modulus (GPa) = 39.81477 44.08157 41.94817
#
# Velocity S-wave (km/s) = 4.08707 4.30050 4.19514
# Velocity P-wave (km/s) = 6.50387 6.70257 6.60397
#
# Compressibility (1/GPa) = 0.02094791
#
# Stress axis : x y z
#
# Youngs Moduli (GPa) = 119.76196 94.00885 103.47969
#
# Poissons Ratio (x) = 0.22766 -0.08924
# Poissons Ratio (y) = 0.29002 0.23720
# Poissons Ratio (z) = -0.10328 0.21549
#
# Static dielectric constant tensor:
#      x y z
#    x 4.536670 0.000000 0.000000 
#    y 0.000000 4.581540 0.000000 
#    z 0.000000 0.000000 4.018190 
# 
# 
# High freq. dielectric constant tensor:
#      x y z
#    x 1.966920 0.000000 0.000000 
#    y 0.000000 1.955100 0.000000 
#    z 0.000000 0.000000 1.934830 
# 
# From -- ./inp_files/3869.got.cif
#   From: 2010.03.12/outbox.cif.g09.slc.cpg/sg29_2_cif.got.tgz:3869.got - 2010.04.14 03:43:10.
