data_PCOD8169077
_publ_section_title
;
Structure prediction by ZEFSAII (Michael W. Deem and Ramdas Pophale) SiO2 
 PCOD8169077
Probable space group: P C A 21
;
_chemical_formula_sum "Si O2"
_cell_formula_units_Z 28
_cell_length_a 8.899104
_cell_length_b 12.621668
_cell_length_c 11.830200
_cell_angle_alpha 90.000000
_cell_angle_beta 90.000000
_cell_angle_gamma 90.000000
_cell_volume 1328.786237
_symmetry_space_group_name_H-M "P C A 21"
_symmetry_group_IT_number 29
_symmetry_cell_setting 'orthorhombic'
loop_
_space_group_symop_operation_xyz
x,y,z
-x,-y,1/2+z
1/2-x,y,1/2+z
1/2+x,-y,z
loop_
_atom_site_type_symbol
_atom_site_label
_atom_site_fract_x
_atom_site_fract_y
_atom_site_fract_z
Si Si1 0.965734 0.124286 0.254100
Si Si2 0.534557 0.869326 0.991179
Si Si3 0.112145 0.488973 0.731172
Si Si4 0.858519 0.452337 0.574982
Si Si5 0.719523 0.001239 0.373663
Si Si6 0.307749 0.343421 0.428894
Si Si7 0.475864 0.668931 0.383106
O O1 0.825631 0.046370 0.274051
O O2 0.915128 0.235352 0.308364
O O3 0.116411 0.087428 0.317010
O O4 0.000990 0.135711 0.123244
O O5 0.383116 0.907387 0.928628
O O6 0.577306 0.753103 0.946400
O O7 0.673006 0.949738 0.969110
O O8 0.242848 0.562976 0.677787
O O9 0.171711 0.390315 0.803420
O O10 0.024307 0.441490 0.625315
O O11 0.005362 0.563801 0.806537
O O12 0.839064 0.568973 0.523269
O O13 0.850915 0.359873 0.479774
O O14 0.136375 0.303318 0.438474
#
# Coordination Sequence:
#
# PCOD8169077 Si02
#       7
#     4   4   4   4   4   4   4
#     4  11  23  43  68  96 132 171 220 275 337 390
#     4  11  23  43  72  93 135 175 216 279 338 389
#     4  11  23  40  63  91 130 170 209 264 322 383
#     4  11  23  40  63  90 130 169 211 264 321 381
#     4  10  24  44  66 102 129 168 227 281 325 406
#     4  11  23  40  64  97 127 170 218 261 322 398
#     4  11  23  40  64  97 129 165 221 266 317 405
#
# _framework density 21.071861999999999
#
# number of rings (size 3 to 8) (size 9 to 14) (size 15 to 20)
#    0.000    1.143    4.286    1.714    0.000    3.429 
#    0.000    1.429    0.000    0.000    0.000    0.000 
#    0.000    0.000    0.000    0.000    0.000    0.000 
#
# Total GULP energy -347197.906269 kJ/mol
# GULP energy per Si atom -12399.925224 kJ/mol
# Density = 2.102390 g / cm^3
# Si number density = 21.071862 Si / 1000 Ang^3
#
#
#
# Elastic Constant Matrix: (Units=GPa)
#
#
# Indices 1 2 3 4 5 6 
#
# 1 103.6154 38.1981 47.6880 0.0000 0.0000 0.0000
# 2 38.1981 88.8097 46.9614 0.0000 0.0000 0.0000
# 3 47.6880 46.9614 135.4221 0.0000 0.0000 0.0000
# 4 0.0000 0.0000 0.0000 32.1759 0.0000 0.0000
# 5 0.0000 0.0000 0.0000 0.0000 33.5218 0.0000
# 6 0.0000 0.0000 0.0000 0.0000 0.0000 30.2232
#
#
#
# Elastic Compliance Matrix: (Units=1/GPa)
#
#
# Indices 1 2 3 4 5 6 
#
# 1 0.012445 -0.003717 -0.003093 0.000000 0.000000 0.000000
# 2 -0.003717 0.014899 -0.003858 0.000000 0.000000 0.000000
# 3 -0.003093 -0.003858 0.009811 0.000000 0.000000 0.000000
# 4 0.000000 0.000000 0.000000 0.031079 0.000000 0.000000
# 5 0.000000 0.000000 0.000000 0.000000 0.029831 0.000000
# 6 0.000000 0.000000 0.000000 0.000000 0.000000 0.033087
#
#
# Mechanical properties :
#
#
# Convention : Reuss Voigt Hill
#
# Bulk Modulus (GPa) = 63.21530 65.94913 64.58221
# Shear Modulus (GPa) = 31.69332 32.18415 31.93873
#
# Velocity S-wave (km/s) = 3.88243 3.91237 3.89743
# Velocity P-wave (km/s) = 7.08256 7.19542 7.13921
#
# Compressibility (1/GPa) = 0.01581896
#
# Stress axis : x y z
#
# Youngs Moduli (GPa) = 80.35281 67.12038 101.92223
#
# Poissons Ratio (x) = 0.24949 0.31530
# Poissons Ratio (y) = 0.29867 0.39317
# Poissons Ratio (z) = 0.24857 0.25892
#
# Static dielectric constant tensor:
#      x y z
#    x 3.816570 0.000000 0.000000 
#    y 0.000000 3.654610 0.000000 
#    z 0.000000 0.000000 3.826350 
# 
# 
# High freq. dielectric constant tensor:
#      x y z
#    x 1.833370 0.000000 0.000000 
#    y 0.000000 1.814700 0.000000 
#    z 0.000000 0.000000 1.833270 
# 
# From -- ./inp_files/2850.got.cif
#   From: 2010.03.12/outbox.cif.g09.slc.cpg/sg29_2_cif.got.tgz:2850.got - 2010.04.14 03:43:10.
