data_PCOD8169626
_publ_section_title
;
Structure prediction by ZEFSAII (Michael W. Deem and Ramdas Pophale) SiO2 
 PCOD8169626
Probable space group: P N C 2
;
_chemical_formula_sum "Si O2"
_cell_formula_units_Z 20
_cell_length_a 4.942436
_cell_length_b 12.286233
_cell_length_c 16.175415
_cell_angle_alpha 90.000000
_cell_angle_beta 90.000000
_cell_angle_gamma 90.000000
_cell_volume 982.234611
_symmetry_space_group_name_H-M "P N C 2"
_symmetry_group_IT_number 30
_symmetry_cell_setting 'orthorhombic'
loop_
_space_group_symop_operation_xyz
x,y,z
-x,-y,z
-x,1/2+y,1/2+z
x,1/2-y,1/2+z
loop_
_atom_site_type_symbol
_atom_site_label
_atom_site_fract_x
_atom_site_fract_y
_atom_site_fract_z
Si Si1 0.242839 0.069346 0.008170
Si Si2 0.543324 0.371894 0.771604
Si Si3 0.551968 0.706169 0.950710
Si Si4 0.037713 0.624714 0.045451
Si Si5 0.943770 0.808059 0.166712
O O1 0.100946 0.111270 0.090717
O O2 0.500000 0.000000 0.035129
O O3 0.368587 0.166042 0.952704
O O4 0.000000 0.000000 0.962551
O O5 0.500000 0.500000 0.777803
O O6 0.574293 0.323535 0.862941
O O7 0.301076 0.307592 0.729859
O O8 0.802147 0.348602 0.717296
O O9 0.333906 0.667693 0.019007
O O10 0.830305 0.643892 0.969832
O O11 0.000000 0.500000 0.069331
O O12 0.967912 0.687194 0.130057
#
# Coordination Sequence:
#
# PCOD8169626 Si02
#       5
#     4   4   4   4   4
#     4  11  21  39  63  87 118 158 201 248 295 355
#     4  12  23  38  59  88 121 150 188 250 306 348
#     4  11  24  39  61  91 119 155 205 245 298 367
#     4  11  22  41  63  85 118 161 202 246 293 357
#     4  11  23  37  60  89 116 150 198 241 294 359
#
# _framework density 20.361733000000001
#
# number of rings (size 3 to 8) (size 9 to 14) (size 15 to 20)
#    0.000    0.800    0.000   11.400    0.000    0.000 
#    0.000    3.000    0.000    0.000    0.000    0.000 
#    0.000    0.000    0.000    0.000    0.000    0.000 
#
# Total GULP energy -247967.434188 kJ/mol
# GULP energy per Si atom -12398.371709 kJ/mol
# Density = 2.031539 g / cm^3
# Si number density = 20.361733 Si / 1000 Ang^3
#
#
#
# Elastic Constant Matrix: (Units=GPa)
#
#
# Indices 1 2 3 4 5 6 
#
# 1 141.3391 61.1526 36.0939 0.0000 0.0000 0.0000
# 2 61.1526 179.7021 59.5316 0.0000 0.0000 0.0000
# 3 36.0939 59.5316 108.9298 0.0000 0.0000 0.0000
# 4 0.0000 0.0000 0.0000 17.8204 0.0000 0.0000
# 5 0.0000 0.0000 0.0000 0.0000 17.1141 0.0000
# 6 0.0000 0.0000 0.0000 0.0000 0.0000 33.8284
#
#
#
# Elastic Compliance Matrix: (Units=1/GPa)
#
#
# Indices 1 2 3 4 5 6 
#
# 1 0.008495 -0.002391 -0.001508 0.000000 0.000000 0.000000
# 2 -0.002391 0.007468 -0.003289 0.000000 0.000000 0.000000
# 3 -0.001508 -0.003289 0.011477 0.000000 0.000000 0.000000
# 4 0.000000 0.000000 0.000000 0.056115 0.000000 0.000000
# 5 0.000000 0.000000 0.000000 0.000000 0.058431 0.000000
# 6 0.000000 0.000000 0.000000 0.000000 0.000000 0.029561
#
#
# Mechanical properties :
#
#
# Convention : Reuss Voigt Hill
#
# Bulk Modulus (GPa) = 76.54703 82.61413 79.58058
# Shear Modulus (GPa) = 26.27719 31.96545 29.12132
#
# Velocity S-wave (km/s) = 3.59628 3.96647 3.78590
# Velocity P-wave (km/s) = 7.41077 7.85102 7.63407
#
# Compressibility (1/GPa) = 0.01306386
#
# Stress axis : x y z
#
# Youngs Moduli (GPa) = 117.71800 133.90259 87.12775
#
# Poissons Ratio (x) = 0.32020 0.13138
# Poissons Ratio (y) = 0.28149 0.28657
# Poissons Ratio (z) = 0.17751 0.44042
#
# Static dielectric constant tensor:
#      x y z
#    x 4.018720 0.000000 0.000000 
#    y 0.000000 4.057870 0.000000 
#    z 0.000000 0.000000 3.517720 
# 
# 
# High freq. dielectric constant tensor:
#      x y z
#    x 1.823650 0.000000 0.000000 
#    y 0.000000 1.804320 0.000000 
#    z 0.000000 0.000000 1.774300 
# 
# From -- ./inp_files/4618.got.cif
#   From: 2010.03.12/outbox.cif.g09.slc.cpg/sg30_3_cif.got.tgz:4618.got - 2010.04.14 01:38:02.
