data_PCOD8169022
_publ_section_title
;
Structure prediction by ZEFSAII (Michael W. Deem and Ramdas Pophale) SiO2 
 PCOD8169022
Probable space group: P C A 21
;
_chemical_formula_sum "Si O2"
_cell_formula_units_Z 28
_cell_length_a 19.944565
_cell_length_b 11.037537
_cell_length_c 5.234802
_cell_angle_alpha 90.000000
_cell_angle_beta 90.000000
_cell_angle_gamma 90.000000
_cell_volume 1152.383419
_symmetry_space_group_name_H-M "P C A 21"
_symmetry_group_IT_number 29
_symmetry_cell_setting 'orthorhombic'
loop_
_space_group_symop_operation_xyz
x,y,z
-x,-y,1/2+z
1/2-x,y,1/2+z
1/2+x,-y,z
loop_
_atom_site_type_symbol
_atom_site_label
_atom_site_fract_x
_atom_site_fract_y
_atom_site_fract_z
Si Si1 0.088639 0.450935 0.431870
Si Si2 0.132219 0.833633 0.571281
Si Si3 0.911689 0.778224 0.193874
Si Si4 0.790937 0.386208 0.894490
Si Si5 0.794816 0.958411 0.306506
Si Si6 0.008165 0.682967 0.581594
Si Si7 0.041067 0.020451 0.362875
O O1 0.111946 0.362524 0.664325
O O2 0.154717 0.512588 0.318455
O O3 0.054184 0.349145 0.258454
O O4 0.034479 0.552582 0.491182
O O5 0.177328 0.747586 0.392062
O O6 0.071682 0.755779 0.704790
O O7 0.173139 0.905616 0.791606
O O8 0.105409 0.933097 0.370771
O O9 0.853122 0.857046 0.324064
O O10 0.980287 0.770436 0.358969
O O11 0.934640 0.843714 0.929717
O O12 0.766606 0.402168 0.186202
O O13 0.750726 0.940210 0.556812
O O14 0.011011 0.023884 0.081193
#
# Coordination Sequence:
#
# PCOD8169022 Si02
#       7
#     4   4   4   4   4   4   4
#     4  11  25  42  72 101 147 181 238 298 351 422
#     4  10  23  44  75 100 144 181 233 304 350 429
#     4  11  25  41  70  98 139 184 226 289 355 422
#     4  11  27  47  71 102 136 193 245 285 346 414
#     4  11  27  49  70 103 140 190 240 287 349 421
#     4  11  22  45  66 110 137 184 231 300 370 412
#     4  11  23  40  64 104 139 171 217 279 357 424
#
# _framework density 24.297471000000002
#
# number of rings (size 3 to 8) (size 9 to 14) (size 15 to 20)
#    0.000    1.143    2.857    1.714    4.000    5.714 
#    2.571    0.000    0.000    0.000    0.000    0.000 
#    0.000    0.000    0.000    0.000    0.000    0.000 
#
# Total GULP energy -347004.098006 kJ/mol
# GULP energy per Si atom -12393.003500 kJ/mol
# Density = 2.424217 g / cm^3
# Si number density = 24.297471 Si / 1000 Ang^3
#
#
#
# Elastic Constant Matrix: (Units=GPa)
#
#
# Indices 1 2 3 4 5 6 
#
# 1 115.7740 69.3059 26.3955 0.0000 0.0000 0.0000
# 2 69.3059 148.6139 37.7703 0.0000 0.0000 0.0000
# 3 26.3955 37.7703 57.5367 0.0000 0.0000 0.0000
# 4 0.0000 0.0000 0.0000 22.8141 0.0000 0.0000
# 5 0.0000 0.0000 0.0000 0.0000 32.7454 0.0000
# 6 0.0000 0.0000 0.0000 0.0000 0.0000 41.4889
#
#
#
# Elastic Compliance Matrix: (Units=1/GPa)
#
#
# Indices 1 2 3 4 5 6 
#
# 1 0.012218 -0.005129 -0.002238 0.000000 0.000000 0.000000
# 2 -0.005129 0.010229 -0.004362 0.000000 0.000000 0.000000
# 3 -0.002238 -0.004362 0.021271 0.000000 0.000000 0.000000
# 4 0.000000 0.000000 0.000000 0.043833 0.000000 0.000000
# 5 0.000000 0.000000 0.000000 0.000000 0.030539 0.000000
# 6 0.000000 0.000000 0.000000 0.000000 0.000000 0.024103
#
#
# Mechanical properties :
#
#
# Convention : Reuss Voigt Hill
#
# Bulk Modulus (GPa) = 49.35994 65.42975 57.39485
# Shear Modulus (GPa) = 29.00158 31.97320 30.48739
#
# Velocity S-wave (km/s) = 3.45861 3.63148 3.54610
# Velocity P-wave (km/s) = 6.02563 6.67612 6.35920
#
# Compressibility (1/GPa) = 0.02025934
#
# Stress axis : x y z
#
# Youngs Moduli (GPa) = 81.84470 97.75699 47.01332
#
# Poissons Ratio (x) = 0.50141 0.10522
# Poissons Ratio (y) = 0.41979 0.20508
# Poissons Ratio (z) = 0.18318 0.42643
#
# Static dielectric constant tensor:
#      x y z
#    x 4.563420 0.000000 0.000000 
#    y 0.000000 4.731490 0.000000 
#    z 0.000000 0.000000 3.960170 
# 
# 
# High freq. dielectric constant tensor:
#      x y z
#    x 1.970430 0.000000 0.000000 
#    y 0.000000 2.000720 0.000000 
#    z 0.000000 0.000000 1.933350 
# 
# From -- ./inp_files/391.got.cif
#   From: 2010.03.12/outbox.cif.g09.slc.cpg/sg29_1_cif.got.tgz:391.got - 2010.04.14 03:43:10.
