data_PCOD8169851
_publ_section_title
;
Structure prediction by ZEFSAII (Michael W. Deem and Ramdas Pophale) SiO2 
 PCOD8169851
Probable space group: P M N 21
;
_chemical_formula_sum "Si O2"
_cell_formula_units_Z 32
_cell_length_a 8.864227
_cell_length_b 14.109851
_cell_length_c 14.163048
_cell_angle_alpha 90.000000
_cell_angle_beta 90.000000
_cell_angle_gamma 90.000000
_cell_volume 1771.413801
_symmetry_space_group_name_H-M "P M N 21"
_symmetry_group_IT_number 31
_symmetry_cell_setting 'orthorhombic'
loop_
_space_group_symop_operation_xyz
x,y,z
1/2-x,-y,1/2+z
-x,y,z
1/2+x,-y,1/2+z
loop_
_atom_site_type_symbol
_atom_site_label
_atom_site_fract_x
_atom_site_fract_y
_atom_site_fract_z
Si Si1 0.677480 0.982539 0.440420
Si Si2 0.176536 0.854154 0.081951
Si Si3 0.322758 0.359109 0.564885
Si Si4 0.820464 0.516122 0.441345
Si Si5 0.679488 0.649446 0.588159
Si Si6 0.176851 0.015874 0.725702
Si Si7 0.322354 0.148739 0.085153
Si Si8 0.175922 0.507292 0.230653
O O1 0.500000 0.961895 0.447673
O O2 0.732940 0.993091 0.333069
O O3 0.766233 0.894875 0.486322
O O4 0.720809 0.079796 0.493530
O O5 0.235272 0.748691 0.060292
O O6 0.249750 0.892182 0.178115
O O7 0.000000 0.852154 0.099850
O O8 0.500000 0.368761 0.541654
O O9 0.230217 0.417525 0.487691
O O10 0.287489 0.399163 0.669399
O O11 0.747969 0.606847 0.492230
O O12 0.753969 0.516846 0.334738
O O13 0.000000 0.525459 0.445525
O O14 0.500000 0.648166 0.579321
O O15 0.738032 0.754230 0.605954
O O16 0.737829 0.585209 0.675572
O O17 0.000000 0.030475 0.720830
O O18 0.224750 0.921112 0.670182
O O19 0.500000 0.166235 0.080073
O O20 0.000000 0.493542 0.243780
#
# Coordination Sequence:
#
# PCOD8169851 Si02
#       8
#     4   4   4   4   4   4   4   4
#     4   9  18  34  52  73 102 136 169 205 249 299
#     4   9  18  32  52  74  98 130 168 204 246 299
#     4   9  18  34  52  72  99 132 165 202 247 298
#     4  10  19  33  52  75 101 131 167 210 250 291
#     4  10  20  36  54  74 102 136 168 203 250 306
#     4   9  19  34  51  72 102 133 166 209 252 292
#     4  10  20  34  52  77 104 132 168 213 254 293
#     4   8  17  33  51  71 100 132 163 200 246 294
#
# _framework density 18.064667
#
# number of rings (size 3 to 8) (size 9 to 14) (size 15 to 20)
#    0.000    2.750    0.000    1.875    0.000    3.500 
#    0.000    8.750    0.000    0.000    0.000    0.000 
#    0.000    0.000    0.000    0.000    0.000    0.000 
#
# Total GULP energy -396801.449416 kJ/mol
# GULP energy per Si atom -12400.045294 kJ/mol
# Density = 1.802355 g / cm^3
# Si number density = 18.064667 Si / 1000 Ang^3
#
#
#
# Elastic Constant Matrix: (Units=GPa)
#
#
# Indices 1 2 3 4 5 6 
#
# 1 43.4558 19.3156 21.5646 0.0000 0.0000 0.0000
# 2 19.3156 80.4271 10.5502 0.0000 0.0000 0.0000
# 3 21.5646 10.5502 114.2545 0.0000 0.0000 0.0000
# 4 0.0000 0.0000 0.0000 14.2094 0.0000 0.0000
# 5 0.0000 0.0000 0.0000 0.0000 25.9352 0.0000
# 6 0.0000 0.0000 0.0000 0.0000 0.0000 28.8743
#
#
#
# Elastic Compliance Matrix: (Units=1/GPa)
#
#
# Indices 1 2 3 4 5 6 
#
# 1 0.028083 -0.006123 -0.004735 0.000000 0.000000 0.000000
# 2 -0.006123 0.013921 -0.000130 0.000000 0.000000 0.000000
# 3 -0.004735 -0.000130 0.009658 0.000000 0.000000 0.000000
# 4 0.000000 0.000000 0.000000 0.070376 0.000000 0.000000
# 5 0.000000 0.000000 0.000000 0.000000 0.038558 0.000000
# 6 0.000000 0.000000 0.000000 0.000000 0.000000 0.034633
#
#
# Mechanical properties :
#
#
# Convention : Reuss Voigt Hill
#
# Bulk Modulus (GPa) = 33.68562 37.88867 35.78714
# Shear Modulus (GPa) = 22.01660 26.25091 24.13375
#
# Velocity S-wave (km/s) = 3.49487 3.81617 3.65905
# Velocity P-wave (km/s) = 5.91382 6.35901 6.14045
#
# Compressibility (1/GPa) = 0.02968626
#
# Stress axis : x y z
#
# Youngs Moduli (GPa) = 35.60814 71.83253 103.54029
#
# Poissons Ratio (x) = 0.43986 0.49027
# Poissons Ratio (y) = 0.21805 0.01343
# Poissons Ratio (z) = 0.16861 0.00932
#
# Static dielectric constant tensor:
#      x y z
#    x 3.186390 0.000000 0.000000 
#    y 0.000000 3.408060 0.000000 
#    z 0.000000 0.000000 3.573760 
# 
# 
# High freq. dielectric constant tensor:
#      x y z
#    x 1.688930 0.000000 0.000000 
#    y 0.000000 1.702720 0.000000 
#    z 0.000000 0.000000 1.702140 
# 
# From -- ./inp_files/5143.got.cif
#   From: 2010.03.12/outbox.cif.g09.slc.cpg/sg31_3_cif.got.tgz:5143.got - 2010.04.14 01:42:59.
