data_PCOD8169658
_publ_section_title
;
Structure prediction by ZEFSAII (Michael W. Deem and Ramdas Pophale) SiO2 
 PCOD8169658
Probable space group: P N C 2
;
_chemical_formula_sum "Si O2"
_cell_formula_units_Z 22
_cell_length_a 5.072565
_cell_length_b 13.722694
_cell_length_c 13.186162
_cell_angle_alpha 90.000000
_cell_angle_beta 90.000000
_cell_angle_gamma 90.000000
_cell_volume 917.878943
_symmetry_space_group_name_H-M "P N C 2"
_symmetry_group_IT_number 30
_symmetry_cell_setting 'orthorhombic'
loop_
_space_group_symop_operation_xyz
x,y,z
-x,-y,z
-x,1/2+y,1/2+z
x,1/2-y,1/2+z
loop_
_atom_site_type_symbol
_atom_site_label
_atom_site_fract_x
_atom_site_fract_y
_atom_site_fract_z
Si Si1 0.218581 0.865355 0.885080
Si Si2 0.471518 0.207056 0.605334
Si Si3 0.644619 0.898247 0.198970
Si Si4 0.000000 0.000000 0.047409
Si Si5 0.721094 0.764990 0.389413
Si Si6 0.027474 0.604247 0.170648
O O1 0.010883 0.778854 0.904080
O O2 0.507695 0.820082 0.869128
O O3 0.143547 0.918280 0.781421
O O4 0.214263 0.945070 0.975869
O O5 0.528524 0.319176 0.637137
O O6 0.356495 0.185635 0.494907
O O7 0.759591 0.162065 0.605961
O O8 0.250655 0.161769 0.681349
O O9 0.735346 0.849772 0.304563
O O10 0.500000 0.000000 0.221995
O O11 0.881446 0.918307 0.121322
O O12 0.000000 0.500000 0.115981
#
# Coordination Sequence:
#
# PCOD8169658 Si02
#       6
#     4   4   4   2   4   4
#     4  12  24  46  76 109 141 195 254 312 379 445
#     4  12  26  49  74 107 154 200 251 317 382 453
#     4  12  28  46  75 113 159 202 256 319 388 466
#     4  12  28  46  80 116 156 198 268 328 386 460
#     4  12  27  47  74 103 152 202 246 304 390 458
#     4  12  25  47  77 108 143 191 259 318 374 446
#
# _framework density 23.968302999999999
#
# number of rings (size 3 to 8) (size 9 to 14) (size 15 to 20)
#    0.000    0.000    6.364    2.727    5.091    1.455 
#    1.636    0.000    0.000    0.000    0.000    0.000 
#    0.000    0.000    0.000    0.000    0.000    0.000 
#
# Total GULP energy -272755.437883 kJ/mol
# GULP energy per Si atom -12397.974449 kJ/mol
# Density = 2.391375 g / cm^3
# Si number density = 23.968303 Si / 1000 Ang^3
#
#
#
# Elastic Constant Matrix: (Units=GPa)
#
#
# Indices 1 2 3 4 5 6 
#
# 1 85.7250 35.6106 2.0180 0.0000 0.0000 0.0000
# 2 35.6106 149.6691 39.0849 0.0000 0.0000 0.0000
# 3 2.0180 39.0849 126.2123 0.0000 0.0000 0.0000
# 4 0.0000 0.0000 0.0000 26.2886 0.0000 0.0000
# 5 0.0000 0.0000 0.0000 0.0000 36.8875 0.0000
# 6 0.0000 0.0000 0.0000 0.0000 0.0000 38.9648
#
#
#
# Elastic Compliance Matrix: (Units=1/GPa)
#
#
# Indices 1 2 3 4 5 6 
#
# 1 0.013022 -0.003312 0.000817 0.000000 0.000000 0.000000
# 2 -0.003312 0.008111 -0.002459 0.000000 0.000000 0.000000
# 3 0.000817 -0.002459 0.008672 0.000000 0.000000 0.000000
# 4 0.000000 0.000000 0.000000 0.038039 0.000000 0.000000
# 5 0.000000 0.000000 0.000000 0.000000 0.027109 0.000000
# 6 0.000000 0.000000 0.000000 0.000000 0.000000 0.025664
#
#
# Mechanical properties :
#
#
# Convention : Reuss Voigt Hill
#
# Bulk Modulus (GPa) = 50.25605 57.22594 53.74100
# Shear Modulus (GPa) = 36.45455 39.42102 37.93778
#
# Velocity S-wave (km/s) = 3.90416 4.05991 3.98280
# Velocity P-wave (km/s) = 6.42935 6.77530 6.60459
#
# Compressibility (1/GPa) = 0.01989810
#
# Stress axis : x y z
#
# Youngs Moduli (GPa) = 76.79513 123.28189 115.31930
#
# Poissons Ratio (x) = 0.40827 -0.09426
# Poissons Ratio (y) = 0.25432 0.28357
# Poissons Ratio (z) = -0.06277 0.30315
#
# Static dielectric constant tensor:
#      x y z
#    x 4.354690 0.000000 0.000000 
#    y 0.000000 4.441610 0.000000 
#    z 0.000000 0.000000 4.546400 
# 
# 
# High freq. dielectric constant tensor:
#      x y z
#    x 1.950100 0.000000 0.000000 
#    y 0.000000 1.952060 0.000000 
#    z 0.000000 0.000000 1.965500 
# 
# From -- ./inp_files/4634.got.cif
#   From: 2010.03.12/outbox.cif.g09.slc.cpg/sg30_3_cif.got.tgz:4634.got - 2010.04.14 01:38:02.
