data_PCOD8169662
_publ_section_title
;
Structure prediction by ZEFSAII (Michael W. Deem and Ramdas Pophale) SiO2 
 PCOD8169662
Probable space group: P N C 2
;
_chemical_formula_sum "Si O2"
_cell_formula_units_Z 18
_cell_length_a 5.143292
_cell_length_b 8.262050
_cell_length_c 17.256760
_cell_angle_alpha 90.000000
_cell_angle_beta 90.000000
_cell_angle_gamma 90.000000
_cell_volume 733.311101
_symmetry_space_group_name_H-M "P N C 2"
_symmetry_group_IT_number 30
_symmetry_cell_setting 'orthorhombic'
loop_
_space_group_symop_operation_xyz
x,y,z
-x,-y,z
-x,1/2+y,1/2+z
x,1/2-y,1/2+z
loop_
_atom_site_type_symbol
_atom_site_label
_atom_site_fract_x
_atom_site_fract_y
_atom_site_fract_z
Si Si1 0.500000 0.500000 0.178571
Si Si2 0.123831 0.316419 0.497433
Si Si3 0.000000 0.000000 0.574411
Si Si4 0.625719 0.159921 0.901174
Si Si5 0.000000 0.500000 0.637747
Si Si6 0.645521 0.170852 0.249437
O O1 0.248567 0.500813 0.127418
O O2 0.484310 0.330916 0.226396
O O3 0.389606 0.273333 0.453580
O O4 0.986230 0.149800 0.517202
O O5 0.877174 0.400515 0.450311
O O6 0.198785 0.411938 0.577565
O O7 0.724016 0.293285 0.838758
O O8 0.500000 0.000000 0.860513
O O9 0.888127 0.355966 0.691857
O O10 0.500000 0.000000 0.244060
#
# Coordination Sequence:
#
# PCOD8169662 Si02
#       6
#     2   4   2   4   2   4
#     4  12  26  50  76 112 152 200 258 334 400 474
#     4  12  27  47  79 110 155 210 270 330 405 484
#     4  12  26  45  75 112 148 194 268 328 390 473
#     4  12  27  50  74 111 159 212 263 332 414 490
#     4  12  26  51  81 114 156 210 284 332 406 485
#     4  12  30  49  79 117 163 209 273 342 414 486
#
# _framework density 24.546199000000001
#
# number of rings (size 3 to 8) (size 9 to 14) (size 15 to 20)
#    0.000    0.000    5.556    2.667    9.333    0.000 
#    0.000    0.000    0.000    0.000    0.000    0.000 
#    0.000    0.000    0.000    0.000    0.000    0.000 
#
# Total GULP energy -222996.142331 kJ/mol
# GULP energy per Si atom -12388.674574 kJ/mol
# Density = 2.449033 g / cm^3
# Si number density = 24.546199 Si / 1000 Ang^3
#
#
#
# Elastic Constant Matrix: (Units=GPa)
#
#
# Indices 1 2 3 4 5 6 
#
# 1 145.9190 41.9162 75.6781 0.0000 0.0000 0.0000
# 2 41.9162 163.5072 62.6924 0.0000 0.0000 0.0000
# 3 75.6781 62.6924 169.3613 0.0000 0.0000 0.0000
# 4 0.0000 0.0000 0.0000 50.2792 0.0000 0.0000
# 5 0.0000 0.0000 0.0000 0.0000 27.4751 0.0000
# 6 0.0000 0.0000 0.0000 0.0000 0.0000 40.0889
#
#
#
# Elastic Compliance Matrix: (Units=1/GPa)
#
#
# Indices 1 2 3 4 5 6 
#
# 1 0.009031 -0.000895 -0.003704 0.000000 0.000000 0.000000
# 2 -0.000895 0.007216 -0.002271 0.000000 0.000000 0.000000
# 3 -0.003704 -0.002271 0.008401 0.000000 0.000000 0.000000
# 4 0.000000 0.000000 0.000000 0.019889 0.000000 0.000000
# 5 0.000000 0.000000 0.000000 0.000000 0.036397 0.000000
# 6 0.000000 0.000000 0.000000 0.000000 0.000000 0.024945
#
#
# Mechanical properties :
#
#
# Convention : Reuss Voigt Hill
#
# Bulk Modulus (GPa) = 91.68440 93.26232 92.47336
# Shear Modulus (GPa) = 40.56626 43.46870 42.01748
#
# Velocity S-wave (km/s) = 4.06969 4.21276 4.14184
# Velocity P-wave (km/s) = 7.71466 7.85750 7.78641
#
# Compressibility (1/GPa) = 0.01090698
#
# Stress axis : x y z
#
# Youngs Moduli (GPa) = 110.72506 138.57630 119.03935
#
# Poissons Ratio (x) = 0.12402 0.44096
# Poissons Ratio (y) = 0.09909 0.27038
# Poissons Ratio (z) = 0.41016 0.31475
#
# Static dielectric constant tensor:
#      x y z
#    x 4.233020 0.000000 0.000000 
#    y 0.000000 5.062650 0.000000 
#    z 0.000000 0.000000 4.528020 
# 
# 
# High freq. dielectric constant tensor:
#      x y z
#    x 1.961020 0.000000 0.000000 
#    y 0.000000 2.006800 0.000000 
#    z 0.000000 0.000000 1.983810 
# 
# From -- ./inp_files/5815.got.cif
#   From: 2010.03.12/outbox.cif.g09.slc.cpg/sg30_3_cif.got.tgz:5815.got - 2010.04.14 01:38:02.
