data_PCOD8169922
_publ_section_title
;
Structure prediction by ZEFSAII (Michael W. Deem and Ramdas Pophale) SiO2 
 PCOD8169922
Probable space group: P M N 21
;
_chemical_formula_sum "Si O2"
_cell_formula_units_Z 32
_cell_length_a 8.937841
_cell_length_b 11.347143
_cell_length_c 16.119947
_cell_angle_alpha 90.000000
_cell_angle_beta 90.000000
_cell_angle_gamma 90.000000
_cell_volume 1634.868259
_symmetry_space_group_name_H-M "P M N 21"
_symmetry_group_IT_number 31
_symmetry_cell_setting 'orthorhombic'
loop_
_space_group_symop_operation_xyz
x,y,z
1/2-x,-y,1/2+z
-x,y,z
1/2+x,-y,1/2+z
loop_
_atom_site_type_symbol
_atom_site_label
_atom_site_fract_x
_atom_site_fract_y
_atom_site_fract_z
Si Si1 0.167767 0.066632 0.760200
Si Si2 0.329451 0.051674 0.486358
Si Si3 0.823365 0.810056 0.533626
Si Si4 0.324926 0.584439 0.215356
Si Si5 0.169526 0.779324 0.133763
Si Si6 0.326269 0.310488 0.206122
Si Si7 0.669181 0.724875 0.377349
Si Si8 0.326270 0.860073 0.821622
O O1 0.207869 0.152887 0.686872
O O2 0.177522 0.139601 0.845987
O O3 0.000000 0.016861 0.746772
O O4 0.287572 0.961214 0.754664
O O5 0.500000 0.012701 0.471093
O O6 0.321025 0.169053 0.542103
O O7 0.259142 0.096675 0.402151
O O8 0.246293 0.940671 0.527823
O O9 0.774465 0.750091 0.620234
O O10 0.769591 0.722126 0.460104
O O11 0.000000 0.822944 0.526964
O O12 0.500000 0.612910 0.202972
O O13 0.226989 0.644583 0.141724
O O14 0.289753 0.447880 0.205552
O O15 0.273121 0.634250 0.306115
O O16 0.000000 0.789933 0.168392
O O17 0.500000 0.286343 0.222232
O O18 0.233987 0.261697 0.284597
O O19 0.500000 0.690931 0.401503
O O20 0.500000 0.849649 0.840376
#
# Coordination Sequence:
#
# PCOD8169922 Si02
#       8
#     4   4   4   4   4   4   4   4
#     4  10  19  34  58  85 117 155 189 230 294 357
#     4  11  23  39  58  85 123 159 193 238 299 366
#     4  11  22  36  60  91 120 153 196 249 301 353
#     4   9  20  41  64  83 114 161 204 240 292 357
#     4  10  21  36  59  89 117 150 194 245 290 340
#     4  10  23  43  62  84 120 164 203 243 299 362
#     4   9  18  34  59  86 113 153 196 239 290 348
#     4  12  24  37  58  87 118 153 195 248 299 349
#
# _framework density 19.573442
#
# number of rings (size 3 to 8) (size 9 to 14) (size 15 to 20)
#    0.000    1.750    1.250    4.125    0.000    7.500 
#    2.250    0.000    0.000    0.000    0.000    0.000 
#    0.000    0.000    0.000    0.000    0.000    0.000 
#
# Total GULP energy -396728.052997 kJ/mol
# GULP energy per Si atom -12397.751656 kJ/mol
# Density = 1.952889 g / cm^3
# Si number density = 19.573442 Si / 1000 Ang^3
#
#
#
# Elastic Constant Matrix: (Units=GPa)
#
#
# Indices 1 2 3 4 5 6 
#
# 1 91.6321 49.4763 44.7501 0.0000 0.0000 0.0000
# 2 49.4763 120.5762 58.6279 0.0000 0.0000 0.0000
# 3 44.7501 58.6279 79.3626 0.0000 0.0000 0.0000
# 4 0.0000 0.0000 0.0000 25.8095 0.0000 0.0000
# 5 0.0000 0.0000 0.0000 0.0000 23.4019 0.0000
# 6 0.0000 0.0000 0.0000 0.0000 0.0000 29.2078
#
#
#
# Elastic Compliance Matrix: (Units=1/GPa)
#
#
# Indices 1 2 3 4 5 6 
#
# 1 0.015896 -0.003378 -0.006468 0.000000 0.000000 0.000000
# 2 -0.003378 0.013660 -0.008187 0.000000 0.000000 0.000000
# 3 -0.006468 -0.008187 0.022295 0.000000 0.000000 0.000000
# 4 0.000000 0.000000 0.000000 0.038745 0.000000 0.000000
# 5 0.000000 0.000000 0.000000 0.000000 0.042732 0.000000
# 6 0.000000 0.000000 0.000000 0.000000 0.000000 0.034237
#
#
# Mechanical properties :
#
#
# Convention : Reuss Voigt Hill
#
# Bulk Modulus (GPa) = 63.34482 66.36439 64.85460
# Shear Modulus (GPa) = 23.93585 24.93162 24.43373
#
# Velocity S-wave (km/s) = 3.50075 3.57283 3.53698
# Velocity P-wave (km/s) = 6.98379 7.14136 7.06301
#
# Compressibility (1/GPa) = 0.01578661
#
# Stress axis : x y z
#
# Youngs Moduli (GPa) = 62.91029 73.20626 44.85272
#
# Poissons Ratio (x) = 0.24726 0.29010
# Poissons Ratio (y) = 0.21249 0.36719
# Poissons Ratio (z) = 0.40690 0.59931
#
# Static dielectric constant tensor:
#      x y z
#    x 3.619210 0.000000 0.000000 
#    y 0.000000 3.762920 0.000000 
#    z 0.000000 0.000000 3.603010 
# 
# 
# High freq. dielectric constant tensor:
#      x y z
#    x 1.765020 0.000000 0.000000 
#    y 0.000000 1.756070 0.000000 
#    z 0.000000 0.000000 1.758560 
# 
# From -- ./inp_files/5070.got.cif
#   From: 2010.03.12/outbox.cif.g09.slc.cpg/sg31_3_cif.got.tgz:5070.got - 2010.04.14 01:42:59.
