data_PCOD8169852
_publ_section_title
;
Structure prediction by ZEFSAII (Michael W. Deem and Ramdas Pophale) SiO2 
 PCOD8169852
Probable space group: P M N 21
;
_chemical_formula_sum "Si O2"
_cell_formula_units_Z 24
_cell_length_a 8.367056
_cell_length_b 26.899056
_cell_length_c 5.165786
_cell_angle_alpha 90.000000
_cell_angle_beta 90.000000
_cell_angle_gamma 90.000000
_cell_volume 1162.642316
_symmetry_space_group_name_H-M "P M N 21"
_symmetry_group_IT_number 31
_symmetry_cell_setting 'orthorhombic'
loop_
_space_group_symop_operation_xyz
x,y,z
1/2-x,-y,1/2+z
-x,y,z
1/2+x,-y,1/2+z
loop_
_atom_site_type_symbol
_atom_site_label
_atom_site_fract_x
_atom_site_fract_y
_atom_site_fract_z
Si Si1 0.186998 0.525806 0.543200
Si Si2 0.689763 0.133186 0.071235
Si Si3 0.815915 0.024868 0.120063
Si Si4 0.690965 0.304124 0.554282
Si Si5 0.189481 0.807567 0.069247
Si Si6 0.190131 0.638598 0.553495
O O1 0.218179 0.505782 0.255487
O O2 0.251625 0.582120 0.555958
O O3 0.000000 0.523180 0.606305
O O4 0.500000 0.125506 0.071895
O O5 0.773514 0.080522 0.039405
O O6 0.752728 0.159967 0.329652
O O7 0.746967 0.166994 0.832960
O O8 0.000000 0.019683 0.194257
O O9 0.717221 0.010231 0.374669
O O10 0.500000 0.303298 0.555522
O O11 0.759703 0.248115 0.554345
O O12 0.756671 0.332817 0.303747
O O13 0.758227 0.333119 0.803050
O O14 0.000000 0.804692 0.057200
O O15 0.000000 0.639377 0.548460
#
# Coordination Sequence:
#
# PCOD8169852 Si02
#       6
#     4   4   4   4   4   4
#     4  11  22  37  56  82 113 150 191 238 290 343
#     4  10  19  33  52  79 112 144 178 223 274 331
#     4  12  25  42  63  88 117 154 195 238 285 336
#     4   9  15  26  44  72 106 138 172 222 279 327
#     4   9  17  28  48  77 109 140 175 221 276 327
#     4   9  17  28  46  72 105 138 177 228 280 326
#
# _framework density 20.642634000000001
#
# number of rings (size 3 to 8) (size 9 to 14) (size 15 to 20)
#    0.000    2.000    0.000    5.000    0.000    8.000 
#    0.000    0.000    0.000    0.000    0.000   23.333 
#    0.000    0.000    0.000    0.000    0.000    0.000 
#
# Total GULP energy -297680.581006 kJ/mol
# GULP energy per Si atom -12403.357542 kJ/mol
# Density = 2.059565 g / cm^3
# Si number density = 20.642634 Si / 1000 Ang^3
#
#
#
# Elastic Constant Matrix: (Units=GPa)
#
#
# Indices 1 2 3 4 5 6 
#
# 1 31.1147 21.3039 11.0169 0.0000 0.0000 0.0000
# 2 21.3039 147.6452 49.1397 0.0000 0.0000 0.0000
# 3 11.0169 49.1397 150.5380 0.0000 0.0000 0.0000
# 4 0.0000 0.0000 0.0000 46.4903 0.0000 0.0000
# 5 0.0000 0.0000 0.0000 0.0000 19.0712 0.0000
# 6 0.0000 0.0000 0.0000 0.0000 0.0000 15.7690
#
#
#
# Elastic Compliance Matrix: (Units=1/GPa)
#
#
# Indices 1 2 3 4 5 6 
#
# 1 0.035809 -0.004818 -0.001048 0.000000 0.000000 0.000000
# 2 -0.004818 0.008247 -0.002339 0.000000 0.000000 0.000000
# 3 -0.001048 -0.002339 0.007483 0.000000 0.000000 0.000000
# 4 0.000000 0.000000 0.000000 0.021510 0.000000 0.000000
# 5 0.000000 0.000000 0.000000 0.000000 0.052435 0.000000
# 6 0.000000 0.000000 0.000000 0.000000 0.000000 0.063416
#
#
# Mechanical properties :
#
#
# Convention : Reuss Voigt Hill
#
# Bulk Modulus (GPa) = 28.46707 54.69100 41.57904
# Shear Modulus (GPa) = 23.03935 32.78859 27.91397
#
# Velocity S-wave (km/s) = 3.34444 3.98979 3.68128
# Velocity P-wave (km/s) = 5.36042 6.91204 6.18508
#
# Compressibility (1/GPa) = 0.03512831
#
# Stress axis : x y z
#
# Youngs Moduli (GPa) = 27.92579 121.25892 133.63341
#
# Poissons Ratio (x) = 0.58425 0.14003
# Poissons Ratio (y) = 0.13455 0.31262
# Poissons Ratio (z) = 0.02926 0.28367
#
# Static dielectric constant tensor:
#      x y z
#    x 3.103580 0.000000 0.000000 
#    y 0.000000 3.951550 0.000000 
#    z 0.000000 0.000000 3.908690 
# 
# 
# High freq. dielectric constant tensor:
#      x y z
#    x 1.751670 0.000000 0.000000 
#    y 0.000000 1.826790 0.000000 
#    z 0.000000 0.000000 1.825930 
# 
# From -- ./inp_files/144.got.cif
#   From: 2010.03.12/outbox.cif.g09.slc.cpg/sg31_1_cif.got.tgz:144.got - 2010.04.14 01:42:59.
