data_PCOD8169579
_publ_section_title
;
Structure prediction by ZEFSAII (Michael W. Deem and Ramdas Pophale) SiO2 
 PCOD8169579
Probable space group: P N C 2
;
_chemical_formula_sum "Si O2"
_cell_formula_units_Z 32
_cell_length_a 9.796248
_cell_length_b 14.817579
_cell_length_c 10.684388
_cell_angle_alpha 90.000000
_cell_angle_beta 90.000000
_cell_angle_gamma 90.000000
_cell_volume 1550.910275
_symmetry_space_group_name_H-M "P N C 2"
_symmetry_group_IT_number 30
_symmetry_cell_setting 'orthorhombic'
loop_
_space_group_symop_operation_xyz
x,y,z
-x,-y,z
-x,1/2+y,1/2+z
x,1/2-y,1/2+z
loop_
_atom_site_type_symbol
_atom_site_label
_atom_site_fract_x
_atom_site_fract_y
_atom_site_fract_z
Si Si1 0.254570 0.644438 0.905420
Si Si2 0.770065 0.609531 0.746347
Si Si3 0.965517 0.220581 0.229610
Si Si4 0.909786 0.589575 0.264687
Si Si5 0.740402 0.178102 0.033113
Si Si6 0.472804 0.601640 0.711599
Si Si7 0.842564 0.510018 0.505775
Si Si8 0.155547 0.023312 0.509895
O O1 0.111533 0.658599 0.831250
O O2 0.374190 0.595180 0.830443
O O3 0.229182 0.574874 0.020105
O O4 0.305817 0.743901 0.939363
O O5 0.617025 0.650513 0.744010
O O6 0.770892 0.533301 0.637616
O O7 0.794598 0.573834 0.885831
O O8 0.882611 0.682644 0.706348
O O9 0.872939 0.217111 0.105989
O O10 0.990625 0.324053 0.270679
O O11 0.818158 0.582905 0.392494
O O12 0.000000 0.500000 0.271255
O O13 0.820718 0.583906 0.135766
O O14 0.604278 0.163465 0.112271
O O15 0.781996 0.086452 0.962100
O O16 0.500000 0.500000 0.663829
O O17 0.000000 0.500000 0.540300
O O18 0.000000 0.000000 0.493281
#
# Coordination Sequence:
#
# PCOD8169579 Si02
#       8
#     4   4   4   4   4   4   4   4
#     4  11  22  39  66  93 125 171 221 263 317 394
#     4  12  22  39  68  94 124 169 224 266 315 380
#     4  11  23  39  66  96 126 164 221 273 317 390
#     4  10  23  38  56  99 139 158 196 278 351 376
#     4  11  22  39  66  93 125 171 221 263 317 394
#     4  11  23  43  61  91 128 174 220 267 315 387
#     4  11  20  37  64  96 126 163 213 268 326 384
#     4  11  20  37  64  96 126 163 213 268 326 384
#
# _framework density 20.633044000000002
#
# number of rings (size 3 to 8) (size 9 to 14) (size 15 to 20)
#    0.000    1.000    5.000    4.125    0.000    1.000 
#    4.500    0.000    0.000    3.000    0.000    0.000 
#    0.000    0.000    0.000    0.000    0.000    0.000 
#
# Total GULP energy -396518.974705 kJ/mol
# GULP energy per Si atom -12391.217960 kJ/mol
# Density = 2.058608 g / cm^3
# Si number density = 20.633044 Si / 1000 Ang^3
#
#
#
# Elastic Constant Matrix: (Units=GPa)
#
#
# Indices 1 2 3 4 5 6 
#
# 1 118.6576 19.3137 18.2770 0.0000 0.0000 0.0000
# 2 19.3137 71.8537 8.1166 0.0000 0.0000 0.0000
# 3 18.2770 8.1166 101.9675 0.0000 0.0000 0.0000
# 4 0.0000 0.0000 0.0000 27.1710 0.0000 0.0000
# 5 0.0000 0.0000 0.0000 0.0000 5.9633 0.0000
# 6 0.0000 0.0000 0.0000 0.0000 0.0000 21.9991
#
#
#
# Elastic Compliance Matrix: (Units=1/GPa)
#
#
# Indices 1 2 3 4 5 6 
#
# 1 0.009017 -0.002261 -0.001436 0.000000 0.000000 0.000000
# 2 -0.002261 0.014611 -0.000758 0.000000 0.000000 0.000000
# 3 -0.001436 -0.000758 0.010125 0.000000 0.000000 0.000000
# 4 0.000000 0.000000 0.000000 0.036804 0.000000 0.000000
# 5 0.000000 0.000000 0.000000 0.000000 0.167691 0.000000
# 6 0.000000 0.000000 0.000000 0.000000 0.000000 0.045456
#
#
# Mechanical properties :
#
#
# Convention : Reuss Voigt Hill
#
# Bulk Modulus (GPa) = 40.25490 42.65482 41.45486
# Shear Modulus (GPa) = 16.61707 27.47811 22.04759
#
# Velocity S-wave (km/s) = 2.84097 3.65328 3.27243
# Velocity P-wave (km/s) = 5.50579 6.20590 5.86630
#
# Compressibility (1/GPa) = 0.02484170
#
# Stress axis : x y z
#
# Youngs Moduli (GPa) = 110.90254 68.44342 98.76749
#
# Poissons Ratio (x) = 0.15478 0.14185
# Poissons Ratio (y) = 0.25080 0.07483
# Poissons Ratio (z) = 0.15928 0.05186
#
# Static dielectric constant tensor:
#      x y z
#    x 3.726890 0.000000 0.000000 
#    y 0.000000 3.812510 0.000000 
#    z 0.000000 0.000000 4.245430 
# 
# 
# High freq. dielectric constant tensor:
#      x y z
#    x 1.789360 0.000000 0.000000 
#    y 0.000000 1.806930 0.000000 
#    z 0.000000 0.000000 1.802310 
# 
# From -- ./inp_files/3794.got.cif
#   From: 2010.03.12/outbox.cif.g09.slc.cpg/sg30_2_cif.got.tgz:3794.got - 2010.04.14 01:38:02.
