data_PCOD8169106
_publ_section_title
;
Structure prediction by ZEFSAII (Michael W. Deem and Ramdas Pophale) SiO2 
 PCOD8169106
Probable space group: P C A 21
;
_chemical_formula_sum "Si O2"
_cell_formula_units_Z 28
_cell_length_a 9.791378
_cell_length_b 11.913771
_cell_length_c 11.128191
_cell_angle_alpha 90.000000
_cell_angle_beta 90.000000
_cell_angle_gamma 90.000000
_cell_volume 1298.128355
_symmetry_space_group_name_H-M "P C A 21"
_symmetry_group_IT_number 29
_symmetry_cell_setting 'orthorhombic'
loop_
_space_group_symop_operation_xyz
x,y,z
-x,-y,1/2+z
1/2-x,y,1/2+z
1/2+x,-y,z
loop_
_atom_site_type_symbol
_atom_site_label
_atom_site_fract_x
_atom_site_fract_y
_atom_site_fract_z
Si Si1 0.986162 0.682847 0.126230
Si Si2 0.119563 0.500739 0.788738
Si Si3 0.611929 0.093581 0.547762
Si Si4 0.295128 0.662364 0.086021
Si Si5 0.833309 0.892836 0.194497
Si Si6 0.818880 0.934230 0.462450
Si Si7 0.131597 0.453416 0.432946
O O1 0.136847 0.692501 0.072417
O O2 0.983995 0.583171 0.222875
O O3 0.953437 0.801821 0.185431
O O4 0.867647 0.645898 0.031301
O O5 0.173733 0.605125 0.712682
O O6 0.249737 0.428723 0.836279
O O7 0.025060 0.552508 0.891276
O O8 0.615013 0.224975 0.576553
O O9 0.482392 0.061232 0.465013
O O10 0.605028 0.018221 0.670497
O O11 0.747168 0.056918 0.472288
O O12 0.338044 0.577974 0.981348
O O13 0.773259 0.885180 0.330829
O O14 0.728077 0.864857 0.083433
#
# Coordination Sequence:
#
# PCOD8169106 Si02
#       7
#     4   4   4   4   4   4   4
#     4  11  24  43  70 101 141 181 239 293 363 431
#     4  11  24  42  70 100 139 180 235 292 360 427
#     4  10  25  44  73 100 146 181 244 290 362 430
#     4  11  24  44  70 103 134 190 235 289 365 430
#     4  10  26  45  72 105 146 185 241 295 362 426
#     4  10  25  45  70 108 139 193 232 300 358 430
#     4  11  24  43  67 103 137 182 232 297 356 434
#
# _framework density 21.569514999999999
#
# number of rings (size 3 to 8) (size 9 to 14) (size 15 to 20)
#    0.857    0.571    2.857    0.857    6.000    2.286 
#    2.571    0.000    0.000    0.000    0.000    0.000 
#    0.000    0.000    0.000    0.000    0.000    0.000 
#
# Total GULP energy -346916.026404 kJ/mol
# GULP energy per Si atom -12389.858086 kJ/mol
# Density = 2.152042 g / cm^3
# Si number density = 21.569515 Si / 1000 Ang^3
#
#
#
# Elastic Constant Matrix: (Units=GPa)
#
#
# Indices 1 2 3 4 5 6 
#
# 1 101.6903 24.3416 34.6105 0.0000 0.0000 0.0000
# 2 24.3416 81.6912 22.1752 0.0000 0.0000 0.0000
# 3 34.6105 22.1752 129.2536 0.0000 0.0000 0.0000
# 4 0.0000 0.0000 0.0000 14.7177 0.0000 0.0000
# 5 0.0000 0.0000 0.0000 0.0000 37.1614 0.0000
# 6 0.0000 0.0000 0.0000 0.0000 0.0000 28.9405
#
#
#
# Elastic Compliance Matrix: (Units=1/GPa)
#
#
# Indices 1 2 3 4 5 6 
#
# 1 0.011354 -0.002683 -0.002580 0.000000 0.000000 0.000000
# 2 -0.002683 0.013473 -0.001593 0.000000 0.000000 0.000000
# 3 -0.002580 -0.001593 0.008701 0.000000 0.000000 0.000000
# 4 0.000000 0.000000 0.000000 0.067945 0.000000 0.000000
# 5 0.000000 0.000000 0.000000 0.000000 0.026910 0.000000
# 6 0.000000 0.000000 0.000000 0.000000 0.000000 0.034554
#
#
# Mechanical properties :
#
#
# Convention : Reuss Voigt Hill
#
# Bulk Modulus (GPa) = 50.46390 52.76551 51.61470
# Shear Modulus (GPa) = 27.28452 31.59778 29.44115
#
# Velocity S-wave (km/s) = 3.56048 3.83159 3.69852
# Velocity P-wave (km/s) = 6.35212 6.64010 6.49770
#
# Compressibility (1/GPa) = 0.01981615
#
# Stress axis : x y z
#
# Youngs Moduli (GPa) = 88.07400 74.22213 114.93057
#
# Poissons Ratio (x) = 0.19913 0.29652
# Poissons Ratio (y) = 0.23629 0.18310
# Poissons Ratio (z) = 0.22723 0.11824
#
# Static dielectric constant tensor:
#      x y z
#    x 3.716320 0.000000 0.000000 
#    y 0.000000 3.627430 0.000000 
#    z 0.000000 0.000000 3.947560 
# 
# 
# High freq. dielectric constant tensor:
#      x y z
#    x 1.843990 0.000000 0.000000 
#    y 0.000000 1.833270 0.000000 
#    z 0.000000 0.000000 1.847640 
# 
# From -- ./inp_files/2892.got.cif
#   From: 2010.03.12/outbox.cif.g09.slc.cpg/sg29_2_cif.got.tgz:2892.got - 2010.04.14 03:43:10.
