data_PCOD8169951
_publ_section_title
;
Structure prediction by ZEFSAII (Michael W. Deem and Ramdas Pophale) SiO2 
 PCOD8169951
Probable space group: P M N 21
;
_chemical_formula_sum "Si O2"
_cell_formula_units_Z 32
_cell_length_a 9.023862
_cell_length_b 14.288485
_cell_length_c 12.649018
_cell_angle_alpha 90.000000
_cell_angle_beta 90.000000
_cell_angle_gamma 90.000000
_cell_volume 1630.930441
_symmetry_space_group_name_H-M "P M N 21"
_symmetry_group_IT_number 31
_symmetry_cell_setting 'orthorhombic'
loop_
_space_group_symop_operation_xyz
x,y,z
1/2-x,-y,1/2+z
-x,y,z
1/2+x,-y,1/2+z
loop_
_atom_site_type_symbol
_atom_site_label
_atom_site_fract_x
_atom_site_fract_y
_atom_site_fract_z
Si Si1 0.174454 0.062196 0.951810
Si Si2 0.169514 0.639132 0.724371
Si Si3 0.662852 0.133550 0.764194
Si Si4 0.664767 0.337444 0.854584
Si Si5 0.824120 0.866600 0.031338
Si Si6 0.174991 0.666537 0.962717
Si Si7 0.824459 0.258327 0.047108
Si Si8 0.828909 0.430771 0.660628
O O1 0.228163 0.069778 0.831804
O O2 0.000000 0.057077 0.952333
O O3 0.244634 0.964428 0.991242
O O4 0.226466 0.151428 0.021803
O O5 0.220345 0.628596 0.846872
O O6 0.268177 0.716714 0.664554
O O7 0.187839 0.542246 0.662329
O O8 0.000000 0.674049 0.722455
O O9 0.500000 0.085712 0.757843
O O10 0.645905 0.233617 0.814749
O O11 0.735318 0.145959 0.649827
O O12 0.500000 0.380887 0.873327
O O13 0.751791 0.395550 0.767114
O O14 0.754253 0.332997 0.964772
O O15 0.772628 0.775298 0.966152
O O16 0.000000 0.872036 0.028933
O O17 0.000000 0.657310 0.984343
O O18 0.255128 0.606674 0.053324
O O19 0.000000 0.268479 0.040297
O O20 0.000000 0.399478 0.662868
#
# Coordination Sequence:
#
# PCOD8169951 Si02
#       8
#     4   4   4   4   4   4   4   4
#     4   9  19  34  54  82 114 149 189 237 288 337
#     4  10  24  41  58  84 119 156 195 240 290 349
#     4   9  17  32  53  78 107 143 189 234 278 337
#     4  10  19  35  60  84 109 148 194 238 287 344
#     4   9  17  34  58  81 109 148 191 235 286 343
#     4  10  21  41  63  84 113 155 199 238 290 354
#     4  10  21  37  57  84 119 155 192 238 292 340
#     4  11  23  38  57  87 118 146 189 246 297 342
#
# _framework density 19.620702000000001
#
# number of rings (size 3 to 8) (size 9 to 14) (size 15 to 20)
#    0.000    2.250    1.250    1.125    1.750    3.500 
#    0.000    1.250    0.000    0.000    0.000    0.000 
#    0.000    0.000    0.000    0.000    0.000    0.000 
#
# Total GULP energy -396674.987854 kJ/mol
# GULP energy per Si atom -12396.093370 kJ/mol
# Density = 1.957604 g / cm^3
# Si number density = 19.620702 Si / 1000 Ang^3
#
#
#
# Elastic Constant Matrix: (Units=GPa)
#
#
# Indices 1 2 3 4 5 6 
#
# 1 64.5967 39.5138 35.8184 0.0000 0.0000 0.0000
# 2 39.5138 84.3855 49.7752 0.0000 0.0000 0.0000
# 3 35.8184 49.7752 109.9279 0.0000 0.0000 0.0000
# 4 0.0000 0.0000 0.0000 21.4463 0.0000 0.0000
# 5 0.0000 0.0000 0.0000 0.0000 32.2422 0.0000
# 6 0.0000 0.0000 0.0000 0.0000 0.0000 23.3514
#
#
#
# Elastic Compliance Matrix: (Units=1/GPa)
#
#
# Indices 1 2 3 4 5 6 
#
# 1 0.022649 -0.008531 -0.003517 0.000000 0.000000 0.000000
# 2 -0.008531 0.019382 -0.005996 0.000000 0.000000 0.000000
# 3 -0.003517 -0.005996 0.012958 0.000000 0.000000 0.000000
# 4 0.000000 0.000000 0.000000 0.046628 0.000000 0.000000
# 5 0.000000 0.000000 0.000000 0.000000 0.031015 0.000000
# 6 0.000000 0.000000 0.000000 0.000000 0.000000 0.042824
#
#
# Mechanical properties :
#
#
# Convention : Reuss Voigt Hill
#
# Bulk Modulus (GPa) = 52.90937 56.56944 54.73940
# Shear Modulus (GPa) = 22.95199 24.32816 23.64007
#
# Velocity S-wave (km/s) = 3.42392 3.52507 3.47487
# Velocity P-wave (km/s) = 6.53113 6.74257 6.63769
#
# Compressibility (1/GPa) = 0.01890024
#
# Stress axis : x y z
#
# Youngs Moduli (GPa) = 44.15148 51.59392 77.17203
#
# Poissons Ratio (x) = 0.44015 0.27142
# Poissons Ratio (y) = 0.37666 0.46276
# Poissons Ratio (z) = 0.15529 0.30938
#
# Static dielectric constant tensor:
#      x y z
#    x 3.577520 0.000000 0.000000 
#    y 0.000000 3.704570 0.000000 
#    z 0.000000 0.000000 3.719550 
# 
# 
# High freq. dielectric constant tensor:
#      x y z
#    x 1.748810 0.000000 0.000000 
#    y 0.000000 1.759760 0.000000 
#    z 0.000000 0.000000 1.770510 
# 
# From -- ./inp_files/3678.got.cif
#   From: 2010.03.12/outbox.cif.g09.slc.cpg/sg31_2_cif.got.tgz:3678.got - 2010.04.14 01:42:59.
