data_PCOD8169571
_publ_section_title
;
Structure prediction by ZEFSAII (Michael W. Deem and Ramdas Pophale) SiO2 
 PCOD8169571
Probable space group: P N C 2
;
_chemical_formula_sum "Si O2"
_cell_formula_units_Z 16
_cell_length_a 5.406880
_cell_length_b 5.224393
_cell_length_c 22.174798
_cell_angle_alpha 90.000000
_cell_angle_beta 90.000000
_cell_angle_gamma 90.000000
_cell_volume 626.386288
_symmetry_space_group_name_H-M "P N C 2"
_symmetry_group_IT_number 30
_symmetry_cell_setting 'orthorhombic'
loop_
_space_group_symop_operation_xyz
x,y,z
-x,-y,z
-x,1/2+y,1/2+z
x,1/2-y,1/2+z
loop_
_atom_site_type_symbol
_atom_site_label
_atom_site_fract_x
_atom_site_fract_y
_atom_site_fract_z
Si Si1 0.341582 0.757144 0.437340
Si Si2 0.000000 0.000000 0.851546
Si Si3 0.343561 0.742275 0.073716
Si Si4 0.000000 0.000000 0.159374
Si Si5 0.754796 0.634827 0.774309
O O1 0.500000 0.500000 0.433685
O O2 0.103411 0.725494 0.394668
O O3 0.248242 0.805829 0.505667
O O4 0.500000 0.000000 0.414466
O O5 0.227099 0.089218 0.807190
O O6 0.500000 0.500000 0.096520
O O7 0.109554 0.774667 0.117743
O O8 0.500000 0.000000 0.077352
O O9 0.788442 0.864330 0.201339
O O10 0.500000 0.500000 0.792495
O O11 0.000000 0.500000 0.802018
#
# Coordination Sequence:
#
# PCOD8169571 Si02
#       5
#     4   2   4   2   4
#     4  10  25  43  73 110 151 200 256 317 392 470
#     4  12  27  44  78 102 161 204 264 322 398 462
#     4  10  22  44  71 109 148 194 252 318 390 466
#     4  10  23  42  74 100 149 196 258 316 396 458
#     4  10  27  46  69 111 147 198 264 314 385 461
#
# _framework density 25.543344000000001
#
# number of rings (size 3 to 8) (size 9 to 14) (size 15 to 20)
#    0.750    1.000    0.000    1.500    7.000    5.000 
#    0.000    7.500    0.000    0.000    0.000    0.000 
#    0.000    0.000    0.000    0.000    0.000    0.000 
#
# Total GULP energy -198317.029722 kJ/mol
# GULP energy per Si atom -12394.814358 kJ/mol
# Density = 2.548521 g / cm^3
# Si number density = 25.543344 Si / 1000 Ang^3
#
#
#
# Elastic Constant Matrix: (Units=GPa)
#
#
# Indices 1 2 3 4 5 6 
#
# 1 150.5006 64.2307 69.4220 0.0000 0.0000 0.0000
# 2 64.2307 153.6612 59.9568 0.0000 0.0000 0.0000
# 3 69.4220 59.9568 166.4701 0.0000 0.0000 0.0000
# 4 0.0000 0.0000 0.0000 -5.0689 0.0000 0.0000
# 5 0.0000 0.0000 0.0000 0.0000 -53.9163 0.0000
# 6 0.0000 0.0000 0.0000 0.0000 0.0000 46.9190
#
#
#
# Elastic Compliance Matrix: (Units=1/GPa)
#
#
# Indices 1 2 3 4 5 6 
#
# 1 0.009099 -0.002703 -0.002821 0.000000 0.000000 0.000000
# 2 -0.002703 0.008375 -0.001889 0.000000 0.000000 0.000000
# 3 -0.002821 -0.001889 0.007864 0.000000 0.000000 0.000000
# 4 0.000000 0.000000 0.000000 -0.197283 0.000000 0.000000
# 5 0.000000 0.000000 0.000000 0.000000 -0.018547 0.000000
# 6 0.000000 0.000000 0.000000 0.000000 0.000000 0.021313
#
#
# Mechanical properties :
#
#
# Convention : Reuss Voigt Hill
#
# Bulk Modulus (GPa) = 95.13111 95.31678 95.22394
# Shear Modulus (GPa) = -33.14579 16.05493 -8.54543
#
# Velocity S-wave (km/s) = -3.60617 2.50978 -1.83104
# Velocity P-wave (km/s) = 4.47041 6.76723 5.73498
#
# Compressibility (1/GPa) = 0.01051181
#
# Stress axis : x y z
#
# Youngs Moduli (GPa) = 109.89846 119.40726 127.16161
#
# Poissons Ratio (x) = 0.32273 0.35875
# Poissons Ratio (y) = 0.29703 0.24023
# Poissons Ratio (z) = 0.31005 0.22558
#
# Static dielectric constant tensor:
#      x y z
#    x 5.193290 0.000000 0.000000 
#    y 0.000000 4.501500 0.000000 
#    z 0.000000 0.000000 4.817530 
# 
# 
# High freq. dielectric constant tensor:
#      x y z
#    x 2.001080 0.000000 0.000000 
#    y 0.000000 2.011480 0.000000 
#    z 0.000000 0.000000 2.042710 
# 
# From -- ./inp_files/6717.got.cif
#   From: 2010.03.12/outbox.cif.g09.slc.cpg/sg30_4_cif.got.tgz:6717.got - 2010.04.14 01:38:02.
