data_PCOD8169505
_publ_section_title
;
Structure prediction by ZEFSAII (Michael W. Deem and Ramdas Pophale) SiO2 
 PCOD8169505
Probable space group: P N C 2
;
_chemical_formula_sum "Si O2"
_cell_formula_units_Z 28
_cell_length_a 8.642235
_cell_length_b 16.516438
_cell_length_c 9.260808
_cell_angle_alpha 90.000000
_cell_angle_beta 90.000000
_cell_angle_gamma 90.000000
_cell_volume 1321.877904
_symmetry_space_group_name_H-M "P N C 2"
_symmetry_group_IT_number 30
_symmetry_cell_setting 'orthorhombic'
loop_
_space_group_symop_operation_xyz
x,y,z
-x,-y,z
-x,1/2+y,1/2+z
x,1/2-y,1/2+z
loop_
_atom_site_type_symbol
_atom_site_label
_atom_site_fract_x
_atom_site_fract_y
_atom_site_fract_z
Si Si1 0.289238 0.765580 0.773370
Si Si2 0.534851 0.862423 0.233498
Si Si3 0.247566 0.208616 0.450386
Si Si4 0.902984 0.328960 0.001157
Si Si5 0.297066 0.073369 0.663944
Si Si6 0.500000 0.500000 0.939886
Si Si7 0.000000 0.000000 0.591743
Si Si8 0.540558 0.863530 0.922081
O O1 0.432184 0.717609 0.701438
O O2 0.173300 0.803865 0.655357
O O3 0.369009 0.835222 0.872163
O O4 0.206304 0.699473 0.872765
O O5 0.702324 0.840442 0.304524
O O6 0.452196 0.923264 0.344031
O O7 0.543086 0.906535 0.078316
O O8 0.306439 0.163185 0.595472
O O9 0.331538 0.293715 0.440766
O O10 0.063663 0.218044 0.468117
O O11 0.931665 0.426184 0.994039
O O12 0.353377 0.010758 0.542945
O O13 0.124044 0.042770 0.697355
O O14 0.398337 0.070647 0.807934
#
# Coordination Sequence:
#
# PCOD8169505 Si02
#       8
#     4   4   4   4   4   2   2   4
#     4  11  23  40  66  99 130 168 228 287 336 400
#     4  10  21  40  61  91 127 167 220 272 332 405
#     4   9  21  38  63  87 123 167 206 263 332 398
#     4  11  24  41  67  97 134 173 227 282 341 410
#     4  10  22  39  65  88 126 169 216 260 332 407
#     4  10  22  40  64  86 124 178 216 262 334 410
#     4  10  24  44  62  96 130 180 216 270 342 430
#     4  11  22  38  63  97 125 167 217 286 325 398
#
# _framework density 21.181986999999999
#
# number of rings (size 3 to 8) (size 9 to 14) (size 15 to 20)
#    0.000    1.714    1.429    2.571   12.000    0.571 
#    0.000    0.000    0.000    4.286    0.000    0.000 
#    0.000    0.000    0.000    0.000    0.000    0.000 
#
# Total GULP energy -346945.656244 kJ/mol
# GULP energy per Si atom -12390.916294 kJ/mol
# Density = 2.113378 g / cm^3
# Si number density = 21.181987 Si / 1000 Ang^3
#
#
#
# Elastic Constant Matrix: (Units=GPa)
#
#
# Indices 1 2 3 4 5 6 
#
# 1 123.6561 36.0480 54.4043 0.0000 0.0000 0.0000
# 2 36.0480 78.4652 35.4826 0.0000 0.0000 0.0000
# 3 54.4043 35.4826 154.4423 0.0000 0.0000 0.0000
# 4 0.0000 0.0000 0.0000 7.0319 0.0000 0.0000
# 5 0.0000 0.0000 0.0000 0.0000 26.1337 0.0000
# 6 0.0000 0.0000 0.0000 0.0000 0.0000 35.7211
#
#
#
# Elastic Compliance Matrix: (Units=1/GPa)
#
#
# Indices 1 2 3 4 5 6 
#
# 1 0.010351 -0.003467 -0.002850 0.000000 0.000000 0.000000
# 2 -0.003467 0.015383 -0.002313 0.000000 0.000000 0.000000
# 3 -0.002850 -0.002313 0.008010 0.000000 0.000000 0.000000
# 4 0.000000 0.000000 0.000000 0.142208 0.000000 0.000000
# 5 0.000000 0.000000 0.000000 0.000000 0.038265 0.000000
# 6 0.000000 0.000000 0.000000 0.000000 0.000000 0.027995
#
#
# Mechanical properties :
#
#
# Convention : Reuss Voigt Hill
#
# Bulk Modulus (GPa) = 60.66001 67.60372 64.13187
# Shear Modulus (GPa) = 18.87025 29.15259 24.01142
#
# Velocity S-wave (km/s) = 2.98797 3.71386 3.37052
# Velocity P-wave (km/s) = 6.37210 7.09756 6.74459
#
# Compressibility (1/GPa) = 0.01648533
#
# Stress axis : x y z
#
# Youngs Moduli (GPa) = 96.60464 65.00611 124.84025
#
# Poissons Ratio (x) = 0.22537 0.35579
# Poissons Ratio (y) = 0.33491 0.28875
# Poissons Ratio (z) = 0.27532 0.15036
#
# Static dielectric constant tensor:
#      x y z
#    x 4.018170 0.000000 0.000000 
#    y 0.000000 3.671120 0.000000 
#    z 0.000000 0.000000 3.938530 
# 
# 
# High freq. dielectric constant tensor:
#      x y z
#    x 1.831450 0.000000 0.000000 
#    y 0.000000 1.820210 0.000000 
#    z 0.000000 0.000000 1.825220 
# 
# From -- ./inp_files/2024.got.cif
#   From: 2010.03.12/outbox.cif.g09.slc.cpg/sg30_2_cif.got.tgz:2024.got - 2010.04.14 01:38:02.
