data_PCOD8169604
_publ_section_title
;
Structure prediction by ZEFSAII (Michael W. Deem and Ramdas Pophale) SiO2 
 PCOD8169604
Probable space group: P N C 2
;
_chemical_formula_sum "Si O2"
_cell_formula_units_Z 18
_cell_length_a 15.559345
_cell_length_b 4.711024
_cell_length_c 8.312517
_cell_angle_alpha 90.000000
_cell_angle_beta 90.000000
_cell_angle_gamma 90.000000
_cell_volume 609.311218
_symmetry_space_group_name_H-M "P N C 2"
_symmetry_group_IT_number 30
_symmetry_cell_setting 'orthorhombic'
loop_
_space_group_symop_operation_xyz
x,y,z
-x,-y,z
-x,1/2+y,1/2+z
x,1/2-y,1/2+z
loop_
_atom_site_type_symbol
_atom_site_label
_atom_site_fract_x
_atom_site_fract_y
_atom_site_fract_z
Si Si1 0.212175 0.976176 0.944260
Si Si2 0.556830 0.235190 0.200150
Si Si3 0.894465 0.619728 0.738862
Si Si4 0.000000 0.500000 0.027093
Si Si5 0.328263 0.007935 0.456556
O O1 0.157428 0.101147 0.796629
O O2 0.160194 0.942934 0.111185
O O3 0.298846 0.166864 0.975053
O O4 0.243890 0.662822 0.893041
O O5 0.500000 0.500000 0.256182
O O6 0.587892 0.034954 0.347115
O O7 0.643467 0.364584 0.123932
O O8 0.500000 0.000000 0.098359
O O9 0.920283 0.441457 0.901330
O O10 0.980290 0.733904 0.643183
#
# Coordination Sequence:
#
# PCOD8169604 Si02
#       5
#     4   4   4   2   4
#     4  11  24  43  69 100 138 184 236 294 355 430
#     4  12  24  41  65  96 134 178 230 288 354 424
#     4  10  24  43  69 104 142 186 240 296 366 432
#     4  10  24  44  68 102 144 188 236 302 362 436
#     4  12  24  43  67  97 136 180 232 290 354 422
#
# _framework density 29.541556
#
# number of rings (size 3 to 8) (size 9 to 14) (size 15 to 20)
#    0.000    0.889    0.000    6.667    0.000   10.667 
#    0.000    0.000    0.000    0.000    0.000    0.000 
#    0.000    0.000    0.000    0.000    0.000    0.000 
#
# Total GULP energy -223163.767171 kJ/mol
# GULP energy per Si atom -12397.987065 kJ/mol
# Density = 2.947432 g / cm^3
# Si number density = 29.541556 Si / 1000 Ang^3
#
#
#
# Elastic Constant Matrix: (Units=GPa)
#
#
# Indices 1 2 3 4 5 6 
#
# 1 106.5644 8.2453 11.9116 0.0000 0.0000 0.0000
# 2 8.2453 92.4240 18.1636 0.0000 0.0000 0.0000
# 3 11.9116 18.1636 111.2863 0.0000 0.0000 0.0000
# 4 0.0000 0.0000 0.0000 40.3668 0.0000 0.0000
# 5 0.0000 0.0000 0.0000 0.0000 13.3282 0.0000
# 6 0.0000 0.0000 0.0000 0.0000 0.0000 38.0586
#
#
#
# Elastic Compliance Matrix: (Units=1/GPa)
#
#
# Indices 1 2 3 4 5 6 
#
# 1 0.009538 -0.000672 -0.000911 0.000000 0.000000 0.000000
# 2 -0.000672 0.011226 -0.001760 0.000000 0.000000 0.000000
# 3 -0.000911 -0.001760 0.009371 0.000000 0.000000 0.000000
# 4 0.000000 0.000000 0.000000 0.024773 0.000000 0.000000
# 5 0.000000 0.000000 0.000000 0.000000 0.075029 0.000000
# 6 0.000000 0.000000 0.000000 0.000000 0.000000 0.026275
#
#
# Mechanical properties :
#
#
# Convention : Reuss Voigt Hill
#
# Bulk Modulus (GPa) = 42.64856 42.99061 42.81959
# Shear Modulus (GPa) = 29.28881 36.48099 32.88490
#
# Velocity S-wave (km/s) = 3.15214 3.51793 3.34005
# Velocity P-wave (km/s) = 5.26461 5.57542 5.42224
#
# Compressibility (1/GPa) = 0.02344745
#
# Stress axis : x y z
#
# Youngs Moduli (GPa) = 104.84566 89.08229 106.71594
#
# Poissons Ratio (x) = 0.05985 0.09724
# Poissons Ratio (y) = 0.07044 0.18785
# Poissons Ratio (z) = 0.09554 0.15681
#
# Static dielectric constant tensor:
#      x y z
#    x 5.629780 0.000000 0.000000 
#    y 0.000000 5.137160 0.000000 
#    z 0.000000 0.000000 5.217780 
# 
# 
# High freq. dielectric constant tensor:
#      x y z
#    x 2.231460 0.000000 0.000000 
#    y 0.000000 2.201860 0.000000 
#    z 0.000000 0.000000 2.194930 
# 
# From -- ./inp_files/2731.got.cif
#   From: 2010.03.12/outbox.cif.g09.slc.cpg/sg30_2_cif.got.tgz:2731.got - 2010.04.14 01:38:02.
