data_PCOD8169043
_publ_section_title
;
Structure prediction by ZEFSAII (Michael W. Deem and Ramdas Pophale) SiO2 
 PCOD8169043
Probable space group: P C A 21
;
_chemical_formula_sum "Si O2"
_cell_formula_units_Z 28
_cell_length_a 8.679143
_cell_length_b 5.096755
_cell_length_c 22.666984
_cell_angle_alpha 90.000000
_cell_angle_beta 90.000000
_cell_angle_gamma 90.000000
_cell_volume 1002.684588
_symmetry_space_group_name_H-M "P C A 21"
_symmetry_group_IT_number 29
_symmetry_cell_setting 'orthorhombic'
loop_
_space_group_symop_operation_xyz
x,y,z
-x,-y,1/2+z
1/2-x,y,1/2+z
1/2+x,-y,z
loop_
_atom_site_type_symbol
_atom_site_label
_atom_site_fract_x
_atom_site_fract_y
_atom_site_fract_z
Si Si1 0.622437 0.741096 0.445430
Si Si2 0.400510 0.272256 0.173885
Si Si3 0.641766 0.051390 0.018146
Si Si4 0.085203 0.771947 0.596228
Si Si5 0.609607 0.628836 0.247435
Si Si6 0.669163 0.354632 0.357976
Si Si7 0.552451 0.039149 0.834879
O O1 0.490470 0.745923 0.495525
O O2 0.687990 0.451889 0.426780
O O3 0.547903 0.803471 0.382589
O O4 0.764793 0.925240 0.463572
O O5 0.414426 0.476761 0.119817
O O6 0.521099 0.370785 0.223108
O O7 0.226477 0.261972 0.198544
O O8 0.435952 0.980921 0.149690
O O9 0.751739 0.199585 0.063394
O O10 0.556041 0.811316 0.051202
O O11 0.712490 0.552368 0.304878
O O12 0.490099 0.857634 0.268526
O O13 0.769072 0.089663 0.348648
O O14 0.490349 0.266390 0.345657
#
# Coordination Sequence:
#
# PCOD8169043 Si02
#       7
#     4   4   4   4   4   4   4
#     4  10  24  49  77 108 152 198 263 316 414 460
#     4  12  26  48  76 115 156 211 260 338 394 477
#     4  10  23  52  77 111 149 213 255 345 394 479
#     4  11  26  49  76 114 156 202 280 323 403 473
#     4  11  26  41  75 110 154 209 255 323 398 471
#     4  11  26  47  73 113 157 205 261 327 389 503
#     4  11  25  46  70 115 152 204 262 318 390 497
#
# _framework density 27.925034
#
# number of rings (size 3 to 8) (size 9 to 14) (size 15 to 20)
#    0.000    1.143    1.429    2.571    6.000    3.429 
#   25.714    2.857    0.000    0.000    0.000    0.000 
#    0.000    0.000    0.000    0.000    0.000    0.000 
#
# Total GULP energy -347062.195039 kJ/mol
# GULP energy per Si atom -12395.078394 kJ/mol
# Density = 2.786148 g / cm^3
# Si number density = 27.925034 Si / 1000 Ang^3
#
#
#
# Elastic Constant Matrix: (Units=GPa)
#
#
# Indices 1 2 3 4 5 6 
#
# 1 86.2839 -14.6685 6.9457 0.0000 0.0000 0.0000
# 2 -14.6685 37.6235 0.4285 0.0000 0.0000 0.0000
# 3 6.9457 0.4285 105.8461 0.0000 0.0000 0.0000
# 4 0.0000 0.0000 0.0000 34.9803 0.0000 0.0000
# 5 0.0000 0.0000 0.0000 0.0000 40.9867 0.0000
# 6 0.0000 0.0000 0.0000 0.0000 0.0000 25.9515
#
#
#
# Elastic Compliance Matrix: (Units=1/GPa)
#
#
# Indices 1 2 3 4 5 6 
#
# 1 0.012486 0.004878 -0.000839 0.000000 0.000000 0.000000
# 2 0.004878 0.028486 -0.000435 0.000000 0.000000 0.000000
# 3 -0.000839 -0.000435 0.009505 0.000000 0.000000 0.000000
# 4 0.000000 0.000000 0.000000 0.028588 0.000000 0.000000
# 5 0.000000 0.000000 0.000000 0.000000 0.024398 0.000000
# 6 0.000000 0.000000 0.000000 0.000000 0.000000 0.038533
#
#
# Mechanical properties :
#
#
# Convention : Reuss Voigt Hill
#
# Bulk Modulus (GPa) = 17.33610 23.90722 20.62166
# Shear Modulus (GPa) = 32.46390 36.18687 34.32538
#
# Velocity S-wave (km/s) = 3.41330 3.60371 3.50979
# Velocity P-wave (km/s) = 4.66430 5.08875 4.88114
#
# Compressibility (1/GPa) = 0.05768310
#
# Stress axis : x y z
#
# Youngs Moduli (GPa) = 80.08697 35.10522 105.21326
#
# Poissons Ratio (x) = -0.17123 0.08829
# Poissons Ratio (y) = -0.39064 0.04581
# Poissons Ratio (z) = 0.06720 0.01529
#
# Static dielectric constant tensor:
#      x y z
#    x 5.137900 0.000000 0.000000 
#    y 0.000000 5.013280 0.000000 
#    z 0.000000 0.000000 5.229920 
# 
# 
# High freq. dielectric constant tensor:
#      x y z
#    x 2.134880 0.000000 0.000000 
#    y 0.000000 2.116880 0.000000 
#    z 0.000000 0.000000 2.145990 
# 
# From -- ./inp_files/5668.got.cif
#   From: 2010.03.12/outbox.cif.g09.slc.cpg/sg29_3_cif.got.tgz:5668.got - 2010.04.14 03:43:10.
