data_PCOD8169581
_publ_section_title
;
Structure prediction by ZEFSAII (Michael W. Deem and Ramdas Pophale) SiO2 
 PCOD8169581
Probable space group: P N C 2
;
_chemical_formula_sum "Si O2"
_cell_formula_units_Z 28
_cell_length_a 5.199363
_cell_length_b 25.849135
_cell_length_c 8.706605
_cell_angle_alpha 90.000000
_cell_angle_beta 90.000000
_cell_angle_gamma 90.000000
_cell_volume 1170.159320
_symmetry_space_group_name_H-M "P N C 2"
_symmetry_group_IT_number 30
_symmetry_cell_setting 'orthorhombic'
loop_
_space_group_symop_operation_xyz
x,y,z
-x,-y,z
-x,1/2+y,1/2+z
x,1/2-y,1/2+z
loop_
_atom_site_type_symbol
_atom_site_label
_atom_site_fract_x
_atom_site_fract_y
_atom_site_fract_z
Si Si1 0.572558 0.134140 0.605320
Si Si2 0.000000 0.000000 0.935968
Si Si3 0.935569 0.608879 0.298106
Si Si4 0.523390 0.896720 0.281855
Si Si5 0.171054 0.201807 0.289783
Si Si6 0.500000 0.000000 0.127270
Si Si7 0.462329 0.253217 0.036385
Si Si8 0.193655 0.832401 0.056832
O O1 0.793324 0.115893 0.716904
O O2 0.606807 0.100278 0.450281
O O3 0.618058 0.193289 0.551831
O O4 0.300119 0.127745 0.693519
O O5 0.902540 0.951669 0.834406
O O6 0.250943 0.981882 0.030790
O O7 0.960569 0.643176 0.455223
O O8 0.769889 0.859505 0.307004
O O9 0.607030 0.954076 0.234875
O O10 0.349383 0.877950 0.139230
O O11 0.189008 0.233292 0.450235
O O12 0.404965 0.229232 0.201251
O O13 0.910008 0.205123 0.194884
O O14 0.631737 0.207325 0.954686
#
# Coordination Sequence:
#
# PCOD8169581 Si02
#       8
#     4   2   4   4   4   2   4   4
#     4  11  28  46  70 107 152 186 234 307 369 436
#     4  12  26  46  78 108 140 188 250 302 366 436
#     4  12  27  47  74 106 148 189 245 300 372 432
#     4  10  25  45  69 106 139 184 243 297 364 430
#     4  10  23  40  68  94 142 177 242 292 350 429
#     4  12  24  46  78 106 136 190 242 302 360 434
#     4  10  24  42  64 105 136 192 237 294 364 433
#     4  11  24  44  74 100 140 195 246 292 358 445
#
# _framework density 23.928363999999998
#
# number of rings (size 3 to 8) (size 9 to 14) (size 15 to 20)
#    0.000    1.143    1.429    2.571   12.000    3.429 
#    0.000    0.000    0.000    0.000    0.000    0.000 
#    0.000    0.000    0.000    0.000    0.000    0.000 
#
# Total GULP energy -346986.568456 kJ/mol
# GULP energy per Si atom -12392.377445 kJ/mol
# Density = 2.387390 g / cm^3
# Si number density = 23.928364 Si / 1000 Ang^3
#
#
#
# Elastic Constant Matrix: (Units=GPa)
#
#
# Indices 1 2 3 4 5 6 
#
# 1 88.1926 22.1779 19.3040 0.0000 0.0000 0.0000
# 2 22.1779 133.8536 43.4007 0.0000 0.0000 0.0000
# 3 19.3040 43.4007 89.0558 0.0000 0.0000 0.0000
# 4 0.0000 0.0000 0.0000 30.8465 0.0000 0.0000
# 5 0.0000 0.0000 0.0000 0.0000 41.6044 0.0000
# 6 0.0000 0.0000 0.0000 0.0000 0.0000 23.1643
#
#
#
# Elastic Compliance Matrix: (Units=1/GPa)
#
#
# Indices 1 2 3 4 5 6 
#
# 1 0.012112 -0.001372 -0.001957 0.000000 0.000000 0.000000
# 2 -0.001372 0.009028 -0.004102 0.000000 0.000000 0.000000
# 3 -0.001957 -0.004102 0.013652 0.000000 0.000000 0.000000
# 4 0.000000 0.000000 0.000000 0.032419 0.000000 0.000000
# 5 0.000000 0.000000 0.000000 0.000000 0.024036 0.000000
# 6 0.000000 0.000000 0.000000 0.000000 0.000000 0.043170
#
#
# Mechanical properties :
#
#
# Convention : Reuss Voigt Hill
#
# Bulk Modulus (GPa) = 50.17570 53.42969 51.80269
# Shear Modulus (GPa) = 32.06697 34.20434 33.13565
#
# Velocity S-wave (km/s) = 3.66474 3.78490 3.72531
# Velocity P-wave (km/s) = 6.23873 6.44035 6.34034
#
# Compressibility (1/GPa) = 0.01992997
#
# Stress axis : x y z
#
# Youngs Moduli (GPa) = 82.56123 110.76138 73.24755
#
# Poissons Ratio (x) = 0.15201 0.14332
# Poissons Ratio (y) = 0.11331 0.30049
# Poissons Ratio (z) = 0.16154 0.45439
#
# Static dielectric constant tensor:
#      x y z
#    x 4.002250 0.000000 0.000000 
#    y 0.000000 4.301420 0.000000 
#    z 0.000000 0.000000 4.521650 
# 
# 
# High freq. dielectric constant tensor:
#      x y z
#    x 1.940050 0.000000 0.000000 
#    y 0.000000 1.951330 0.000000 
#    z 0.000000 0.000000 1.954010 
# 
# From -- ./inp_files/1459.got.cif
#   From: 2010.03.12/outbox.cif.g09.slc.cpg/sg30_1_cif.got.tgz:1459.got - 2010.04.14 01:38:02.
