data_PCOD8169197
_publ_section_title
;
Structure prediction by ZEFSAII (Michael W. Deem and Ramdas Pophale) SiO2 
 PCOD8169197
Probable space group: P C A 21
;
_chemical_formula_sum "Si O2"
_cell_formula_units_Z 32
_cell_length_a 10.784940
_cell_length_b 15.298458
_cell_length_c 8.858211
_cell_angle_alpha 90.000000
_cell_angle_beta 90.000000
_cell_angle_gamma 90.000000
_cell_volume 1461.542379
_symmetry_space_group_name_H-M "P C A 21"
_symmetry_group_IT_number 29
_symmetry_cell_setting 'orthorhombic'
loop_
_space_group_symop_operation_xyz
x,y,z
-x,-y,1/2+z
1/2-x,y,1/2+z
1/2+x,-y,z
loop_
_atom_site_type_symbol
_atom_site_label
_atom_site_fract_x
_atom_site_fract_y
_atom_site_fract_z
Si Si1 0.912024 0.243425 0.588380
Si Si2 0.866130 0.774849 0.897022
Si Si3 0.632268 0.971659 0.461328
Si Si4 0.130693 0.950476 0.130742
Si Si5 0.327822 0.478656 0.247118
Si Si6 0.259514 0.599173 0.996756
Si Si7 0.684407 0.676653 0.106937
Si Si8 0.993246 0.344179 0.846285
O O1 0.841679 0.153163 0.620107
O O2 0.825603 0.327162 0.569268
O O3 0.988786 0.234078 0.434145
O O4 0.002898 0.261086 0.733252
O O5 0.824276 0.873323 0.927227
O O6 0.844915 0.754375 0.722390
O O7 0.796130 0.704414 0.999730
O O8 0.499274 0.976292 0.548180
O O9 0.746010 0.007687 0.560139
O O10 0.618032 0.024024 0.305640
O O11 0.309137 0.518922 0.413885
O O12 0.217653 0.411484 0.199570
O O13 0.457630 0.427995 0.253971
O O14 0.341157 0.557265 0.129932
O O15 0.348555 0.644286 0.876442
O O16 0.564879 0.667495 0.001986
#
# Coordination Sequence:
#
# PCOD8169197 Si02
#       8
#     4   4   4   4   4   4   4   4
#     4  11  27  49  67 103 145 188 230 298 353 430
#     4  11  23  44  72 101 144 174 239 282 357 421
#     4  11  25  47  75 112 140 194 232 308 358 448
#     4  11  26  48  78 107 152 186 247 293 378 439
#     4  12  25  44  66  98 135 182 242 286 344 414
#     4  12  28  45  66  99 135 186 236 291 355 411
#     4  12  23  43  69 104 135 188 230 294 346 415
#     4  12  27  44  69  98 138 190 230 294 349 414
#
# _framework density 21.894677999999999
#
# number of rings (size 3 to 8) (size 9 to 14) (size 15 to 20)
#    0.000    0.500    5.000    1.500    7.000    4.000 
#    2.250    0.000    0.000    0.000    0.000    0.000 
#    0.000    0.000    0.000    0.000    0.000    0.000 
#
# Total GULP energy -396748.541527 kJ/mol
# GULP energy per Si atom -12398.391923 kJ/mol
# Density = 2.184485 g / cm^3
# Si number density = 21.894678 Si / 1000 Ang^3
#
#
#
# Elastic Constant Matrix: (Units=GPa)
#
#
# Indices 1 2 3 4 5 6 
#
# 1 87.2423 35.9905 29.7640 0.0000 0.0000 0.0000
# 2 35.9905 120.5138 37.3003 0.0000 0.0000 0.0000
# 3 29.7640 37.3003 106.1448 0.0000 0.0000 0.0000
# 4 0.0000 0.0000 0.0000 38.6414 0.0000 0.0000
# 5 0.0000 0.0000 0.0000 0.0000 38.7533 0.0000
# 6 0.0000 0.0000 0.0000 0.0000 0.0000 25.0219
#
#
#
# Elastic Compliance Matrix: (Units=1/GPa)
#
#
# Indices 1 2 3 4 5 6 
#
# 1 0.013731 -0.003264 -0.002703 0.000000 0.000000 0.000000
# 2 -0.003264 0.010086 -0.002629 0.000000 0.000000 0.000000
# 3 -0.002703 -0.002629 0.011103 0.000000 0.000000 0.000000
# 4 0.000000 0.000000 0.000000 0.025879 0.000000 0.000000
# 5 0.000000 0.000000 0.000000 0.000000 0.025804 0.000000
# 6 0.000000 0.000000 0.000000 0.000000 0.000000 0.039965
#
#
# Mechanical properties :
#
#
# Convention : Reuss Voigt Hill
#
# Bulk Modulus (GPa) = 56.40955 57.77895 57.09425
# Shear Modulus (GPa) = 33.40664 34.53974 33.97319
#
# Velocity S-wave (km/s) = 3.91037 3.97614 3.94339
# Velocity P-wave (km/s) = 6.79765 6.89393 6.84596
#
# Compressibility (1/GPa) = 0.01772750
#
# Stress axis : x y z
#
# Youngs Moduli (GPa) = 72.82724 99.14419 90.06533
#
# Poissons Ratio (x) = 0.32360 0.24348
# Poissons Ratio (y) = 0.23771 0.23680
# Poissons Ratio (z) = 0.19688 0.26067
#
# Static dielectric constant tensor:
#      x y z
#    x 3.846850 0.000000 0.000000 
#    y 0.000000 4.071170 0.000000 
#    z 0.000000 0.000000 4.316810 
# 
# 
# High freq. dielectric constant tensor:
#      x y z
#    x 1.853770 0.000000 0.000000 
#    y 0.000000 1.866910 0.000000 
#    z 0.000000 0.000000 1.881920 
# 
# From -- ./inp_files/1585.got.cif
#   From: 2010.03.12/outbox.cif.g09.slc.cpg/sg29_1_cif.got.tgz:1585.got - 2010.04.14 03:43:10.
