data_PCOD8169477
_publ_section_title
;
Structure prediction by ZEFSAII (Michael W. Deem and Ramdas Pophale) SiO2 
 PCOD8169477
Probable space group: P N C 2
;
_chemical_formula_sum "Si O2"
_cell_formula_units_Z 28
_cell_length_a 5.954205
_cell_length_b 17.302969
_cell_length_c 13.955405
_cell_angle_alpha 90.000000
_cell_angle_beta 90.000000
_cell_angle_gamma 90.000000
_cell_volume 1437.761525
_symmetry_space_group_name_H-M "P N C 2"
_symmetry_group_IT_number 30
_symmetry_cell_setting 'orthorhombic'
loop_
_space_group_symop_operation_xyz
x,y,z
-x,-y,z
-x,1/2+y,1/2+z
x,1/2-y,1/2+z
loop_
_atom_site_type_symbol
_atom_site_label
_atom_site_fract_x
_atom_site_fract_y
_atom_site_fract_z
Si Si1 0.831408 0.723643 0.015430
Si Si2 0.548874 0.235601 0.882355
Si Si3 0.209194 0.652131 0.538873
Si Si4 0.798908 0.905141 0.264996
Si Si5 0.150437 0.617194 0.921836
Si Si6 0.456475 0.269980 0.680379
Si Si7 0.500000 0.000000 0.398162
Si Si8 0.000000 0.500000 0.606053
O O1 0.650220 0.712762 0.100942
O O2 0.992347 0.793836 0.042176
O O3 0.704407 0.745852 0.916963
O O4 0.961137 0.641854 0.000038
O O5 0.700741 0.308186 0.907578
O O6 0.558630 0.219022 0.767963
O O7 0.648303 0.162535 0.940853
O O8 0.358302 0.674604 0.631639
O O9 0.131137 0.563034 0.541842
O O10 0.739726 0.819966 0.229188
O O11 0.036202 0.906774 0.321304
O O12 0.815090 0.958843 0.172070
O O13 0.598210 0.931987 0.333161
O O14 0.301477 0.543610 0.958215
#
# Coordination Sequence:
#
# PCOD8169477 Si02
#       8
#     4   4   4   4   4   4   2   2
#     4  10  21  36  53  81 119 151 198 244 294 354
#     4  10  21  37  55  80 124 152 200 245 293 356
#     4  10  23  35  55  87 125 154 194 247 304 365
#     4  12  21  32  56  85 122 161 183 233 308 372
#     4  11  20  34  51  80 121 149 195 240 297 371
#     4  11  20  36  57  82 119 162 197 245 296 363
#     4  12  20  30  50  82 118 156 194 224 308 376
#     4  12  20  36  52  86 128 154 190 236 312 376
#
# _framework density 19.474717999999999
#
# number of rings (size 3 to 8) (size 9 to 14) (size 15 to 20)
#    0.000    1.143    5.714    1.714    0.000    0.000 
#    0.000    0.000    0.000    0.000    0.000    0.000 
#  192.857    0.000    0.000    0.000    0.000    0.000 
#
# Total GULP energy -347086.352666 kJ/mol
# GULP energy per Si atom -12395.941167 kJ/mol
# Density = 1.943039 g / cm^3
# Si number density = 19.474718 Si / 1000 Ang^3
#
#
#
# Elastic Constant Matrix: (Units=GPa)
#
#
# Indices 1 2 3 4 5 6 
#
# 1 92.6112 41.0377 38.4206 0.0000 0.0000 0.0000
# 2 41.0377 94.0159 52.6744 0.0000 0.0000 0.0000
# 3 38.4206 52.6744 115.7793 0.0000 0.0000 0.0000
# 4 0.0000 0.0000 0.0000 30.1693 0.0000 0.0000
# 5 0.0000 0.0000 0.0000 0.0000 17.3420 0.0000
# 6 0.0000 0.0000 0.0000 0.0000 0.0000 41.3414
#
#
#
# Elastic Compliance Matrix: (Units=1/GPa)
#
#
# Indices 1 2 3 4 5 6 
#
# 1 0.013901 -0.004675 -0.002486 0.000000 0.000000 0.000000
# 2 -0.004675 0.015847 -0.005659 0.000000 0.000000 0.000000
# 3 -0.002486 -0.005659 0.012036 0.000000 0.000000 0.000000
# 4 0.000000 0.000000 0.000000 0.033146 0.000000 0.000000
# 5 0.000000 0.000000 0.000000 0.000000 0.057663 0.000000
# 6 0.000000 0.000000 0.000000 0.000000 0.000000 0.024189
#
#
# Mechanical properties :
#
#
# Convention : Reuss Voigt Hill
#
# Bulk Modulus (GPa) = 61.93555 62.96351 62.44953
# Shear Modulus (GPa) = 26.62356 29.12212 27.87284
#
# Velocity S-wave (km/s) = 3.70142 3.87121 3.78727
# Velocity P-wave (km/s) = 7.08092 7.23760 7.15969
#
# Compressibility (1/GPa) = 0.01614582
#
# Stress axis : x y z
#
# Youngs Moduli (GPa) = 71.93903 63.10210 83.08077
#
# Poissons Ratio (x) = 0.29499 0.20654
# Poissons Ratio (y) = 0.33630 0.47012
# Poissons Ratio (z) = 0.17884 0.35707
#
# Static dielectric constant tensor:
#      x y z
#    x 3.921330 0.000000 0.000000 
#    y 0.000000 3.496050 0.000000 
#    z 0.000000 0.000000 3.655800 
# 
# 
# High freq. dielectric constant tensor:
#      x y z
#    x 1.781890 0.000000 0.000000 
#    y 0.000000 1.729660 0.000000 
#    z 0.000000 0.000000 1.734390 
# 
# From -- ./inp_files/4748.got.cif
#   From: 2010.03.12/outbox.cif.g09.slc.cpg/sg30_3_cif.got.tgz:4748.got - 2010.04.14 01:38:02.
