data_PCOD8169965
_publ_section_title
;
Structure prediction by ZEFSAII (Michael W. Deem and Ramdas Pophale) SiO2 
 PCOD8169965
Probable space group: P M N 21
;
_chemical_formula_sum "Si O2"
_cell_formula_units_Z 32
_cell_length_a 8.487133
_cell_length_b 14.647058
_cell_length_c 12.512928
_cell_angle_alpha 90.000000
_cell_angle_beta 90.000000
_cell_angle_gamma 90.000000
_cell_volume 1555.501216
_symmetry_space_group_name_H-M "P M N 21"
_symmetry_group_IT_number 31
_symmetry_cell_setting 'orthorhombic'
loop_
_space_group_symop_operation_xyz
x,y,z
1/2-x,-y,1/2+z
-x,y,z
1/2+x,-y,1/2+z
loop_
_atom_site_type_symbol
_atom_site_label
_atom_site_fract_x
_atom_site_fract_y
_atom_site_fract_z
Si Si1 0.818788 0.942695 0.925930
Si Si2 0.317218 0.682626 0.808598
Si Si3 0.315948 0.246928 0.512248
Si Si4 0.177604 0.855288 0.707679
Si Si5 0.314880 0.328298 0.935601
Si Si6 0.684113 0.373169 0.700276
Si Si7 0.319237 0.864957 0.490840
Si Si8 0.184978 0.557794 0.640606
O O1 0.796186 0.928839 0.800101
O O2 0.000000 0.951338 0.959738
O O3 0.747695 0.856303 0.992856
O O4 0.739352 0.040831 0.948702
O O5 0.500000 0.706766 0.794098
O O6 0.203091 0.755209 0.753565
O O7 0.276814 0.588833 0.748077
O O8 0.273464 0.681322 0.934123
O O9 0.500000 0.247768 0.481388
O O10 0.287763 0.278938 0.634086
O O11 0.306781 0.873099 0.618081
O O12 0.000000 0.860186 0.661235
O O13 0.500000 0.339187 0.932195
O O14 0.247686 0.361773 0.820693
O O15 0.274536 0.222260 0.948896
O O16 0.248982 0.389578 0.034344
O O17 0.500000 0.397941 0.701755
O O18 0.777602 0.450631 0.634644
O O19 0.500000 0.854024 0.455680
O O20 0.000000 0.575207 0.651927
#
# Coordination Sequence:
#
# PCOD8169965 Si02
#       8
#     4   4   4   4   4   4   4   4
#     4   8  18  35  56  83 117 158 199 239 293 355
#     4  11  21  35  59  87 114 146 196 252 293 347
#     4   9  19  39  62  85 121 162 197 240 300 358
#     4  10  19  36  57  80 114 155 197 245 302 356
#     4  10  23  42  61  86 123 162 198 245 303 363
#     4  10  23  41  62  89 120 159 205 247 295 358
#     4  11  21  35  59  90 120 155 201 252 298 353
#     4  11  23  39  60  86 119 157 195 242 306 362
#
# _framework density 20.572146
#
# number of rings (size 3 to 8) (size 9 to 14) (size 15 to 20)
#    0.000    2.000    1.250    3.000    1.750    2.500 
#    0.000    7.500    0.000    0.000    0.000    0.000 
#    0.000    0.000    0.000    0.000    0.000    0.000 
#
# Total GULP energy -396672.427663 kJ/mol
# GULP energy per Si atom -12396.013364 kJ/mol
# Density = 2.052532 g / cm^3
# Si number density = 20.572146 Si / 1000 Ang^3
#
#
#
# Elastic Constant Matrix: (Units=GPa)
#
#
# Indices 1 2 3 4 5 6 
#
# 1 35.1165 13.1555 23.2833 0.0000 0.0000 0.0000
# 2 13.1555 124.3083 57.9756 0.0000 0.0000 0.0000
# 3 23.2833 57.9756 115.6051 0.0000 0.0000 0.0000
# 4 0.0000 0.0000 0.0000 24.3184 0.0000 0.0000
# 5 0.0000 0.0000 0.0000 0.0000 20.8778 0.0000
# 6 0.0000 0.0000 0.0000 0.0000 0.0000 23.3744
#
#
#
# Elastic Compliance Matrix: (Units=1/GPa)
#
#
# Indices 1 2 3 4 5 6 
#
# 1 0.032890 -0.000511 -0.006368 0.000000 0.000000 0.000000
# 2 -0.000511 0.010508 -0.005167 0.000000 0.000000 0.000000
# 3 -0.006368 -0.005167 0.012524 0.000000 0.000000 0.000000
# 4 0.000000 0.000000 0.000000 0.041121 0.000000 0.000000
# 5 0.000000 0.000000 0.000000 0.000000 0.047898 0.000000
# 6 0.000000 0.000000 0.000000 0.000000 0.000000 0.042782
#
#
# Mechanical properties :
#
#
# Convention : Reuss Voigt Hill
#
# Bulk Modulus (GPa) = 31.41617 51.53987 41.47802
# Shear Modulus (GPa) = 22.47945 25.75515 24.11730
#
# Velocity S-wave (km/s) = 3.30921 3.54212 3.42764
# Velocity P-wave (km/s) = 5.46859 6.46811 5.98924
#
# Compressibility (1/GPa) = 0.03183075
#
# Stress axis : x y z
#
# Youngs Moduli (GPa) = 30.40419 95.16179 79.84696
#
# Poissons Ratio (x) = 0.04861 0.50847
# Poissons Ratio (y) = 0.01553 0.41257
# Poissons Ratio (z) = 0.19362 0.49171
#
# Static dielectric constant tensor:
#      x y z
#    x 3.411120 0.000000 0.000000 
#    y 0.000000 3.780840 0.000000 
#    z 0.000000 0.000000 4.014710 
# 
# 
# High freq. dielectric constant tensor:
#      x y z
#    x 1.782110 0.000000 0.000000 
#    y 0.000000 1.804380 0.000000 
#    z 0.000000 0.000000 1.805000 
# 
# From -- ./inp_files/3603.got.cif
#   From: 2010.03.12/outbox.cif.g09.slc.cpg/sg31_2_cif.got.tgz:3603.got - 2010.04.14 01:42:59.
