data_PCOD8169440
_publ_section_title
;
Structure prediction by ZEFSAII (Michael W. Deem and Ramdas Pophale) SiO2 
 PCOD8169440
Probable space group: P N C 2
;
_chemical_formula_sum "Si O2"
_cell_formula_units_Z 30
_cell_length_a 11.851222
_cell_length_b 5.289561
_cell_length_c 24.202911
_cell_angle_alpha 90.000000
_cell_angle_beta 90.000000
_cell_angle_gamma 90.000000
_cell_volume 1517.226317
_symmetry_space_group_name_H-M "P N C 2"
_symmetry_group_IT_number 30
_symmetry_cell_setting 'orthorhombic'
loop_
_space_group_symop_operation_xyz
x,y,z
-x,-y,z
-x,1/2+y,1/2+z
x,1/2-y,1/2+z
loop_
_atom_site_type_symbol
_atom_site_label
_atom_site_fract_x
_atom_site_fract_y
_atom_site_fract_z
Si Si1 0.500000 0.000000 0.738641
Si Si2 0.307672 0.706471 0.698172
Si Si3 0.366078 0.998134 0.086267
Si Si4 0.877718 0.392674 0.385970
Si Si5 0.320784 0.157270 0.292302
Si Si6 0.755319 0.597675 0.910283
Si Si7 0.367141 0.495776 0.023207
Si Si8 0.129750 0.978082 0.761913
O O1 0.585979 0.107741 0.692088
O O2 0.424898 0.157191 0.781793
O O3 0.302042 0.525349 0.645115
O O4 0.346523 0.580230 0.754943
O O5 0.187028 0.835106 0.710103
O O6 0.500000 0.000000 0.094550
O O7 0.325383 0.761993 0.048570
O O8 0.324070 0.262200 0.060723
O O9 0.796676 0.611975 0.409500
O O10 0.863800 0.334079 0.320642
O O11 0.000000 0.500000 0.400390
O O12 0.853409 0.118481 0.413105
O O13 0.320056 0.064102 0.355426
O O14 0.197251 0.261311 0.272844
O O15 0.677722 0.548202 0.962286
O O16 0.500000 0.500000 0.018915
O O17 0.000000 0.000000 0.743916
#
# Coordination Sequence:
#
# PCOD8169440 Si02
#       8
#     2   4   4   4   4   4   4   4
#     4  10  22  34  52  86 124 154 190 244 314 370
#     4  11  21  36  59  86 116 156 201 249 306 356
#     4  10  22  38  60  82 115 156 209 245 289 356
#     4  10  20  37  62  91 120 155 197 248 296 361
#     4  10  21  35  56  89 119 159 191 244 315 363
#     4  11  21  39  60  88 123 153 203 240 304 366
#     4  10  23  40  58  86 116 162 198 245 293 351
#     4   9  20  36  56  88 124 155 199 244 303 368
#
# _framework density 19.772922000000001
#
# number of rings (size 3 to 8) (size 9 to 14) (size 15 to 20)
#    0.000    1.867    1.333    2.400    6.533    1.600 
#    3.600    0.000    0.000    3.200    0.000    0.000 
#    0.000    0.000    0.000    0.000    0.000    0.000 
#
# Total GULP energy -371735.431497 kJ/mol
# GULP energy per Si atom -12391.181050 kJ/mol
# Density = 1.972792 g / cm^3
# Si number density = 19.772922 Si / 1000 Ang^3
#
#
#
# Elastic Constant Matrix: (Units=GPa)
#
#
# Indices 1 2 3 4 5 6 
#
# 1 91.4282 30.5394 34.1745 0.0000 0.0000 0.0000
# 2 30.5394 95.6714 38.4824 0.0000 0.0000 0.0000
# 3 34.1745 38.4824 125.1606 0.0000 0.0000 0.0000
# 4 0.0000 0.0000 0.0000 28.0098 0.0000 0.0000
# 5 0.0000 0.0000 0.0000 0.0000 100.4174 0.0000
# 6 0.0000 0.0000 0.0000 0.0000 0.0000 14.6197
#
#
#
# Elastic Compliance Matrix: (Units=1/GPa)
#
#
# Indices 1 2 3 4 5 6 
#
# 1 0.012935 -0.003091 -0.002582 0.000000 0.000000 0.000000
# 2 -0.003091 0.012666 -0.003050 0.000000 0.000000 0.000000
# 3 -0.002582 -0.003050 0.009633 0.000000 0.000000 0.000000
# 4 0.000000 0.000000 0.000000 0.035702 0.000000 0.000000
# 5 0.000000 0.000000 0.000000 0.000000 0.009958 0.000000
# 6 0.000000 0.000000 0.000000 0.000000 0.000000 0.068401
#
#
# Mechanical properties :
#
#
# Convention : Reuss Voigt Hill
#
# Bulk Modulus (GPa) = 56.21716 57.62811 56.92264
# Shear Modulus (GPa) = 28.95714 42.54698 35.75206
#
# Velocity S-wave (km/s) = 3.83101 4.64376 4.25683
# Velocity P-wave (km/s) = 6.93267 7.61321 7.28090
#
# Compressibility (1/GPa) = 0.01778816
#
# Stress axis : x y z
#
# Youngs Moduli (GPa) = 77.31073 78.95159 103.81485
#
# Poissons Ratio (x) = 0.24400 0.26800
# Poissons Ratio (y) = 0.23893 0.31669
# Poissons Ratio (z) = 0.19958 0.24084
#
# Static dielectric constant tensor:
#      x y z
#    x 0.988080 0.000000 0.000000 
#    y 0.000000 3.897160 0.000000 
#    z 0.000000 0.000000 3.488350 
# 
# 
# High freq. dielectric constant tensor:
#      x y z
#    x 1.752610 0.000000 0.000000 
#    y 0.000000 1.783580 0.000000 
#    z 0.000000 0.000000 1.756470 
# 
# From -- ./inp_files/7075.got.cif
#   From: 2010.03.12/outbox.cif.g09.slc.cpg/sg30_4_cif.got.tgz:7075.got - 2010.04.14 01:38:02.
