data_PCOD8169810
_publ_section_title
;
Structure prediction by ZEFSAII (Michael W. Deem and Ramdas Pophale) SiO2 
 PCOD8169810
Probable space group: P M N 21
;
_chemical_formula_sum "Si O2"
_cell_formula_units_Z 32
_cell_length_a 8.952795
_cell_length_b 10.478017
_cell_length_c 18.887680
_cell_angle_alpha 90.000000
_cell_angle_beta 90.000000
_cell_angle_gamma 90.000000
_cell_volume 1771.806763
_symmetry_space_group_name_H-M "P M N 21"
_symmetry_group_IT_number 31
_symmetry_cell_setting 'orthorhombic'
loop_
_space_group_symop_operation_xyz
x,y,z
1/2-x,-y,1/2+z
-x,y,z
1/2+x,-y,1/2+z
loop_
_atom_site_type_symbol
_atom_site_label
_atom_site_fract_x
_atom_site_fract_y
_atom_site_fract_z
Si Si1 0.676656 0.735046 0.488130
Si Si2 0.678187 0.500374 0.230673
Si Si3 0.174954 0.269089 0.477195
Si Si4 0.670105 0.997641 0.339515
Si Si5 0.827936 0.276695 0.826581
Si Si6 0.322831 0.494365 0.071081
Si Si7 0.327404 0.011538 0.983100
Si Si8 0.828261 0.725114 0.826751
O O1 0.500000 0.727478 0.494127
O O2 0.734326 0.717032 0.407051
O O3 0.749187 0.627405 0.535568
O O4 0.730165 0.874129 0.517126
O O5 0.500000 0.505704 0.228090
O O6 0.747771 0.620496 0.274336
O O7 0.739343 0.504020 0.150959
O O8 0.737901 0.371704 0.268671
O O9 0.228974 0.377265 0.531425
O O10 0.252551 0.293002 0.402328
O O11 0.000000 0.277361 0.462496
O O12 0.213851 0.130478 0.512274
O O13 0.500000 0.992779 0.371516
O O14 0.694858 0.867245 0.294528
O O15 0.793515 0.997570 0.400050
O O16 0.690872 0.129690 0.296164
O O17 0.000000 0.313899 0.830568
O O18 0.500000 0.477406 0.068626
O O19 0.500000 0.044151 0.995894
O O20 0.000000 0.691168 0.839285
#
# Coordination Sequence:
#
# PCOD8169810 Si02
#       8
#     4   4   4   4   4   4   4   4
#     4  10  19  32  51  73  95 122 159 200 240 282
#     4   9  17  29  45  66  92 121 154 193 234 276
#     4   9  18  31  48  72  99 127 158 193 238 287
#     4   8  14  25  43  69  95 116 147 192 236 277
#     4   8  14  26  45  67  88 112 146 188 230 271
#     4  10  20  33  47  67  98 130 159 194 236 283
#     4   9  16  28  47  71  97 123 154 193 237 283
#     4   9  16  28  48  71  92 119 157 197 235 277
#
# _framework density 18.060659000000001
#
# number of rings (size 3 to 8) (size 9 to 14) (size 15 to 20)
#    0.000    3.000    0.000    2.250    0.000    2.000 
#    0.000    1.875    0.000    9.750    0.000    0.000 
#    0.000    0.000    0.000    0.000    0.000    0.000 
#
# Total GULP energy -396450.566310 kJ/mol
# GULP energy per Si atom -12389.080197 kJ/mol
# Density = 1.801955 g / cm^3
# Si number density = 18.060659 Si / 1000 Ang^3
#
#
#
# Elastic Constant Matrix: (Units=GPa)
#
#
# Indices 1 2 3 4 5 6 
#
# 1 22.7812 27.0697 19.2072 0.0000 0.0000 0.0000
# 2 27.0697 190.0601 81.7921 0.0000 0.0000 0.0000
# 3 19.2072 81.7921 99.8012 0.0000 0.0000 0.0000
# 4 0.0000 0.0000 0.0000 5.9291 0.0000 0.0000
# 5 0.0000 0.0000 0.0000 0.0000 15.9374 0.0000
# 6 0.0000 0.0000 0.0000 0.0000 0.0000 21.5330
#
#
#
# Elastic Compliance Matrix: (Units=1/GPa)
#
#
# Indices 1 2 3 4 5 6 
#
# 1 0.055428 -0.005104 -0.006484 0.000000 0.000000 0.000000
# 2 -0.005104 0.008598 -0.006064 0.000000 0.000000 0.000000
# 3 -0.006484 -0.006064 0.016238 0.000000 0.000000 0.000000
# 4 0.000000 0.000000 0.000000 0.168659 0.000000 0.000000
# 5 0.000000 0.000000 0.000000 0.000000 0.062745 0.000000
# 6 0.000000 0.000000 0.000000 0.000000 0.000000 0.046440
#
#
# Mechanical properties :
#
#
# Convention : Reuss Voigt Hill
#
# Bulk Modulus (GPa) = 22.24279 63.19783 42.72031
# Shear Modulus (GPa) = 12.24289 20.98481 16.61385
#
# Velocity S-wave (km/s) = 2.60643 3.41237 3.03626
# Velocity P-wave (km/s) = 4.62605 7.11292 5.99975
#
# Compressibility (1/GPa) = 0.04495839
#
# Stress axis : x y z
#
# Youngs Moduli (GPa) = 18.04158 116.30285 61.58394
#
# Poissons Ratio (x) = 0.59359 0.39934
# Poissons Ratio (y) = 0.09208 0.37347
# Poissons Ratio (z) = 0.11699 0.70531
#
# Static dielectric constant tensor:
#      x y z
#    x 3.079090 0.000000 0.000000 
#    y 0.000000 3.927370 0.000000 
#    z 0.000000 0.000000 3.129810 
# 
# 
# High freq. dielectric constant tensor:
#      x y z
#    x 1.671240 0.000000 0.000000 
#    y 0.000000 1.730010 0.000000 
#    z 0.000000 0.000000 1.653860 
# 
# From -- ./inp_files/5891.got.cif
#   From: 2010.03.12/outbox.cif.g09.slc.cpg/sg31_3_cif.got.tgz:5891.got - 2010.04.14 01:42:59.
