data_PCOD8169978
_publ_section_title
;
Structure prediction by ZEFSAII (Michael W. Deem and Ramdas Pophale) SiO2 
 PCOD8169978
Probable space group: P M N 21
;
_chemical_formula_sum "Si O2"
_cell_formula_units_Z 32
_cell_length_a 8.591770
_cell_length_b 16.168476
_cell_length_c 11.126790
_cell_angle_alpha 90.000000
_cell_angle_beta 90.000000
_cell_angle_gamma 90.000000
_cell_volume 1545.687235
_symmetry_space_group_name_H-M "P M N 21"
_symmetry_group_IT_number 31
_symmetry_cell_setting 'orthorhombic'
loop_
_space_group_symop_operation_xyz
x,y,z
1/2-x,-y,1/2+z
-x,y,z
1/2+x,-y,1/2+z
loop_
_atom_site_type_symbol
_atom_site_label
_atom_site_fract_x
_atom_site_fract_y
_atom_site_fract_z
Si Si1 0.178994 0.206085 0.061540
Si Si2 0.820627 0.660463 0.397069
Si Si3 0.683644 0.659491 0.736394
Si Si4 0.819176 0.962653 0.493451
Si Si5 0.684473 0.942608 0.233030
Si Si6 0.677966 0.754626 0.200461
Si Si7 0.816636 0.470265 0.043032
Si Si8 0.678547 0.637894 0.997578
O O1 0.223316 0.247692 0.189316
O O2 0.293195 0.131996 0.029577
O O3 0.000000 0.175390 0.056053
O O4 0.203727 0.278568 0.966448
O O5 0.790479 0.686247 0.260286
O O6 0.766404 0.566118 0.422447
O O7 0.000000 0.672851 0.432586
O O8 0.500000 0.650188 0.742895
O O9 0.749436 0.586737 0.651447
O O10 0.757790 0.649534 0.867483
O O11 0.745204 0.981505 0.360538
O O12 0.000000 0.981902 0.478576
O O13 0.752067 0.014211 0.609270
O O14 0.500000 0.950756 0.235603
O O15 0.739491 0.847345 0.223276
O O16 0.500000 0.747586 0.245763
O O17 0.690564 0.727342 0.061554
O O18 0.000000 0.462628 0.029610
O O19 0.769131 0.564680 0.066007
O O20 0.500000 0.609773 0.988084
#
# Coordination Sequence:
#
# PCOD8169978 Si02
#       8
#     4   4   4   4   4   4   4   4
#     4  10  19  36  62  87 114 152 193 241 305 360
#     4  11  21  35  59  86 113 148 196 245 288 348
#     4   8  18  36  56  79 111 150 194 239 292 363
#     4  11  23  39  63  97 127 163 213 261 314 381
#     4  10  23  42  63  90 129 170 212 262 319 383
#     4  10  21  38  60  85 118 159 199 244 304 364
#     4  10  21  37  56  82 115 154 195 240 301 361
#     4  10  21  37  57  84 115 152 200 250 299 358
#
# _framework density 20.702767000000001
#
# number of rings (size 3 to 8) (size 9 to 14) (size 15 to 20)
#    0.000    2.000    1.250    3.000    1.750    2.500 
#    0.000    5.625    0.000    0.000    0.000    0.000 
#    0.000    0.000    0.000    0.000    0.000    0.000 
#
# Total GULP energy -396524.276684 kJ/mol
# GULP energy per Si atom -12391.383646 kJ/mol
# Density = 2.065565 g / cm^3
# Si number density = 20.702767 Si / 1000 Ang^3
#
#
#
# Elastic Constant Matrix: (Units=GPa)
#
#
# Indices 1 2 3 4 5 6 
#
# 1 54.1129 16.0666 28.6675 0.0000 0.0000 0.0000
# 2 16.0666 75.9633 47.7500 0.0000 0.0000 0.0000
# 3 28.6675 47.7500 138.8560 0.0000 0.0000 0.0000
# 4 0.0000 0.0000 0.0000 30.1272 0.0000 0.0000
# 5 0.0000 0.0000 0.0000 0.0000 23.7260 0.0000
# 6 0.0000 0.0000 0.0000 0.0000 0.0000 24.8962
#
#
#
# Elastic Compliance Matrix: (Units=1/GPa)
#
#
# Indices 1 2 3 4 5 6 
#
# 1 0.021032 -0.002193 -0.003588 0.000000 0.000000 0.000000
# 2 -0.002193 0.017023 -0.005401 0.000000 0.000000 0.000000
# 3 -0.003588 -0.005401 0.009800 0.000000 0.000000 0.000000
# 4 0.000000 0.000000 0.000000 0.033193 0.000000 0.000000
# 5 0.000000 0.000000 0.000000 0.000000 0.042148 0.000000
# 6 0.000000 0.000000 0.000000 0.000000 0.000000 0.040167
#
#
# Mechanical properties :
#
#
# Convention : Reuss Voigt Hill
#
# Bulk Modulus (GPa) = 39.23024 50.43337 44.83181
# Shear Modulus (GPa) = 25.74357 27.51309 26.62833
#
# Velocity S-wave (km/s) = 3.53013 3.64944 3.59028
# Velocity P-wave (km/s) = 5.96709 6.49396 6.23609
#
# Compressibility (1/GPa) = 0.02549054
#
# Stress axis : x y z
#
# Youngs Moduli (GPa) = 47.54707 58.74323 102.04235
#
# Poissons Ratio (x) = 0.12882 0.36613
# Poissons Ratio (y) = 0.10427 0.55115
# Poissons Ratio (z) = 0.17060 0.31729
#
# Static dielectric constant tensor:
#      x y z
#    x 3.429190 0.000000 0.000000 
#    y 0.000000 3.712630 0.000000 
#    z 0.000000 0.000000 4.175690 
# 
# 
# High freq. dielectric constant tensor:
#      x y z
#    x 1.788350 0.000000 0.000000 
#    y 0.000000 1.800810 0.000000 
#    z 0.000000 0.000000 1.816570 
# 
# From -- ./inp_files/3728.got.cif
#   From: 2010.03.12/outbox.cif.g09.slc.cpg/sg31_2_cif.got.tgz:3728.got - 2010.04.14 01:42:59.
