data_PCOD8169715
_publ_section_title
;
Structure prediction by ZEFSAII (Michael W. Deem and Ramdas Pophale) SiO2 
 PCOD8169715
Probable space group: P M N 21
;
_chemical_formula_sum "Si O2"
_cell_formula_units_Z 24
_cell_length_a 8.482203
_cell_length_b 9.165930
_cell_length_c 16.498024
_cell_angle_alpha 90.000000
_cell_angle_beta 90.000000
_cell_angle_gamma 90.000000
_cell_volume 1282.676474
_symmetry_space_group_name_H-M "P M N 21"
_symmetry_group_IT_number 31
_symmetry_cell_setting 'orthorhombic'
loop_
_space_group_symop_operation_xyz
x,y,z
1/2-x,-y,1/2+z
-x,y,z
1/2+x,-y,1/2+z
loop_
_atom_site_type_symbol
_atom_site_label
_atom_site_fract_x
_atom_site_fract_y
_atom_site_fract_z
Si Si1 0.183852 0.576946 0.986810
Si Si2 0.319235 0.401055 0.842406
Si Si3 0.184818 0.326221 0.247175
Si Si4 0.684663 0.333709 0.077536
Si Si5 0.683604 0.835468 0.909088
Si Si6 0.182307 0.149571 0.930109
O O1 0.294390 0.502642 0.919993
O O2 0.223651 0.749228 0.981423
O O3 0.000000 0.548317 0.970843
O O4 0.237554 0.496501 0.069741
O O5 0.500000 0.350607 0.838512
O O6 0.275320 0.502605 0.765553
O O7 0.213027 0.256203 0.852735
O O8 0.280383 0.276866 0.167943
O O9 0.240827 0.223113 0.321215
O O10 0.000000 0.305853 0.231453
O O11 0.500000 0.337592 0.061134
O O12 0.764733 0.225082 0.013374
O O13 0.500000 0.806017 0.920662
O O14 0.718022 0.004906 0.916733
O O15 0.000000 0.109172 0.934499
#
# Coordination Sequence:
#
# PCOD8169715 Si02
#       6
#     4   4   4   4   4   4
#     4  10  18  31  52  76 102 132 171 212 252 303
#     4   9  17  32  53  75 101 134 171 209 253 305
#     4   9  19  35  55  78 104 135 173 219 267 312
#     4  11  21  34  54  78 106 139 177 219 262 309
#     4  10  20  36  56  78 107 140 175 214 262 318
#     4  11  21  34  54  79 108 140 177 217 260 313
#
# _framework density 18.710875999999999
#
# number of rings (size 3 to 8) (size 9 to 14) (size 15 to 20)
#    0.000    2.000    0.000    8.500    0.000    4.000 
#    0.000    1.667    0.000    6.000    0.000    0.000 
#    0.000    0.000    0.000    0.000    0.000    0.000 
#
# Total GULP energy -297484.040475 kJ/mol
# GULP energy per Si atom -12395.168353 kJ/mol
# Density = 1.866829 g / cm^3
# Si number density = 18.710876 Si / 1000 Ang^3
#
#
#
# Elastic Constant Matrix: (Units=GPa)
#
#
# Indices 1 2 3 4 5 6 
#
# 1 78.1732 11.0636 24.3090 0.0000 0.0000 0.0000
# 2 11.0636 93.4907 28.0477 0.0000 0.0000 0.0000
# 3 24.3090 28.0477 74.3946 0.0000 0.0000 0.0000
# 4 0.0000 0.0000 0.0000 18.7655 0.0000 0.0000
# 5 0.0000 0.0000 0.0000 0.0000 26.3336 0.0000
# 6 0.0000 0.0000 0.0000 0.0000 0.0000 30.1448
#
#
#
# Elastic Compliance Matrix: (Units=1/GPa)
#
#
# Indices 1 2 3 4 5 6 
#
# 1 0.014248 -0.000326 -0.004533 0.000000 0.000000 0.000000
# 2 -0.000326 0.012068 -0.004443 0.000000 0.000000 0.000000
# 3 -0.004533 -0.004443 0.016598 0.000000 0.000000 0.000000
# 4 0.000000 0.000000 0.000000 0.053289 0.000000 0.000000
# 5 0.000000 0.000000 0.000000 0.000000 0.037974 0.000000
# 6 0.000000 0.000000 0.000000 0.000000 0.000000 0.033173
#
#
# Mechanical properties :
#
#
# Convention : Reuss Voigt Hill
#
# Bulk Modulus (GPa) = 41.13587 41.43324 41.28456
# Shear Modulus (GPa) = 25.76556 27.22466 26.49511
#
# Velocity S-wave (km/s) = 3.71487 3.81861 3.76710
# Velocity P-wave (km/s) = 6.35870 6.45247 6.40576
#
# Compressibility (1/GPa) = 0.02430968
#
# Stress axis : x y z
#
# Youngs Moduli (GPa) = 70.18658 82.86495 60.24825
#
# Poissons Ratio (x) = 0.02704 0.27308
# Poissons Ratio (y) = 0.02290 0.26769
# Poissons Ratio (z) = 0.31812 0.36818
#
# Static dielectric constant tensor:
#      x y z
#    x 3.363230 0.000000 0.000000 
#    y 0.000000 3.598250 0.000000 
#    z 0.000000 0.000000 3.406330 
# 
# 
# High freq. dielectric constant tensor:
#      x y z
#    x 1.737750 0.000000 0.000000 
#    y 0.000000 1.720080 0.000000 
#    z 0.000000 0.000000 1.699430 
# 
# From -- ./inp_files/5698.got.cif
#   From: 2010.03.12/outbox.cif.g09.slc.cpg/sg31_3_cif.got.tgz:5698.got - 2010.04.14 01:42:59.
