data_PCOD8169383
_publ_section_title
;
Structure prediction by ZEFSAII (Michael W. Deem and Ramdas Pophale) SiO2 
 PCOD8169383
Probable space group: P N C 2
;
_chemical_formula_sum "Si O2"
_cell_formula_units_Z 30
_cell_length_a 8.180534
_cell_length_b 19.790093
_cell_length_c 9.732075
_cell_angle_alpha 90.000000
_cell_angle_beta 90.000000
_cell_angle_gamma 90.000000
_cell_volume 1575.559963
_symmetry_space_group_name_H-M "P N C 2"
_symmetry_group_IT_number 30
_symmetry_cell_setting 'orthorhombic'
loop_
_space_group_symop_operation_xyz
x,y,z
-x,-y,z
-x,1/2+y,1/2+z
x,1/2-y,1/2+z
loop_
_atom_site_type_symbol
_atom_site_label
_atom_site_fract_x
_atom_site_fract_y
_atom_site_fract_z
Si Si1 0.608242 0.865816 0.279710
Si Si2 0.199908 0.186071 0.515755
Si Si3 0.626497 0.824586 0.985190
Si Si4 0.500000 0.500000 0.918820
Si Si5 0.839745 0.189155 0.629391
Si Si6 0.330557 0.089613 0.741058
Si Si7 0.653290 0.257385 0.870725
Si Si8 0.313249 0.552437 0.168088
O O1 0.773483 0.838446 0.357387
O O2 0.462017 0.812649 0.301030
O O3 0.568879 0.941217 0.324187
O O4 0.627613 0.872692 0.116845
O O5 0.289277 0.256552 0.535346
O O6 0.289822 0.128674 0.602137
O O7 0.019480 0.199671 0.570291
O O8 0.728848 0.865768 0.870186
O O9 0.449311 0.808159 0.919153
O O10 0.355626 0.530314 0.012677
O O11 0.795823 0.234423 0.763748
O O12 0.720202 0.207832 0.506891
O O13 0.824022 0.110114 0.668388
O O14 0.525910 0.079980 0.744505
O O15 0.245950 0.015307 0.744315
#
# Coordination Sequence:
#
# PCOD8169383 Si02
#       8
#     4   4   4   2   4   4   4   4
#     4  11  21  39  60  88 118 155 196 251 304 354
#     4  11  23  37  62  86 123 159 194 246 305 369
#     4  11  22  37  60  90 120 151 198 256 305 353
#     4  10  18  36  62  82 112 152 208 238 282 360
#     4  12  24  38  60  91 121 156 200 249 311 360
#     4  10  20  39  61  86 112 160 203 246 293 358
#     4  11  22  39  58  89 117 156 197 253 298 362
#     4  10  19  39  62  83 114 154 212 248 277 371
#
# _framework density 19.040849000000001
#
# number of rings (size 3 to 8) (size 9 to 14) (size 15 to 20)
#    0.000    1.333    6.667    2.400    3.733    1.600 
#    0.000    0.000    0.000    0.000    3.467    0.000 
#    0.000    0.000    0.000    0.000    0.000    0.000 
#
# Total GULP energy -371820.318030 kJ/mol
# GULP energy per Si atom -12394.010601 kJ/mol
# Density = 1.899751 g / cm^3
# Si number density = 19.040849 Si / 1000 Ang^3
#
#
#
# Elastic Constant Matrix: (Units=GPa)
#
#
# Indices 1 2 3 4 5 6 
#
# 1 58.3378 17.9286 10.9688 0.0000 0.0000 0.0000
# 2 17.9286 88.1795 24.6157 0.0000 0.0000 0.0000
# 3 10.9688 24.6157 87.4262 0.0000 0.0000 0.0000
# 4 0.0000 0.0000 0.0000 26.0764 0.0000 0.0000
# 5 0.0000 0.0000 0.0000 0.0000 19.1337 0.0000
# 6 0.0000 0.0000 0.0000 0.0000 0.0000 11.5617
#
#
#
# Elastic Compliance Matrix: (Units=1/GPa)
#
#
# Indices 1 2 3 4 5 6 
#
# 1 0.018433 -0.003367 -0.001365 0.000000 0.000000 0.000000
# 2 -0.003367 0.012923 -0.003216 0.000000 0.000000 0.000000
# 3 -0.001365 -0.003216 0.012515 0.000000 0.000000 0.000000
# 4 0.000000 0.000000 0.000000 0.038349 0.000000 0.000000
# 5 0.000000 0.000000 0.000000 0.000000 0.052264 0.000000
# 6 0.000000 0.000000 0.000000 0.000000 0.000000 0.086492
#
#
# Mechanical properties :
#
#
# Convention : Reuss Voigt Hill
#
# Bulk Modulus (GPa) = 35.74570 37.88552 36.81561
# Shear Modulus (GPa) = 20.30902 23.38306 21.84604
#
# Velocity S-wave (km/s) = 3.26943 3.50815 3.39089
# Velocity P-wave (km/s) = 5.75032 6.02907 5.89134
#
# Compressibility (1/GPa) = 0.02797539
#
# Stress axis : x y z
#
# Youngs Moduli (GPa) = 54.25106 77.38241 79.90424
#
# Poissons Ratio (x) = 0.26053 0.10904
# Poissons Ratio (y) = 0.18265 0.25698
# Poissons Ratio (z) = 0.07404 0.24887
#
# Static dielectric constant tensor:
#      x y z
#    x 3.221730 0.000000 0.000000 
#    y 0.000000 3.743810 0.000000 
#    z 0.000000 0.000000 3.573150 
# 
# 
# High freq. dielectric constant tensor:
#      x y z
#    x 1.701530 0.000000 0.000000 
#    y 0.000000 1.756940 0.000000 
#    z 0.000000 0.000000 1.742930 
# 
# From -- ./inp_files/2103.got.cif
#   From: 2010.03.12/outbox.cif.g09.slc.cpg/sg30_2_cif.got.tgz:2103.got - 2010.04.14 01:38:02.
