data_PCOD8169170
_publ_section_title
;
Structure prediction by ZEFSAII (Michael W. Deem and Ramdas Pophale) SiO2 
 PCOD8169170
Probable space group: P C A 21
;
_chemical_formula_sum "Si O2"
_cell_formula_units_Z 24
_cell_length_a 9.459277
_cell_length_b 9.732893
_cell_length_c 12.142313
_cell_angle_alpha 90.000000
_cell_angle_beta 90.000000
_cell_angle_gamma 90.000000
_cell_volume 1117.895778
_symmetry_space_group_name_H-M "P C A 21"
_symmetry_group_IT_number 29
_symmetry_cell_setting 'orthorhombic'
loop_
_space_group_symop_operation_xyz
x,y,z
-x,-y,1/2+z
1/2-x,y,1/2+z
1/2+x,-y,z
loop_
_atom_site_type_symbol
_atom_site_label
_atom_site_fract_x
_atom_site_fract_y
_atom_site_fract_z
Si Si1 0.197496 0.110909 0.509600
Si Si2 0.389881 0.900080 0.174792
Si Si3 0.125226 0.970792 0.302661
Si Si4 0.061615 0.255591 0.893992
Si Si5 0.817917 0.647245 0.170816
Si Si6 0.998409 0.386652 0.107335
O O1 0.357516 0.152049 0.477827
O O2 0.135453 0.226692 0.591447
O O3 0.186701 0.962584 0.567465
O O4 0.112279 0.090300 0.395316
O O5 0.289292 0.940397 0.277152
O O6 0.408165 0.738270 0.158746
O O7 0.542680 0.969790 0.196663
O O8 0.066532 0.823749 0.338593
O O9 0.163067 0.314810 0.799177
O O10 0.003765 0.376347 0.973679
O O11 0.655351 0.606343 0.157123
O O12 0.919979 0.524433 0.139133
#
# Coordination Sequence:
#
# PCOD8169170 Si02
#       6
#     4   4   4   4   4   4
#     4  11  22  44  70 100 142 179 225 296 345 409
#     4  12  25  42  72 104 137 178 237 288 347 413
#     4  12  23  41  70 104 136 181 228 289 350 405
#     4  11  23  46  69 104 139 180 236 285 351 408
#     4  11  26  48  71 100 148 186 234 288 344 419
#     4  11  27  47  70 104 140 190 232 286 349 422
#
# _framework density 21.468909
#
# number of rings (size 3 to 8) (size 9 to 14) (size 15 to 20)
#    0.000    0.667    5.000    3.000    2.333    4.000 
#    3.000    0.000    0.000    0.000    0.000    0.000 
#    0.000    0.000    0.000    0.000    0.000    0.000 
#
# Total GULP energy -297590.244775 kJ/mol
# GULP energy per Si atom -12399.593532 kJ/mol
# Density = 2.142004 g / cm^3
# Si number density = 21.468909 Si / 1000 Ang^3
#
#
#
# Elastic Constant Matrix: (Units=GPa)
#
#
# Indices 1 2 3 4 5 6 
#
# 1 82.3796 37.6090 27.3240 0.0000 0.0000 0.0000
# 2 37.6090 92.3380 34.8805 0.0000 0.0000 0.0000
# 3 27.3240 34.8805 116.1804 0.0000 0.0000 0.0000
# 4 0.0000 0.0000 0.0000 34.6673 0.0000 0.0000
# 5 0.0000 0.0000 0.0000 0.0000 29.5935 0.0000
# 6 0.0000 0.0000 0.0000 0.0000 0.0000 37.0935
#
#
#
# Elastic Compliance Matrix: (Units=1/GPa)
#
#
# Indices 1 2 3 4 5 6 
#
# 1 0.015293 -0.005493 -0.001947 0.000000 0.000000 0.000000
# 2 -0.005493 0.014188 -0.002968 0.000000 0.000000 0.000000
# 3 -0.001947 -0.002968 0.009956 0.000000 0.000000 0.000000
# 4 0.000000 0.000000 0.000000 0.028846 0.000000 0.000000
# 5 0.000000 0.000000 0.000000 0.000000 0.033791 0.000000
# 6 0.000000 0.000000 0.000000 0.000000 0.000000 0.026959
#
#
# Mechanical properties :
#
#
# Convention : Reuss Voigt Hill
#
# Bulk Modulus (GPa) = 53.70398 54.50277 54.10338
# Shear Modulus (GPa) = 32.03974 33.00980 32.52477
#
# Velocity S-wave (km/s) = 3.86732 3.92543 3.89649
# Velocity P-wave (km/s) = 6.70900 6.78139 6.74529
#
# Compressibility (1/GPa) = 0.01862059
#
# Stress axis : x y z
#
# Youngs Moduli (GPa) = 65.39113 70.48145 100.43857
#
# Poissons Ratio (x) = 0.38715 0.19560
# Poissons Ratio (y) = 0.35919 0.29808
# Poissons Ratio (z) = 0.12735 0.20917
#
# Static dielectric constant tensor:
#      x y z
#    x 3.822950 0.000000 0.000000 
#    y 0.000000 3.778280 0.000000 
#    z 0.000000 0.000000 4.234570 
# 
# 
# High freq. dielectric constant tensor:
#      x y z
#    x 1.839920 0.000000 0.000000 
#    y 0.000000 1.831460 0.000000 
#    z 0.000000 0.000000 1.861300 
# 
# From -- ./inp_files/2810.got.cif
#   From: 2010.03.12/outbox.cif.g09.slc.cpg/sg29_2_cif.got.tgz:2810.got - 2010.04.14 03:43:10.
