data_PCOD8169348
_publ_section_title
;
Structure prediction by ZEFSAII (Michael W. Deem and Ramdas Pophale) SiO2 
 PCOD8169348
Probable space group: P C A 21
;
_chemical_formula_sum "Si O2"
_cell_formula_units_Z 16
_cell_length_a 9.498594
_cell_length_b 7.408729
_cell_length_c 7.990056
_cell_angle_alpha 90.000000
_cell_angle_beta 90.000000
_cell_angle_gamma 90.000000
_cell_volume 562.280286
_symmetry_space_group_name_H-M "P C A 21"
_symmetry_group_IT_number 29
_symmetry_cell_setting 'orthorhombic'
loop_
_space_group_symop_operation_xyz
x,y,z
-x,-y,1/2+z
1/2-x,y,1/2+z
1/2+x,-y,z
loop_
_atom_site_type_symbol
_atom_site_label
_atom_site_fract_x
_atom_site_fract_y
_atom_site_fract_z
Si Si1 0.169967 0.654899 0.005390
Si Si2 0.130987 0.355165 0.650974
Si Si3 0.848410 0.842667 0.467169
Si Si4 0.878466 0.147609 0.192890
O O1 0.286178 0.511205 0.056928
O O2 0.245065 0.847964 0.064142
O O3 0.032032 0.628187 0.113556
O O4 0.136192 0.667385 0.807092
O O5 0.144448 0.343568 0.853977
O O6 0.198535 0.168058 0.567632
O O7 0.972108 0.845148 0.602781
O O8 0.873972 0.993101 0.329702
#
# Coordination Sequence:
#
# PCOD8169348 Si02
#       4
#     4   4   4   4
#     4  12  27  49  77 114 159 212 271 336 406 485
#     4  12  27  49  77 114 159 212 271 336 406 485
#     4  12  27  51  81 116 160 214 271 338 412 489
#     4  12  27  51  81 116 160 214 271 338 412 489
#
# _framework density 28.455559000000001
#
# number of rings (size 3 to 8) (size 9 to 14) (size 15 to 20)
#    0.000    0.000    0.000    9.000    0.000    8.000 
#    0.000    5.000    0.000    0.000    0.000    0.000 
#    0.000    0.000    0.000    0.000    0.000    0.000 
#
# Total GULP energy -198414.088599 kJ/mol
# GULP energy per Si atom -12400.880537 kJ/mol
# Density = 2.839079 g / cm^3
# Si number density = 28.455559 Si / 1000 Ang^3
#
#
#
# Elastic Constant Matrix: (Units=GPa)
#
#
# Indices 1 2 3 4 5 6 
#
# 1 133.5004 14.1673 -6.2886 0.0000 0.0000 0.0000
# 2 14.1673 64.7701 13.8074 0.0000 0.0000 0.0000
# 3 -6.2886 13.8074 136.5914 0.0000 0.0000 0.0000
# 4 0.0000 0.0000 0.0000 44.3641 0.0000 0.0000
# 5 0.0000 0.0000 0.0000 0.0000 78.3005 0.0000
# 6 0.0000 0.0000 0.0000 0.0000 0.0000 33.4017
#
#
#
# Elastic Compliance Matrix: (Units=1/GPa)
#
#
# Indices 1 2 3 4 5 6 
#
# 1 0.007707 -0.001800 0.000537 0.000000 0.000000 0.000000
# 2 -0.001800 0.016200 -0.001720 0.000000 0.000000 0.000000
# 3 0.000537 -0.001720 0.007520 0.000000 0.000000 0.000000
# 4 0.000000 0.000000 0.000000 0.022541 0.000000 0.000000
# 5 0.000000 0.000000 0.000000 0.000000 0.012771 0.000000
# 6 0.000000 0.000000 0.000000 0.000000 0.000000 0.029939
#
#
# Mechanical properties :
#
#
# Convention : Reuss Voigt Hill
#
# Bulk Modulus (GPa) = 39.27924 42.02603 40.65263
# Shear Modulus (GPa) = 44.99196 52.09164 48.54180
#
# Velocity S-wave (km/s) = 3.98066 4.28323 4.13471
# Velocity P-wave (km/s) = 5.91280 6.26598 6.09195
#
# Compressibility (1/GPa) = 0.02545874
#
# Stress axis : x y z
#
# Youngs Moduli (GPa) = 129.75321 61.72941 132.98353
#
# Poissons Ratio (x) = 0.11112 -0.07138
# Poissons Ratio (y) = 0.23358 0.22879
# Poissons Ratio (z) = -0.06965 0.10620
#
# Static dielectric constant tensor:
#      x y z
#    x 5.071980 0.000000 0.000000 
#    y 0.000000 7.373340 0.000000 
#    z 0.000000 0.000000 6.364240 
# 
# 
# High freq. dielectric constant tensor:
#      x y z
#    x 2.140860 0.000000 0.000000 
#    y 0.000000 2.216740 0.000000 
#    z 0.000000 0.000000 2.196610 
# 
# From -- ./inp_files/1038.got.cif
#   From: 2010.03.12/outbox.cif.g09.slc.cpg/sg29_1_cif.got.tgz:1038.got - 2010.04.14 03:43:10.
