data_PCOD8169775
_publ_section_title
;
Structure prediction by ZEFSAII (Michael W. Deem and Ramdas Pophale) SiO2 
 PCOD8169775
Probable space group: P M N 21
;
_chemical_formula_sum "Si O2"
_cell_formula_units_Z 32
_cell_length_a 9.267587
_cell_length_b 11.478756
_cell_length_c 17.479278
_cell_angle_alpha 90.000000
_cell_angle_beta 90.000000
_cell_angle_gamma 90.000000
_cell_volume 1859.452059
_symmetry_space_group_name_H-M "P M N 21"
_symmetry_group_IT_number 31
_symmetry_cell_setting 'orthorhombic'
loop_
_space_group_symop_operation_xyz
x,y,z
1/2-x,-y,1/2+z
-x,y,z
1/2+x,-y,1/2+z
loop_
_atom_site_type_symbol
_atom_site_label
_atom_site_fract_x
_atom_site_fract_y
_atom_site_fract_z
Si Si1 0.668906 0.128257 0.032000
Si Si2 0.331194 0.667502 0.480784
Si Si3 0.332096 0.754300 0.840648
Si Si4 0.665951 0.457224 0.115787
Si Si5 0.162402 0.661536 0.069485
Si Si6 0.158839 0.553966 0.901537
Si Si7 0.332464 0.862270 0.001788
Si Si8 0.836538 0.772210 0.695099
O O1 0.500000 0.154396 0.018763
O O2 0.715189 0.160902 0.118619
O O3 0.763789 0.203203 0.970869
O O4 0.708103 0.995091 0.016688
O O5 0.500000 0.673925 0.503781
O O6 0.235302 0.612194 0.546602
O O7 0.312149 0.586106 0.404887
O O8 0.500000 0.747736 0.825682
O O9 0.275747 0.621843 0.851435
O O10 0.291506 0.831517 0.914358
O O11 0.260037 0.813170 0.766482
O O12 0.500000 0.487128 0.096434
O O13 0.751978 0.578406 0.129651
O O14 0.676474 0.368893 0.187441
O O15 0.000000 0.681503 0.099569
O O16 0.163317 0.597122 0.988624
O O17 0.241547 0.785463 0.061636
O O18 0.000000 0.578897 0.866621
O O19 0.500000 0.836309 0.016763
O O20 0.000000 0.808512 0.712980
#
# Coordination Sequence:
#
# PCOD8169775 Si02
#       8
#     4   4   4   4   4   4   4   4
#     4   9  18  32  49  68  92 126 166 201 233 278
#     4   9  16  26  43  68  93 115 144 187 232 269
#     4  10  19  29  46  70  93 119 151 194 242 284
#     4   9  16  27  44  65  89 119 149 178 223 278
#     4   9  16  26  43  68  93 116 145 186 231 268
#     4   8  15  27  42  62  90 118 142 175 223 278
#     4   9  18  32  48  68  94 125 164 201 234 280
#     4   9  18  31  47  67  92 122 153 190 238 289
#
# _framework density 17.209371000000001
#
# number of rings (size 3 to 8) (size 9 to 14) (size 15 to 20)
#    0.000    3.000    0.000    3.000    0.000    7.000 
#    0.000    0.000    0.000    1.500    0.000    5.250 
#    0.000    0.000    0.000    0.000    0.000    0.000 
#
# Total GULP energy -396557.008752 kJ/mol
# GULP energy per Si atom -12392.406524 kJ/mol
# Density = 1.717020 g / cm^3
# Si number density = 17.209371 Si / 1000 Ang^3
#
#
#
# Elastic Constant Matrix: (Units=GPa)
#
#
# Indices 1 2 3 4 5 6 
#
# 1 94.6092 54.9034 30.7999 0.0000 0.0000 0.0000
# 2 54.9034 122.5665 33.1073 0.0000 0.0000 0.0000
# 3 30.7999 33.1073 46.6502 0.0000 0.0000 0.0000
# 4 0.0000 0.0000 0.0000 14.1715 0.0000 0.0000
# 5 0.0000 0.0000 0.0000 0.0000 23.2244 0.0000
# 6 0.0000 0.0000 0.0000 0.0000 0.0000 26.0271
#
#
#
# Elastic Compliance Matrix: (Units=1/GPa)
#
#
# Indices 1 2 3 4 5 6 
#
# 1 0.015810 -0.005273 -0.006696 0.000000 0.000000 0.000000
# 2 -0.005273 0.011853 -0.004930 0.000000 0.000000 0.000000
# 3 -0.006696 -0.004930 0.029356 0.000000 0.000000 0.000000
# 4 0.000000 0.000000 0.000000 0.070564 0.000000 0.000000
# 5 0.000000 0.000000 0.000000 0.000000 0.043058 0.000000
# 6 0.000000 0.000000 0.000000 0.000000 0.000000 0.038422
#
#
# Mechanical properties :
#
#
# Convention : Reuss Voigt Hill
#
# Bulk Modulus (GPa) = 43.06649 55.71635 49.39142
# Shear Modulus (GPa) = 19.95205 22.35226 21.15216
#
# Velocity S-wave (km/s) = 3.40865 3.60786 3.50967
# Velocity P-wave (km/s) = 6.36955 7.05701 6.72207
#
# Compressibility (1/GPa) = 0.02321991
#
# Stress axis : x y z
#
# Youngs Moduli (GPa) = 63.25198 84.36859 34.06487
#
# Poissons Ratio (x) = 0.44491 0.22809
# Poissons Ratio (y) = 0.33355 0.16795
# Poissons Ratio (z) = 0.42351 0.41595
#
# Static dielectric constant tensor:
#      x y z
#    x 3.352340 0.000000 0.000000 
#    y 0.000000 3.448680 0.000000 
#    z 0.000000 0.000000 2.879730 
# 
# 
# High freq. dielectric constant tensor:
#      x y z
#    x 1.674800 0.000000 0.000000 
#    y 0.000000 1.656100 0.000000 
#    z 0.000000 0.000000 1.617440 
# 
# From -- ./inp_files/5863.got.cif
#   From: 2010.03.12/outbox.cif.g09.slc.cpg/sg31_3_cif.got.tgz:5863.got - 2010.04.14 01:42:59.
