data_PCOD8169661
_publ_section_title
;
Structure prediction by ZEFSAII (Michael W. Deem and Ramdas Pophale) SiO2 
 PCOD8169661
Probable space group: P N C 2
;
_chemical_formula_sum "Si O2"
_cell_formula_units_Z 22
_cell_length_a 13.815965
_cell_length_b 4.982897
_cell_length_c 13.582954
_cell_angle_alpha 90.000000
_cell_angle_beta 90.000000
_cell_angle_gamma 90.000000
_cell_volume 935.098509
_symmetry_space_group_name_H-M "P N C 2"
_symmetry_group_IT_number 30
_symmetry_cell_setting 'orthorhombic'
loop_
_space_group_symop_operation_xyz
x,y,z
-x,-y,z
-x,1/2+y,1/2+z
x,1/2-y,1/2+z
loop_
_atom_site_type_symbol
_atom_site_label
_atom_site_fract_x
_atom_site_fract_y
_atom_site_fract_z
Si Si1 0.358334 0.550029 0.349200
Si Si2 0.400326 0.114206 0.635761
Si Si3 0.806573 0.411409 0.075479
Si Si4 0.500000 0.500000 0.511690
Si Si5 0.890369 0.591681 0.675523
Si Si6 0.232356 0.045836 0.363711
O O1 0.406301 0.404983 0.253680
O O2 0.434650 0.662130 0.430586
O O3 0.298682 0.811838 0.315958
O O4 0.291028 0.313696 0.393984
O O5 0.304828 0.971167 0.598773
O O6 0.413082 0.404108 0.585425
O O7 0.500000 0.000000 0.587765
O O8 0.880402 0.614711 0.128171
O O9 0.828500 0.111326 0.109535
O O10 0.821899 0.428477 0.958806
O O11 0.849145 0.618092 0.784947
O O12 0.000000 0.500000 0.680033
#
# Coordination Sequence:
#
# PCOD8169661 Si02
#       6
#     4   4   4   2   4   4
#     4  12  26  44  71 104 145 196 246 294 358 433
#     4  12  26  43  73 105 148 200 240 291 356 436
#     4  12  26  48  76 108 148 194 243 304 376 439
#     4  12  28  44  68 110 150 192 258 296 352 440
#     4  12  27  48  76 109 143 187 251 314 374 447
#     4  12  25  48  73 101 144 193 238 304 373 434
#
# _framework density 23.526934000000001
#
# number of rings (size 3 to 8) (size 9 to 14) (size 15 to 20)
#    0.000    0.000    6.364    2.727    5.091    1.455 
#    0.000    0.000    0.000    0.000    0.000    0.000 
#    0.000    0.000    0.000    0.000    0.000    0.000 
#
# Total GULP energy -272568.002289 kJ/mol
# GULP energy per Si atom -12389.454650 kJ/mol
# Density = 2.347339 g / cm^3
# Si number density = 23.526934 Si / 1000 Ang^3
#
#
#
# Elastic Constant Matrix: (Units=GPa)
#
#
# Indices 1 2 3 4 5 6 
#
# 1 110.4159 5.5994 22.5184 0.0000 0.0000 0.0000
# 2 5.5994 56.4279 3.1859 0.0000 0.0000 0.0000
# 3 22.5184 3.1859 162.2038 0.0000 0.0000 0.0000
# 4 0.0000 0.0000 0.0000 27.6832 0.0000 0.0000
# 5 0.0000 0.0000 0.0000 0.0000 10.8425 0.0000
# 6 0.0000 0.0000 0.0000 0.0000 0.0000 36.8927
#
#
#
# Elastic Compliance Matrix: (Units=1/GPa)
#
#
# Indices 1 2 3 4 5 6 
#
# 1 0.009362 -0.000857 -0.001283 0.000000 0.000000 0.000000
# 2 -0.000857 0.017820 -0.000231 0.000000 0.000000 0.000000
# 3 -0.001283 -0.000231 0.006348 0.000000 0.000000 0.000000
# 4 0.000000 0.000000 0.000000 0.036123 0.000000 0.000000
# 5 0.000000 0.000000 0.000000 0.000000 0.092230 0.000000
# 6 0.000000 0.000000 0.000000 0.000000 0.000000 0.027106
#
#
# Mechanical properties :
#
#
# Convention : Reuss Voigt Hill
#
# Bulk Modulus (GPa) = 34.73640 43.51724 39.12682
# Shear Modulus (GPa) = 24.59120 34.93327 29.76224
#
# Velocity S-wave (km/s) = 3.23652 3.85752 3.56058
# Velocity P-wave (km/s) = 5.36314 6.19496 5.79400
#
# Compressibility (1/GPa) = 0.02878824
#
# Stress axis : x y z
#
# Youngs Moduli (GPa) = 106.81784 56.11746 157.53698
#
# Poissons Ratio (x) = 0.04807 0.20210
# Poissons Ratio (y) = 0.09149 0.03641
# Poissons Ratio (z) = 0.13703 0.01297
#
# Static dielectric constant tensor:
#      x y z
#    x 4.259240 0.000000 0.000000 
#    y 0.000000 4.438660 0.000000 
#    z 0.000000 0.000000 4.387560 
# 
# 
# High freq. dielectric constant tensor:
#      x y z
#    x 1.924300 0.000000 0.000000 
#    y 0.000000 1.925350 0.000000 
#    z 0.000000 0.000000 1.951330 
# 
# From -- ./inp_files/5553.got.cif
#   From: 2010.03.12/outbox.cif.g09.slc.cpg/sg30_3_cif.got.tgz:5553.got - 2010.04.14 01:38:02.
