data_PCOD8169895
_publ_section_title
;
Structure prediction by ZEFSAII (Michael W. Deem and Ramdas Pophale) SiO2 
 PCOD8169895
Probable space group: P M N 21
;
_chemical_formula_sum "Si O2"
_cell_formula_units_Z 24
_cell_length_a 8.509379
_cell_length_b 9.411333
_cell_length_c 15.155836
_cell_angle_alpha 90.000000
_cell_angle_beta 90.000000
_cell_angle_gamma 90.000000
_cell_volume 1213.749055
_symmetry_space_group_name_H-M "P M N 21"
_symmetry_group_IT_number 31
_symmetry_cell_setting 'orthorhombic'
loop_
_space_group_symop_operation_xyz
x,y,z
1/2-x,-y,1/2+z
-x,y,z
1/2+x,-y,1/2+z
loop_
_atom_site_type_symbol
_atom_site_label
_atom_site_fract_x
_atom_site_fract_y
_atom_site_fract_z
Si Si1 0.328377 0.410808 0.586130
Si Si2 0.315644 0.828924 0.851558
Si Si3 0.186929 0.529360 0.901981
Si Si4 0.812907 0.678589 0.266691
Si Si5 0.173988 0.913381 0.030133
Si Si6 0.316233 0.973412 0.209955
O O1 0.500000 0.478703 0.599406
O O2 0.246502 0.489857 0.503127
O O3 0.243864 0.411149 0.681771
O O4 0.343384 0.247905 0.558551
O O5 0.500000 0.843371 0.837021
O O6 0.269861 0.663760 0.857452
O O7 0.226137 0.887135 0.765591
O O8 0.268223 0.920203 0.938080
O O9 0.230352 0.384926 0.852575
O O10 0.000000 0.555443 0.904114
O O11 0.771406 0.843044 0.257618
O O12 0.000000 0.663388 0.272749
O O13 0.262384 0.997546 0.108563
O O14 0.000000 0.979726 0.016398
O O15 0.500000 0.943100 0.210934
#
# Coordination Sequence:
#
# PCOD8169895 Si02
#       6
#     4   4   4   4   4   4
#     4   7  14  29  50  71  98 133 168 204 252 308
#     4  11  21  35  55  80 107 140 179 221 264 313
#     4  10  19  34  54  78 105 137 175 218 263 312
#     4  10  19  34  54  78 105 137 175 218 263 312
#     4   9  17  33  54  77 104 137 174 216 262 316
#     4  11  21  35  55  80 107 140 179 221 264 313
#
# _framework density 19.773444000000001
#
# number of rings (size 3 to 8) (size 9 to 14) (size 15 to 20)
#    0.000    2.333    0.000    6.500    0.000    0.000 
#    0.000    4.167    0.000    2.000    0.000    0.000 
#    0.000    0.000    0.000    0.000    0.000    0.000 
#
# Total GULP energy -297397.815836 kJ/mol
# GULP energy per Si atom -12391.575660 kJ/mol
# Density = 1.972844 g / cm^3
# Si number density = 19.773444 Si / 1000 Ang^3
#
#
#
# Elastic Constant Matrix: (Units=GPa)
#
#
# Indices 1 2 3 4 5 6 
#
# 1 80.6072 1.0678 19.5759 0.0000 0.0000 0.0000
# 2 1.0678 20.0190 -8.0136 0.0000 0.0000 0.0000
# 3 19.5759 -8.0136 26.7070 0.0000 0.0000 0.0000
# 4 0.0000 0.0000 0.0000 32.8822 0.0000 0.0000
# 5 0.0000 0.0000 0.0000 0.0000 30.9948 0.0000
# 6 0.0000 0.0000 0.0000 0.0000 0.0000 25.1862
#
#
#
# Elastic Compliance Matrix: (Units=1/GPa)
#
#
# Indices 1 2 3 4 5 6 
#
# 1 0.015742 -0.006204 -0.013400 0.000000 0.000000 0.000000
# 2 -0.006204 0.059216 0.022316 0.000000 0.000000 0.000000
# 3 -0.013400 0.022316 0.053962 0.000000 0.000000 0.000000
# 4 0.000000 0.000000 0.000000 0.030412 0.000000 0.000000
# 5 0.000000 0.000000 0.000000 0.000000 0.032263 0.000000
# 6 0.000000 0.000000 0.000000 0.000000 0.000000 0.039704
#
#
# Mechanical properties :
#
#
# Convention : Reuss Voigt Hill
#
# Bulk Modulus (GPa) = 7.44364 16.95482 12.19923
# Shear Modulus (GPa) = 18.47348 25.45953 21.96650
#
# Velocity S-wave (km/s) = 3.05988 3.59215 3.33665
# Velocity P-wave (km/s) = 4.03193 5.07916 4.58554
#
# Compressibility (1/GPa) = 0.13434286
#
# Stress axis : x y z
#
# Youngs Moduli (GPa) = 63.52272 16.88723 18.53166
#
# Poissons Ratio (x) = 0.10477 0.24833
# Poissons Ratio (y) = 0.39409 -0.41354
# Poissons Ratio (z) = 0.85124 -0.37685
#
# Static dielectric constant tensor:
#      x y z
#    x 3.530500 0.000000 0.000000 
#    y 0.000000 3.107170 0.000000 
#    z 0.000000 0.000000 4.194190 
# 
# 
# High freq. dielectric constant tensor:
#      x y z
#    x 1.765840 0.000000 0.000000 
#    y 0.000000 1.724210 0.000000 
#    z 0.000000 0.000000 1.789270 
# 
# From -- ./inp_files/5704.got.cif
#   From: 2010.03.12/outbox.cif.g09.slc.cpg/sg31_3_cif.got.tgz:5704.got - 2010.04.14 01:42:59.
