data_PCOD8169307
_publ_section_title
;
Structure prediction by ZEFSAII (Michael W. Deem and Ramdas Pophale) SiO2 
 PCOD8169307
Probable space group: P C A 21
;
_chemical_formula_sum "Si O2"
_cell_formula_units_Z 28
_cell_length_a 14.638445
_cell_length_b 17.130181
_cell_length_c 5.010159
_cell_angle_alpha 90.000000
_cell_angle_beta 90.000000
_cell_angle_gamma 90.000000
_cell_volume 1256.343525
_symmetry_space_group_name_H-M "P C A 21"
_symmetry_group_IT_number 29
_symmetry_cell_setting 'orthorhombic'
loop_
_space_group_symop_operation_xyz
x,y,z
-x,-y,1/2+z
1/2-x,y,1/2+z
1/2+x,-y,z
loop_
_atom_site_type_symbol
_atom_site_label
_atom_site_fract_x
_atom_site_fract_y
_atom_site_fract_z
Si Si1 0.691501 0.602848 0.099970
Si Si2 0.561147 0.292084 0.139155
Si Si3 0.689434 0.875888 0.067447
Si Si4 0.053189 0.262113 0.130676
Si Si5 0.438644 0.983916 0.616124
Si Si6 0.055047 0.525952 0.121727
Si Si7 0.188356 0.842665 0.045198
O O1 0.723011 0.613252 0.404105
O O2 0.617454 0.668176 0.032379
O O3 0.648075 0.518287 0.044383
O O4 0.531988 0.260163 0.429147
O O5 0.580905 0.383981 0.153660
O O6 0.653863 0.246903 0.060794
O O7 0.480846 0.275490 0.929624
O O8 0.728370 0.861281 0.773007
O O9 0.651383 0.962962 0.094189
O O10 0.605540 0.819110 0.122609
O O11 0.402105 0.896049 0.578236
O O12 0.484099 0.993363 0.904305
O O13 0.020949 0.487683 0.396876
O O14 0.265869 0.859808 0.262128
#
# Coordination Sequence:
#
# PCOD8169307 Si02
#       7
#     4   4   4   4   4   4   4
#     4  12  24  39  63  94 126 160 209 271 329 382
#     4  12  24  43  70  92 129 176 222 266 327 400
#     4  12  24  41  64  96 133 170 208 266 325 381
#     4  12  23  42  65  96 130 170 218 262 328 398
#     4  12  24  44  69  98 132 175 227 265 323 392
#     4  12  23  44  65  93 126 175 220 270 328 401
#     4  12  26  45  68 101 138 176 222 282 334 384
#
# _framework density 22.286897
#
# number of rings (size 3 to 8) (size 9 to 14) (size 15 to 20)
#    0.000    0.000    2.857    8.571    0.000    1.143 
#    0.000    0.000    0.000    0.000    0.000    0.000 
#    0.000    0.000    0.000    0.000    0.000    0.000 
#
# Total GULP energy -347502.483834 kJ/mol
# GULP energy per Si atom -12410.802994 kJ/mol
# Density = 2.223617 g / cm^3
# Si number density = 22.286897 Si / 1000 Ang^3
#
#
#
# Elastic Constant Matrix: (Units=GPa)
#
#
# Indices 1 2 3 4 5 6 
#
# 1 66.6838 19.2418 9.9981 0.0000 0.0000 0.0000
# 2 19.2418 96.1472 15.7583 0.0000 0.0000 0.0000
# 3 9.9981 15.7583 82.9934 0.0000 0.0000 0.0000
# 4 0.0000 0.0000 0.0000 28.1390 0.0000 0.0000
# 5 0.0000 0.0000 0.0000 0.0000 46.1892 0.0000
# 6 0.0000 0.0000 0.0000 0.0000 0.0000 35.6763
#
#
#
# Elastic Compliance Matrix: (Units=1/GPa)
#
#
# Indices 1 2 3 4 5 6 
#
# 1 0.016064 -0.002991 -0.001367 0.000000 0.000000 0.000000
# 2 -0.002991 0.011292 -0.001784 0.000000 0.000000 0.000000
# 3 -0.001367 -0.001784 0.012553 0.000000 0.000000 0.000000
# 4 0.000000 0.000000 0.000000 0.035538 0.000000 0.000000
# 5 0.000000 0.000000 0.000000 0.000000 0.021650 0.000000
# 6 0.000000 0.000000 0.000000 0.000000 0.000000 0.028030
#
#
# Mechanical properties :
#
#
# Convention : Reuss Voigt Hill
#
# Bulk Modulus (GPa) = 36.19955 37.31342 36.75649
# Shear Modulus (GPa) = 34.10224 35.38932 34.74578
#
# Velocity S-wave (km/s) = 3.91595 3.98917 3.95273
# Velocity P-wave (km/s) = 6.06004 6.16414 6.11231
#
# Compressibility (1/GPa) = 0.02762465
#
# Stress axis : x y z
#
# Youngs Moduli (GPa) = 62.25036 88.56137 79.66506
#
# Poissons Ratio (x) = 0.26487 0.10893
# Poissons Ratio (y) = 0.18618 0.14210
# Poissons Ratio (z) = 0.08512 0.15797
#
# Static dielectric constant tensor:
#      x y z
#    x 3.829700 0.000000 0.000000 
#    y 0.000000 4.146000 0.000000 
#    z 0.000000 0.000000 4.075500 
# 
# 
# High freq. dielectric constant tensor:
#      x y z
#    x 1.875880 0.000000 0.000000 
#    y 0.000000 1.890130 0.000000 
#    z 0.000000 0.000000 1.892640 
# 
# From -- ./inp_files/101.got.cif
#   From: 2010.03.12/outbox.cif.g09.slc.cpg/sg29_1_cif.got.tgz:101.got - 2010.04.14 03:43:10.
