data_PCOD8169573
_publ_section_title
;
Structure prediction by ZEFSAII (Michael W. Deem and Ramdas Pophale) SiO2 
 PCOD8169573
Probable space group: P N C 2
;
_chemical_formula_sum "Si O2"
_cell_formula_units_Z 30
_cell_length_a 8.228660
_cell_length_b 11.671823
_cell_length_c 14.383802
_cell_angle_alpha 90.000000
_cell_angle_beta 90.000000
_cell_angle_gamma 90.000000
_cell_volume 1381.470156
_symmetry_space_group_name_H-M "P N C 2"
_symmetry_group_IT_number 30
_symmetry_cell_setting 'orthorhombic'
loop_
_space_group_symop_operation_xyz
x,y,z
-x,-y,z
-x,1/2+y,1/2+z
x,1/2-y,1/2+z
loop_
_atom_site_type_symbol
_atom_site_label
_atom_site_fract_x
_atom_site_fract_y
_atom_site_fract_z
Si Si1 0.048626 0.128133 0.469780
Si Si2 0.476842 0.872137 0.098577
Si Si3 0.815399 0.487907 0.331322
Si Si4 0.287523 0.313279 0.128524
Si Si5 0.244590 0.730963 0.449658
Si Si6 0.500000 0.500000 0.205500
Si Si7 0.768911 0.768506 0.828199
Si Si8 0.447334 0.627716 0.810575
O O1 0.186754 0.129282 0.547081
O O2 0.109061 0.177352 0.371092
O O3 0.900974 0.206769 0.504516
O O4 0.000000 0.000000 0.449084
O O5 0.654255 0.813892 0.101653
O O6 0.396596 0.875081 0.201828
O O7 0.500000 0.000000 0.060069
O O8 0.375556 0.797266 0.026928
O O9 0.821286 0.385494 0.404507
O O10 0.664348 0.463186 0.261200
O O11 0.772437 0.609328 0.382632
O O12 0.000000 0.500000 0.287687
O O13 0.449268 0.390966 0.143646
O O14 0.179830 0.302300 0.222310
O O15 0.301133 0.824517 0.372978
O O16 0.588662 0.719215 0.827887
O O17 0.500000 0.500000 0.843025
#
# Coordination Sequence:
#
# PCOD8169573 Si02
#       8
#     4   4   4   4   4   2   4   4
#     4  12  27  44  65 102 143 184 229 287 365 431
#     4  10  24  41  68 100 132 178 236 290 347 425
#     4  11  22  42  71 107 137 176 236 296 353 422
#     4  10  24  45  70  98 138 181 239 292 353 426
#     4  12  25  39  69 102 136 182 229 290 361 419
#     4  10  24  44  74 104 134 196 230 294 366 404
#     4  10  22  46  69  95 138 180 231 299 353 410
#     4  10  22  45  70  97 134 185 239 287 351 432
#
# _framework density 21.715997000000002
#
# number of rings (size 3 to 8) (size 9 to 14) (size 15 to 20)
#    0.000    1.333    1.333    4.000    6.533    3.200 
#    1.200    0.000    0.000    0.000    0.000    0.000 
#    0.000    0.000    0.000    0.000    0.000    0.000 
#
# Total GULP energy -371861.876947 kJ/mol
# GULP energy per Si atom -12395.395898 kJ/mol
# Density = 2.166657 g / cm^3
# Si number density = 21.715997 Si / 1000 Ang^3
#
#
#
# Elastic Constant Matrix: (Units=GPa)
#
#
# Indices 1 2 3 4 5 6 
#
# 1 100.4915 45.0211 44.2717 0.0000 0.0000 0.0000
# 2 45.0211 171.0898 55.1492 0.0000 0.0000 0.0000
# 3 44.2717 55.1492 91.5884 0.0000 0.0000 0.0000
# 4 0.0000 0.0000 0.0000 20.8759 0.0000 0.0000
# 5 0.0000 0.0000 0.0000 0.0000 29.1315 0.0000
# 6 0.0000 0.0000 0.0000 0.0000 0.0000 39.7118
#
#
#
# Elastic Compliance Matrix: (Units=1/GPa)
#
#
# Indices 1 2 3 4 5 6 
#
# 1 0.013047 -0.001738 -0.005260 0.000000 0.000000 0.000000
# 2 -0.001738 0.007484 -0.003666 0.000000 0.000000 0.000000
# 3 -0.005260 -0.003666 0.015669 0.000000 0.000000 0.000000
# 4 0.000000 0.000000 0.000000 0.047902 0.000000 0.000000
# 5 0.000000 0.000000 0.000000 0.000000 0.034327 0.000000
# 6 0.000000 0.000000 0.000000 0.000000 0.000000 0.025181
#
#
# Mechanical properties :
#
#
# Convention : Reuss Voigt Hill
#
# Bulk Modulus (GPa) = 67.24499 72.45040 69.84770
# Shear Modulus (GPa) = 29.42968 32.52568 30.97768
#
# Velocity S-wave (km/s) = 3.68531 3.87431 3.78099
# Velocity P-wave (km/s) = 7.01010 7.31087 7.16206
#
# Compressibility (1/GPa) = 0.01487100
#
# Stress axis : x y z
#
# Youngs Moduli (GPa) = 76.64588 133.61864 63.82071
#
# Poissons Ratio (x) = 0.23218 0.33572
# Poissons Ratio (y) = 0.13318 0.23400
# Poissons Ratio (z) = 0.40318 0.48991
#
# Static dielectric constant tensor:
#      x y z
#    x 3.936190 0.000000 0.000000 
#    y 0.000000 4.301850 0.000000 
#    z 0.000000 0.000000 3.856660 
# 
# 
# High freq. dielectric constant tensor:
#      x y z
#    x 1.845210 0.000000 0.000000 
#    y 0.000000 1.880630 0.000000 
#    z 0.000000 0.000000 1.836420 
# 
# From -- ./inp_files/5180.got.cif
#   From: 2010.03.12/outbox.cif.g09.slc.cpg/sg30_3_cif.got.tgz:5180.got - 2010.04.14 01:38:02.
