data_PCOD8169699
_publ_section_title
;
Structure prediction by ZEFSAII (Michael W. Deem and Ramdas Pophale) SiO2 
 PCOD8169699
Probable space group: P M N 21
;
_chemical_formula_sum "Si O2"
_cell_formula_units_Z 32
_cell_length_a 9.172326
_cell_length_b 11.904470
_cell_length_c 14.633883
_cell_angle_alpha 90.000000
_cell_angle_beta 90.000000
_cell_angle_gamma 90.000000
_cell_volume 1597.898265
_symmetry_space_group_name_H-M "P M N 21"
_symmetry_group_IT_number 31
_symmetry_cell_setting 'orthorhombic'
loop_
_space_group_symop_operation_xyz
x,y,z
1/2-x,-y,1/2+z
-x,y,z
1/2+x,-y,1/2+z
loop_
_atom_site_type_symbol
_atom_site_label
_atom_site_fract_x
_atom_site_fract_y
_atom_site_fract_z
Si Si1 0.331841 0.014204 0.337640
Si Si2 0.325707 0.402967 0.227623
Si Si3 0.337555 0.302506 0.920057
Si Si4 0.834683 0.441297 0.413949
Si Si5 0.330241 0.826238 0.709336
Si Si6 0.329824 0.612173 0.107212
Si Si7 0.666526 0.778033 0.255636
Si Si8 0.332380 0.883548 0.512479
O O1 0.500000 0.052568 0.336449
O O2 0.305503 0.910085 0.268439
O O3 0.280417 0.981224 0.441376
O O4 0.233667 0.115310 0.300168
O O5 0.500000 0.391798 0.225905
O O6 0.274285 0.419703 0.331548
O O7 0.253908 0.289214 0.189383
O O8 0.267245 0.507698 0.166917
O O9 0.500000 0.253091 0.915914
O O10 0.250035 0.232078 0.994353
O O11 0.336904 0.431052 0.948842
O O12 0.267715 0.294418 0.820739
O O13 0.770035 0.377703 0.503598
O O14 0.000000 0.403392 0.387087
O O15 0.500000 0.801315 0.726221
O O16 0.309575 0.908572 0.620350
O O17 0.500000 0.588891 0.098909
O O18 0.295806 0.732842 0.154278
O O19 0.500000 0.748478 0.280272
O O20 0.500000 0.861130 0.488463
#
# Coordination Sequence:
#
# PCOD8169699 Si02
#       8
#     4   4   4   4   4   4   4   4
#     4   9  19  37  60  83 110 145 190 239 284 339
#     4  11  22  38  60  85 117 156 192 231 282 344
#     4  10  18  29  52  83 115 146 185 237 278 322
#     4  10  20  34  52  81 119 153 188 232 280 335
#     4  11  23  40  60  84 116 152 190 239 290 338
#     4   9  18  34  57  82 113 152 189 227 280 340
#     4   9  17  34  57  78 106 144 187 231 280 336
#     4   9  20  38  60  84 112 150 193 236 286 340
#
# _framework density 20.026305000000001
#
# number of rings (size 3 to 8) (size 9 to 14) (size 15 to 20)
#    0.000    2.250    1.250    2.625    0.000    4.500 
#    2.250    1.875    0.000    0.000    0.000    0.000 
#    0.000    0.000    0.000    0.000    0.000    0.000 
#
# Total GULP energy -396595.735358 kJ/mol
# GULP energy per Si atom -12393.616730 kJ/mol
# Density = 1.998072 g / cm^3
# Si number density = 20.026305 Si / 1000 Ang^3
#
#
#
# Elastic Constant Matrix: (Units=GPa)
#
#
# Indices 1 2 3 4 5 6 
#
# 1 65.6420 13.1908 20.2422 0.0000 0.0000 0.0000
# 2 13.1908 38.7662 7.8486 0.0000 0.0000 0.0000
# 3 20.2422 7.8486 96.6640 0.0000 0.0000 0.0000
# 4 0.0000 0.0000 0.0000 26.8939 0.0000 0.0000
# 5 0.0000 0.0000 0.0000 0.0000 25.1063 0.0000
# 6 0.0000 0.0000 0.0000 0.0000 0.0000 25.1357
#
#
#
# Elastic Compliance Matrix: (Units=1/GPa)
#
#
# Indices 1 2 3 4 5 6 
#
# 1 0.017269 -0.005230 -0.003192 0.000000 0.000000 0.000000
# 2 -0.005230 0.027811 -0.001163 0.000000 0.000000 0.000000
# 3 -0.003192 -0.001163 0.011108 0.000000 0.000000 0.000000
# 4 0.000000 0.000000 0.000000 0.037183 0.000000 0.000000
# 5 0.000000 0.000000 0.000000 0.000000 0.039831 0.000000
# 6 0.000000 0.000000 0.000000 0.000000 0.000000 0.039784
#
#
# Mechanical properties :
#
#
# Convention : Reuss Voigt Hill
#
# Bulk Modulus (GPa) = 27.01330 31.51507 29.26418
# Shear Modulus (GPa) = 24.45055 26.07991 25.26523
#
# Velocity S-wave (km/s) = 3.49796 3.61263 3.55576
# Velocity P-wave (km/s) = 5.46191 5.75955 5.61271
#
# Compressibility (1/GPa) = 0.03701881
#
# Stress axis : x y z
#
# Youngs Moduli (GPa) = 57.90609 35.95741 90.02605
#
# Poissons Ratio (x) = 0.18806 0.28734
# Poissons Ratio (y) = 0.30285 0.10469
# Poissons Ratio (z) = 0.18482 0.04181
#
# Static dielectric constant tensor:
#      x y z
#    x 3.517160 0.000000 0.000000 
#    y 0.000000 3.425950 0.000000 
#    z 0.000000 0.000000 3.858970 
# 
# 
# High freq. dielectric constant tensor:
#      x y z
#    x 1.767710 0.000000 0.000000 
#    y 0.000000 1.762150 0.000000 
#    z 0.000000 0.000000 1.789220 
# 
# From -- ./inp_files/5083.got.cif
#   From: 2010.03.12/outbox.cif.g09.slc.cpg/sg31_3_cif.got.tgz:5083.got - 2010.04.14 01:42:59.
