data_PCOD8169760
_publ_section_title
;
Structure prediction by ZEFSAII (Michael W. Deem and Ramdas Pophale) SiO2 
 PCOD8169760
Probable space group: P M N 21
;
_chemical_formula_sum "Si O2"
_cell_formula_units_Z 32
_cell_length_a 14.876218
_cell_length_b 9.709433
_cell_length_c 11.547130
_cell_angle_alpha 90.000000
_cell_angle_beta 90.000000
_cell_angle_gamma 90.000000
_cell_volume 1667.863323
_symmetry_space_group_name_H-M "P M N 21"
_symmetry_group_IT_number 31
_symmetry_cell_setting 'orthorhombic'
loop_
_space_group_symop_operation_xyz
x,y,z
1/2-x,-y,1/2+z
-x,y,z
1/2+x,-y,1/2+z
loop_
_atom_site_type_symbol
_atom_site_label
_atom_site_fract_x
_atom_site_fract_y
_atom_site_fract_z
Si Si1 0.902415 0.723115 0.202590
Si Si2 0.904233 0.997580 0.065903
Si Si3 0.103320 0.529659 0.590779
Si Si4 0.897874 0.651128 0.833427
Si Si5 0.104124 0.805655 0.458826
Si Si6 0.238111 0.668397 0.038314
Si Si7 0.599176 0.036536 0.297276
Si Si8 0.283823 0.977144 0.093742
O O1 0.872016 0.787412 0.324054
O O2 0.822401 0.627792 0.152124
O O3 0.000000 0.647341 0.216586
O O4 0.913759 0.839700 0.104625
O O5 0.000000 0.072694 0.098886
O O6 0.811906 0.057400 0.119843
O O7 0.888525 0.006033 0.929089
O O8 0.114674 0.542865 0.729075
O O9 0.132311 0.670254 0.528388
O O10 0.168266 0.412240 0.541262
O O11 0.000000 0.491689 0.559402
O O12 0.885242 0.801626 0.778115
O O13 0.000000 0.638351 0.885300
O O14 0.821251 0.622561 0.928009
O O15 0.000000 0.839397 0.476826
O O16 0.157607 0.936988 0.504243
O O17 0.262279 0.830426 0.034953
O O18 0.500000 0.996225 0.254104
O O19 0.668376 0.953717 0.216684
#
# Coordination Sequence:
#
# PCOD8169760 Si02
#       8
#     4   4   4   4   4   4   4   4
#     4   9  18  34  56  84 113 145 190 236 282 340
#     4   9  19  33  51  79 117 150 183 231 283 334
#     4  10  23  41  58  83 120 156 193 236 286 348
#     4  10  19  39  65  84 110 157 206 234 274 352
#     4  10  21  37  58  82 114 154 189 230 284 350
#     4  11  23  34  60  90 116 143 189 248 296 329
#     4  10  18  34  57  82 108 147 196 234 269 331
#     4  11  21  32  59  88 116 142 194 235 288 336
#
# _framework density 19.186223999999999
#
# number of rings (size 3 to 8) (size 9 to 14) (size 15 to 20)
#    0.000    2.000    3.750    0.750    5.250    1.000 
#    0.000    0.000    0.000    2.250    0.000    0.000 
#    0.000    0.000    0.000    0.000    0.000    0.000 
#
# Total GULP energy -396480.984947 kJ/mol
# GULP energy per Si atom -12390.030780 kJ/mol
# Density = 1.914256 g / cm^3
# Si number density = 19.186224 Si / 1000 Ang^3
#
#
#
# Elastic Constant Matrix: (Units=GPa)
#
#
# Indices 1 2 3 4 5 6 
#
# 1 150.7726 44.0018 58.6040 0.0000 0.0000 0.0000
# 2 44.0018 49.2895 23.7601 0.0000 0.0000 0.0000
# 3 58.6040 23.7601 92.8748 0.0000 0.0000 0.0000
# 4 0.0000 0.0000 0.0000 17.4260 0.0000 0.0000
# 5 0.0000 0.0000 0.0000 0.0000 30.3728 0.0000
# 6 0.0000 0.0000 0.0000 0.0000 0.0000 27.1887
#
#
#
# Elastic Compliance Matrix: (Units=1/GPa)
#
#
# Indices 1 2 3 4 5 6 
#
# 1 0.010602 -0.007118 -0.004869 0.000000 0.000000 0.000000
# 2 -0.007118 0.027921 -0.002652 0.000000 0.000000 0.000000
# 3 -0.004869 -0.002652 0.014518 0.000000 0.000000 0.000000
# 4 0.000000 0.000000 0.000000 0.057386 0.000000 0.000000
# 5 0.000000 0.000000 0.000000 0.000000 0.032924 0.000000
# 6 0.000000 0.000000 0.000000 0.000000 0.000000 0.036780
#
#
# Mechanical properties :
#
#
# Convention : Reuss Voigt Hill
#
# Bulk Modulus (GPa) = 42.08050 60.62984 51.35517
# Shear Modulus (GPa) = 23.00655 26.10222 24.55439
#
# Velocity S-wave (km/s) = 3.46659 3.69245 3.58130
# Velocity P-wave (km/s) = 6.16468 7.06033 6.62765
#
# Compressibility (1/GPa) = 0.02376397
#
# Stress axis : x y z
#
# Youngs Moduli (GPa) = 94.31854 35.81568 68.88009
#
# Poissons Ratio (x) = 0.25493 0.33539
# Poissons Ratio (y) = 0.67134 0.18264
# Poissons Ratio (z) = 0.45925 0.09497
#
# Static dielectric constant tensor:
#      x y z
#    x 4.207680 0.000000 0.000000 
#    y 0.000000 2.958500 0.000000 
#    z 0.000000 0.000000 3.530920 
# 
# 
# High freq. dielectric constant tensor:
#      x y z
#    x 1.772880 0.000000 0.000000 
#    y 0.000000 1.681770 0.000000 
#    z 0.000000 0.000000 1.754180 
# 
# From -- ./inp_files/4300.got.cif
#   From: 2010.03.12/outbox.cif.g09.slc.cpg/sg31_3_cif.got.tgz:4300.got - 2010.04.14 01:42:59.
