data_PCOD8169218
_publ_section_title
;
Structure prediction by ZEFSAII (Michael W. Deem and Ramdas Pophale) SiO2 
 PCOD8169218
Probable space group: P C A 21
;
_chemical_formula_sum "Si O2"
_cell_formula_units_Z 24
_cell_length_a 9.077189
_cell_length_b 12.653628
_cell_length_c 8.655491
_cell_angle_alpha 90.000000
_cell_angle_beta 90.000000
_cell_angle_gamma 90.000000
_cell_volume 994.164268
_symmetry_space_group_name_H-M "P C A 21"
_symmetry_group_IT_number 29
_symmetry_cell_setting 'orthorhombic'
loop_
_space_group_symop_operation_xyz
x,y,z
-x,-y,1/2+z
1/2-x,y,1/2+z
1/2+x,-y,z
loop_
_atom_site_type_symbol
_atom_site_label
_atom_site_fract_x
_atom_site_fract_y
_atom_site_fract_z
Si Si1 0.316451 0.107092 0.583000
Si Si2 0.180823 0.766973 0.326402
Si Si3 0.859082 0.099368 0.118940
Si Si4 0.357845 0.566262 0.214335
Si Si5 0.643866 0.761465 0.806359
Si Si6 0.132723 0.434470 0.003516
O O1 0.470837 0.079693 0.666944
O O2 0.356240 0.131598 0.406278
O O3 0.248287 0.213299 0.661339
O O4 0.202422 0.012342 0.563537
O O5 0.158031 0.797945 0.505941
O O6 0.262364 0.871023 0.266188
O O7 0.277413 0.664565 0.293471
O O8 0.022988 0.742287 0.247290
O O9 0.250631 0.489681 0.115812
O O10 0.424517 0.508023 0.363807
O O11 0.490295 0.601990 0.102090
O O12 0.703447 0.665786 0.913512
#
# Coordination Sequence:
#
# PCOD8169218 Si02
#       6
#     4   4   4   4   4   4
#     4  11  24  42  66  98 133 173 224 279 344 419
#     4  11  24  44  67  95 133 176 226 280 344 411
#     4  11  24  42  67  97 132 175 224 281 345 417
#     4  12  25  45  71 103 143 188 239 298 359 428
#     4  11  24  43  65  96 133 175 225 281 344 417
#     4  12  25  44  70 103 142 187 238 295 360 428
#
# _framework density 24.140879000000002
#
# number of rings (size 3 to 8) (size 9 to 14) (size 15 to 20)
#    0.000    0.667    0.000    9.000    0.000    6.667 
#    0.000    0.000    0.000    0.000    0.000    0.000 
#    0.000    0.000    0.000    0.000    0.000    0.000 
#
# Total GULP energy -297505.528708 kJ/mol
# GULP energy per Si atom -12396.063696 kJ/mol
# Density = 2.408593 g / cm^3
# Si number density = 24.140879 Si / 1000 Ang^3
#
#
#
# Elastic Constant Matrix: (Units=GPa)
#
#
# Indices 1 2 3 4 5 6 
#
# 1 112.2650 36.6262 47.3037 0.0000 0.0000 0.0000
# 2 36.6262 108.4359 22.8088 0.0000 0.0000 0.0000
# 3 47.3037 22.8088 74.8398 0.0000 0.0000 0.0000
# 4 0.0000 0.0000 0.0000 45.5595 0.0000 0.0000
# 5 0.0000 0.0000 0.0000 0.0000 40.2623 0.0000
# 6 0.0000 0.0000 0.0000 0.0000 0.0000 42.4543
#
#
#
# Elastic Compliance Matrix: (Units=1/GPa)
#
#
# Indices 1 2 3 4 5 6 
#
# 1 0.012902 -0.002824 -0.007295 0.000000 0.000000 0.000000
# 2 -0.002824 0.010472 -0.001407 0.000000 0.000000 0.000000
# 3 -0.007295 -0.001407 0.018401 0.000000 0.000000 0.000000
# 4 0.000000 0.000000 0.000000 0.021949 0.000000 0.000000
# 5 0.000000 0.000000 0.000000 0.000000 0.024837 0.000000
# 6 0.000000 0.000000 0.000000 0.000000 0.000000 0.023555
#
#
# Mechanical properties :
#
#
# Convention : Reuss Voigt Hill
#
# Bulk Modulus (GPa) = 53.40336 56.55757 54.98047
# Shear Modulus (GPa) = 35.35866 38.24203 36.80035
#
# Velocity S-wave (km/s) = 3.83127 3.98442 3.90859
# Velocity P-wave (km/s) = 6.46073 6.68180 6.57219
#
# Compressibility (1/GPa) = 0.01872541
#
# Stress axis : x y z
#
# Youngs Moduli (GPa) = 77.50539 95.49585 54.34407
#
# Poissons Ratio (x) = 0.26964 0.39642
# Poissons Ratio (y) = 0.21885 0.07645
# Poissons Ratio (z) = 0.56537 0.13434
#
# Static dielectric constant tensor:
#      x y z
#    x 4.425920 0.000000 0.000000 
#    y 0.000000 4.305900 0.000000 
#    z 0.000000 0.000000 4.448740 
# 
# 
# High freq. dielectric constant tensor:
#      x y z
#    x 1.959490 0.000000 0.000000 
#    y 0.000000 1.971900 0.000000 
#    z 0.000000 0.000000 1.959690 
# 
# From -- ./inp_files/1128.got.cif
#   From: 2010.03.12/outbox.cif.g09.slc.cpg/sg29_1_cif.got.tgz:1128.got - 2010.04.14 03:43:10.
