data_PCOD8169940
_publ_section_title
;
Structure prediction by ZEFSAII (Michael W. Deem and Ramdas Pophale) SiO2 
 PCOD8169940
Probable space group: P M N 21
;
_chemical_formula_sum "Si O2"
_cell_formula_units_Z 32
_cell_length_a 9.093994
_cell_length_b 12.256222
_cell_length_c 14.511324
_cell_angle_alpha 90.000000
_cell_angle_beta 90.000000
_cell_angle_gamma 90.000000
_cell_volume 1617.403286
_symmetry_space_group_name_H-M "P M N 21"
_symmetry_group_IT_number 31
_symmetry_cell_setting 'orthorhombic'
loop_
_space_group_symop_operation_xyz
x,y,z
1/2-x,-y,1/2+z
-x,y,z
1/2+x,-y,1/2+z
loop_
_atom_site_type_symbol
_atom_site_label
_atom_site_fract_x
_atom_site_fract_y
_atom_site_fract_z
Si Si1 0.168976 0.613494 0.110310
Si Si2 0.326353 0.108676 0.989970
Si Si3 0.836634 0.188101 0.681722
Si Si4 0.826060 0.508204 0.294651
Si Si5 0.834136 0.288712 0.878358
Si Si6 0.173189 0.904568 0.891900
Si Si7 0.327880 0.047798 0.189462
Si Si8 0.830435 0.657428 0.910836
O O1 0.244624 0.728151 0.123755
O O2 0.221682 0.524494 0.186549
O O3 0.000000 0.635821 0.128486
O O4 0.198352 0.583743 0.003285
O O5 0.500000 0.108363 0.969034
O O6 0.253037 0.218666 0.953221
O O7 0.259452 0.997211 0.948333
O O8 0.292753 0.119097 0.099405
O O9 0.841702 0.214885 0.788878
O O10 0.000000 0.188470 0.639182
O O11 0.757030 0.071373 0.672762
O O12 0.751691 0.599717 0.358411
O O13 0.767074 0.391077 0.327967
O O14 0.000000 0.513713 0.307538
O O15 0.000000 0.316096 0.912935
O O16 0.229118 0.901137 0.785213
O O17 0.210886 0.783821 0.930276
O O18 0.000000 0.930575 0.899934
O O19 0.500000 0.028106 0.200959
O O20 0.000000 0.649945 0.880161
#
# Coordination Sequence:
#
# PCOD8169940 Si02
#       8
#     4   4   4   4   4   4   4   4
#     4   9  19  35  55  83 112 140 180 236 286 323
#     4  11  21  33  54  84 117 148 185 233 282 331
#     4   9  16  30  54  78 104 142 184 225 265 322
#     4  10  21  38  59  82 113 144 182 238 289 331
#     4  10  19  35  58  79 107 144 187 229 274 333
#     4  10  20  38  59  80 113 154 191 229 277 338
#     4   9  18  33  51  77 114 150 182 222 275 333
#     4  10  21  38  60  83 112 150 191 232 280 339
#
# _framework density 19.784799
#
# number of rings (size 3 to 8) (size 9 to 14) (size 15 to 20)
#    0.000    2.250    1.250    1.875    0.000    2.000 
#    2.250    1.875    0.000    0.000    0.000    0.000 
#    0.000    0.000    0.000    0.000    0.000    0.000 
#
# Total GULP energy -396586.962447 kJ/mol
# GULP energy per Si atom -12393.342576 kJ/mol
# Density = 1.973977 g / cm^3
# Si number density = 19.784799 Si / 1000 Ang^3
#
#
#
# Elastic Constant Matrix: (Units=GPa)
#
#
# Indices 1 2 3 4 5 6 
#
# 1 56.2268 16.7119 34.9911 0.0000 0.0000 0.0000
# 2 16.7119 36.4428 15.6557 0.0000 0.0000 0.0000
# 3 34.9911 15.6557 92.4568 0.0000 0.0000 0.0000
# 4 0.0000 0.0000 0.0000 26.2538 0.0000 0.0000
# 5 0.0000 0.0000 0.0000 0.0000 23.2467 0.0000
# 6 0.0000 0.0000 0.0000 0.0000 0.0000 31.7633
#
#
#
# Elastic Compliance Matrix: (Units=1/GPa)
#
#
# Indices 1 2 3 4 5 6 
#
# 1 0.025290 -0.008073 -0.008204 0.000000 0.000000 0.000000
# 2 -0.008073 0.032170 -0.002392 0.000000 0.000000 0.000000
# 3 -0.008204 -0.002392 0.014326 0.000000 0.000000 0.000000
# 4 0.000000 0.000000 0.000000 0.038090 0.000000 0.000000
# 5 0.000000 0.000000 0.000000 0.000000 0.043017 0.000000
# 6 0.000000 0.000000 0.000000 0.000000 0.000000 0.031483
#
#
# Mechanical properties :
#
#
# Convention : Reuss Voigt Hill
#
# Bulk Modulus (GPa) = 29.02977 35.53822 32.28399
# Shear Modulus (GPa) = 21.44111 24.10395 22.77253
#
# Velocity S-wave (km/s) = 3.29556 3.49421 3.39634
# Velocity P-wave (km/s) = 5.40236 5.85498 5.63322
#
# Compressibility (1/GPa) = 0.03444740
#
# Stress axis : x y z
#
# Youngs Moduli (GPa) = 39.54079 31.08489 69.80353
#
# Poissons Ratio (x) = 0.25095 0.57269
# Poissons Ratio (y) = 0.31921 0.16697
# Poissons Ratio (z) = 0.32441 0.07436
#
# Static dielectric constant tensor:
#      x y z
#    x 3.528610 0.000000 0.000000 
#    y 0.000000 3.446400 0.000000 
#    z 0.000000 0.000000 3.771780 
# 
# 
# High freq. dielectric constant tensor:
#      x y z
#    x 1.757700 0.000000 0.000000 
#    y 0.000000 1.759970 0.000000 
#    z 0.000000 0.000000 1.776010 
# 
# From -- ./inp_files/4976.got.cif
#   From: 2010.03.12/outbox.cif.g09.slc.cpg/sg31_3_cif.got.tgz:4976.got - 2010.04.14 01:42:59.
