data_PCOD8169202
_publ_section_title
;
Structure prediction by ZEFSAII (Michael W. Deem and Ramdas Pophale) SiO2 
 PCOD8169202
Probable space group: P C A 21
;
_chemical_formula_sum "Si O2"
_cell_formula_units_Z 24
_cell_length_a 9.455975
_cell_length_b 7.451148
_cell_length_c 16.672705
_cell_angle_alpha 90.000000
_cell_angle_beta 90.000000
_cell_angle_gamma 90.000000
_cell_volume 1174.723268
_symmetry_space_group_name_H-M "P C A 21"
_symmetry_group_IT_number 29
_symmetry_cell_setting 'orthorhombic'
loop_
_space_group_symop_operation_xyz
x,y,z
-x,-y,1/2+z
1/2-x,y,1/2+z
1/2+x,-y,z
loop_
_atom_site_type_symbol
_atom_site_label
_atom_site_fract_x
_atom_site_fract_y
_atom_site_fract_z
Si Si1 0.139386 0.941079 0.394270
Si Si2 0.385965 0.973350 0.505637
Si Si3 0.538191 0.376772 0.290259
Si Si4 0.991806 0.353796 0.605064
Si Si5 0.210772 0.353064 0.039731
Si Si6 0.728964 0.675019 0.356049
O O1 0.244853 0.887558 0.466829
O O2 0.129150 0.777702 0.332833
O O3 0.195989 0.114280 0.346288
O O4 0.986462 0.979400 0.431226
O O5 0.458336 0.838513 0.566828
O O6 0.349110 0.153549 0.554419
O O7 0.558017 0.351942 0.196009
O O8 0.600897 0.568442 0.315258
O O9 0.374434 0.372807 0.312767
O O10 0.913535 0.508057 0.555842
O O11 0.159275 0.389404 0.599726
O O12 0.265377 0.376223 0.949325
#
# Coordination Sequence:
#
# PCOD8169202 Si02
#       6
#     4   4   4   4   4   4
#     4  11  23  45  69  95 125 173 224 263 317 389
#     4  11  23  45  69  95 125 173 224 263 317 389
#     4  12  26  42  65 101 135 169 214 274 333 377
#     4  12  26  42  65 101 135 169 214 274 333 377
#     4  11  24  44  70  93 132 175 223 262 317 395
#     4  11  24  44  70  93 132 175 223 262 317 395
#
# _framework density 20.430342
#
# number of rings (size 3 to 8) (size 9 to 14) (size 15 to 20)
#    0.000    0.667    6.667    3.000    4.667    2.667 
#    0.000    0.000    0.000    0.000    0.000    0.000 
#    0.000    0.000    0.000    0.000    0.000    0.000 
#
# Total GULP energy -297775.032665 kJ/mol
# GULP energy per Si atom -12407.293028 kJ/mol
# Density = 2.038384 g / cm^3
# Si number density = 20.430342 Si / 1000 Ang^3
#
#
#
# Elastic Constant Matrix: (Units=GPa)
#
#
# Indices 1 2 3 4 5 6 
#
# 1 92.5243 31.2613 -9.6706 0.0000 0.0000 0.0000
# 2 31.2613 76.3219 16.7147 0.0000 0.0000 0.0000
# 3 -9.6706 16.7147 67.4934 0.0000 0.0000 0.0000
# 4 0.0000 0.0000 0.0000 13.5360 0.0000 0.0000
# 5 0.0000 0.0000 0.0000 0.0000 30.6110 0.0000
# 6 0.0000 0.0000 0.0000 0.0000 0.0000 35.2521
#
#
#
# Elastic Compliance Matrix: (Units=1/GPa)
#
#
# Indices 1 2 3 4 5 6 
#
# 1 0.013255 -0.006180 0.003430 0.000000 0.000000 0.000000
# 2 -0.006180 0.016735 -0.005030 0.000000 0.000000 0.000000
# 3 0.003430 -0.005030 0.016553 0.000000 0.000000 0.000000
# 4 0.000000 0.000000 0.000000 0.073877 0.000000 0.000000
# 5 0.000000 0.000000 0.000000 0.000000 0.032668 0.000000
# 6 0.000000 0.000000 0.000000 0.000000 0.000000 0.028367
#
#
# Mechanical properties :
#
#
# Convention : Reuss Voigt Hill
#
# Bulk Modulus (GPa) = 32.27657 34.77228 33.52443
# Shear Modulus (GPa) = 24.11453 29.08210 26.59831
#
# Velocity S-wave (km/s) = 3.43932 3.77699 3.61210
# Velocity P-wave (km/s) = 5.62179 6.00648 5.81731
#
# Compressibility (1/GPa) = 0.03098223
#
# Stress axis : x y z
#
# Youngs Moduli (GPa) = 75.44589 59.75371 60.41077
#
# Poissons Ratio (x) = 0.36929 -0.20719
# Poissons Ratio (y) = 0.46627 0.30387
# Poissons Ratio (z) = -0.25875 0.30056
#
# Static dielectric constant tensor:
#      x y z
#    x 3.913670 0.000000 0.000000 
#    y 0.000000 3.827510 0.000000 
#    z 0.000000 0.000000 3.553310 
# 
# 
# High freq. dielectric constant tensor:
#      x y z
#    x 1.817450 0.000000 0.000000 
#    y 0.000000 1.807500 0.000000 
#    z 0.000000 0.000000 1.785300 
# 
# From -- ./inp_files/4206.got.cif
#   From: 2010.03.12/outbox.cif.g09.slc.cpg/sg29_3_cif.got.tgz:4206.got - 2010.04.14 03:43:10.
