data_PCOD8169458
_publ_section_title
;
Structure prediction by ZEFSAII (Michael W. Deem and Ramdas Pophale) SiO2 
 PCOD8169458
Probable space group: P N C 2
;
_chemical_formula_sum "Si O2"
_cell_formula_units_Z 30
_cell_length_a 8.461190
_cell_length_b 11.688398
_cell_length_c 14.178474
_cell_angle_alpha 90.000000
_cell_angle_beta 90.000000
_cell_angle_gamma 90.000000
_cell_volume 1402.219266
_symmetry_space_group_name_H-M "P N C 2"
_symmetry_group_IT_number 30
_symmetry_cell_setting 'orthorhombic'
loop_
_space_group_symop_operation_xyz
x,y,z
-x,-y,z
-x,1/2+y,1/2+z
x,1/2-y,1/2+z
loop_
_atom_site_type_symbol
_atom_site_label
_atom_site_fract_x
_atom_site_fract_y
_atom_site_fract_z
Si Si1 0.826031 0.059243 0.200420
Si Si2 0.500000 0.500000 0.785502
Si Si3 0.566229 0.873526 0.001723
Si Si4 0.197815 0.183935 0.161873
Si Si5 0.947425 0.125862 0.647732
Si Si6 0.235309 0.784478 0.032810
Si Si7 0.204632 0.726305 0.317151
Si Si8 0.438064 0.241734 0.321630
O O1 0.845073 0.118711 0.098381
O O2 0.860798 0.148269 0.285834
O O3 0.642632 0.021542 0.212729
O O4 0.907278 0.928184 0.202602
O O5 0.534713 0.608898 0.852820
O O6 0.708468 0.871248 0.074969
O O7 0.424195 0.792373 0.035958
O O8 0.500000 0.000000 0.982090
O O9 0.633377 0.819319 0.904597
O O10 0.314973 0.242608 0.236186
O O11 0.087000 0.284363 0.126510
O O12 0.806764 0.160478 0.576214
O O13 0.890262 0.132084 0.756339
O O14 0.000000 0.000000 0.621376
O O15 0.169286 0.795844 0.926677
O O16 0.389733 0.710509 0.291739
#
# Coordination Sequence:
#
# PCOD8169458 Si02
#       8
#     4   2   4   4   4   4   4   4
#     4   9  16  34  61  89 116 154 209 243 303 355
#     4   8  14  32  58  88 130 158 184 256 290 368
#     4  11  21  39  66  99 125 154 210 268 311 375
#     4  11  22  39  65  93 125 167 209 261 306 379
#     4  11  26  46  57  84 136 171 207 256 317 376
#     4  10  20  40  64  91 127 164 206 256 314 370
#     4   9  20  39  64  90 122 166 205 257 316 369
#     4   9  20  36  64  99 123 157 205 258 318 368
#
# _framework density 21.394656999999999
#
# number of rings (size 3 to 8) (size 9 to 14) (size 15 to 20)
#    0.000    2.133    1.333    3.200    0.933    5.333 
#   14.400    1.333    0.000    0.000    0.000    0.000 
#    0.000    0.000    0.000    0.000    0.000    0.000 
#
# Total GULP energy -371849.959144 kJ/mol
# GULP energy per Si atom -12394.998638 kJ/mol
# Density = 2.134596 g / cm^3
# Si number density = 21.394657 Si / 1000 Ang^3
#
#
#
# Elastic Constant Matrix: (Units=GPa)
#
#
# Indices 1 2 3 4 5 6 
#
# 1 47.5774 44.5074 23.4255 0.0000 0.0000 0.0000
# 2 44.5074 138.9506 43.6745 0.0000 0.0000 0.0000
# 3 23.4255 43.6745 123.2978 0.0000 0.0000 0.0000
# 4 0.0000 0.0000 0.0000 29.1359 0.0000 0.0000
# 5 0.0000 0.0000 0.0000 0.0000 21.8375 0.0000
# 6 0.0000 0.0000 0.0000 0.0000 0.0000 34.7689
#
#
#
# Elastic Compliance Matrix: (Units=1/GPa)
#
#
# Indices 1 2 3 4 5 6 
#
# 1 0.030761 -0.009020 -0.002649 0.000000 0.000000 0.000000
# 2 -0.009020 0.010744 -0.002092 0.000000 0.000000 0.000000
# 3 -0.002649 -0.002092 0.009355 0.000000 0.000000 0.000000
# 4 0.000000 0.000000 0.000000 0.034322 0.000000 0.000000
# 5 0.000000 0.000000 0.000000 0.000000 0.045793 0.000000
# 6 0.000000 0.000000 0.000000 0.000000 0.000000 0.028761
#
#
# Mechanical properties :
#
#
# Convention : Reuss Voigt Hill
#
# Bulk Modulus (GPa) = 42.85093 59.22674 51.03883
# Shear Modulus (GPa) = 25.63613 30.36302 27.99958
#
# Velocity S-wave (km/s) = 3.46533 3.77130 3.62155
# Velocity P-wave (km/s) = 6.00696 6.83422 6.43390
#
# Compressibility (1/GPa) = 0.02333672
#
# Stress axis : x y z
#
# Youngs Moduli (GPa) = 32.50853 93.07830 106.89803
#
# Poissons Ratio (x) = 0.83961 0.28319
# Poissons Ratio (y) = 0.29324 0.22361
# Poissons Ratio (z) = 0.08612 0.19470
#
# Static dielectric constant tensor:
#      x y z
#    x 4.275580 0.000000 0.000000 
#    y 0.000000 4.088340 0.000000 
#    z 0.000000 0.000000 3.825640 
# 
# 
# High freq. dielectric constant tensor:
#      x y z
#    x 1.856640 0.000000 0.000000 
#    y 0.000000 1.837450 0.000000 
#    z 0.000000 0.000000 1.822820 
# 
# From -- ./inp_files/5189.got.cif
#   From: 2010.03.12/outbox.cif.g09.slc.cpg/sg30_3_cif.got.tgz:5189.got - 2010.04.14 01:38:02.
