data_PCOD8169811
_publ_section_title
;
Structure prediction by ZEFSAII (Michael W. Deem and Ramdas Pophale) SiO2 
 PCOD8169811
Probable space group: P M N 21
;
_chemical_formula_sum "Si O2"
_cell_formula_units_Z 32
_cell_length_a 9.044825
_cell_length_b 11.455117
_cell_length_c 17.577761
_cell_angle_alpha 90.000000
_cell_angle_beta 90.000000
_cell_angle_gamma 90.000000
_cell_volume 1821.223531
_symmetry_space_group_name_H-M "P M N 21"
_symmetry_group_IT_number 31
_symmetry_cell_setting 'orthorhombic'
loop_
_space_group_symop_operation_xyz
x,y,z
1/2-x,-y,1/2+z
-x,y,z
1/2+x,-y,1/2+z
loop_
_atom_site_type_symbol
_atom_site_label
_atom_site_fract_x
_atom_site_fract_y
_atom_site_fract_z
Si Si1 0.173296 0.627423 0.563300
Si Si2 0.834706 0.164130 0.996599
Si Si3 0.327557 0.719136 0.875132
Si Si4 0.162688 0.058563 0.164240
Si Si5 0.329600 0.392734 0.519163
Si Si6 0.167620 0.847934 0.078805
Si Si7 0.328545 0.262805 0.224964
Si Si8 0.168884 0.042885 0.444056
O O1 0.241783 0.716706 0.502011
O O2 0.240910 0.501186 0.551226
O O3 0.211359 0.665844 0.649177
O O4 0.000000 0.623444 0.548992
O O5 0.831666 0.099856 0.077116
O O6 0.000000 0.196058 0.970688
O O7 0.765078 0.075268 0.934001
O O8 0.500000 0.686506 0.882184
O O9 0.263908 0.679684 0.793509
O O10 0.303009 0.860010 0.878951
O O11 0.238107 0.651036 0.939795
O O12 0.283591 0.126685 0.213517
O O13 0.000000 0.084476 0.199241
O O14 0.191733 0.917561 0.159283
O O15 0.500000 0.426908 0.505276
O O16 0.315657 0.292081 0.584329
O O17 0.000000 0.876550 0.048801
O O18 0.292612 0.891836 0.021876
O O19 0.500000 0.267721 0.245400
O O20 0.000000 0.002469 0.446683
#
# Coordination Sequence:
#
# PCOD8169811 Si02
#       8
#     4   4   4   4   4   4   4   4
#     4  10  20  33  49  72 101 132 170 213 252 294
#     4   9  16  27  45  68  93 122 154 191 235 282
#     4  10  20  33  50  72  99 130 163 204 254 305
#     4   8  14  26  44  66  92 119 148 185 233 287
#     4  10  19  32  51  74 100 131 170 212 251 297
#     4   8  15  27  44  67  93 121 152 188 231 281
#     4  10  20  32  48  71  98 128 163 206 253 301
#     4   9  16  26  43  68  94 119 148 187 237 287
#
# _framework density 17.570603999999999
#
# number of rings (size 3 to 8) (size 9 to 14) (size 15 to 20)
#    0.000    2.750    0.000    3.000    0.000    6.500 
#    0.000    0.000    0.000    1.500    0.000    1.750 
#    0.000    0.000    0.000    0.000    0.000    0.000 
#
# Total GULP energy -396532.443350 kJ/mol
# GULP energy per Si atom -12391.638855 kJ/mol
# Density = 1.753061 g / cm^3
# Si number density = 17.570604 Si / 1000 Ang^3
#
#
#
# Elastic Constant Matrix: (Units=GPa)
#
#
# Indices 1 2 3 4 5 6 
#
# 1 105.3486 53.0357 36.4026 0.0000 0.0000 0.0000
# 2 53.0357 116.0933 31.3688 0.0000 0.0000 0.0000
# 3 36.4026 31.3688 46.6466 0.0000 0.0000 0.0000
# 4 0.0000 0.0000 0.0000 14.8797 0.0000 0.0000
# 5 0.0000 0.0000 0.0000 0.0000 22.4606 0.0000
# 6 0.0000 0.0000 0.0000 0.0000 0.0000 32.2641
#
#
#
# Elastic Compliance Matrix: (Units=1/GPa)
#
#
# Indices 1 2 3 4 5 6 
#
# 1 0.014629 -0.004397 -0.008459 0.000000 0.000000 0.000000
# 2 -0.004397 0.011848 -0.004536 0.000000 0.000000 0.000000
# 3 -0.008459 -0.004536 0.031090 0.000000 0.000000 0.000000
# 4 0.000000 0.000000 0.000000 0.067206 0.000000 0.000000
# 5 0.000000 0.000000 0.000000 0.000000 0.044522 0.000000
# 6 0.000000 0.000000 0.000000 0.000000 0.000000 0.030994
#
#
# Mechanical properties :
#
#
# Convention : Reuss Voigt Hill
#
# Bulk Modulus (GPa) = 43.89483 56.63363 50.26423
# Shear Modulus (GPa) = 20.60421 23.73964 22.17193
#
# Velocity S-wave (km/s) = 3.42812 3.67972 3.55614
# Velocity P-wave (km/s) = 6.38009 7.09618 6.74764
#
# Compressibility (1/GPa) = 0.02278173
#
# Stress axis : x y z
#
# Youngs Moduli (GPa) = 68.35674 84.40025 32.16499
#
# Poissons Ratio (x) = 0.37114 0.27209
# Poissons Ratio (y) = 0.30059 0.14590
# Poissons Ratio (z) = 0.57825 0.38284
#
# Static dielectric constant tensor:
#      x y z
#    x 3.395850 0.000000 0.000000 
#    y 0.000000 3.407680 0.000000 
#    z 0.000000 0.000000 2.941050 
# 
# 
# High freq. dielectric constant tensor:
#      x y z
#    x 1.694930 0.000000 0.000000 
#    y 0.000000 1.672760 0.000000 
#    z 0.000000 0.000000 1.630680 
# 
# From -- ./inp_files/5919.got.cif
#   From: 2010.03.12/outbox.cif.g09.slc.cpg/sg31_3_cif.got.tgz:5919.got - 2010.04.14 01:42:59.
