data_PCOD8169430
_publ_section_title
;
Structure prediction by ZEFSAII (Michael W. Deem and Ramdas Pophale) SiO2 
 PCOD8169430
Probable space group: P N C 2
;
_chemical_formula_sum "Si O2"
_cell_formula_units_Z 28
_cell_length_a 9.009259
_cell_length_b 28.653911
_cell_length_c 5.141390
_cell_angle_alpha 90.000000
_cell_angle_beta 90.000000
_cell_angle_gamma 90.000000
_cell_volume 1327.252428
_symmetry_space_group_name_H-M "P N C 2"
_symmetry_group_IT_number 30
_symmetry_cell_setting 'orthorhombic'
loop_
_space_group_symop_operation_xyz
x,y,z
-x,-y,z
-x,1/2+y,1/2+z
x,1/2-y,1/2+z
loop_
_atom_site_type_symbol
_atom_site_label
_atom_site_fract_x
_atom_site_fract_y
_atom_site_fract_z
Si Si1 0.000000 0.500000 0.782220
Si Si2 0.500000 0.500000 0.782221
Si Si3 0.173194 0.273716 0.326808
Si Si4 0.245515 0.565561 0.659470
Si Si5 0.168925 0.380319 0.373264
Si Si6 0.826806 0.273716 0.237633
Si Si7 0.245515 0.065561 0.404971
Si Si8 0.831075 0.380319 0.191177
O O1 0.105052 0.531948 0.600233
O O2 0.105052 0.468052 0.964208
O O3 0.392941 0.534582 0.624342
O O4 0.607059 0.534582 0.940099
O O5 0.244334 0.240066 0.548512
O O6 0.204549 0.326248 0.420047
O O7 0.000000 0.263993 0.282220
O O8 0.266449 0.603553 0.435598
O O9 0.216083 0.590217 0.937924
O O10 0.216083 0.409783 0.626517
O O11 0.000000 0.387396 0.282221
O O12 0.266449 0.396447 0.128843
O O13 0.755666 0.259934 0.515929
O O14 0.795451 0.326248 0.144394
#
# Coordination Sequence:
#
# PCOD8169430 Si02
#       8
#     2   2   4   4   4   4   4   4
#     4  10  20  36  56  80 104 144 184 244 288 312
#     4  10  28  44  56  84 116 156 204 228 300 336
#     4   9  17  29  49  81 121 148 173 224 288 344
#     4  11  23  38  59  82 116 153 191 246 279 346
#     4  11  20  35  59  89 115 150 194 234 288 339
#     4   9  17  29  49  81 121 148 173 224 288 344
#     4  11  23  38  59  82 116 153 191 246 279 346
#     4  11  20  35  59  89 115 150 194 234 288 339
#
# _framework density 21.096214
#
# number of rings (size 3 to 8) (size 9 to 14) (size 15 to 20)
#    0.000    1.714    2.857    1.714    0.000   12.571 
#    0.000    0.000    0.000    0.000    0.000   20.000 
#    0.000    0.000    0.000    0.000    0.000    0.000 
#
# Total GULP energy -346878.288559 kJ/mol
# GULP energy per Si atom -12388.510306 kJ/mol
# Density = 2.104820 g / cm^3
# Si number density = 21.096214 Si / 1000 Ang^3
#
#
#
# Elastic Constant Matrix: (Units=GPa)
#
#
# Indices 1 2 3 4 5 6 
#
# 1 78.9243 37.4801 22.7350 0.0000 0.0000 0.0000
# 2 37.4801 122.0900 67.7240 0.0000 0.0000 0.0000
# 3 22.7350 67.7240 159.4801 0.0000 0.0000 0.0000
# 4 0.0000 0.0000 0.0000 -6.6489 0.0000 0.0000
# 5 0.0000 0.0000 0.0000 0.0000 9.4865 0.0000
# 6 0.0000 0.0000 0.0000 0.0000 0.0000 22.8572
#
#
#
# Elastic Compliance Matrix: (Units=1/GPa)
#
#
# Indices 1 2 3 4 5 6 
#
# 1 0.014840 -0.004424 -0.000237 0.000000 0.000000 0.000000
# 2 -0.004424 0.012034 -0.004479 0.000000 0.000000 0.000000
# 3 -0.000237 -0.004479 0.008206 0.000000 0.000000 0.000000
# 4 0.000000 0.000000 0.000000 -0.150401 0.000000 0.000000
# 5 0.000000 0.000000 0.000000 0.000000 0.105413 0.000000
# 6 0.000000 0.000000 0.000000 0.000000 0.000000 0.043750
#
#
# Mechanical properties :
#
#
# Convention : Reuss Voigt Hill
#
# Bulk Modulus (GPa) = 59.52825 68.48586 64.00705
# Shear Modulus (GPa) = 86.62271 20.64265 53.63268
#
# Velocity S-wave (km/s) = 6.41482 3.13149 5.04758
# Velocity P-wave (km/s) = 9.11841 6.75345 8.02354
#
# Compressibility (1/GPa) = 0.01679875
#
# Stress axis : x y z
#
# Youngs Moduli (GPa) = 67.38738 83.10035 121.85712
#
# Poissons Ratio (x) = 0.36766 0.02884
# Poissons Ratio (y) = 0.29814 0.54585
# Poissons Ratio (z) = 0.01595 0.37224
#
# Static dielectric constant tensor:
#      x y z
#    x 3.596860 0.000000 0.000000 
#    y 0.000000 3.958300 0.000000 
#    z 0.000000 0.000000 3.837610 
# 
# 
# High freq. dielectric constant tensor:
#      x y z
#    x 1.774990 0.000000 0.000000 
#    y 0.000000 1.846070 0.000000 
#    z 0.000000 0.000000 1.825560 
# 
# From -- ./inp_files/535.got.cif
#   From: 2010.03.12/outbox.cif.g09.slc.cpg/sg30_1_cif.got.tgz:535.got - 2010.04.14 01:38:02.
