data_PCOD8169958
_publ_section_title
;
Structure prediction by ZEFSAII (Michael W. Deem and Ramdas Pophale) SiO2 
 PCOD8169958
Probable space group: P M N 21
;
_chemical_formula_sum "Si O2"
_cell_formula_units_Z 16
_cell_length_a 18.701034
_cell_length_b 8.776763
_cell_length_c 4.979663
_cell_angle_alpha 90.000000
_cell_angle_beta 90.000000
_cell_angle_gamma 90.000000
_cell_volume 817.334712
_symmetry_space_group_name_H-M "P M N 21"
_symmetry_group_IT_number 31
_symmetry_cell_setting 'orthorhombic'
loop_
_space_group_symop_operation_xyz
x,y,z
1/2-x,-y,1/2+z
-x,y,z
1/2+x,-y,1/2+z
loop_
_atom_site_type_symbol
_atom_site_label
_atom_site_fract_x
_atom_site_fract_y
_atom_site_fract_z
Si Si1 0.079892 0.929430 0.960600
Si Si2 0.279792 0.919947 0.560057
Si Si3 0.580341 0.275125 0.961786
Si Si4 0.724089 0.414250 0.051404
O O1 0.094747 0.865106 0.663759
O O2 0.000000 0.997310 0.985916
O O3 0.090577 0.788068 0.162492
O O4 0.134678 0.065425 0.023264
O O5 0.257485 0.749733 0.486712
O O6 0.240780 0.039794 0.364229
O O7 0.500000 0.341057 0.003752
O O8 0.638059 0.408240 0.012975
O O9 0.741921 0.461510 0.354107
#
# Coordination Sequence:
#
# PCOD8169958 Si02
#       4
#     4   4   4   4
#     4  10  19  35  60  89 112 147 201 251 287 335
#     4  12  21  38  62  86 117 152 202 243 290 342
#     4  10  20  37  60  85 115 153 199 239 289 354
#     4  12  24  38  58  90 124 156 194 239 298 353
#
# _framework density 19.575821999999999
#
# number of rings (size 3 to 8) (size 9 to 14) (size 15 to 20)
#    0.000    1.000    5.000    3.000    0.000    0.000 
#    0.000    2.500    0.000    0.000    0.000    0.000 
#    0.000    0.000    0.000    0.000    0.000    0.000 
#
# Total GULP energy -198476.561595 kJ/mol
# GULP energy per Si atom -12404.785100 kJ/mol
# Density = 1.953127 g / cm^3
# Si number density = 19.575822 Si / 1000 Ang^3
#
#
#
# Elastic Constant Matrix: (Units=GPa)
#
#
# Indices 1 2 3 4 5 6 
#
# 1 139.1425 44.5679 10.6951 0.0000 0.0000 0.0000
# 2 44.5679 60.3277 6.7884 0.0000 0.0000 0.0000
# 3 10.6951 6.7884 72.4035 0.0000 0.0000 0.0000
# 4 0.0000 0.0000 0.0000 28.3750 0.0000 0.0000
# 5 0.0000 0.0000 0.0000 0.0000 29.4287 0.0000
# 6 0.0000 0.0000 0.0000 0.0000 0.0000 34.3680
#
#
#
# Elastic Compliance Matrix: (Units=1/GPa)
#
#
# Indices 1 2 3 4 5 6 
#
# 1 0.009455 -0.006900 -0.000750 0.000000 0.000000 0.000000
# 2 -0.006900 0.021789 -0.001024 0.000000 0.000000 0.000000
# 3 -0.000750 -0.001024 0.014018 0.000000 0.000000 0.000000
# 4 0.000000 0.000000 0.000000 0.035242 0.000000 0.000000
# 5 0.000000 0.000000 0.000000 0.000000 0.033980 0.000000
# 6 0.000000 0.000000 0.000000 0.000000 0.000000 0.029097
#
#
# Mechanical properties :
#
#
# Convention : Reuss Voigt Hill
#
# Bulk Modulus (GPa) = 35.82349 43.99739 39.91044
# Shear Modulus (GPa) = 29.37136 32.42249 30.89693
#
# Velocity S-wave (km/s) = 3.87769 4.07412 3.97712
# Velocity P-wave (km/s) = 6.19582 6.68247 6.44374
#
# Compressibility (1/GPa) = 0.02791465
#
# Stress axis : x y z
#
# Youngs Moduli (GPa) = 105.76704 45.89449 71.33586
#
# Poissons Ratio (x) = 0.31669 0.05348
# Poissons Ratio (y) = 0.72984 0.07302
# Poissons Ratio (z) = 0.07929 0.04698
#
# Static dielectric constant tensor:
#      x y z
#    x 4.005210 0.000000 0.000000 
#    y 0.000000 3.097180 0.000000 
#    z 0.000000 0.000000 3.686210 
# 
# 
# High freq. dielectric constant tensor:
#      x y z
#    x 1.783410 0.000000 0.000000 
#    y 0.000000 1.709270 0.000000 
#    z 0.000000 0.000000 1.785280 
# 
# From -- ./inp_files/722.got.cif
#   From: 2010.03.12/outbox.cif.g09.slc.cpg/sg31_1_cif.got.tgz:722.got - 2010.04.14 01:42:59.
