data_PCOD8169797
_publ_section_title
;
Structure prediction by ZEFSAII (Michael W. Deem and Ramdas Pophale) SiO2 
 PCOD8169797
Probable space group: P M N 21
;
_chemical_formula_sum "Si O2"
_cell_formula_units_Z 32
_cell_length_a 9.054963
_cell_length_b 10.279965
_cell_length_c 19.261386
_cell_angle_alpha 90.000000
_cell_angle_beta 90.000000
_cell_angle_gamma 90.000000
_cell_volume 1792.940390
_symmetry_space_group_name_H-M "P M N 21"
_symmetry_group_IT_number 31
_symmetry_cell_setting 'orthorhombic'
loop_
_space_group_symop_operation_xyz
x,y,z
1/2-x,-y,1/2+z
-x,y,z
1/2+x,-y,1/2+z
loop_
_atom_site_type_symbol
_atom_site_label
_atom_site_fract_x
_atom_site_fract_y
_atom_site_fract_z
Si Si1 0.327527 0.759229 0.798640
Si Si2 0.673022 0.767790 0.951261
Si Si3 0.329965 0.508823 0.307448
Si Si4 0.670705 0.872685 0.655808
Si Si5 0.331120 0.615021 0.160024
Si Si6 0.173225 0.117479 0.590877
Si Si7 0.824894 0.528803 0.445224
Si Si8 0.326148 0.609761 0.578605
O O1 0.500000 0.718127 0.797705
O O2 0.285880 0.820785 0.874146
O O3 0.233904 0.630407 0.784928
O O4 0.293260 0.863047 0.738253
O O5 0.500000 0.766206 0.962801
O O6 0.727933 0.619385 0.958825
O O7 0.739613 0.856705 0.013002
O O8 0.500000 0.491478 0.329125
O O9 0.312611 0.605711 0.242663
O O10 0.239476 0.572374 0.370839
O O11 0.500000 0.900661 0.643209
O O12 0.719154 0.738304 0.620425
O O13 0.758652 0.989351 0.622618
O O14 0.500000 0.585451 0.137003
O O15 0.285188 0.760352 0.138976
O O16 0.225531 0.514852 0.121455
O O17 0.000000 0.094255 0.588091
O O18 0.755316 0.618654 0.504614
O O19 0.000000 0.545212 0.444283
O O20 0.500000 0.600162 0.566703
#
# Coordination Sequence:
#
# PCOD8169797 Si02
#       8
#     4   4   4   4   4   4   4   4
#     4   9  17  33  54  76 106 142 179 221 275 328
#     4   8  15  30  54  77 100 134 175 222 265 318
#     4  10  19  31  52  83 114 140 178 227 276 326
#     4  10  22  37  52  78 113 146 181 228 278 324
#     4  10  20  35  55  81 112 143 179 225 275 326
#     4  10  20  36  55  78 107 144 186 222 270 329
#     4  10  19  34  55  79 111 144 181 226 279 328
#     4  11  21  34  55  82 111 141 181 227 276 325
#
# _framework density 17.847778000000002
#
# number of rings (size 3 to 8) (size 9 to 14) (size 15 to 20)
#    0.000    2.250    2.500    1.875    0.000    2.500 
#    0.000    1.875    0.000    3.000    0.000    0.000 
#    0.000    0.000    0.000    0.000    0.000    0.000 
#
# Total GULP energy -396739.015175 kJ/mol
# GULP energy per Si atom -12398.094224 kJ/mol
# Density = 1.780716 g / cm^3
# Si number density = 17.847778 Si / 1000 Ang^3
#
#
#
# Elastic Constant Matrix: (Units=GPa)
#
#
# Indices 1 2 3 4 5 6 
#
# 1 71.0163 42.8612 53.3256 0.0000 0.0000 0.0000
# 2 42.8612 82.3329 60.7697 0.0000 0.0000 0.0000
# 3 53.3256 60.7697 156.4579 0.0000 0.0000 0.0000
# 4 0.0000 0.0000 0.0000 26.6330 0.0000 0.0000
# 5 0.0000 0.0000 0.0000 0.0000 29.6572 0.0000
# 6 0.0000 0.0000 0.0000 0.0000 0.0000 26.5144
#
#
#
# Elastic Compliance Matrix: (Units=1/GPa)
#
#
# Indices 1 2 3 4 5 6 
#
# 1 0.022478 -0.008477 -0.004369 0.000000 0.000000 0.000000
# 2 -0.008477 0.020224 -0.004966 0.000000 0.000000 0.000000
# 3 -0.004369 -0.004966 0.009809 0.000000 0.000000 0.000000
# 4 0.000000 0.000000 0.000000 0.037547 0.000000 0.000000
# 5 0.000000 0.000000 0.000000 0.000000 0.033719 0.000000
# 6 0.000000 0.000000 0.000000 0.000000 0.000000 0.037715
#
#
# Mechanical properties :
#
#
# Convention : Reuss Voigt Hill
#
# Bulk Modulus (GPa) = 59.21381 69.30224 64.25803
# Shear Modulus (GPa) = 24.66141 26.75094 25.70618
#
# Velocity S-wave (km/s) = 3.72124 3.87568 3.79925
# Velocity P-wave (km/s) = 7.19115 7.67736 7.43823
#
# Compressibility (1/GPa) = 0.01688795
#
# Stress axis : x y z
#
# Youngs Moduli (GPa) = 44.48812 49.44542 101.94440
#
# Poissons Ratio (x) = 0.41916 0.44535
# Poissons Ratio (y) = 0.37714 0.50626
# Poissons Ratio (z) = 0.19435 0.24555
#
# Static dielectric constant tensor:
#      x y z
#    x 3.223160 0.000000 0.000000 
#    y 0.000000 3.054260 0.000000 
#    z 0.000000 0.000000 3.756310 
# 
# 
# High freq. dielectric constant tensor:
#      x y z
#    x 1.682850 0.000000 0.000000 
#    y 0.000000 1.654860 0.000000 
#    z 0.000000 0.000000 1.713930 
# 
# From -- ./inp_files/5839.got.cif
#   From: 2010.03.12/outbox.cif.g09.slc.cpg/sg31_3_cif.got.tgz:5839.got - 2010.04.14 01:42:59.
