data_PCOD8169964
_publ_section_title
;
Structure prediction by ZEFSAII (Michael W. Deem and Ramdas Pophale) SiO2 
 PCOD8169964
Probable space group: P M N 21
;
_chemical_formula_sum "Si O2"
_cell_formula_units_Z 24
_cell_length_a 15.973409
_cell_length_b 8.637410
_cell_length_c 8.896919
_cell_angle_alpha 90.000000
_cell_angle_beta 90.000000
_cell_angle_gamma 90.000000
_cell_volume 1227.497973
_symmetry_space_group_name_H-M "P M N 21"
_symmetry_group_IT_number 31
_symmetry_cell_setting 'orthorhombic'
loop_
_space_group_symop_operation_xyz
x,y,z
1/2-x,-y,1/2+z
-x,y,z
1/2+x,-y,1/2+z
loop_
_atom_site_type_symbol
_atom_site_label
_atom_site_fract_x
_atom_site_fract_y
_atom_site_fract_z
Si Si1 0.594620 0.774003 0.546650
Si Si2 0.235898 0.849596 0.406068
Si Si3 0.752895 0.666735 0.108485
Si Si4 0.184688 0.657708 0.665359
Si Si5 0.680856 0.818495 0.841443
Si Si6 0.907738 0.574898 0.938558
O O1 0.500000 0.833586 0.507725
O O2 0.670894 0.876443 0.478411
O O3 0.603744 0.778223 0.729252
O O4 0.607907 0.604947 0.474990
O O5 0.250532 0.790622 0.239157
O O6 0.176763 0.725064 0.496289
O O7 0.182082 0.005825 0.400648
O O8 0.742761 0.493882 0.168184
O O9 0.679446 0.706354 0.987718
O O10 0.843370 0.680545 0.029919
O O11 0.232750 0.793625 0.752393
O O12 0.101489 0.610180 0.758266
O O13 0.000000 0.624898 0.988384
#
# Coordination Sequence:
#
# PCOD8169964 Si02
#       6
#     4   4   4   4   4   4
#     4  10  20  38  59  85 116 152 201 248 296 347
#     4  11  20  36  60  87 117 156 195 238 293 358
#     4  11  18  35  61  84 114 149 199 238 286 351
#     4  10  19  36  56  83 113 152 198 238 282 350
#     4  10  21  35  56  87 117 155 195 236 291 358
#     4  10  20  36  58  86 113 148 196 254 296 332
#
# _framework density 19.551966
#
# number of rings (size 3 to 8) (size 9 to 14) (size 15 to 20)
#    0.000    1.667    5.000    3.000    0.000    0.000 
#    0.000   10.833    0.000    0.000    0.000    0.000 
#    0.000    0.000    0.000    0.000    0.000    0.000 
#
# Total GULP energy -297341.655762 kJ/mol
# GULP energy per Si atom -12389.235657 kJ/mol
# Density = 1.950747 g / cm^3
# Si number density = 19.551966 Si / 1000 Ang^3
#
#
#
# Elastic Constant Matrix: (Units=GPa)
#
#
# Indices 1 2 3 4 5 6 
#
# 1 78.1924 19.8526 29.0657 0.0000 0.0000 0.0000
# 2 19.8526 71.0158 18.8633 0.0000 0.0000 0.0000
# 3 29.0657 18.8633 94.6112 0.0000 0.0000 0.0000
# 4 0.0000 0.0000 0.0000 36.3797 0.0000 0.0000
# 5 0.0000 0.0000 0.0000 0.0000 23.6955 0.0000
# 6 0.0000 0.0000 0.0000 0.0000 0.0000 10.9490
#
#
#
# Elastic Compliance Matrix: (Units=1/GPa)
#
#
# Indices 1 2 3 4 5 6 
#
# 1 0.015077 -0.003151 -0.004004 0.000000 0.000000 0.000000
# 2 -0.003151 0.015528 -0.002128 0.000000 0.000000 0.000000
# 3 -0.004004 -0.002128 0.012224 0.000000 0.000000 0.000000
# 4 0.000000 0.000000 0.000000 0.027488 0.000000 0.000000
# 5 0.000000 0.000000 0.000000 0.000000 0.042202 0.000000
# 6 0.000000 0.000000 0.000000 0.000000 0.000000 0.091332
#
#
# Mechanical properties :
#
#
# Convention : Reuss Voigt Hill
#
# Bulk Modulus (GPa) = 41.21480 42.15362 41.68421
# Shear Modulus (GPa) = 21.69159 25.94068 23.81614
#
# Velocity S-wave (km/s) = 3.33443 3.64642 3.49391
# Velocity P-wave (km/s) = 5.99583 6.27177 6.13535
#
# Compressibility (1/GPa) = 0.02426313
#
# Stress axis : x y z
#
# Youngs Moduli (GPa) = 66.32472 64.40174 81.80805
#
# Poissons Ratio (x) = 0.20296 0.32753
# Poissons Ratio (y) = 0.20902 0.17406
# Poissons Ratio (z) = 0.26554 0.13703
#
# Static dielectric constant tensor:
#      x y z
#    x 3.351090 0.000000 0.000000 
#    y 0.000000 3.390330 0.000000 
#    z 0.000000 0.000000 3.947100 
# 
# 
# High freq. dielectric constant tensor:
#      x y z
#    x 1.719310 0.000000 0.000000 
#    y 0.000000 1.753050 0.000000 
#    z 0.000000 0.000000 1.776390 
# 
# From -- ./inp_files/2767.got.cif
#   From: 2010.03.12/outbox.cif.g09.slc.cpg/sg31_2_cif.got.tgz:2767.got - 2010.04.14 01:42:59.
