data_PCOD8169135
_publ_section_title
;
Structure prediction by ZEFSAII (Michael W. Deem and Ramdas Pophale) SiO2 
 PCOD8169135
Probable space group: P C A 21
;
_chemical_formula_sum "Si O2"
_cell_formula_units_Z 32
_cell_length_a 18.236555
_cell_length_b 4.910243
_cell_length_c 16.575302
_cell_angle_alpha 90.000000
_cell_angle_beta 90.000000
_cell_angle_gamma 90.000000
_cell_volume 1484.250609
_symmetry_space_group_name_H-M "P C A 21"
_symmetry_group_IT_number 29
_symmetry_cell_setting 'orthorhombic'
loop_
_space_group_symop_operation_xyz
x,y,z
-x,-y,1/2+z
1/2-x,y,1/2+z
1/2+x,-y,z
loop_
_atom_site_type_symbol
_atom_site_label
_atom_site_fract_x
_atom_site_fract_y
_atom_site_fract_z
Si Si1 0.248963 0.751856 0.130060
Si Si2 0.053469 0.650599 0.894211
Si Si3 0.299804 0.688416 0.300549
Si Si4 0.751829 0.782079 0.523578
Si Si5 0.067273 0.364466 0.266822
Si Si6 0.714459 0.793129 0.351284
Si Si7 0.582445 0.870835 0.996081
Si Si8 0.084737 0.876503 0.165090
O O1 0.303472 0.687717 0.203361
O O2 0.234977 0.494190 0.072686
O O3 0.172873 0.872704 0.164027
O O4 0.287116 0.993154 0.079634
O O5 0.120990 0.735060 0.837315
O O6 0.037219 0.938902 0.935278
O O7 0.987071 0.550421 0.838449
O O8 0.065769 0.439073 0.968523
O O9 0.284933 0.382069 0.328387
O O10 0.235977 0.894904 0.331608
O O11 0.698773 0.749548 0.446616
O O12 0.829514 0.905111 0.492774
O O13 0.149318 0.345805 0.301307
O O14 0.060327 0.570548 0.190052
O O15 0.050964 0.061943 0.235763
O O16 0.554995 0.981082 0.083381
#
# Coordination Sequence:
#
# PCOD8169135 Si02
#       8
#     4   4   4   4   4   4   4   4
#     4  11  21  36  62  92 124 159 212 265 315 368
#     4  12  24  42  64  97 131 172 214 264 321 389
#     4  12  22  40  63  93 127 164 215 266 322 371
#     4  11  21  36  62  92 124 159 212 265 315 368
#     4  12  24  42  64  97 131 172 214 264 321 389
#     4  12  22  40  63  93 127 164 215 266 322 371
#     4  11  22  40  66  93 126 166 220 265 315 384
#     4  11  22  40  66  93 126 166 220 265 315 384
#
# _framework density 21.559702999999999
#
# number of rings (size 3 to 8) (size 9 to 14) (size 15 to 20)
#    0.000    0.500    5.000    6.000    0.000    0.000 
#    0.000    3.750    0.000    0.000    0.000    0.000 
#    0.000    0.000    0.000    0.000    0.000    0.000 
#
# Total GULP energy -396532.149089 kJ/mol
# GULP energy per Si atom -12391.629659 kJ/mol
# Density = 2.151063 g / cm^3
# Si number density = 21.559703 Si / 1000 Ang^3
#
#
#
# Elastic Constant Matrix: (Units=GPa)
#
#
# Indices 1 2 3 4 5 6 
#
# 1 30.3921 16.7975 16.8978 0.0000 0.0000 0.0000
# 2 16.7975 117.1480 44.2841 0.0000 0.0000 0.0000
# 3 16.8978 44.2841 119.7592 0.0000 0.0000 0.0000
# 4 0.0000 0.0000 0.0000 52.9164 0.0000 0.0000
# 5 0.0000 0.0000 0.0000 0.0000 24.1830 0.0000
# 6 0.0000 0.0000 0.0000 0.0000 0.0000 12.2819
#
#
#
# Elastic Compliance Matrix: (Units=1/GPa)
#
#
# Indices 1 2 3 4 5 6 
#
# 1 0.037170 -0.003891 -0.003806 0.000000 0.000000 0.000000
# 2 -0.003891 0.010331 -0.003271 0.000000 0.000000 0.000000
# 3 -0.003806 -0.003271 0.010097 0.000000 0.000000 0.000000
# 4 0.000000 0.000000 0.000000 0.018898 0.000000 0.000000
# 5 0.000000 0.000000 0.000000 0.000000 0.041351 0.000000
# 6 0.000000 0.000000 0.000000 0.000000 0.000000 0.081421
#
#
# Mechanical properties :
#
#
# Convention : Reuss Voigt Hill
#
# Bulk Modulus (GPa) = 28.04145 47.02865 37.53505
# Shear Modulus (GPa) = 21.45097 30.49758 25.97428
#
# Velocity S-wave (km/s) = 3.15772 3.76515 3.47473
# Velocity P-wave (km/s) = 5.13123 6.38454 5.79189
#
# Compressibility (1/GPa) = 0.03566149
#
# Stress axis : x y z
#
# Youngs Moduli (GPa) = 26.90353 96.79948 99.04304
#
# Poissons Ratio (x) = 0.37665 0.37694
# Poissons Ratio (y) = 0.10468 0.32397
# Poissons Ratio (z) = 0.10239 0.31663
#
# Static dielectric constant tensor:
#      x y z
#    x 3.326770 0.000000 0.000000 
#    y 0.000000 4.002410 0.000000 
#    z 0.000000 0.000000 4.373740 
# 
# 
# High freq. dielectric constant tensor:
#      x y z
#    x 1.784890 0.000000 0.000000 
#    y 0.000000 1.867030 0.000000 
#    z 0.000000 0.000000 1.868960 
# 
# From -- ./inp_files/4805.got.cif
#   From: 2010.03.12/outbox.cif.g09.slc.cpg/sg29_3_cif.got.tgz:4805.got - 2010.04.14 03:43:10.
