data_PCOD8169934
_publ_section_title
;
Structure prediction by ZEFSAII (Michael W. Deem and Ramdas Pophale) SiO2 
 PCOD8169934
Probable space group: P M N 21
;
_chemical_formula_sum "Si O2"
_cell_formula_units_Z 24
_cell_length_a 8.756470
_cell_length_b 10.147170
_cell_length_c 14.043901
_cell_angle_alpha 90.000000
_cell_angle_beta 90.000000
_cell_angle_gamma 90.000000
_cell_volume 1247.848208
_symmetry_space_group_name_H-M "P M N 21"
_symmetry_group_IT_number 31
_symmetry_cell_setting 'orthorhombic'
loop_
_space_group_symop_operation_xyz
x,y,z
1/2-x,-y,1/2+z
-x,y,z
1/2+x,-y,1/2+z
loop_
_atom_site_type_symbol
_atom_site_label
_atom_site_fract_x
_atom_site_fract_y
_atom_site_fract_z
Si Si1 0.174034 0.609837 0.026690
Si Si2 0.674059 0.636026 0.658688
Si Si3 0.819843 0.491954 0.347683
Si Si4 0.180908 0.219819 0.850604
Si Si5 0.318262 0.884875 0.551836
Si Si6 0.819157 0.851801 0.154220
O O1 0.186672 0.468890 0.075038
O O2 0.234567 0.721350 0.098509
O O3 0.000000 0.640920 0.996247
O O4 0.281325 0.605696 0.934421
O O5 0.500000 0.666557 0.684837
O O6 0.750959 0.579137 0.754259
O O7 0.751574 0.770360 0.620188
O O8 0.741193 0.632344 0.359722
O O9 0.000000 0.515869 0.338077
O O10 0.244141 0.145434 0.758009
O O11 0.000000 0.225783 0.844806
O O12 0.236718 0.136807 0.943046
O O13 0.500000 0.875795 0.553913
O O14 0.260680 0.024203 0.592407
O O15 0.000000 0.853342 0.168263
#
# Coordination Sequence:
#
# PCOD8169934 Si02
#       6
#     4   4   4   4   4   4
#     4  10  19  35  56  80 111 145 182 227 280 333
#     4   9  17  33  55  79 108 144 185 226 275 332
#     4  11  21  34  57  87 113 145 192 236 275 330
#     4  11  21  36  59  84 112 149 189 233 286 337
#     4   9  19  36  58  80 108 150 187 221 278 344
#     4  10  21  38  59  82 112 151 189 227 282 346
#
# _framework density 19.233108999999999
#
# number of rings (size 3 to 8) (size 9 to 14) (size 15 to 20)
#    0.000    2.000    3.333    1.000    0.000    2.000 
#    0.000    1.667    0.000    0.000    0.000    0.000 
#    0.000    0.000    0.000    0.000    0.000    0.000 
#
# Total GULP energy -297567.719406 kJ/mol
# GULP energy per Si atom -12398.654975 kJ/mol
# Density = 1.918933 g / cm^3
# Si number density = 19.233109 Si / 1000 Ang^3
#
#
#
# Elastic Constant Matrix: (Units=GPa)
#
#
# Indices 1 2 3 4 5 6 
#
# 1 39.4731 21.1648 34.6580 0.0000 0.0000 0.0000
# 2 21.1648 108.3152 48.0928 0.0000 0.0000 0.0000
# 3 34.6580 48.0928 150.6750 0.0000 0.0000 0.0000
# 4 0.0000 0.0000 0.0000 37.2853 0.0000 0.0000
# 5 0.0000 0.0000 0.0000 0.0000 31.3898 0.0000
# 6 0.0000 0.0000 0.0000 0.0000 0.0000 17.3083
#
#
#
# Elastic Compliance Matrix: (Units=1/GPa)
#
#
# Indices 1 2 3 4 5 6 
#
# 1 0.032891 -0.003574 -0.006425 0.000000 0.000000 0.000000
# 2 -0.003574 0.011145 -0.002735 0.000000 0.000000 0.000000
# 3 -0.006425 -0.002735 0.008988 0.000000 0.000000 0.000000
# 4 0.000000 0.000000 0.000000 0.026820 0.000000 0.000000
# 5 0.000000 0.000000 0.000000 0.000000 0.031857 0.000000
# 6 0.000000 0.000000 0.000000 0.000000 0.000000 0.057776
#
#
# Mechanical properties :
#
#
# Convention : Reuss Voigt Hill
#
# Bulk Modulus (GPa) = 36.29032 56.25496 46.27264
# Shear Modulus (GPa) = 24.49408 30.16653 27.33031
#
# Velocity S-wave (km/s) = 3.57254 3.96469 3.77371
# Velocity P-wave (km/s) = 5.99391 7.09019 6.56498
#
# Compressibility (1/GPa) = 0.02755556
#
# Stress axis : x y z
#
# Youngs Moduli (GPa) = 30.40328 89.72490 111.26416
#
# Poissons Ratio (x) = 0.32071 0.71484
# Poissons Ratio (y) = 0.10867 0.30433
# Poissons Ratio (z) = 0.19533 0.24541
#
# Static dielectric constant tensor:
#      x y z
#    x 3.189770 0.000000 0.000000 
#    y 0.000000 3.628210 0.000000 
#    z 0.000000 0.000000 3.783020 
# 
# 
# High freq. dielectric constant tensor:
#      x y z
#    x 1.709530 0.000000 0.000000 
#    y 0.000000 1.748460 0.000000 
#    z 0.000000 0.000000 1.765520 
# 
# From -- ./inp_files/3459.got.cif
#   From: 2010.03.12/outbox.cif.g09.slc.cpg/sg31_2_cif.got.tgz:3459.got - 2010.04.14 01:42:59.
