data_PCOD8169390
_publ_section_title
;
Structure prediction by ZEFSAII (Michael W. Deem and Ramdas Pophale) SiO2 
 PCOD8169390
Probable space group: P N C 2
;
_chemical_formula_sum "Si O2"
_cell_formula_units_Z 24
_cell_length_a 8.732524
_cell_length_b 14.262439
_cell_length_c 8.821556
_cell_angle_alpha 90.000000
_cell_angle_beta 90.000000
_cell_angle_gamma 90.000000
_cell_volume 1098.699137
_symmetry_space_group_name_H-M "P N C 2"
_symmetry_group_IT_number 30
_symmetry_cell_setting 'orthorhombic'
loop_
_space_group_symop_operation_xyz
x,y,z
-x,-y,z
-x,1/2+y,1/2+z
x,1/2-y,1/2+z
loop_
_atom_site_type_symbol
_atom_site_label
_atom_site_fract_x
_atom_site_fract_y
_atom_site_fract_z
Si Si1 0.000000 0.500000 0.518370
Si Si2 0.704732 0.440198 0.668043
Si Si3 0.570499 0.882992 0.007716
Si Si4 0.144828 0.181012 0.882332
Si Si5 0.234145 0.539654 0.005501
Si Si6 0.067090 0.145697 0.550658
Si Si7 0.500000 0.500000 0.227735
O O1 0.882265 0.438402 0.618560
O O2 0.913180 0.575733 0.416164
O O3 0.599209 0.361171 0.578196
O O4 0.638967 0.542132 0.626311
O O5 0.699988 0.420752 0.847043
O O6 0.693188 0.800406 0.975257
O O7 0.564508 0.919856 0.835808
O O8 0.148274 0.185084 0.701487
O O9 0.041281 0.267411 0.936472
O O10 0.174570 0.433890 0.975974
O O11 0.368343 0.544386 0.126149
O O12 0.101520 0.603850 0.077791
#
# Coordination Sequence:
#
# PCOD8169390 Si02
#       7
#     2   4   4   4   4   4   2
#     4  10  20  38  72  86 130 170 214 274 336 396
#     4   9  19  34  65  97 120 165 216 264 326 395
#     4   9  20  38  64  90 124 173 219 259 335 400
#     4  11  24  43  64  93 130 175 227 280 328 405
#     4  11  22  41  68  99 132 172 221 279 337 402
#     4  11  26  40  67  96 132 174 230 276 340 400
#     4  10  18  38  66  94 122 174 214 264 334 410
#
# _framework density 21.844014000000001
#
# number of rings (size 3 to 8) (size 9 to 14) (size 15 to 20)
#    0.000    2.000    1.667    3.000   11.667    0.000 
#    0.000    1.667    0.000    0.000    0.000    0.000 
#    0.000    0.000    0.000    0.000    0.000    0.000 
#
# Total GULP energy -297349.368050 kJ/mol
# GULP energy per Si atom -12389.557002 kJ/mol
# Density = 2.179430 g / cm^3
# Si number density = 21.844014 Si / 1000 Ang^3
#
#
#
# Elastic Constant Matrix: (Units=GPa)
#
#
# Indices 1 2 3 4 5 6 
#
# 1 120.4133 9.5431 40.0501 0.0000 0.0000 0.0000
# 2 9.5431 68.7985 12.6770 0.0000 0.0000 0.0000
# 3 40.0501 12.6770 127.1265 0.0000 0.0000 0.0000
# 4 0.0000 0.0000 0.0000 14.6464 0.0000 0.0000
# 5 0.0000 0.0000 0.0000 0.0000 37.7944 0.0000
# 6 0.0000 0.0000 0.0000 0.0000 0.0000 18.2748
#
#
#
# Elastic Compliance Matrix: (Units=1/GPa)
#
#
# Indices 1 2 3 4 5 6 
#
# 1 0.009316 -0.000766 -0.002859 0.000000 0.000000 0.000000
# 2 -0.000766 0.014870 -0.001242 0.000000 0.000000 0.000000
# 3 -0.002859 -0.001242 0.008891 0.000000 0.000000 0.000000
# 4 0.000000 0.000000 0.000000 0.068276 0.000000 0.000000
# 5 0.000000 0.000000 0.000000 0.000000 0.026459 0.000000
# 6 0.000000 0.000000 0.000000 0.000000 0.000000 0.054720
#
#
# Mechanical properties :
#
#
# Convention : Reuss Voigt Hill
#
# Bulk Modulus (GPa) = 42.83522 48.98654 45.91088
# Shear Modulus (GPa) = 24.99427 31.08098 28.03762
#
# Velocity S-wave (km/s) = 3.38630 3.77617 3.58654
# Velocity P-wave (km/s) = 5.91113 6.44104 6.18177
#
# Compressibility (1/GPa) = 0.02334527
#
# Stress axis : x y z
#
# Youngs Moduli (GPa) = 107.33986 67.24872 112.47841
#
# Poissons Ratio (x) = 0.05148 0.32154
# Poissons Ratio (y) = 0.08217 0.13966
# Poissons Ratio (z) = 0.30685 0.08350
#
# Static dielectric constant tensor:
#      x y z
#    x 4.499900 0.000000 0.000000 
#    y 0.000000 3.561970 0.000000 
#    z 0.000000 0.000000 3.863830 
# 
# 
# High freq. dielectric constant tensor:
#      x y z
#    x 1.873390 0.000000 0.000000 
#    y 0.000000 1.810450 0.000000 
#    z 0.000000 0.000000 1.867150 
# 
# From -- ./inp_files/1869.got.cif
#   From: 2010.03.12/outbox.cif.g09.slc.cpg/sg30_1_cif.got.tgz:1869.got - 2010.04.14 01:38:02.
