data_PCOD8169263
_publ_section_title
;
Structure prediction by ZEFSAII (Michael W. Deem and Ramdas Pophale) SiO2 
 PCOD8169263
Probable space group: P C A 21
;
_chemical_formula_sum "Si O2"
_cell_formula_units_Z 32
_cell_length_a 13.560937
_cell_length_b 11.670052
_cell_length_c 8.963871
_cell_angle_alpha 90.000000
_cell_angle_beta 90.000000
_cell_angle_gamma 90.000000
_cell_volume 1418.593898
_symmetry_space_group_name_H-M "P C A 21"
_symmetry_group_IT_number 29
_symmetry_cell_setting 'orthorhombic'
loop_
_space_group_symop_operation_xyz
x,y,z
-x,-y,1/2+z
1/2-x,y,1/2+z
1/2+x,-y,z
loop_
_atom_site_type_symbol
_atom_site_label
_atom_site_fract_x
_atom_site_fract_y
_atom_site_fract_z
Si Si1 0.070973 0.503812 0.000000
Si Si2 0.878603 0.454758 0.833959
Si Si3 0.274351 0.343488 0.385548
Si Si4 0.701909 0.238474 0.492324
Si Si5 0.095929 0.994356 0.542448
Si Si6 0.628095 0.285942 0.809321
Si Si7 0.549783 0.873793 0.248282
Si Si8 0.765711 0.816350 0.134604
O O1 0.075772 0.552028 0.167837
O O2 0.135408 0.388448 0.985983
O O3 0.114230 0.587778 0.874098
O O4 0.958575 0.477323 0.962388
O O5 0.799352 0.555531 0.841781
O O6 0.832786 0.331899 0.870948
O O7 0.221411 0.238643 0.471395
O O8 0.315526 0.280515 0.238755
O O9 0.694739 0.290239 0.658758
O O10 0.814561 0.212748 0.438086
O O11 0.641649 0.121874 0.477799
O O12 0.062226 0.072787 0.409056
O O13 0.176679 0.062909 0.641769
O O14 0.001509 0.967819 0.643223
O O15 0.521476 0.235526 0.768495
O O16 0.651421 0.835136 0.174613
#
# Coordination Sequence:
#
# PCOD8169263 Si02
#       8
#     4   4   4   4   4   4   4   4
#     4  12  27  43  76 105 155 190 251 302 375 450
#     4  12  27  47  70 114 144 202 243 308 373 446
#     4  12  27  47  75 104 148 195 246 305 372 441
#     4  11  26  45  71 104 149 190 249 300 381 429
#     4  11  29  47  76 107 146 198 242 314 362 451
#     4  11  25  45  71 108 148 196 241 312 356 457
#     4  11  28  48  76 108 147 189 256 296 373 437
#     4  12  27  50  75 106 149 196 248 311 372 439
#
# _framework density 22.557547
#
# number of rings (size 3 to 8) (size 9 to 14) (size 15 to 20)
#    0.000    0.500    3.750    2.250   14.000    1.000 
#    0.000    0.000    0.000    0.000    0.000    0.000 
#    0.000    0.000    0.000    0.000    0.000    0.000 
#
# Total GULP energy -396846.634743 kJ/mol
# GULP energy per Si atom -12401.457336 kJ/mol
# Density = 2.250621 g / cm^3
# Si number density = 22.557547 Si / 1000 Ang^3
#
#
#
# Elastic Constant Matrix: (Units=GPa)
#
#
# Indices 1 2 3 4 5 6 
#
# 1 60.9721 36.2416 30.5131 0.0000 0.0000 0.0000
# 2 36.2416 109.4382 43.6306 0.0000 0.0000 0.0000
# 3 30.5131 43.6306 97.2221 0.0000 0.0000 0.0000
# 4 0.0000 0.0000 0.0000 35.6195 0.0000 0.0000
# 5 0.0000 0.0000 0.0000 0.0000 41.2683 0.0000
# 6 0.0000 0.0000 0.0000 0.0000 0.0000 22.3773
#
#
#
# Elastic Compliance Matrix: (Units=1/GPa)
#
#
# Indices 1 2 3 4 5 6 
#
# 1 0.021864 -0.005486 -0.004400 0.000000 0.000000 0.000000
# 2 -0.005486 0.012505 -0.003890 0.000000 0.000000 0.000000
# 3 -0.004400 -0.003890 0.013412 0.000000 0.000000 0.000000
# 4 0.000000 0.000000 0.000000 0.028075 0.000000 0.000000
# 5 0.000000 0.000000 0.000000 0.000000 0.024232 0.000000
# 6 0.000000 0.000000 0.000000 0.000000 0.000000 0.044688
#
#
# Mechanical properties :
#
#
# Convention : Reuss Voigt Hill
#
# Bulk Modulus (GPa) = 49.43414 54.26702 51.85058
# Shear Modulus (GPa) = 27.92176 30.33615 29.12896
#
# Velocity S-wave (km/s) = 3.52206 3.67118 3.59739
# Velocity P-wave (km/s) = 6.20501 6.48686 6.34750
#
# Compressibility (1/GPa) = 0.02022894
#
# Stress axis : x y z
#
# Youngs Moduli (GPa) = 45.73749 79.96569 74.55767
#
# Poissons Ratio (x) = 0.43872 0.32804
# Poissons Ratio (y) = 0.25093 0.29004
# Poissons Ratio (z) = 0.20124 0.31108
#
# Static dielectric constant tensor:
#      x y z
#    x 4.288740 0.000000 0.000000 
#    y 0.000000 4.112890 0.000000 
#    z 0.000000 0.000000 4.177910 
# 
# 
# High freq. dielectric constant tensor:
#      x y z
#    x 1.892380 0.000000 0.000000 
#    y 0.000000 1.894830 0.000000 
#    z 0.000000 0.000000 1.904670 
# 
# From -- ./inp_files/1882.got.cif
#   From: 2010.03.12/outbox.cif.g09.slc.cpg/sg29_1_cif.got.tgz:1882.got - 2010.04.14 03:43:10.
