data_PCOD8169319
_publ_section_title
;
Structure prediction by ZEFSAII (Michael W. Deem and Ramdas Pophale) SiO2 
 PCOD8169319
Probable space group: P C A 21
;
_chemical_formula_sum "Si O2"
_cell_formula_units_Z 32
_cell_length_a 19.164604
_cell_length_b 6.820746
_cell_length_c 10.908412
_cell_angle_alpha 90.000000
_cell_angle_beta 90.000000
_cell_angle_gamma 90.000000
_cell_volume 1425.913758
_symmetry_space_group_name_H-M "P C A 21"
_symmetry_group_IT_number 29
_symmetry_cell_setting 'orthorhombic'
loop_
_space_group_symop_operation_xyz
x,y,z
-x,-y,1/2+z
1/2-x,y,1/2+z
1/2+x,-y,z
loop_
_atom_site_type_symbol
_atom_site_label
_atom_site_fract_x
_atom_site_fract_y
_atom_site_fract_z
Si Si1 0.763845 0.365433 0.393040
Si Si2 0.144399 0.162498 0.645149
Si Si3 0.597107 0.986816 0.211605
Si Si4 0.644399 0.662497 0.386366
Si Si5 0.902894 0.513184 0.319910
Si Si6 0.456834 0.681662 0.884589
Si Si7 0.763845 0.134567 0.638475
Si Si8 0.956834 0.181662 0.146927
O O1 0.721033 0.567812 0.390849
O O2 0.846390 0.409194 0.407699
O O3 0.740022 0.250000 0.515757
O O4 0.750000 0.250000 0.265757
O O5 0.121124 0.250000 0.515757
O O6 0.143999 0.341785 0.738904
O O7 0.221033 0.067812 0.640666
O O8 0.088201 0.003431 0.689904
O O9 0.554254 0.144103 0.289806
O O10 0.653610 0.090806 0.123816
O O11 0.643999 0.841784 0.292611
O O12 0.538714 0.870711 0.135265
O O13 0.588201 0.503431 0.341611
O O14 0.945746 0.355896 0.241711
O O15 0.961286 0.629290 0.396250
O O16 0.428714 0.749999 0.015758
#
# Coordination Sequence:
#
# PCOD8169319 Si02
#       8
#     4   4   4   4   4   4   4   4
#     4  12  27  48  76 108 151 191 246 306 366 438
#     4  12  24  45  76 102 142 197 242 298 374 436
#     4  12  26  44  73 106 143 188 247 302 365 438
#     4  12  24  45  76 102 142 197 242 298 374 436
#     4  12  26  44  73 106 143 188 247 302 365 438
#     4  12  25  44  71 106 143 191 242 303 367 440
#     4  12  27  48  76 108 151 191 246 306 366 438
#     4  12  25  44  71 106 143 191 242 303 367 440
#
# _framework density 22.441749999999999
#
# number of rings (size 3 to 8) (size 9 to 14) (size 15 to 20)
#    0.000    0.000    7.500    3.000    0.000    6.000 
#    0.000    0.000    0.000    0.000    0.000    0.000 
#    0.000    0.000    0.000    0.000    0.000    0.000 
#
# Total GULP energy -396919.559430 kJ/mol
# GULP energy per Si atom -12403.736232 kJ/mol
# Density = 2.239067 g / cm^3
# Si number density = 22.441750 Si / 1000 Ang^3
#
#
#
# Elastic Constant Matrix: (Units=GPa)
#
#
# Indices 1 2 3 4 5 6 
#
# 1 145.9169 32.4002 5.7521 0.0000 0.0000 0.0000
# 2 32.4002 102.9865 24.7274 0.0000 0.0000 0.0000
# 3 5.7521 24.7274 81.6644 0.0000 0.0000 0.0000
# 4 0.0000 0.0000 0.0000 29.5523 0.0000 0.0000
# 5 0.0000 0.0000 0.0000 0.0000 25.3204 0.0000
# 6 0.0000 0.0000 0.0000 0.0000 0.0000 49.3367
#
#
#
# Elastic Compliance Matrix: (Units=1/GPa)
#
#
# Indices 1 2 3 4 5 6 
#
# 1 0.007371 -0.002366 0.000197 0.000000 0.000000 0.000000
# 2 -0.002366 0.011231 -0.003234 0.000000 0.000000 0.000000
# 3 0.000197 -0.003234 0.013211 0.000000 0.000000 0.000000
# 4 0.000000 0.000000 0.000000 0.033838 0.000000 0.000000
# 5 0.000000 0.000000 0.000000 0.000000 0.039494 0.000000
# 6 0.000000 0.000000 0.000000 0.000000 0.000000 0.020269
#
#
# Mechanical properties :
#
#
# Convention : Reuss Voigt Hill
#
# Bulk Modulus (GPa) = 47.60436 50.70301 49.15369
# Shear Modulus (GPa) = 34.91096 38.68775 36.79936
#
# Velocity S-wave (km/s) = 3.94842 4.15651 4.05380
# Velocity P-wave (km/s) = 6.48422 6.75853 6.62280
#
# Compressibility (1/GPa) = 0.02100648
#
# Stress axis : x y z
#
# Youngs Moduli (GPa) = 135.66936 89.03963 75.69703
#
# Poissons Ratio (x) = 0.21069 -0.01494
# Poissons Ratio (y) = 0.32103 0.24480
# Poissons Ratio (z) = -0.02677 0.28795
#
# Static dielectric constant tensor:
#      x y z
#    x 4.025610 0.000000 0.000000 
#    y 0.000000 4.250910 0.000000 
#    z 0.000000 0.000000 3.821190 
# 
# 
# High freq. dielectric constant tensor:
#      x y z
#    x 1.898200 0.000000 0.000000 
#    y 0.000000 1.901100 0.000000 
#    z 0.000000 0.000000 1.869130 
# 
# From -- ./inp_files/3877.got.cif
#   From: 2010.03.12/outbox.cif.g09.slc.cpg/sg29_2_cif.got.tgz:3877.got - 2010.04.14 03:43:10.
