data_PCOD8169231
_publ_section_title
;
Structure prediction by ZEFSAII (Michael W. Deem and Ramdas Pophale) SiO2 
 PCOD8169231
Probable space group: P C A 21
;
_chemical_formula_sum "Si O2"
_cell_formula_units_Z 28
_cell_length_a 14.643716
_cell_length_b 8.238333
_cell_length_c 10.060991
_cell_angle_alpha 90.000000
_cell_angle_beta 90.000000
_cell_angle_gamma 90.000000
_cell_volume 1213.756030
_symmetry_space_group_name_H-M "P C A 21"
_symmetry_group_IT_number 29
_symmetry_cell_setting 'orthorhombic'
loop_
_space_group_symop_operation_xyz
x,y,z
-x,-y,1/2+z
1/2-x,y,1/2+z
1/2+x,-y,z
loop_
_atom_site_type_symbol
_atom_site_label
_atom_site_fract_x
_atom_site_fract_y
_atom_site_fract_z
Si Si1 0.571996 0.044988 0.084110
Si Si2 0.660060 0.895950 0.847603
Si Si3 0.389380 0.908137 0.091750
Si Si4 0.661109 0.538622 0.866378
Si Si5 0.139081 0.096153 0.338510
Si Si6 0.823386 0.453653 0.072497
Si Si7 0.987653 0.656046 0.955512
O O1 0.497416 0.901684 0.058147
O O2 0.608883 0.040916 0.233937
O O3 0.652726 0.008481 0.979215
O O4 0.526437 0.221240 0.066856
O O5 0.618277 0.719084 0.878583
O O6 0.613229 0.001653 0.733508
O O7 0.761004 0.844432 0.798686
O O8 0.337828 0.738446 0.085031
O O9 0.343127 0.021373 0.982478
O O10 0.702955 0.514249 0.719382
O O11 0.573364 0.424793 0.884368
O O12 0.740010 0.498879 0.974449
O O13 0.066826 0.243534 0.341834
O O14 0.918517 0.531799 0.024762
#
# Coordination Sequence:
#
# PCOD8169231 Si02
#       7
#     4   4   4   4   4   4   4
#     4  11  24  44  76 105 142 199 241 303 374 446
#     4  12  25  45  72 107 146 194 247 306 371 447
#     4  11  25  45  72 102 144 190 249 301 368 454
#     4  12  28  46  77 107 155 198 248 316 383 449
#     4  11  24  44  74 105 145 192 246 302 366 448
#     4  12  28  48  71 115 150 195 253 313 385 446
#     4  11  26  50  72 113 152 194 250 315 379 450
#
# _framework density 23.068885999999999
#
# number of rings (size 3 to 8) (size 9 to 14) (size 15 to 20)
#    0.000    0.571    1.429    6.857    8.000    2.286 
#    0.000    0.000    0.000    0.000    0.000    0.000 
#    0.000    0.000    0.000    0.000    0.000    0.000 
#
# Total GULP energy -347093.867594 kJ/mol
# GULP energy per Si atom -12396.209557 kJ/mol
# Density = 2.301638 g / cm^3
# Si number density = 23.068886 Si / 1000 Ang^3
#
#
#
# Elastic Constant Matrix: (Units=GPa)
#
#
# Indices 1 2 3 4 5 6 
#
# 1 126.8420 39.4056 39.9894 0.0000 0.0000 0.0000
# 2 39.4056 131.0389 34.9834 0.0000 0.0000 0.0000
# 3 39.9894 34.9834 129.3291 0.0000 0.0000 0.0000
# 4 0.0000 0.0000 0.0000 31.9054 0.0000 0.0000
# 5 0.0000 0.0000 0.0000 0.0000 30.0706 0.0000
# 6 0.0000 0.0000 0.0000 0.0000 0.0000 26.9482
#
#
#
# Elastic Compliance Matrix: (Units=1/GPa)
#
#
# Indices 1 2 3 4 5 6 
#
# 1 0.009280 -0.002182 -0.002279 0.000000 0.000000 0.000000
# 2 -0.002182 0.008738 -0.001689 0.000000 0.000000 0.000000
# 3 -0.002279 -0.001689 0.008894 0.000000 0.000000 0.000000
# 4 0.000000 0.000000 0.000000 0.031343 0.000000 0.000000
# 5 0.000000 0.000000 0.000000 0.000000 0.033255 0.000000
# 6 0.000000 0.000000 0.000000 0.000000 0.000000 0.037108
#
#
# Mechanical properties :
#
#
# Convention : Reuss Voigt Hill
#
# Bulk Modulus (GPa) = 68.43839 68.44076 68.43957
# Shear Modulus (GPa) = 34.29586 35.97361 35.13474
#
# Velocity S-wave (km/s) = 3.85992 3.95321 3.90684
# Velocity P-wave (km/s) = 7.04249 7.11123 7.07694
#
# Compressibility (1/GPa) = 0.01461168
#
# Stress axis : x y z
#
# Youngs Moduli (GPa) = 107.75446 114.43646 112.43747
#
# Poissons Ratio (x) = 0.24973 0.25627
# Poissons Ratio (y) = 0.23515 0.18990
# Poissons Ratio (z) = 0.24560 0.19328
#
# Static dielectric constant tensor:
#      x y z
#    x 4.220980 0.000000 0.000000 
#    y 0.000000 4.180810 0.000000 
#    z 0.000000 0.000000 4.168540 
# 
# 
# High freq. dielectric constant tensor:
#      x y z
#    x 1.923650 0.000000 0.000000 
#    y 0.000000 1.912230 0.000000 
#    z 0.000000 0.000000 1.918000 
# 
# From -- ./inp_files/2055.got.cif
#   From: 2010.03.12/outbox.cif.g09.slc.cpg/sg29_2_cif.got.tgz:2055.got - 2010.04.14 03:43:10.
