data_PCOD8169281
_publ_section_title
;
Structure prediction by ZEFSAII (Michael W. Deem and Ramdas Pophale) SiO2 
 PCOD8169281
Probable space group: P C A 21
;
_chemical_formula_sum "Si O2"
_cell_formula_units_Z 24
_cell_length_a 13.423017
_cell_length_b 5.354090
_cell_length_c 13.734900
_cell_angle_alpha 90.000000
_cell_angle_beta 90.000000
_cell_angle_gamma 90.000000
_cell_volume 987.100358
_symmetry_space_group_name_H-M "P C A 21"
_symmetry_group_IT_number 29
_symmetry_cell_setting 'orthorhombic'
loop_
_space_group_symop_operation_xyz
x,y,z
-x,-y,1/2+z
1/2-x,y,1/2+z
1/2+x,-y,z
loop_
_atom_site_type_symbol
_atom_site_label
_atom_site_fract_x
_atom_site_fract_y
_atom_site_fract_z
Si Si1 0.383711 0.988328 0.099950
Si Si2 0.770103 0.343302 0.246246
Si Si3 0.372426 0.602188 0.441854
Si Si4 0.493467 0.097521 0.421775
Si Si5 0.566823 0.072694 0.209952
Si Si6 0.296291 0.295809 0.611764
O O1 0.283532 0.117891 0.058658
O O2 0.355581 0.802678 0.188097
O O3 0.469778 0.167416 0.148947
O O4 0.423499 0.848101 0.003658
O O5 0.789636 0.338696 0.360466
O O6 0.767575 0.626240 0.207433
O O7 0.657951 0.261487 0.218195
O O8 0.435669 0.359787 0.407155
O O9 0.318942 0.531615 0.542596
O O10 0.429316 0.861776 0.461234
O O11 0.538015 0.002668 0.320213
O O12 0.601633 0.830617 0.147353
#
# Coordination Sequence:
#
# PCOD8169281 Si02
#       6
#     4   4   4   4   4   4
#     4  11  25  49  73 112 151 203 261 314 391 456
#     4  11  27  45  76 109 157 203 256 328 382 470
#     4  12  28  50  78 116 154 202 264 314 398 458
#     4  12  28  48  82 112 152 208 254 324 384 474
#     4  11  25  49  73 112 151 203 261 314 391 456
#     4  11  27  45  76 109 157 203 256 328 382 470
#
# _framework density 24.313635999999999
#
# number of rings (size 3 to 8) (size 9 to 14) (size 15 to 20)
#    0.000    0.667    3.333    2.000   14.000    1.333 
#    0.000    0.000    0.000    0.000    0.000    0.000 
#    0.000    0.000    0.000    0.000    0.000    0.000 
#
# Total GULP energy -297393.341791 kJ/mol
# GULP energy per Si atom -12391.389241 kJ/mol
# Density = 2.425830 g / cm^3
# Si number density = 24.313636 Si / 1000 Ang^3
#
#
#
# Elastic Constant Matrix: (Units=GPa)
#
#
# Indices 1 2 3 4 5 6 
#
# 1 106.8987 10.4639 37.2174 0.0000 0.0000 0.0000
# 2 10.4639 75.3997 0.5039 0.0000 0.0000 0.0000
# 3 37.2174 0.5039 123.6131 0.0000 0.0000 0.0000
# 4 0.0000 0.0000 0.0000 40.4792 0.0000 0.0000
# 5 0.0000 0.0000 0.0000 0.0000 41.6171 0.0000
# 6 0.0000 0.0000 0.0000 0.0000 0.0000 16.4985
#
#
#
# Elastic Compliance Matrix: (Units=1/GPa)
#
#
# Indices 1 2 3 4 5 6 
#
# 1 0.010606 -0.001451 -0.003187 0.000000 0.000000 0.000000
# 2 -0.001451 0.013461 0.000382 0.000000 0.000000 0.000000
# 3 -0.003187 0.000382 0.009048 0.000000 0.000000 0.000000
# 4 0.000000 0.000000 0.000000 0.024704 0.000000 0.000000
# 5 0.000000 0.000000 0.000000 0.000000 0.024029 0.000000
# 6 0.000000 0.000000 0.000000 0.000000 0.000000 0.060612
#
#
# Mechanical properties :
#
#
# Convention : Reuss Voigt Hill
#
# Bulk Modulus (GPa) = 40.64502 44.69798 42.67150
# Shear Modulus (GPa) = 31.41227 36.90070 34.15649
#
# Velocity S-wave (km/s) = 3.59829 3.89999 3.75217
# Velocity P-wave (km/s) = 5.83239 6.22123 6.02995
#
# Compressibility (1/GPa) = 0.02460326
#
# Stress axis : x y z
#
# Youngs Moduli (GPa) = 94.28289 74.28634 110.52317
#
# Poissons Ratio (x) = 0.10776 0.35229
# Poissons Ratio (y) = 0.13677 -0.04221
# Poissons Ratio (z) = 0.30052 -0.02837
#
# Static dielectric constant tensor:
#      x y z
#    x 4.491400 0.000000 0.000000 
#    y 0.000000 4.130950 0.000000 
#    z 0.000000 0.000000 4.462540 
# 
# 
# High freq. dielectric constant tensor:
#      x y z
#    x 1.978040 0.000000 0.000000 
#    y 0.000000 1.949050 0.000000 
#    z 0.000000 0.000000 1.987320 
# 
# From -- ./inp_files/4448.got.cif
#   From: 2010.03.12/outbox.cif.g09.slc.cpg/sg29_3_cif.got.tgz:4448.got - 2010.04.14 03:43:10.
