data_PCOD8169230
_publ_section_title
;
Structure prediction by ZEFSAII (Michael W. Deem and Ramdas Pophale) SiO2 
 PCOD8169230
Probable space group: P C A 21
;
_chemical_formula_sum "Si O2"
_cell_formula_units_Z 32
_cell_length_a 8.962973
_cell_length_b 11.581651
_cell_length_c 13.533554
_cell_angle_alpha 90.000000
_cell_angle_beta 90.000000
_cell_angle_gamma 90.000000
_cell_volume 1404.864448
_symmetry_space_group_name_H-M "P C A 21"
_symmetry_group_IT_number 29
_symmetry_cell_setting 'orthorhombic'
loop_
_space_group_symop_operation_xyz
x,y,z
-x,-y,1/2+z
1/2-x,y,1/2+z
1/2+x,-y,z
loop_
_atom_site_type_symbol
_atom_site_label
_atom_site_fract_x
_atom_site_fract_y
_atom_site_fract_z
Si Si1 0.704998 0.886459 0.713830
Si Si2 0.900593 0.878808 0.532271
Si Si3 0.409125 0.294011 0.791325
Si Si4 0.916397 0.205310 0.606565
Si Si5 0.698621 0.143854 0.771972
Si Si6 0.559406 0.589337 0.500629
Si Si7 0.117222 0.377678 0.072672
Si Si8 0.217956 0.935321 0.467770
O O1 0.847016 0.907908 0.642959
O O2 0.762807 0.790056 0.792648
O O3 0.571892 0.832461 0.651874
O O4 0.653676 0.010435 0.753153
O O5 0.910373 0.742694 0.516367
O O6 0.065505 0.933410 0.527954
O O7 0.779628 0.932691 0.454281
O O8 0.552488 0.212799 0.799937
O O9 0.417229 0.369472 0.690255
O O10 0.408670 0.379362 0.885726
O O11 0.787355 0.214344 0.689102
O O12 0.859386 0.114819 0.526649
O O13 0.939170 0.326386 0.551677
O O14 0.807991 0.134243 0.866796
O O15 0.711503 0.587226 0.561812
O O16 0.489883 0.462963 0.512501
#
# Coordination Sequence:
#
# PCOD8169230 Si02
#       8
#     4   4   4   4   4   4   4   4
#     4  11  24  44  72 110 154 202 234 321 383 461
#     4  11  25  47  72 108 156 192 253 312 389 454
#     4  11  26  51  76 113 154 201 266 314 389 470
#     4  12  24  48  71 109 150 198 250 308 388 440
#     4  12  27  41  75 111 159 194 252 307 388 474
#     4  12  28  53  79 107 152 210 261 325 384 448
#     4  11  29  51  78 108 154 201 260 327 377 449
#     4  12  27  43  75 110 149 204 246 314 384 470
#
# _framework density 22.777998
#
# number of rings (size 3 to 8) (size 9 to 14) (size 15 to 20)
#    0.000    0.500    5.000    3.000   10.500    1.000 
#    2.250    0.000    0.000    0.000    0.000    0.000 
#    0.000    0.000    0.000    0.000    0.000    0.000 
#
# Total GULP energy -396698.382517 kJ/mol
# GULP energy per Si atom -12396.824454 kJ/mol
# Density = 2.272615 g / cm^3
# Si number density = 22.777998 Si / 1000 Ang^3
#
#
#
# Elastic Constant Matrix: (Units=GPa)
#
#
# Indices 1 2 3 4 5 6 
#
# 1 67.0787 44.1593 -0.2602 0.0000 0.0000 0.0000
# 2 44.1593 114.4406 33.4471 0.0000 0.0000 0.0000
# 3 -0.2602 33.4471 97.6863 0.0000 0.0000 0.0000
# 4 0.0000 0.0000 0.0000 40.9684 0.0000 0.0000
# 5 0.0000 0.0000 0.0000 0.0000 18.8439 0.0000
# 6 0.0000 0.0000 0.0000 0.0000 0.0000 33.0529
#
#
#
# Elastic Compliance Matrix: (Units=1/GPa)
#
#
# Indices 1 2 3 4 5 6 
#
# 1 0.020804 -0.008938 0.003116 0.000000 0.000000 0.000000
# 2 -0.008938 0.013550 -0.004663 0.000000 0.000000 0.000000
# 3 0.003116 -0.004663 0.011842 0.000000 0.000000 0.000000
# 4 0.000000 0.000000 0.000000 0.024409 0.000000 0.000000
# 5 0.000000 0.000000 0.000000 0.000000 0.053068 0.000000
# 6 0.000000 0.000000 0.000000 0.000000 0.000000 0.030255
#
#
# Mechanical properties :
#
#
# Convention : Reuss Voigt Hill
#
# Bulk Modulus (GPa) = 39.64386 48.21088 43.92737
# Shear Modulus (GPa) = 27.27657 32.03033 29.65345
#
# Velocity S-wave (km/s) = 3.46424 3.75400 3.61202
# Velocity P-wave (km/s) = 5.78304 6.32467 6.05991
#
# Compressibility (1/GPa) = 0.02522459
#
# Stress axis : x y z
#
# Youngs Moduli (GPa) = 48.06695 73.79978 84.44643
#
# Poissons Ratio (x) = 0.65966 -0.26313
# Poissons Ratio (y) = 0.42964 0.39380
# Poissons Ratio (z) = -0.14977 0.34415
#
# Static dielectric constant tensor:
#      x y z
#    x 4.096910 0.000000 0.000000 
#    y 0.000000 4.246960 0.000000 
#    z 0.000000 0.000000 4.303960 
# 
# 
# High freq. dielectric constant tensor:
#      x y z
#    x 1.909710 0.000000 0.000000 
#    y 0.000000 1.890560 0.000000 
#    z 0.000000 0.000000 1.903050 
# 
# From -- ./inp_files/4298.got.cif
#   From: 2010.03.12/outbox.cif.g09.slc.cpg/sg29_3_cif.got.tgz:4298.got - 2010.04.14 03:43:10.
