data_PCOD8169304
_publ_section_title
;
Structure prediction by ZEFSAII (Michael W. Deem and Ramdas Pophale) SiO2 
 PCOD8169304
Probable space group: P C A 21
;
_chemical_formula_sum "Si O2"
_cell_formula_units_Z 32
_cell_length_a 8.682879
_cell_length_b 11.445323
_cell_length_c 13.229532
_cell_angle_alpha 90.000000
_cell_angle_beta 90.000000
_cell_angle_gamma 90.000000
_cell_volume 1314.729124
_symmetry_space_group_name_H-M "P C A 21"
_symmetry_group_IT_number 29
_symmetry_cell_setting 'orthorhombic'
loop_
_space_group_symop_operation_xyz
x,y,z
-x,-y,1/2+z
1/2-x,y,1/2+z
1/2+x,-y,z
loop_
_atom_site_type_symbol
_atom_site_label
_atom_site_fract_x
_atom_site_fract_y
_atom_site_fract_z
Si Si1 0.211320 0.775189 0.648820
Si Si2 0.157763 0.380276 0.793154
Si Si3 0.979235 0.070809 0.997555
Si Si4 0.993923 0.586414 0.722299
Si Si5 0.492842 0.846710 0.765521
Si Si6 0.105979 0.566905 0.052025
Si Si7 0.690698 0.640993 0.489841
Si Si8 0.697812 0.879698 0.585514
O O1 0.144669 0.847305 0.554393
O O2 0.073570 0.713394 0.712437
O O3 0.318318 0.858203 0.720646
O O4 0.316881 0.674266 0.606511
O O5 0.075128 0.506885 0.809816
O O6 0.310380 0.398956 0.726623
O O7 0.030635 0.290661 0.753123
O O8 0.219744 0.313532 0.892491
O O9 0.132236 0.071045 0.066255
O O10 0.913787 0.938354 0.000878
O O11 0.001407 0.106579 0.880497
O O12 0.015312 0.503405 0.623943
O O13 0.623010 0.912036 0.695703
O O14 0.234499 0.483738 0.009792
O O15 0.990023 0.618971 0.966466
O O16 0.706637 0.739196 0.575884
#
# Coordination Sequence:
#
# PCOD8169304 Si02
#       8
#     4   4   4   4   4   4   4   4
#     4  12  25  46  75 113 156 204 260 325 384 474
#     4  12  23  41  68 112 148 206 256 320 386 479
#     4  12  30  52  83 113 152 210 276 318 407 468
#     4  12  22  41  68 106 159 202 256 318 397 461
#     4  12  26  52  80 111 160 200 264 334 391 472
#     4  12  22  40  70 103 150 205 239 309 394 448
#     4  12  25  42  72 110 156 196 256 319 385 466
#     4  12  27  54  78 112 155 205 263 339 388 466
#
# _framework density 24.339614999999998
#
# number of rings (size 3 to 8) (size 9 to 14) (size 15 to 20)
#    0.000    0.000    6.250    3.750    0.000    5.000 
#    2.250    0.000    0.000    0.000    0.000    0.000 
#    0.000    0.000    0.000    0.000    0.000    0.000 
#
# Total GULP energy -396453.563665 kJ/mol
# GULP energy per Si atom -12389.173865 kJ/mol
# Density = 2.428422 g / cm^3
# Si number density = 24.339615 Si / 1000 Ang^3
#
#
#
# Elastic Constant Matrix: (Units=GPa)
#
#
# Indices 1 2 3 4 5 6 
#
# 1 118.9457 22.7323 38.9620 0.0000 0.0000 0.0000
# 2 22.7323 53.6934 29.4057 0.0000 0.0000 0.0000
# 3 38.9620 29.4057 102.6076 0.0000 0.0000 0.0000
# 4 0.0000 0.0000 0.0000 30.5382 0.0000 0.0000
# 5 0.0000 0.0000 0.0000 0.0000 37.4688 0.0000
# 6 0.0000 0.0000 0.0000 0.0000 0.0000 35.8478
#
#
#
# Elastic Compliance Matrix: (Units=1/GPa)
#
#
# Indices 1 2 3 4 5 6 
#
# 1 0.009882 -0.002525 -0.003029 0.000000 0.000000 0.000000
# 2 -0.002525 0.022737 -0.005557 0.000000 0.000000 0.000000
# 3 -0.003029 -0.005557 0.012489 0.000000 0.000000 0.000000
# 4 0.000000 0.000000 0.000000 0.032746 0.000000 0.000000
# 5 0.000000 0.000000 0.000000 0.000000 0.026689 0.000000
# 6 0.000000 0.000000 0.000000 0.000000 0.000000 0.027896
#
#
# Mechanical properties :
#
#
# Convention : Reuss Voigt Hill
#
# Bulk Modulus (GPa) = 43.69618 50.82742 47.26180
# Shear Modulus (GPa) = 30.80948 33.04741 31.92844
#
# Velocity S-wave (km/s) = 3.56169 3.68878 3.62579
# Velocity P-wave (km/s) = 5.90812 6.25066 6.08180
#
# Compressibility (1/GPa) = 0.02288530
#
# Stress axis : x y z
#
# Youngs Moduli (GPa) = 101.19570 43.98173 80.07363
#
# Poissons Ratio (x) = 0.11105 0.24252
# Poissons Ratio (y) = 0.25552 0.44498
# Poissons Ratio (z) = 0.30649 0.24441
#
# Static dielectric constant tensor:
#      x y z
#    x 4.900110 0.000000 0.000000 
#    y 0.000000 4.369530 0.000000 
#    z 0.000000 0.000000 4.812180 
# 
# 
# High freq. dielectric constant tensor:
#      x y z
#    x 1.990850 0.000000 0.000000 
#    y 0.000000 1.961870 0.000000 
#    z 0.000000 0.000000 1.954470 
# 
# From -- ./inp_files/4318.got.cif
#   From: 2010.03.12/outbox.cif.g09.slc.cpg/sg29_3_cif.got.tgz:4318.got - 2010.04.14 03:43:10.
