data_PCOD8169448
_publ_section_title
;
Structure prediction by ZEFSAII (Michael W. Deem and Ramdas Pophale) SiO2 
 PCOD8169448
Probable space group: P N C 2
;
_chemical_formula_sum "Si O2"
_cell_formula_units_Z 30
_cell_length_a 7.455720
_cell_length_b 12.242983
_cell_length_c 15.311368
_cell_angle_alpha 90.000000
_cell_angle_beta 90.000000
_cell_angle_gamma 90.000000
_cell_volume 1397.625548
_symmetry_space_group_name_H-M "P N C 2"
_symmetry_group_IT_number 30
_symmetry_cell_setting 'orthorhombic'
loop_
_space_group_symop_operation_xyz
x,y,z
-x,-y,z
-x,1/2+y,1/2+z
x,1/2-y,1/2+z
loop_
_atom_site_type_symbol
_atom_site_label
_atom_site_fract_x
_atom_site_fract_y
_atom_site_fract_z
Si Si1 0.514923 0.824085 0.657220
Si Si2 0.205487 0.268346 0.878604
Si Si3 0.000000 0.000000 0.076079
Si Si4 0.152656 0.834245 0.580314
Si Si5 0.854211 0.703034 0.678240
Si Si6 0.870957 0.160390 0.943768
Si Si7 0.320656 0.456796 0.002157
Si Si8 0.473673 0.619161 0.348168
O O1 0.309108 0.789674 0.643861
O O2 0.643982 0.718870 0.658059
O O3 0.579010 0.900221 0.581099
O O4 0.526308 0.889988 0.747287
O O5 0.130707 0.300752 0.783107
O O6 0.204336 0.375817 0.940679
O O7 0.401820 0.214689 0.887756
O O8 0.074383 0.171646 0.910390
O O9 0.095045 0.086880 0.138655
O O10 0.857686 0.061158 0.013232
O O11 0.176157 0.773143 0.489511
O O12 0.967724 0.803050 0.632100
O O13 0.179924 0.959744 0.549027
O O14 0.734095 0.148275 0.863678
O O15 0.500000 0.500000 0.949205
O O16 0.500000 0.500000 0.391350
#
# Coordination Sequence:
#
# PCOD8169448 Si02
#       8
#     4   4   2   4   4   4   4   4
#     4  10  21  38  59  87 119 153 200 255 308 370
#     4  11  24  41  62  93 128 161 210 272 320 380
#     4  10  22  42  60  88 126 166 210 256 318 388
#     4  10  21  38  61  86 116 160 205 249 309 380
#     4  10  23  41  62  87 124 164 207 262 320 380
#     4  11  23  38  61  88 120 161 206 254 311 379
#     4  10  20  38  63  90 122 160 208 261 320 384
#     4  11  22  38  61  88 121 161 205 258 315 374
#
# _framework density 21.464974999999999
#
# number of rings (size 3 to 8) (size 9 to 14) (size 15 to 20)
#    0.000    1.600    0.000    6.000    0.000    4.267 
#    0.000   10.000    0.000    0.000    0.000    0.000 
#    0.000    0.000    0.000    0.000    0.000    0.000 
#
# Total GULP energy -371683.248435 kJ/mol
# GULP energy per Si atom -12389.441615 kJ/mol
# Density = 2.141612 g / cm^3
# Si number density = 21.464975 Si / 1000 Ang^3
#
#
#
# Elastic Constant Matrix: (Units=GPa)
#
#
# Indices 1 2 3 4 5 6 
#
# 1 117.1959 39.9952 32.7762 0.0000 0.0000 0.0000
# 2 39.9952 79.2400 48.4674 0.0000 0.0000 0.0000
# 3 32.7762 48.4674 99.2594 0.0000 0.0000 0.0000
# 4 0.0000 0.0000 0.0000 -16.6573 0.0000 0.0000
# 5 0.0000 0.0000 0.0000 0.0000 32.0638 0.0000
# 6 0.0000 0.0000 0.0000 0.0000 0.0000 26.4634
#
#
#
# Elastic Compliance Matrix: (Units=1/GPa)
#
#
# Indices 1 2 3 4 5 6 
#
# 1 0.010415 -0.004496 -0.001244 0.000000 0.000000 0.000000
# 2 -0.004496 0.019935 -0.008249 0.000000 0.000000 0.000000
# 3 -0.001244 -0.008249 0.014513 0.000000 0.000000 0.000000
# 4 0.000000 0.000000 0.000000 -0.060034 0.000000 0.000000
# 5 0.000000 0.000000 0.000000 0.000000 0.031188 0.000000
# 6 0.000000 0.000000 0.000000 0.000000 0.000000 0.037788
#
#
# Mechanical properties :
#
#
# Convention : Reuss Voigt Hill
#
# Bulk Modulus (GPa) = 59.22438 59.79698 59.51068
# Shear Modulus (GPa) = 57.20033 20.00442 38.60238
#
# Velocity S-wave (km/s) = 5.16779 3.05611 4.24534
# Velocity P-wave (km/s) = 7.95356 6.35385 7.19829
#
# Compressibility (1/GPa) = 0.01688494
#
# Stress axis : x y z
#
# Youngs Moduli (GPa) = 96.01628 50.16306 68.90173
#
# Poissons Ratio (x) = 0.22554 0.08569
# Poissons Ratio (y) = 0.43169 0.56840
# Poissons Ratio (z) = 0.11942 0.41382
#
# Static dielectric constant tensor:
#      x y z
#    x 4.274980 0.000000 0.000000 
#    y 0.000000 4.807180 0.000000 
#    z 0.000000 0.000000 3.921920 
# 
# 
# High freq. dielectric constant tensor:
#      x y z
#    x 1.850950 0.000000 0.000000 
#    y 0.000000 1.837510 0.000000 
#    z 0.000000 0.000000 1.841880 
# 
# From -- ./inp_files/5181.got.cif
#   From: 2010.03.12/outbox.cif.g09.slc.cpg/sg30_3_cif.got.tgz:5181.got - 2010.04.14 01:38:02.
