data_PCOD8169402
_publ_section_title
;
Structure prediction by ZEFSAII (Michael W. Deem and Ramdas Pophale) SiO2 
 PCOD8169402
Probable space group: P N C 2
;
_chemical_formula_sum "Si O2"
_cell_formula_units_Z 30
_cell_length_a 10.964692
_cell_length_b 13.774927
_cell_length_c 9.685802
_cell_angle_alpha 90.000000
_cell_angle_beta 90.000000
_cell_angle_gamma 90.000000
_cell_volume 1462.922534
_symmetry_space_group_name_H-M "P N C 2"
_symmetry_group_IT_number 30
_symmetry_cell_setting 'orthorhombic'
loop_
_space_group_symop_operation_xyz
x,y,z
-x,-y,z
-x,1/2+y,1/2+z
x,1/2-y,1/2+z
loop_
_atom_site_type_symbol
_atom_site_label
_atom_site_fract_x
_atom_site_fract_y
_atom_site_fract_z
Si Si1 0.884609 0.278129 0.434480
Si Si2 0.611609 0.846855 0.726374
Si Si3 0.293477 0.604193 0.867560
Si Si4 0.195785 0.481759 0.108309
Si Si5 0.488824 0.233887 0.460510
Si Si6 0.326519 0.899885 0.050497
Si Si7 0.500000 0.500000 0.378789
Si Si8 0.970995 0.149654 0.663066
O O1 0.808731 0.187515 0.374635
O O2 0.797685 0.366496 0.478156
O O3 0.957860 0.244721 0.569075
O O4 0.984044 0.314449 0.321304
O O5 0.720190 0.926143 0.720232
O O6 0.601799 0.805007 0.575666
O O7 0.610897 0.762702 0.842631
O O8 0.493470 0.906833 0.778318
O O9 0.423969 0.647115 0.911607
O O10 0.303218 0.571864 0.708921
O O11 0.260107 0.509062 0.961185
O O12 0.153314 0.585900 0.166931
O O13 0.079469 0.411519 0.094828
O O14 0.568585 0.318329 0.531558
O O15 0.378490 0.996456 0.974933
#
# Coordination Sequence:
#
# PCOD8169402 Si02
#       8
#     4   4   4   4   4   4   2   4
#     4  10  19  35  66  85 113 149 214 247 296 352
#     4  11  21  39  54  86 117 166 186 254 297 378
#     4  10  19  36  60  93 115 159 199 258 293 376
#     4  10  23  37  61  83 126 151 205 249 327 342
#     4  10  21  34  60  86 123 153 209 235 301 370
#     4  10  19  34  57  94 116 156 198 253 290 374
#     4  10  22  32  58  84 128 144 198 244 312 350
#     4  10  21  40  62  88 110 159 203 263 291 369
#
# _framework density 20.506896999999999
#
# number of rings (size 3 to 8) (size 9 to 14) (size 15 to 20)
#    0.000    1.867    2.667    1.600    0.000    2.133 
#    0.000    0.000    8.800    0.000    0.000    0.000 
#    0.000    0.000    0.000    0.000    0.000    0.000 
#
# Total GULP energy -371649.911800 kJ/mol
# GULP energy per Si atom -12388.330393 kJ/mol
# Density = 2.046022 g / cm^3
# Si number density = 20.506897 Si / 1000 Ang^3
#
#
#
# Elastic Constant Matrix: (Units=GPa)
#
#
# Indices 1 2 3 4 5 6 
#
# 1 59.1271 35.0165 47.3481 0.0000 0.0000 0.0000
# 2 35.0165 73.1456 58.4801 0.0000 0.0000 0.0000
# 3 47.3481 58.4801 165.1514 0.0000 0.0000 0.0000
# 4 0.0000 0.0000 0.0000 34.8055 0.0000 0.0000
# 5 0.0000 0.0000 0.0000 0.0000 27.2350 0.0000
# 6 0.0000 0.0000 0.0000 0.0000 0.0000 34.3758
#
#
#
# Elastic Compliance Matrix: (Units=1/GPa)
#
#
# Indices 1 2 3 4 5 6 
#
# 1 0.025510 -0.008878 -0.004170 0.000000 0.000000 0.000000
# 2 -0.008878 0.022160 -0.005302 0.000000 0.000000 0.000000
# 3 -0.004170 -0.005302 0.009128 0.000000 0.000000 0.000000
# 4 0.000000 0.000000 0.000000 0.028731 0.000000 0.000000
# 5 0.000000 0.000000 0.000000 0.000000 0.036717 0.000000
# 6 0.000000 0.000000 0.000000 0.000000 0.000000 0.029090
#
#
# Mechanical properties :
#
#
# Convention : Reuss Voigt Hill
#
# Bulk Modulus (GPa) = 49.75505 64.34594 57.05050
# Shear Modulus (GPa) = 25.67587 29.72190 27.69888
#
# Velocity S-wave (km/s) = 3.54228 3.81118 3.67919
# Velocity P-wave (km/s) = 6.40669 7.12830 6.77710
#
# Compressibility (1/GPa) = 0.02009846
#
# Stress axis : x y z
#
# Youngs Moduli (GPa) = 39.20064 45.12574 109.55603
#
# Poissons Ratio (x) = 0.40065 0.45681
# Poissons Ratio (y) = 0.34804 0.58082
# Poissons Ratio (z) = 0.16345 0.23924
#
# Static dielectric constant tensor:
#      x y z
#    x 3.480980 0.000000 0.000000 
#    y 0.000000 3.727690 0.000000 
#    z 0.000000 0.000000 3.780120 
# 
# 
# High freq. dielectric constant tensor:
#      x y z
#    x 1.772390 0.000000 0.000000 
#    y 0.000000 1.792400 0.000000 
#    z 0.000000 0.000000 1.811860 
# 
# From -- ./inp_files/2465.got.cif
#   From: 2010.03.12/outbox.cif.g09.slc.cpg/sg30_2_cif.got.tgz:2465.got - 2010.04.14 01:38:02.
