data_PCOD8169873
_publ_section_title
;
Structure prediction by ZEFSAII (Michael W. Deem and Ramdas Pophale) SiO2 
 PCOD8169873
Probable space group: P M N 21
;
_chemical_formula_sum "Si O2"
_cell_formula_units_Z 32
_cell_length_a 9.313516
_cell_length_b 12.158922
_cell_length_c 14.412448
_cell_angle_alpha 90.000000
_cell_angle_beta 90.000000
_cell_angle_gamma 90.000000
_cell_volume 1632.098970
_symmetry_space_group_name_H-M "P M N 21"
_symmetry_group_IT_number 31
_symmetry_cell_setting 'orthorhombic'
loop_
_space_group_symop_operation_xyz
x,y,z
1/2-x,-y,1/2+z
-x,y,z
1/2+x,-y,1/2+z
loop_
_atom_site_type_symbol
_atom_site_label
_atom_site_fract_x
_atom_site_fract_y
_atom_site_fract_z
Si Si1 0.665485 0.336041 0.365060
Si Si2 0.834941 0.479825 0.728659
Si Si3 0.658843 0.194798 0.621341
Si Si4 0.666895 0.878905 0.433246
Si Si5 0.662435 0.946856 0.634573
Si Si6 0.662763 0.287607 0.817856
Si Si7 0.832609 0.383093 0.538055
Si Si8 0.830082 0.907411 0.819539
O O1 0.500000 0.338702 0.393788
O O2 0.688351 0.395874 0.265325
O O3 0.750365 0.407423 0.442344
O O4 0.721983 0.210287 0.360717
O O5 0.737206 0.401621 0.791331
O O6 0.793108 0.471490 0.619194
O O7 0.000000 0.441676 0.740270
O O8 0.500000 0.232471 0.585830
O O9 0.666755 0.204701 0.731757
O O10 0.782868 0.263562 0.572583
O O11 0.685984 0.069405 0.596443
O O12 0.500000 0.864446 0.408224
O O13 0.692933 0.874914 0.543468
O O14 0.753686 0.772964 0.399675
O O15 0.722621 0.992643 0.385265
O O16 0.500000 0.930658 0.671079
O O17 0.769758 0.917417 0.716178
O O18 0.500000 0.312770 0.849658
O O19 0.000000 0.381487 0.516559
O O20 0.000000 0.906494 0.810377
#
# Coordination Sequence:
#
# PCOD8169873 Si02
#       8
#     4   4   4   4   4   4   4   4
#     4  10  21  40  61  81 113 156 190 226 285 347
#     4   9  20  39  60  81 112 149 186 231 286 339
#     4   9  17  32  54  78 109 146 184 227 276 330
#     4  10  20  34  54  80 115 152 184 223 279 343
#     4  10  20  35  54  80 115 152 187 227 278 336
#     4  10  19  33  56  81 106 138 183 236 277 322
#     4  10  20  34  57  88 113 143 191 243 281 323
#     4  10  21  37  58  83 113 152 191 229 278 338
#
# _framework density 19.606656000000001
#
# number of rings (size 3 to 8) (size 9 to 14) (size 15 to 20)
#    0.000    2.250    1.250    1.500    0.000    5.000 
#    2.250    1.250    0.000    0.000    0.000    0.000 
#    0.000    0.000    0.000    0.000    0.000    0.000 
#
# Total GULP energy -396725.614921 kJ/mol
# GULP energy per Si atom -12397.675466 kJ/mol
# Density = 1.956203 g / cm^3
# Si number density = 19.606656 Si / 1000 Ang^3
#
#
#
# Elastic Constant Matrix: (Units=GPa)
#
#
# Indices 1 2 3 4 5 6 
#
# 1 54.3113 16.4064 28.9740 0.0000 0.0000 0.0000
# 2 16.4064 40.7132 16.3847 0.0000 0.0000 0.0000
# 3 28.9740 16.3847 90.7217 0.0000 0.0000 0.0000
# 4 0.0000 0.0000 0.0000 27.5320 0.0000 0.0000
# 5 0.0000 0.0000 0.0000 0.0000 32.2844 0.0000
# 6 0.0000 0.0000 0.0000 0.0000 0.0000 21.2163
#
#
#
# Elastic Compliance Matrix: (Units=1/GPa)
#
#
# Indices 1 2 3 4 5 6 
#
# 1 0.023952 -0.007089 -0.006369 0.000000 0.000000 0.000000
# 2 -0.007089 0.028585 -0.002899 0.000000 0.000000 0.000000
# 3 -0.006369 -0.002899 0.013580 0.000000 0.000000 0.000000
# 4 0.000000 0.000000 0.000000 0.036321 0.000000 0.000000
# 5 0.000000 0.000000 0.000000 0.000000 0.030975 0.000000
# 6 0.000000 0.000000 0.000000 0.000000 0.000000 0.047134
#
#
# Mechanical properties :
#
#
# Convention : Reuss Voigt Hill
#
# Bulk Modulus (GPa) = 29.93654 34.36407 32.15031
# Shear Modulus (GPa) = 22.28219 24.47195 23.37707
#
# Velocity S-wave (km/s) = 3.37480 3.53674 3.45672
# Velocity P-wave (km/s) = 5.52154 5.85174 5.68904
#
# Compressibility (1/GPa) = 0.03340399
#
# Stress axis : x y z
#
# Youngs Moduli (GPa) = 41.75095 34.98324 73.63560
#
# Poissons Ratio (x) = 0.24798 0.46900
# Poissons Ratio (y) = 0.29596 0.21345
# Poissons Ratio (z) = 0.26592 0.10141
#
# Static dielectric constant tensor:
#      x y z
#    x 3.545590 0.000000 0.000000 
#    y 0.000000 3.409190 0.000000 
#    z 0.000000 0.000000 3.602820 
# 
# 
# High freq. dielectric constant tensor:
#      x y z
#    x 1.757340 0.000000 0.000000 
#    y 0.000000 1.747280 0.000000 
#    z 0.000000 0.000000 1.766890 
# 
# From -- ./inp_files/5096.got.cif
#   From: 2010.03.12/outbox.cif.g09.slc.cpg/sg31_3_cif.got.tgz:5096.got - 2010.04.14 01:42:59.
