data_PCOD8169709
_publ_section_title
;
Structure prediction by ZEFSAII (Michael W. Deem and Ramdas Pophale) SiO2 
 PCOD8169709
Probable space group: P M N 21
;
_chemical_formula_sum "Si O2"
_cell_formula_units_Z 32
_cell_length_a 8.636293
_cell_length_b 7.433946
_cell_length_c 24.480803
_cell_angle_alpha 90.000000
_cell_angle_beta 90.000000
_cell_angle_gamma 90.000000
_cell_volume 1571.710046
_symmetry_space_group_name_H-M "P M N 21"
_symmetry_group_IT_number 31
_symmetry_cell_setting 'orthorhombic'
loop_
_space_group_symop_operation_xyz
x,y,z
1/2-x,-y,1/2+z
-x,y,z
1/2+x,-y,1/2+z
loop_
_atom_site_type_symbol
_atom_site_label
_atom_site_fract_x
_atom_site_fract_y
_atom_site_fract_z
Si Si1 0.681758 0.833273 0.450910
Si Si2 0.181605 0.480756 0.140432
Si Si3 0.180356 0.175664 0.222458
Si Si4 0.319477 0.175042 0.842273
Si Si5 0.318120 0.773486 0.943535
Si Si6 0.819193 0.772627 0.224109
Si Si7 0.319973 0.211093 0.332887
Si Si8 0.680909 0.456838 0.023395
O O1 0.500000 0.829493 0.442433
O O2 0.764199 0.733280 0.398733
O O3 0.727797 0.720784 0.504353
O O4 0.735865 0.038536 0.457907
O O5 0.211715 0.286530 0.167543
O O6 0.252233 0.631277 0.181565
O O7 0.278694 0.495993 0.085746
O O8 0.000000 0.508764 0.128425
O O9 0.259462 0.277466 0.273852
O O10 0.000000 0.165959 0.236950
O O11 0.247873 0.973856 0.214214
O O12 0.500000 0.121840 0.845996
O O13 0.287975 0.290927 0.787189
O O14 0.214341 0.999524 0.837302
O O15 0.500000 0.807000 0.944096
O O16 0.267032 0.695881 0.884150
O O17 0.266068 0.629412 0.988620
O O18 0.000000 0.775487 0.212531
O O19 0.500000 0.252721 0.338200
O O20 0.500000 0.420053 0.016679
#
# Coordination Sequence:
#
# PCOD8169709 Si02
#       8
#     4   4   4   4   4   4   4   4
#     4  11  22  37  60  88 117 148 185 235 288 337
#     4  10  21  37  56  78 105 141 189 236 275 323
#     4   9  18  34  55  79 109 146 181 218 276 341
#     4   9  16  31  55  82 114 148 182 222 274 341
#     4  10  21  39  61  83 113 153 191 232 284 342
#     4   8  16  32  54  79 107 139 176 219 268 326
#     4  10  18  30  53  85 115 142 179 229 280 331
#     4  11  25  42  58  80 112 151 195 237 281 337
#
# _framework density 20.35999
#
# number of rings (size 3 to 8) (size 9 to 14) (size 15 to 20)
#    0.000    2.250    0.000    5.625    0.000    4.500 
#    0.000    6.875    0.000    0.000    0.000    0.000 
#    0.000    0.000    0.000    0.000    0.000    0.000 
#
# Total GULP energy -396666.652259 kJ/mol
# GULP energy per Si atom -12395.832883 kJ/mol
# Density = 2.031365 g / cm^3
# Si number density = 20.359990 Si / 1000 Ang^3
#
#
#
# Elastic Constant Matrix: (Units=GPa)
#
#
# Indices 1 2 3 4 5 6 
#
# 1 68.8662 23.2109 27.4481 0.0000 0.0000 0.0000
# 2 23.2109 60.0031 28.6947 0.0000 0.0000 0.0000
# 3 27.4481 28.6947 118.4269 0.0000 0.0000 0.0000
# 4 0.0000 0.0000 0.0000 35.7450 0.0000 0.0000
# 5 0.0000 0.0000 0.0000 0.0000 35.1771 0.0000
# 6 0.0000 0.0000 0.0000 0.0000 0.0000 12.4991
#
#
#
# Elastic Compliance Matrix: (Units=1/GPa)
#
#
# Indices 1 2 3 4 5 6 
#
# 1 0.017441 -0.005445 -0.002723 0.000000 0.000000 0.000000
# 2 -0.005445 0.020550 -0.003717 0.000000 0.000000 0.000000
# 3 -0.002723 -0.003717 0.009976 0.000000 0.000000 0.000000
# 4 0.000000 0.000000 0.000000 0.027976 0.000000 0.000000
# 5 0.000000 0.000000 0.000000 0.000000 0.028428 0.000000
# 6 0.000000 0.000000 0.000000 0.000000 0.000000 0.080006
#
#
# Mechanical properties :
#
#
# Convention : Reuss Voigt Hill
#
# Bulk Modulus (GPa) = 41.32774 45.11153 43.21963
# Shear Modulus (GPa) = 23.12549 27.88040 25.50295
#
# Velocity S-wave (km/s) = 3.37386 3.70452 3.54305
# Velocity P-wave (km/s) = 5.95985 6.36420 6.16534
#
# Compressibility (1/GPa) = 0.02419682
#
# Stress axis : x y z
#
# Youngs Moduli (GPa) = 57.33497 48.66283 100.24173
#
# Poissons Ratio (x) = 0.26495 0.27298
# Poissons Ratio (y) = 0.31216 0.37262
# Poissons Ratio (z) = 0.15614 0.18089
#
# Static dielectric constant tensor:
#      x y z
#    x 3.473210 0.000000 0.000000 
#    y 0.000000 3.672910 0.000000 
#    z 0.000000 0.000000 4.005920 
# 
# 
# High freq. dielectric constant tensor:
#      x y z
#    x 1.780770 0.000000 0.000000 
#    y 0.000000 1.780960 0.000000 
#    z 0.000000 0.000000 1.802850 
# 
# From -- ./inp_files/6458.got.cif
#   From: 2010.03.12/outbox.cif.g09.slc.cpg/sg31_4_cif.got.tgz:6458.got - 2010.04.14 01:42:59.
