data_PCOD8169559
_publ_section_title
;
Structure prediction by ZEFSAII (Michael W. Deem and Ramdas Pophale) SiO2 
 PCOD8169559
Probable space group: P N C 2
;
_chemical_formula_sum "Si O2"
_cell_formula_units_Z 30
_cell_length_a 11.667390
_cell_length_b 8.790846
_cell_length_c 14.466974
_cell_angle_alpha 90.000000
_cell_angle_beta 90.000000
_cell_angle_gamma 90.000000
_cell_volume 1483.822964
_symmetry_space_group_name_H-M "P N C 2"
_symmetry_group_IT_number 30
_symmetry_cell_setting 'orthorhombic'
loop_
_space_group_symop_operation_xyz
x,y,z
-x,-y,z
-x,1/2+y,1/2+z
x,1/2-y,1/2+z
loop_
_atom_site_type_symbol
_atom_site_label
_atom_site_fract_x
_atom_site_fract_y
_atom_site_fract_z
Si Si1 0.341193 0.364113 0.395570
Si Si2 0.123185 0.552952 0.755288
Si Si3 0.583057 0.326611 0.468522
Si Si4 0.500000 0.500000 0.637472
Si Si5 0.957303 0.166371 0.066662
Si Si6 0.303383 0.298652 0.709231
Si Si7 0.807413 0.688101 0.033242
Si Si8 0.792498 0.359202 0.947044
O O1 0.456905 0.283120 0.432590
O O2 0.356487 0.545303 0.404189
O O3 0.320614 0.322972 0.289692
O O4 0.232513 0.305201 0.453984
O O5 0.105474 0.661773 0.666439
O O6 0.194118 0.404875 0.726137
O O7 0.185965 0.642119 0.837220
O O8 0.000000 0.500000 0.793390
O O9 0.577283 0.390780 0.572921
O O10 0.659033 0.175996 0.464466
O O11 0.416966 0.401623 0.701982
O O12 0.066540 0.275675 0.070792
O O13 0.868384 0.226616 0.991474
O O14 0.000000 0.000000 0.036861
O O15 0.283177 0.200288 0.616844
O O16 0.816311 0.520454 0.992418
#
# Coordination Sequence:
#
# PCOD8169559 Si02
#       8
#     4   4   4   2   4   4   4   4
#     4  10  23  42  67  94 129 179 221 272 329 402
#     4  11  23  43  67  96 132 174 221 269 334 399
#     4  10  22  47  61  93 138 174 221 270 338 399
#     4  10  22  42  72  90 134 180 224 266 346 392
#     4  11  23  43  69  93 131 176 218 265 339 393
#     4  12  22  41  70  98 132 180 222 280 335 398
#     4  12  22  42  66  97 131 170 223 279 326 398
#     4  12  26  41  69 100 134 169 223 278 333 396
#
# _framework density 20.218045
#
# number of rings (size 3 to 8) (size 9 to 14) (size 15 to 20)
#    0.000    1.067    6.667    2.800    1.867    1.600 
#    4.800    1.333    0.000    0.000    0.000    0.000 
#    0.000    0.000    0.000    0.000    0.000    0.000 
#
# Total GULP energy -372083.167401 kJ/mol
# GULP energy per Si atom -12402.772247 kJ/mol
# Density = 2.017203 g / cm^3
# Si number density = 20.218045 Si / 1000 Ang^3
#
#
#
# Elastic Constant Matrix: (Units=GPa)
#
#
# Indices 1 2 3 4 5 6 
#
# 1 79.1802 29.2020 13.5288 0.0000 0.0000 0.0000
# 2 29.2020 75.4611 32.2068 0.0000 0.0000 0.0000
# 3 13.5288 32.2068 109.7679 0.0000 0.0000 0.0000
# 4 0.0000 0.0000 0.0000 32.9014 0.0000 0.0000
# 5 0.0000 0.0000 0.0000 0.0000 19.5493 0.0000
# 6 0.0000 0.0000 0.0000 0.0000 0.0000 39.3516
#
#
#
# Elastic Compliance Matrix: (Units=1/GPa)
#
#
# Indices 1 2 3 4 5 6 
#
# 1 0.014735 -0.005632 -0.000163 0.000000 0.000000 0.000000
# 2 -0.005632 0.017302 -0.004382 0.000000 0.000000 0.000000
# 3 -0.000163 -0.004382 0.010416 0.000000 0.000000 0.000000
# 4 0.000000 0.000000 0.000000 0.030394 0.000000 0.000000
# 5 0.000000 0.000000 0.000000 0.000000 0.051153 0.000000
# 6 0.000000 0.000000 0.000000 0.000000 0.000000 0.025412
#
#
# Mechanical properties :
#
#
# Convention : Reuss Voigt Hill
#
# Bulk Modulus (GPa) = 45.25626 46.03160 45.64393
# Shear Modulus (GPa) = 28.22747 30.99190 29.60969
#
# Velocity S-wave (km/s) = 3.74057 3.91945 3.83105
# Velocity P-wave (km/s) = 6.41003 6.58026 6.49570
#
# Compressibility (1/GPa) = 0.02209639
#
# Stress axis : x y z
#
# Youngs Moduli (GPa) = 67.86778 57.79747 96.00527
#
# Poissons Ratio (x) = 0.32553 0.01569
# Poissons Ratio (y) = 0.38225 0.42073
# Poissons Ratio (z) = 0.01110 0.25329
#
# Static dielectric constant tensor:
#      x y z
#    x 3.911730 0.000000 0.000000 
#    y 0.000000 3.471120 0.000000 
#    z 0.000000 0.000000 3.702670 
# 
# 
# High freq. dielectric constant tensor:
#      x y z
#    x 1.804540 0.000000 0.000000 
#    y 0.000000 1.772830 0.000000 
#    z 0.000000 0.000000 1.792100 
# 
# From -- ./inp_files/5493.got.cif
#   From: 2010.03.12/outbox.cif.g09.slc.cpg/sg30_3_cif.got.tgz:5493.got - 2010.04.14 01:38:02.
