data_PCOD8169866
_publ_section_title
;
Structure prediction by ZEFSAII (Michael W. Deem and Ramdas Pophale) SiO2 
 PCOD8169866
Probable space group: P M N 21
;
_chemical_formula_sum "Si O2"
_cell_formula_units_Z 24
_cell_length_a 8.825388
_cell_length_b 9.524919
_cell_length_c 15.319571
_cell_angle_alpha 90.000000
_cell_angle_beta 90.000000
_cell_angle_gamma 90.000000
_cell_volume 1287.780079
_symmetry_space_group_name_H-M "P M N 21"
_symmetry_group_IT_number 31
_symmetry_cell_setting 'orthorhombic'
loop_
_space_group_symop_operation_xyz
x,y,z
1/2-x,-y,1/2+z
-x,y,z
1/2+x,-y,1/2+z
loop_
_atom_site_type_symbol
_atom_site_label
_atom_site_fract_x
_atom_site_fract_y
_atom_site_fract_z
Si Si1 0.179180 0.338824 0.493900
Si Si2 0.821610 0.158947 0.659707
Si Si3 0.679099 0.149860 0.841411
Si Si4 0.820831 0.851567 0.848826
Si Si5 0.678512 0.155882 0.153154
Si Si6 0.679800 0.343786 0.999114
O O1 0.226832 0.265185 0.584038
O O2 0.260760 0.265327 0.413680
O O3 0.240690 0.497504 0.497845
O O4 0.000000 0.329449 0.479068
O O5 0.737677 0.203909 0.748143
O O6 0.000000 0.162614 0.678621
O O7 0.768667 0.002898 0.631783
O O8 0.500000 0.132056 0.839440
O O9 0.731721 0.265454 0.911466
O O10 0.749290 0.001958 0.870572
O O11 0.771954 0.803731 0.751290
O O12 0.000000 0.866534 0.856576
O O13 0.500000 0.163771 0.143573
O O14 0.751089 0.263109 0.083129
O O15 0.500000 0.346058 0.006421
#
# Coordination Sequence:
#
# PCOD8169866 Si02
#       6
#     4   4   4   4   4   4
#     4  10  20  34  53  76 104 139 174 209 256 314
#     4   9  18  33  53  75 101 136 177 218 259 305
#     4  10  19  33  55  79 104 136 174 216 260 307
#     4  10  20  34  54  79 105 134 173 219 261 304
#     4   8  15  30  50  71  96 129 169 210 251 298
#     4   9  18  32  51  76 104 136 173 210 255 314
#
# _framework density 18.636724000000001
#
# number of rings (size 3 to 8) (size 9 to 14) (size 15 to 20)
#    0.000    2.667    0.000    3.000    0.000    4.667 
#    0.000    3.333    0.000    8.000    0.000    0.000 
#    0.000    0.000    0.000    0.000    0.000    0.000 
#
# Total GULP energy -297578.984100 kJ/mol
# GULP energy per Si atom -12399.124338 kJ/mol
# Density = 1.859431 g / cm^3
# Si number density = 18.636724 Si / 1000 Ang^3
#
#
#
# Elastic Constant Matrix: (Units=GPa)
#
#
# Indices 1 2 3 4 5 6 
#
# 1 41.1054 36.9489 41.8687 0.0000 0.0000 0.0000
# 2 36.9489 169.1546 122.6815 0.0000 0.0000 0.0000
# 3 41.8687 122.6815 166.4584 0.0000 0.0000 0.0000
# 4 0.0000 0.0000 0.0000 14.7225 0.0000 0.0000
# 5 0.0000 0.0000 0.0000 0.0000 29.5625 0.0000
# 6 0.0000 0.0000 0.0000 0.0000 0.0000 19.4193
#
#
#
# Elastic Compliance Matrix: (Units=1/GPa)
#
#
# Indices 1 2 3 4 5 6 
#
# 1 0.033219 -0.002570 -0.006461 0.000000 0.000000 0.000000
# 2 -0.002570 0.012899 -0.008861 0.000000 0.000000 0.000000
# 3 -0.006461 -0.008861 0.014163 0.000000 0.000000 0.000000
# 4 0.000000 0.000000 0.000000 0.067923 0.000000 0.000000
# 5 0.000000 0.000000 0.000000 0.000000 0.033827 0.000000
# 6 0.000000 0.000000 0.000000 0.000000 0.000000 0.051495
#
#
# Mechanical properties :
#
#
# Convention : Reuss Voigt Hill
#
# Bulk Modulus (GPa) = 40.82010 86.63520 63.72765
# Shear Modulus (GPa) = 19.41926 24.42214 21.92070
#
# Velocity S-wave (km/s) = 3.23149 3.62391 3.43331
# Velocity P-wave (km/s) = 5.98949 8.00609 7.07006
#
# Compressibility (1/GPa) = 0.02449773
#
# Stress axis : x y z
#
# Youngs Moduli (GPa) = 30.10311 77.52357 70.60632
#
# Poissons Ratio (x) = 0.19923 0.45622
# Poissons Ratio (y) = 0.07736 0.62561
# Poissons Ratio (z) = 0.19451 0.68690
#
# Static dielectric constant tensor:
#      x y z
#    x 3.103680 0.000000 0.000000 
#    y 0.000000 3.684670 0.000000 
#    z 0.000000 0.000000 3.636890 
# 
# 
# High freq. dielectric constant tensor:
#      x y z
#    x 1.691520 0.000000 0.000000 
#    y 0.000000 1.723060 0.000000 
#    z 0.000000 0.000000 1.737820 
# 
# From -- ./inp_files/4733.got.cif
#   From: 2010.03.12/outbox.cif.g09.slc.cpg/sg31_3_cif.got.tgz:4733.got - 2010.04.14 01:42:59.
