data_PCOD8169643
_publ_section_title
;
Structure prediction by ZEFSAII (Michael W. Deem and Ramdas Pophale) SiO2 
 PCOD8169643
Probable space group: P N C 2
;
_chemical_formula_sum "Si O2"
_cell_formula_units_Z 16
_cell_length_a 8.252489
_cell_length_b 9.098203
_cell_length_c 7.534855
_cell_angle_alpha 90.000000
_cell_angle_beta 90.000000
_cell_angle_gamma 90.000000
_cell_volume 565.738163
_symmetry_space_group_name_H-M "P N C 2"
_symmetry_group_IT_number 30
_symmetry_cell_setting 'orthorhombic'
loop_
_space_group_symop_operation_xyz
x,y,z
-x,-y,z
-x,1/2+y,1/2+z
x,1/2-y,1/2+z
loop_
_atom_site_type_symbol
_atom_site_label
_atom_site_fract_x
_atom_site_fract_y
_atom_site_fract_z
Si Si1 0.813304 0.975600 0.097560
Si Si2 0.687613 0.214167 0.326561
Si Si3 0.687612 0.785833 0.408258
Si Si4 0.813304 0.024400 0.637259
O O1 0.798529 0.868639 0.267166
O O2 0.716449 0.128229 0.136696
O O3 0.741068 0.884946 0.928124
O O4 0.000000 0.000000 0.058481
O O5 0.500000 0.198531 0.367410
O O6 0.798531 0.131362 0.467652
O O7 0.741068 0.384946 0.306694
O O8 0.716449 0.871771 0.598122
O O9 0.000000 0.000000 0.676338
#
# Coordination Sequence:
#
# PCOD8169643 Si02
#       4
#     4   4   4   4
#     4  11  24  45  71 106 147 189 238 297 356 428
#     4  11  24  45  71 106 147 189 238 297 356 428
#     4  11  24  45  71 106 147 189 238 297 356 428
#     4  11  24  45  71 106 147 189 238 297 356 428
#
# _framework density 28.281631000000001
#
# number of rings (size 3 to 8) (size 9 to 14) (size 15 to 20)
#    0.000    1.000    0.000    9.000    0.000    2.000 
#    0.000   10.000    0.000    0.000    0.000    0.000 
#    0.000    0.000    0.000    0.000    0.000    0.000 
#
# Total GULP energy -198549.794088 kJ/mol
# GULP energy per Si atom -12409.362131 kJ/mol
# Density = 2.821726 g / cm^3
# Si number density = 28.281631 Si / 1000 Ang^3
#
#
#
# Elastic Constant Matrix: (Units=GPa)
#
#
# Indices 1 2 3 4 5 6 
#
# 1 225.5752 78.0893 50.8480 0.0000 0.0000 0.0000
# 2 78.0893 203.9004 5.3625 0.0000 0.0000 0.0000
# 3 50.8480 5.3625 58.9564 0.0000 0.0000 0.0000
# 4 0.0000 0.0000 0.0000 32.4760 0.0000 0.0000
# 5 0.0000 0.0000 0.0000 0.0000 28.0130 0.0000
# 6 0.0000 0.0000 0.0000 0.0000 0.0000 52.9367
#
#
#
# Elastic Compliance Matrix: (Units=1/GPa)
#
#
# Indices 1 2 3 4 5 6 
#
# 1 0.006444 -0.002327 -0.005346 0.000000 0.000000 0.000000
# 2 -0.002327 0.005757 0.001484 0.000000 0.000000 0.000000
# 3 -0.005346 0.001484 0.021437 0.000000 0.000000 0.000000
# 4 0.000000 0.000000 0.000000 0.030792 0.000000 0.000000
# 5 0.000000 0.000000 0.000000 0.000000 0.035698 0.000000
# 6 0.000000 0.000000 0.000000 0.000000 0.000000 0.018890
#
#
# Mechanical properties :
#
#
# Convention : Reuss Voigt Hill
#
# Bulk Modulus (GPa) = 47.03959 84.11461 65.57710
# Shear Modulus (GPa) = 36.10543 46.29396 41.19970
#
# Velocity S-wave (km/s) = 3.57688 4.05024 3.82090
# Velocity P-wave (km/s) = 5.80754 7.18881 6.53477
#
# Compressibility (1/GPa) = 0.02125869
#
# Stress axis : x y z
#
# Youngs Moduli (GPa) = 155.18814 173.71313 46.64747
#
# Poissons Ratio (x) = 0.40427 0.24937
# Poissons Ratio (y) = 0.36116 -0.06920
# Poissons Ratio (z) = 0.82962 -0.25771
#
# Static dielectric constant tensor:
#      x y z
#    x 4.460140 0.000000 0.000000 
#    y 0.000000 6.200480 0.000000 
#    z 0.000000 0.000000 6.240770 
# 
# 
# High freq. dielectric constant tensor:
#      x y z
#    x 2.119970 0.000000 0.000000 
#    y 0.000000 2.193330 0.000000 
#    z 0.000000 0.000000 2.199320 
# 
# From -- ./inp_files/1579.got.cif
#   From: 2010.03.12/outbox.cif.g09.slc.cpg/sg30_1_cif.got.tgz:1579.got - 2010.04.14 01:38:02.
