data_PCOD8169631
_publ_section_title
;
Structure prediction by ZEFSAII (Michael W. Deem and Ramdas Pophale) SiO2 
 PCOD8169631
Probable space group: P N C 2
;
_chemical_formula_sum "Si O2"
_cell_formula_units_Z 24
_cell_length_a 8.663035
_cell_length_b 16.951070
_cell_length_c 7.577642
_cell_angle_alpha 90.000000
_cell_angle_beta 90.000000
_cell_angle_gamma 90.000000
_cell_volume 1112.759395
_symmetry_space_group_name_H-M "P N C 2"
_symmetry_group_IT_number 30
_symmetry_cell_setting 'orthorhombic'
loop_
_space_group_symop_operation_xyz
x,y,z
-x,-y,z
-x,1/2+y,1/2+z
x,1/2-y,1/2+z
loop_
_atom_site_type_symbol
_atom_site_label
_atom_site_fract_x
_atom_site_fract_y
_atom_site_fract_z
Si Si1 0.448225 0.412329 0.485060
Si Si2 0.267785 0.156830 0.690178
Si Si3 0.776869 0.153065 0.971171
Si Si4 0.055782 0.587485 0.163472
Si Si5 0.765756 0.325570 0.863445
Si Si6 0.599237 0.677800 0.819006
O O1 0.500000 0.500000 0.527304
O O2 0.335200 0.411844 0.316560
O O3 0.593036 0.355197 0.449430
O O4 0.359974 0.380474 0.658219
O O5 0.323904 0.238529 0.774738
O O6 0.326331 0.142454 0.493655
O O7 0.083905 0.149535 0.679888
O O8 0.859039 0.086466 0.852986
O O9 0.830016 0.238356 0.900512
O O10 0.827937 0.143418 0.174928
O O11 0.000000 0.500000 0.115950
O O12 0.176601 0.614902 0.013796
O O13 0.581871 0.318335 0.857198
#
# Coordination Sequence:
#
# PCOD8169631 Si02
#       6
#     4   4   4   4   4   4
#     4  11  24  42  69 103 136 171 225 290 343 393
#     4  12  24  41  69  96 138 177 227 285 334 411
#     4  11  22  42  71  93 129 184 227 271 334 415
#     4  12  29  44  64 104 144 177 222 282 356 408
#     4  11  22  42  73  95 130 182 236 277 333 412
#     4  11  23  43  71 101 128 178 237 282 333 406
#
# _framework density 21.568006
#
# number of rings (size 3 to 8) (size 9 to 14) (size 15 to 20)
#    0.000    0.667    5.000    3.000    2.333    5.333 
#    0.000    0.000    0.000    0.000    0.000    0.000 
#    0.000    0.000    0.000    0.000    0.000    0.000 
#
# Total GULP energy -297671.528968 kJ/mol
# GULP energy per Si atom -12402.980374 kJ/mol
# Density = 2.151892 g / cm^3
# Si number density = 21.568006 Si / 1000 Ang^3
#
#
#
# Elastic Constant Matrix: (Units=GPa)
#
#
# Indices 1 2 3 4 5 6 
#
# 1 82.7051 18.5221 58.7558 0.0000 0.0000 0.0000
# 2 18.5221 77.2687 33.0790 0.0000 0.0000 0.0000
# 3 58.7558 33.0790 175.0731 0.0000 0.0000 0.0000
# 4 0.0000 0.0000 0.0000 29.5889 0.0000 0.0000
# 5 0.0000 0.0000 0.0000 0.0000 19.5258 0.0000
# 6 0.0000 0.0000 0.0000 0.0000 0.0000 28.5348
#
#
#
# Elastic Compliance Matrix: (Units=1/GPa)
#
#
# Indices 1 2 3 4 5 6 
#
# 1 0.016074 -0.001680 -0.005077 0.000000 0.000000 0.000000
# 2 -0.001680 0.014256 -0.002130 0.000000 0.000000 0.000000
# 3 -0.005077 -0.002130 0.007818 0.000000 0.000000 0.000000
# 4 0.000000 0.000000 0.000000 0.033796 0.000000 0.000000
# 5 0.000000 0.000000 0.000000 0.000000 0.051214 0.000000
# 6 0.000000 0.000000 0.000000 0.000000 0.000000 0.035045
#
#
# Mechanical properties :
#
#
# Convention : Reuss Voigt Hill
#
# Bulk Modulus (GPa) = 49.07911 61.75119 55.41515
# Shear Modulus (GPa) = 27.35675 30.50923 28.93299
#
# Velocity S-wave (km/s) = 3.56532 3.76514 3.66659
# Velocity P-wave (km/s) = 6.30504 6.89890 6.60865
#
# Compressibility (1/GPa) = 0.02037527
#
# Stress axis : x y z
#
# Youngs Moduli (GPa) = 62.21092 70.14443 127.90454
#
# Poissons Ratio (x) = 0.11781 0.64941
# Poissons Ratio (y) = 0.10449 0.27243
# Poissons Ratio (z) = 0.31586 0.14941
#
# Static dielectric constant tensor:
#      x y z
#    x 3.848710 0.000000 0.000000 
#    y 0.000000 3.676340 0.000000 
#    z 0.000000 0.000000 4.249550 
# 
# 
# High freq. dielectric constant tensor:
#      x y z
#    x 1.839540 0.000000 0.000000 
#    y 0.000000 1.835950 0.000000 
#    z 0.000000 0.000000 1.868320 
# 
# From -- ./inp_files/1923.got.cif
#   From: 2010.03.12/outbox.cif.g09.slc.cpg/sg30_1_cif.got.tgz:1923.got - 2010.04.14 01:38:02.
