data_PCOD8169129
_publ_section_title
;
Structure prediction by ZEFSAII (Michael W. Deem and Ramdas Pophale) SiO2 
 PCOD8169129
Probable space group: P C A 21
;
_chemical_formula_sum "Si O2"
_cell_formula_units_Z 28
_cell_length_a 5.094790
_cell_length_b 16.783518
_cell_length_c 14.838926
_cell_angle_alpha 90.000000
_cell_angle_beta 90.000000
_cell_angle_gamma 90.000000
_cell_volume 1268.854299
_symmetry_space_group_name_H-M "P C A 21"
_symmetry_group_IT_number 29
_symmetry_cell_setting 'orthorhombic'
loop_
_space_group_symop_operation_xyz
x,y,z
-x,-y,1/2+z
1/2-x,y,1/2+z
1/2+x,-y,z
loop_
_atom_site_type_symbol
_atom_site_label
_atom_site_fract_x
_atom_site_fract_y
_atom_site_fract_z
Si Si1 0.678774 0.178634 0.292520
Si Si2 0.630749 0.546618 0.336014
Si Si3 0.130749 0.453382 0.550999
Si Si4 0.811567 0.725409 0.047097
Si Si5 0.321227 0.821366 0.094492
Si Si6 0.672793 0.051916 0.443506
Si Si7 0.311567 0.274591 0.839916
O O1 0.750000 0.147107 0.193506
O O2 0.618841 0.102913 0.354313
O O3 0.417412 0.232078 0.283323
O O4 0.913552 0.229310 0.334708
O O5 0.370245 0.505324 0.297773
O O6 0.626045 0.547172 0.443506
O O7 0.651238 0.636826 0.300276
O O8 0.370245 0.505324 0.589239
O O9 0.151239 0.363174 0.586736
O O10 0.582588 0.767922 0.103689
O O11 0.086449 0.770689 0.052304
O O12 0.717788 0.723175 0.943506
O O13 0.381159 0.897087 0.032700
O O14 0.471343 0.978511 0.443506
#
# Coordination Sequence:
#
# PCOD8169129 Si02
#       7
#     4   4   4   4   4   4   4
#     4  12  25  43  68  99 131 168 213 261 318 382
#     4   9  17  29  52  89 124 164 219 269 312 363
#     4   9  17  29  52  89 124 164 219 269 312 363
#     4  11  20  39  66  92 131 176 220 266 317 375
#     4  12  25  43  68  99 131 168 213 261 318 382
#     4  12  26  46  72  98 130 162 206 258 322 390
#     4  11  20  39  66  92 131 176 220 266 317 375
#
# _framework density 22.067150999999999
#
# number of rings (size 3 to 8) (size 9 to 14) (size 15 to 20)
#    0.000    1.143    2.857    4.286    0.000    5.714 
#    0.000    0.000    0.000   17.143    0.000    0.000 
#    0.000    0.000    0.000    0.000    0.000    0.000 
#
# Total GULP energy -347401.626527 kJ/mol
# GULP energy per Si atom -12407.200947 kJ/mol
# Density = 2.201693 g / cm^3
# Si number density = 22.067151 Si / 1000 Ang^3
#
#
#
# Elastic Constant Matrix: (Units=GPa)
#
#
# Indices 1 2 3 4 5 6 
#
# 1 135.3602 35.5561 -4.7010 0.0000 0.0000 0.0000
# 2 35.5561 118.9023 24.2194 0.0000 0.0000 0.0000
# 3 -4.7010 24.2194 68.4169 0.0000 0.0000 0.0000
# 4 0.0000 0.0000 0.0000 -1.1940 0.0000 0.0000
# 5 0.0000 0.0000 0.0000 0.0000 25.1385 0.0000
# 6 0.0000 0.0000 0.0000 0.0000 0.0000 50.7679
#
#
#
# Elastic Compliance Matrix: (Units=1/GPa)
#
#
# Indices 1 2 3 4 5 6 
#
# 1 0.008165 -0.002754 0.001536 0.000000 0.000000 0.000000
# 2 -0.002754 0.009993 -0.003727 0.000000 0.000000 0.000000
# 3 0.001536 -0.003727 0.016041 0.000000 0.000000 0.000000
# 4 0.000000 0.000000 0.000000 -0.837540 0.000000 0.000000
# 5 0.000000 0.000000 0.000000 0.000000 0.039780 0.000000
# 6 0.000000 0.000000 0.000000 0.000000 0.000000 0.019697
#
#
# Mechanical properties :
#
#
# Convention : Reuss Voigt Hill
#
# Bulk Modulus (GPa) = 41.13794 48.09204 44.61499
# Shear Modulus (GPa) = -6.88827 32.78280 12.94726
#
# Velocity S-wave (km/s) = -1.76869 3.85852 2.42486
# Velocity P-wave (km/s) = 3.80941 6.45691 5.30110
#
# Compressibility (1/GPa) = 0.02430846
#
# Stress axis : x y z
#
# Youngs Moduli (GPa) = 122.48065 100.06966 62.33993
#
# Poissons Ratio (x) = 0.27563 -0.09576
# Poissons Ratio (y) = 0.33736 0.23233
# Poissons Ratio (z) = -0.18813 0.37294
#
# Static dielectric constant tensor:
#      x y z
#    x 4.056530 0.000000 0.000000 
#    y 0.000000 3.967480 0.000000 
#    z 0.000000 0.000000 3.713350 
# 
# 
# High freq. dielectric constant tensor:
#      x y z
#    x 1.883430 0.000000 0.000000 
#    y 0.000000 1.868230 0.000000 
#    z 0.000000 0.000000 1.856500 
# 
# From -- ./inp_files/4078.got.cif
#   From: 2010.03.12/outbox.cif.g09.slc.cpg/sg29_3_cif.got.tgz:4078.got - 2010.04.14 03:43:10.
