data_PCOD8169514
_publ_section_title
;
Structure prediction by ZEFSAII (Michael W. Deem and Ramdas Pophale) SiO2 
 PCOD8169514
Probable space group: P N C 2
;
_chemical_formula_sum "Si O2"
_cell_formula_units_Z 32
_cell_length_a 9.130704
_cell_length_b 11.304725
_cell_length_c 14.819543
_cell_angle_alpha 90.000000
_cell_angle_beta 90.000000
_cell_angle_gamma 90.000000
_cell_volume 1529.674677
_symmetry_space_group_name_H-M "P N C 2"
_symmetry_group_IT_number 30
_symmetry_cell_setting 'orthorhombic'
loop_
_space_group_symop_operation_xyz
x,y,z
-x,-y,z
-x,1/2+y,1/2+z
x,1/2-y,1/2+z
loop_
_atom_site_type_symbol
_atom_site_label
_atom_site_fract_x
_atom_site_fract_y
_atom_site_fract_z
Si Si1 0.497033 0.858745 0.911660
Si Si2 0.151024 0.954731 0.697393
Si Si3 0.283271 0.311852 0.257484
Si Si4 0.027387 0.718692 0.759749
Si Si5 0.790542 0.222320 0.424802
Si Si6 0.694419 0.743402 0.055628
Si Si7 0.996717 0.363366 0.561771
Si Si8 0.669361 0.483844 0.031529
O O1 0.592871 0.799602 0.832454
O O2 0.330703 0.818299 0.895288
O O3 0.500000 0.000000 0.910869
O O4 0.559906 0.809332 0.006606
O O5 0.108523 0.844965 0.758482
O O6 0.261378 0.920150 0.618522
O O7 0.224863 0.053951 0.759819
O O8 0.000000 0.000000 0.651106
O O9 0.350226 0.276464 0.160281
O O10 0.145667 0.227330 0.279728
O O11 0.108694 0.664729 0.846030
O O12 0.053544 0.648296 0.666412
O O13 0.888994 0.284452 0.501328
O O14 0.701551 0.105013 0.451248
O O15 0.733498 0.614957 0.013234
O O16 0.839079 0.820389 0.046653
O O17 0.000000 0.500000 0.532292
O O18 0.500000 0.500000 0.049968
#
# Coordination Sequence:
#
# PCOD8169514 Si02
#       8
#     4   4   4   4   4   4   4   4
#     4  12  24  41  63  99 133 176 218 267 333 399
#     4   9  18  37  68  94 118 161 219 276 318 371
#     4   9  21  39  64  95 126 171 217 270 321 383
#     4  10  21  41  64  97 130 165 220 269 329 385
#     4  12  25  39  67  99 130 176 220 271 322 394
#     4  10  23  44  70  90 130 175 216 272 332 380
#     4  11  24  46  67  98 134 172 217 276 331 397
#     4  11  22  41  63  94 129 166 217 270 324 381
#
# _framework density 20.91948
#
# number of rings (size 3 to 8) (size 9 to 14) (size 15 to 20)
#    0.000    1.500    2.500    3.000    0.000    6.500 
#    6.750    0.000    0.000    0.000    0.000    0.000 
#    0.000    0.000    0.000    0.000    0.000    0.000 
#
# Total GULP energy -396688.900363 kJ/mol
# GULP energy per Si atom -12396.528136 kJ/mol
# Density = 2.087187 g / cm^3
# Si number density = 20.919480 Si / 1000 Ang^3
#
#
#
# Elastic Constant Matrix: (Units=GPa)
#
#
# Indices 1 2 3 4 5 6 
#
# 1 84.5835 17.3772 54.5309 0.0000 0.0000 0.0000
# 2 17.3772 70.4303 16.2908 0.0000 0.0000 0.0000
# 3 54.5309 16.2908 94.9256 0.0000 0.0000 0.0000
# 4 0.0000 0.0000 0.0000 18.0145 0.0000 0.0000
# 5 0.0000 0.0000 0.0000 0.0000 37.5014 0.0000
# 6 0.0000 0.0000 0.0000 0.0000 0.0000 28.7264
#
#
#
# Elastic Compliance Matrix: (Units=1/GPa)
#
#
# Indices 1 2 3 4 5 6 
#
# 1 0.019118 -0.002267 -0.010593 0.000000 0.000000 0.000000
# 2 -0.002267 0.015054 -0.001281 0.000000 0.000000 0.000000
# 3 -0.010593 -0.001281 0.016840 0.000000 0.000000 0.000000
# 4 0.000000 0.000000 0.000000 0.055511 0.000000 0.000000
# 5 0.000000 0.000000 0.000000 0.000000 0.026666 0.000000
# 6 0.000000 0.000000 0.000000 0.000000 0.000000 0.034811
#
#
# Mechanical properties :
#
#
# Convention : Reuss Voigt Hill
#
# Bulk Modulus (GPa) = 43.99685 47.37080 45.68382
# Shear Modulus (GPa) = 24.52675 27.63115 26.07895
#
# Velocity S-wave (km/s) = 3.42780 3.63827 3.53460
# Velocity P-wave (km/s) = 6.06165 6.35160 6.20832
#
# Compressibility (1/GPa) = 0.02272890
#
# Stress axis : x y z
#
# Youngs Moduli (GPa) = 52.30695 66.42714 59.38239
#
# Poissons Ratio (x) = 0.15057 0.62907
# Poissons Ratio (y) = 0.11856 0.07610
# Poissons Ratio (z) = 0.55411 0.08512
#
# Static dielectric constant tensor:
#      x y z
#    x 3.914330 0.000000 0.000000 
#    y 0.000000 3.859660 0.000000 
#    z 0.000000 0.000000 3.708740 
# 
# 
# High freq. dielectric constant tensor:
#      x y z
#    x 1.829800 0.000000 0.000000 
#    y 0.000000 1.813120 0.000000 
#    z 0.000000 0.000000 1.812600 
# 
# From -- ./inp_files/5226.got.cif
#   From: 2010.03.12/outbox.cif.g09.slc.cpg/sg30_3_cif.got.tgz:5226.got - 2010.04.14 01:38:02.
