data_PCOD8169556
_publ_section_title
;
Structure prediction by ZEFSAII (Michael W. Deem and Ramdas Pophale) SiO2 
 PCOD8169556
Probable space group: P N C 2
;
_chemical_formula_sum "Si O2"
_cell_formula_units_Z 24
_cell_length_a 12.435590
_cell_length_b 9.066138
_cell_length_c 8.881959
_cell_angle_alpha 90.000000
_cell_angle_beta 90.000000
_cell_angle_gamma 90.000000
_cell_volume 1001.376706
_symmetry_space_group_name_H-M "P N C 2"
_symmetry_group_IT_number 30
_symmetry_cell_setting 'orthorhombic'
loop_
_space_group_symop_operation_xyz
x,y,z
-x,-y,z
-x,1/2+y,1/2+z
x,1/2-y,1/2+z
loop_
_atom_site_type_symbol
_atom_site_label
_atom_site_fract_x
_atom_site_fract_y
_atom_site_fract_z
Si Si1 0.843006 0.365937 0.106140
Si Si2 0.364749 0.818070 0.083122
Si Si3 0.694812 0.867540 0.143200
Si Si4 0.502162 0.164045 0.355705
Si Si5 0.825593 0.658179 0.926434
Si Si6 0.030869 0.842937 0.906809
O O1 0.722002 0.312868 0.070087
O O2 0.878097 0.369539 0.279744
O O3 0.865391 0.524527 0.031679
O O4 0.921385 0.244268 0.043743
O O5 0.389606 0.826042 0.258949
O O6 0.327075 0.984823 0.043761
O O7 0.475134 0.781458 0.989199
O O8 0.595799 0.801404 0.242120
O O9 0.781730 0.907812 0.270491
O O10 0.734650 0.746489 0.022233
O O11 0.500000 0.000000 0.426454
O O12 0.921551 0.759095 0.862848
O O13 0.000000 0.000000 0.974134
#
# Coordination Sequence:
#
# PCOD8169556 Si02
#       6
#     4   4   4   4   4   4
#     4  12  25  43  67  98 134 177 226 284 345 412
#     4  11  23  43  68  98 134 177 225 279 343 414
#     4  11  24  44  70 102 140 184 231 288 351 420
#     4  10  22  42  66  98 134 174 226 281 341 412
#     4  12  25  45  69 102 142 181 234 293 350 421
#     4  12  25  43  66  96 133 179 228 279 344 413
#
# _framework density 23.967005
#
# number of rings (size 3 to 8) (size 9 to 14) (size 15 to 20)
#    0.000    0.667    0.000    9.500    0.000    2.667 
#    0.000    4.167    0.000    0.000    0.000    0.000 
#    0.000    0.000    0.000    0.000    0.000    0.000 
#
# Total GULP energy -297437.483938 kJ/mol
# GULP energy per Si atom -12393.228497 kJ/mol
# Density = 2.391246 g / cm^3
# Si number density = 23.967005 Si / 1000 Ang^3
#
#
#
# Elastic Constant Matrix: (Units=GPa)
#
#
# Indices 1 2 3 4 5 6 
#
# 1 86.7202 31.3994 4.1912 0.0000 0.0000 0.0000
# 2 31.3994 141.1831 38.9014 0.0000 0.0000 0.0000
# 3 4.1912 38.9014 64.2092 0.0000 0.0000 0.0000
# 4 0.0000 0.0000 0.0000 32.7186 0.0000 0.0000
# 5 0.0000 0.0000 0.0000 0.0000 41.7822 0.0000
# 6 0.0000 0.0000 0.0000 0.0000 0.0000 37.0566
#
#
#
# Elastic Compliance Matrix: (Units=1/GPa)
#
#
# Indices 1 2 3 4 5 6 
#
# 1 0.012600 -0.003092 0.001051 0.000000 0.000000 0.000000
# 2 -0.003092 0.009261 -0.005409 0.000000 0.000000 0.000000
# 3 0.001051 -0.005409 0.018783 0.000000 0.000000 0.000000
# 4 0.000000 0.000000 0.000000 0.030564 0.000000 0.000000
# 5 0.000000 0.000000 0.000000 0.000000 0.023934 0.000000
# 6 0.000000 0.000000 0.000000 0.000000 0.000000 0.026986
#
#
# Mechanical properties :
#
#
# Convention : Reuss Voigt Hill
#
# Bulk Modulus (GPa) = 38.84483 49.01072 43.92778
# Shear Modulus (GPa) = 34.33878 36.81951 35.57914
#
# Velocity S-wave (km/s) = 3.78928 3.92377 3.85711
# Velocity P-wave (km/s) = 5.94875 6.40481 6.18099
#
# Compressibility (1/GPa) = 0.02574345
#
# Stress axis : x y z
#
# Youngs Moduli (GPa) = 79.36497 107.97958 53.24080
#
# Poissons Ratio (x) = 0.33385 -0.05594
# Poissons Ratio (y) = 0.24538 0.28798
# Poissons Ratio (z) = -0.08339 0.58406
#
# Static dielectric constant tensor:
#      x y z
#    x 4.741160 0.000000 0.000000 
#    y 0.000000 4.518250 0.000000 
#    z 0.000000 0.000000 4.160430 
# 
# 
# High freq. dielectric constant tensor:
#      x y z
#    x 1.964490 0.000000 0.000000 
#    y 0.000000 1.953690 0.000000 
#    z 0.000000 0.000000 1.949210 
# 
# From -- ./inp_files/2627.got.cif
#   From: 2010.03.12/outbox.cif.g09.slc.cpg/sg30_2_cif.got.tgz:2627.got - 2010.04.14 01:38:02.
