data_PCOD8169801
_publ_section_title
;
Structure prediction by ZEFSAII (Michael W. Deem and Ramdas Pophale) SiO2 
 PCOD8169801
Probable space group: P M N 21
;
_chemical_formula_sum "Si O2"
_cell_formula_units_Z 32
_cell_length_a 8.785596
_cell_length_b 12.209684
_cell_length_c 14.619117
_cell_angle_alpha 90.000000
_cell_angle_beta 90.000000
_cell_angle_gamma 90.000000
_cell_volume 1568.183191
_symmetry_space_group_name_H-M "P M N 21"
_symmetry_group_IT_number 31
_symmetry_cell_setting 'orthorhombic'
loop_
_space_group_symop_operation_xyz
x,y,z
1/2-x,-y,1/2+z
-x,y,z
1/2+x,-y,1/2+z
loop_
_atom_site_type_symbol
_atom_site_label
_atom_site_fract_x
_atom_site_fract_y
_atom_site_fract_z
Si Si1 0.175784 0.901557 0.625000
Si Si2 0.675493 0.193329 0.450205
Si Si3 0.682121 0.851535 0.139963
Si Si4 0.181279 0.415930 0.963292
Si Si5 0.329591 0.754017 0.320527
Si Si6 0.820468 0.325983 0.157881
Si Si7 0.322716 0.611507 0.856491
Si Si8 0.668058 0.948943 0.446764
O O1 0.260305 0.798088 0.669862
O O2 0.207345 0.902738 0.516511
O O3 0.000000 0.882268 0.644595
O O4 0.229170 0.021722 0.661081
O O5 0.500000 0.231418 0.443557
O O6 0.729798 0.197129 0.554353
O O7 0.783250 0.266615 0.387766
O O8 0.700535 0.071219 0.412366
O O9 0.500000 0.845902 0.125832
O O10 0.741192 0.769170 0.219856
O O11 0.253604 0.329108 0.890236
O O12 0.231603 0.533313 0.925919
O O13 0.000000 0.408943 0.966767
O O14 0.243301 0.386699 0.065744
O O15 0.500000 0.708866 0.309740
O O16 0.328434 0.876987 0.356981
O O17 0.775267 0.396912 0.248628
O O18 0.000000 0.316206 0.151198
O O19 0.500000 0.587043 0.868542
O O20 0.500000 0.942821 0.493822
#
# Coordination Sequence:
#
# PCOD8169801 Si02
#       8
#     4   4   4   4   4   4   4   4
#     4  10  19  31  54  87 123 155 194 244 289 341
#     4  10  21  37  59  85 118 158 199 240 289 352
#     4   9  19  34  55  87 126 162 196 239 294 345
#     4  10  21  41  65  85 112 152 201 246 289 351
#     4   9  17  33  59  86 114 155 196 236 288 344
#     4  10  22  41  62  84 115 155 194 242 300 355
#     4  11  25  42  61  86 118 154 195 248 303 351
#     4   9  17  33  57  82 116 157 195 235 288 349
#
# _framework density 20.40578
#
# number of rings (size 3 to 8) (size 9 to 14) (size 15 to 20)
#    0.000    2.250    1.250    1.125    1.750    3.500 
#    0.000    3.750    0.000    0.000    0.000    0.000 
#    0.000    0.000    0.000    0.000    0.000    0.000 
#
# Total GULP energy -396521.841548 kJ/mol
# GULP energy per Si atom -12391.307548 kJ/mol
# Density = 2.035934 g / cm^3
# Si number density = 20.405780 Si / 1000 Ang^3
#
#
#
# Elastic Constant Matrix: (Units=GPa)
#
#
# Indices 1 2 3 4 5 6 
#
# 1 21.1643 14.3596 19.3740 0.0000 0.0000 0.0000
# 2 14.3596 75.8009 41.5854 0.0000 0.0000 0.0000
# 3 19.3740 41.5854 94.0926 0.0000 0.0000 0.0000
# 4 0.0000 0.0000 0.0000 24.5859 0.0000 0.0000
# 5 0.0000 0.0000 0.0000 0.0000 21.5045 0.0000
# 6 0.0000 0.0000 0.0000 0.0000 0.0000 29.3003
#
#
#
# Elastic Compliance Matrix: (Units=1/GPa)
#
#
# Indices 1 2 3 4 5 6 
#
# 1 0.060278 -0.006085 -0.009722 0.000000 0.000000 0.000000
# 2 -0.006085 0.018029 -0.006715 0.000000 0.000000 0.000000
# 3 -0.009722 -0.006715 0.015598 0.000000 0.000000 0.000000
# 4 0.000000 0.000000 0.000000 0.040674 0.000000 0.000000
# 5 0.000000 0.000000 0.000000 0.000000 0.046502 0.000000
# 6 0.000000 0.000000 0.000000 0.000000 0.000000 0.034129
#
#
# Mechanical properties :
#
#
# Convention : Reuss Voigt Hill
#
# Bulk Modulus (GPa) = 20.46689 37.96619 29.21654
# Shear Modulus (GPa) = 18.08052 22.79407 20.43729
#
# Velocity S-wave (km/s) = 2.97989 3.34584 3.16815
# Velocity P-wave (km/s) = 4.67882 5.79415 5.26610
#
# Compressibility (1/GPa) = 0.04885941
#
# Stress axis : x y z
#
# Youngs Moduli (GPa) = 16.58992 55.46510 64.11276
#
# Poissons Ratio (x) = 0.33752 0.62330
# Poissons Ratio (y) = 0.10095 0.43054
# Poissons Ratio (z) = 0.16129 0.37247
#
# Static dielectric constant tensor:
#      x y z
#    x 3.493210 0.000000 0.000000 
#    y 0.000000 3.670460 0.000000 
#    z 0.000000 0.000000 3.843770 
# 
# 
# High freq. dielectric constant tensor:
#      x y z
#    x 1.770770 0.000000 0.000000 
#    y 0.000000 1.794060 0.000000 
#    z 0.000000 0.000000 1.801990 
# 
# From -- ./inp_files/5073.got.cif
#   From: 2010.03.12/outbox.cif.g09.slc.cpg/sg31_3_cif.got.tgz:5073.got - 2010.04.14 01:42:59.
