data_PCOD8169678
_publ_section_title
;
Structure prediction by ZEFSAII (Michael W. Deem and Ramdas Pophale) SiO2 
 PCOD8169678
Probable space group: P M N 21
;
_chemical_formula_sum "Si O2"
_cell_formula_units_Z 32
_cell_length_a 8.527414
_cell_length_b 11.532239
_cell_length_c 17.819621
_cell_angle_alpha 90.000000
_cell_angle_beta 90.000000
_cell_angle_gamma 90.000000
_cell_volume 1752.384671
_symmetry_space_group_name_H-M "P M N 21"
_symmetry_group_IT_number 31
_symmetry_cell_setting 'orthorhombic'
loop_
_space_group_symop_operation_xyz
x,y,z
1/2-x,-y,1/2+z
-x,y,z
1/2+x,-y,1/2+z
loop_
_atom_site_type_symbol
_atom_site_label
_atom_site_fract_x
_atom_site_fract_y
_atom_site_fract_z
Si Si1 0.180176 0.345285 0.036840
Si Si2 0.815605 0.236031 0.259063
Si Si3 0.183286 0.555776 0.686599
Si Si4 0.816993 0.659849 0.132895
Si Si5 0.683209 0.888573 0.605662
Si Si6 0.317671 0.871106 0.061508
Si Si7 0.814932 0.766566 0.911775
Si Si8 0.317428 0.556950 0.982804
O O1 0.213016 0.395725 0.118767
O O2 0.221929 0.208746 0.042006
O O3 0.000000 0.362019 0.016153
O O4 0.279518 0.418673 0.974527
O O5 0.728585 0.361903 0.256032
O O6 0.768415 0.155634 0.188560
O O7 0.753873 0.175838 0.335618
O O8 0.000000 0.256370 0.261418
O O9 0.234818 0.420483 0.697258
O O10 0.000000 0.562660 0.668027
O O11 0.744823 0.789125 0.129151
O O12 0.000000 0.669069 0.149788
O O13 0.783979 0.601732 0.052750
O O14 0.500000 0.921258 0.603808
O O15 0.788151 0.997819 0.585601
O O16 0.500000 0.848396 0.049381
O O17 0.231998 0.844334 0.982985
O O18 0.739716 0.636444 0.914146
O O19 0.000000 0.758318 0.907527
O O20 0.500000 0.575618 0.997834
#
# Coordination Sequence:
#
# PCOD8169678 Si02
#       8
#     4   4   4   4   4   4   4   4
#     4   9  16  28  46  69  97 127 159 198 245 291
#     4  10  20  35  53  75 103 133 168 210 260 312
#     4  10  17  27  45  71  99 125 157 195 242 295
#     4  10  17  28  46  68  96 127 160 199 245 291
#     4   9  19  34  52  74 102 136 173 214 257 305
#     4  11  21  33  51  75 103 135 176 220 258 303
#     4  11  21  34  52  74 102 134 170 211 260 313
#     4  10  17  27  45  70  98 125 157 197 245 296
#
# _framework density 18.260831
#
# number of rings (size 3 to 8) (size 9 to 14) (size 15 to 20)
#    0.000    2.000    0.000   10.125    0.000    3.000 
#    0.000    0.000    0.000    1.500    0.000    3.500 
#    0.000    0.000    0.000    0.000    0.000    0.000 
#
# Total GULP energy -396550.408582 kJ/mol
# GULP energy per Si atom -12392.200268 kJ/mol
# Density = 1.821927 g / cm^3
# Si number density = 18.260831 Si / 1000 Ang^3
#
#
#
# Elastic Constant Matrix: (Units=GPa)
#
#
# Indices 1 2 3 4 5 6 
#
# 1 89.1219 44.0974 22.0689 0.0000 0.0000 0.0000
# 2 44.0974 114.7316 31.7107 0.0000 0.0000 0.0000
# 3 22.0689 31.7107 59.1705 0.0000 0.0000 0.0000
# 4 0.0000 0.0000 0.0000 16.6040 0.0000 0.0000
# 5 0.0000 0.0000 0.0000 0.0000 23.0949 0.0000
# 6 0.0000 0.0000 0.0000 0.0000 0.0000 28.2822
#
#
#
# Elastic Compliance Matrix: (Units=1/GPa)
#
#
# Indices 1 2 3 4 5 6 
#
# 1 0.014238 -0.004701 -0.002791 0.000000 0.000000 0.000000
# 2 -0.004701 0.011784 -0.004562 0.000000 0.000000 0.000000
# 3 -0.002791 -0.004562 0.020386 0.000000 0.000000 0.000000
# 4 0.000000 0.000000 0.000000 0.060226 0.000000 0.000000
# 5 0.000000 0.000000 0.000000 0.000000 0.043300 0.000000
# 6 0.000000 0.000000 0.000000 0.000000 0.000000 0.035358
#
#
# Mechanical properties :
#
#
# Convention : Reuss Voigt Hill
#
# Bulk Modulus (GPa) = 44.84290 50.97533 47.90911
# Shear Modulus (GPa) = 23.05934 24.60602 23.83268
#
# Velocity S-wave (km/s) = 3.55741 3.67478 3.61657
# Velocity P-wave (km/s) = 6.44079 6.78093 6.61305
#
# Compressibility (1/GPa) = 0.02230008
#
# Stress axis : x y z
#
# Youngs Moduli (GPa) = 70.23606 84.86349 49.05326
#
# Poissons Ratio (x) = 0.39894 0.13690
# Poissons Ratio (y) = 0.33017 0.22377
# Poissons Ratio (z) = 0.19602 0.38713
#
# Static dielectric constant tensor:
#      x y z
#    x 3.345910 0.000000 0.000000 
#    y 0.000000 3.828440 0.000000 
#    z 0.000000 0.000000 3.262660 
# 
# 
# High freq. dielectric constant tensor:
#      x y z
#    x 1.724040 0.000000 0.000000 
#    y 0.000000 1.703040 0.000000 
#    z 0.000000 0.000000 1.660480 
# 
# From -- ./inp_files/5898.got.cif
#   From: 2010.03.12/outbox.cif.g09.slc.cpg/sg31_3_cif.got.tgz:5898.got - 2010.04.14 01:42:59.
