data_PCOD8169938
_publ_section_title
;
Structure prediction by ZEFSAII (Michael W. Deem and Ramdas Pophale) SiO2 
 PCOD8169938
Probable space group: P M N 21
;
_chemical_formula_sum "Si O2"
_cell_formula_units_Z 32
_cell_length_a 8.643887
_cell_length_b 14.599158
_cell_length_c 12.338384
_cell_angle_alpha 90.000000
_cell_angle_beta 90.000000
_cell_angle_gamma 90.000000
_cell_volume 1557.023516
_symmetry_space_group_name_H-M "P M N 21"
_symmetry_group_IT_number 31
_symmetry_cell_setting 'orthorhombic'
loop_
_space_group_symop_operation_xyz
x,y,z
1/2-x,-y,1/2+z
-x,y,z
1/2+x,-y,1/2+z
loop_
_atom_site_type_symbol
_atom_site_label
_atom_site_fract_x
_atom_site_fract_y
_atom_site_fract_z
Si Si1 0.820942 0.818620 0.297520
Si Si2 0.317216 0.946207 0.457759
Si Si3 0.682167 0.868428 0.904139
Si Si4 0.821146 0.739264 0.068554
Si Si5 0.322156 0.365241 0.110639
Si Si6 0.817960 0.172319 0.163065
Si Si7 0.678045 0.563292 0.168849
Si Si8 0.825697 0.351092 0.895166
O O1 0.772654 0.916573 0.346890
O O2 0.789015 0.808076 0.169617
O O3 0.706451 0.752807 0.362568
O O4 0.000000 0.796528 0.322032
O O5 0.500000 0.934415 0.444658
O O6 0.254316 0.890255 0.563603
O O7 0.273450 0.052562 0.469424
O O8 0.500000 0.886219 0.909139
O O9 0.742463 0.863201 0.779708
O O10 0.722482 0.773926 0.966199
O O11 0.774370 0.635157 0.097107
O O12 0.000000 0.739127 0.036183
O O13 0.500000 0.348726 0.139793
O O14 0.227381 0.278204 0.151350
O O15 0.258667 0.459900 0.160828
O O16 0.299514 0.380318 0.983047
O O17 0.000000 0.165805 0.161883
O O18 0.500000 0.570112 0.131347
O O19 0.698610 0.583122 0.294613
O O20 0.000000 0.356339 0.941601
#
# Coordination Sequence:
#
# PCOD8169938 Si02
#       8
#     4   4   4   4   4   4   4   4
#     4  10  20  36  60  88 117 151 197 253 305 358
#     4  11  23  40  63  91 121 157 203 253 308 367
#     4  11  25  43  63  90 127 168 207 252 310 371
#     4  10  22  40  62  90 124 161 205 255 307 365
#     4  11  22  37  61  91 123 159 205 257 308 368
#     4  10  24  44  63  88 125 163 203 255 310 366
#     4   9  21  39  59  87 122 163 209 255 306 368
#     4  10  19  35  57  83 117 156 201 252 306 361
#
# _framework density 20.552033000000002
#
# number of rings (size 3 to 8) (size 9 to 14) (size 15 to 20)
#    0.000    1.750    1.250    2.250    1.750    5.500 
#    0.000    2.500    0.000    0.000    0.000    0.000 
#    0.000    0.000    0.000    0.000    0.000    0.000 
#
# Total GULP energy -396773.423280 kJ/mol
# GULP energy per Si atom -12399.169477 kJ/mol
# Density = 2.050526 g / cm^3
# Si number density = 20.552033 Si / 1000 Ang^3
#
#
#
# Elastic Constant Matrix: (Units=GPa)
#
#
# Indices 1 2 3 4 5 6 
#
# 1 41.9484 19.9494 33.2324 0.0000 0.0000 0.0000
# 2 19.9494 113.7895 48.4665 0.0000 0.0000 0.0000
# 3 33.2324 48.4665 97.7185 0.0000 0.0000 0.0000
# 4 0.0000 0.0000 0.0000 19.2570 0.0000 0.0000
# 5 0.0000 0.0000 0.0000 0.0000 28.2864 0.0000
# 6 0.0000 0.0000 0.0000 0.0000 0.0000 31.1151
#
#
#
# Elastic Compliance Matrix: (Units=1/GPa)
#
#
# Indices 1 2 3 4 5 6 
#
# 1 0.032773 -0.001266 -0.010518 0.000000 0.000000 0.000000
# 2 -0.001266 0.011191 -0.005120 0.000000 0.000000 0.000000
# 3 -0.010518 -0.005120 0.016350 0.000000 0.000000 0.000000
# 4 0.000000 0.000000 0.000000 0.051929 0.000000 0.000000
# 5 0.000000 0.000000 0.000000 0.000000 0.035353 0.000000
# 6 0.000000 0.000000 0.000000 0.000000 0.000000 0.032139
#
#
# Mechanical properties :
#
#
# Convention : Reuss Voigt Hill
#
# Bulk Modulus (GPa) = 37.72633 50.75031 44.23832
# Shear Modulus (GPa) = 22.48432 25.85223 24.16828
#
# Velocity S-wave (km/s) = 3.31118 3.55052 3.43294
# Velocity P-wave (km/s) = 5.74586 6.44635 6.10616
#
# Compressibility (1/GPa) = 0.02650669
#
# Stress axis : x y z
#
# Youngs Moduli (GPa) = 30.51269 89.35883 61.16290
#
# Poissons Ratio (x) = 0.11312 0.64330
# Poissons Ratio (y) = 0.03863 0.31315
# Poissons Ratio (z) = 0.32093 0.45751
#
# Static dielectric constant tensor:
#      x y z
#    x 3.596310 0.000000 0.000000 
#    y 0.000000 3.702560 0.000000 
#    z 0.000000 0.000000 3.961220 
# 
# 
# High freq. dielectric constant tensor:
#      x y z
#    x 1.801140 0.000000 0.000000 
#    y 0.000000 1.804580 0.000000 
#    z 0.000000 0.000000 1.803490 
# 
# From -- ./inp_files/3726.got.cif
#   From: 2010.03.12/outbox.cif.g09.slc.cpg/sg31_2_cif.got.tgz:3726.got - 2010.04.14 01:42:59.
