data_PCOD8169310
_publ_section_title
;
Structure prediction by ZEFSAII (Michael W. Deem and Ramdas Pophale) SiO2 
 PCOD8169310
Probable space group: P C A 21
;
_chemical_formula_sum "Si O2"
_cell_formula_units_Z 32
_cell_length_a 8.955194
_cell_length_b 11.416350
_cell_length_c 14.039426
_cell_angle_alpha 90.000000
_cell_angle_beta 90.000000
_cell_angle_gamma 90.000000
_cell_volume 1435.329548
_symmetry_space_group_name_H-M "P C A 21"
_symmetry_group_IT_number 29
_symmetry_cell_setting 'orthorhombic'
loop_
_space_group_symop_operation_xyz
x,y,z
-x,-y,1/2+z
1/2-x,y,1/2+z
1/2+x,-y,z
loop_
_atom_site_type_symbol
_atom_site_label
_atom_site_fract_x
_atom_site_fract_y
_atom_site_fract_z
Si Si1 0.600589 0.661963 0.672170
Si Si2 0.736896 0.104877 0.907215
Si Si3 0.311597 0.123941 0.662621
Si Si4 0.419664 0.123407 0.447916
Si Si5 0.361766 0.890952 0.208811
Si Si6 0.164602 0.513574 0.500636
Si Si7 0.106525 0.380373 0.884221
Si Si8 0.683728 0.259931 0.073827
O O1 0.740047 0.749518 0.683317
O O2 0.624379 0.567431 0.589661
O O3 0.576072 0.593979 0.772456
O O4 0.456031 0.738578 0.645160
O O5 0.720578 0.160619 0.802529
O O6 0.905247 0.099538 0.942795
O O7 0.668463 0.976513 0.891693
O O8 0.640714 0.180822 0.982317
O O9 0.365026 0.120613 0.554882
O O10 0.459830 0.105842 0.726738
O O11 0.195174 0.019933 0.680302
O O12 0.376758 0.241917 0.395103
O O13 0.325262 0.797824 0.126152
O O14 0.239767 0.439961 0.416075
O O15 0.277808 0.610802 0.538778
O O16 0.021897 0.574453 0.454332
#
# Coordination Sequence:
#
# PCOD8169310 Si02
#       8
#     4   4   4   4   4   4   4   4
#     4  12  29  47  79 105 149 193 255 308 377 447
#     4  12  26  43  73 104 149 195 237 300 370 447
#     4  12  23  47  72 110 148 195 242 315 371 449
#     4  12  23  46  71 106 149 187 241 304 369 437
#     4  12  25  44  73 106 153 192 248 298 380 445
#     4  12  27  50  72 105 147 192 249 311 365 437
#     4  12  27  51  75 108 144 196 252 311 371 444
#     4  12  26  46  71 106 145 194 238 303 369 442
#
# _framework density 22.294533000000001
#
# number of rings (size 3 to 8) (size 9 to 14) (size 15 to 20)
#    0.000    0.000    6.250    3.000    3.500    1.000 
#    0.000    0.000    0.000    0.000    0.000    0.000 
#    0.000    0.000    0.000    0.000    0.000    0.000 
#
# Total GULP energy -396987.992196 kJ/mol
# GULP energy per Si atom -12405.874756 kJ/mol
# Density = 2.224379 g / cm^3
# Si number density = 22.294533 Si / 1000 Ang^3
#
#
#
# Elastic Constant Matrix: (Units=GPa)
#
#
# Indices 1 2 3 4 5 6 
#
# 1 89.5550 42.9165 22.9348 0.0000 0.0000 0.0000
# 2 42.9165 125.0755 41.2361 0.0000 0.0000 0.0000
# 3 22.9348 41.2361 136.2358 0.0000 0.0000 0.0000
# 4 0.0000 0.0000 0.0000 29.0993 0.0000 0.0000
# 5 0.0000 0.0000 0.0000 0.0000 27.9271 0.0000
# 6 0.0000 0.0000 0.0000 0.0000 0.0000 38.1688
#
#
#
# Elastic Compliance Matrix: (Units=1/GPa)
#
#
# Indices 1 2 3 4 5 6 
#
# 1 0.013477 -0.004306 -0.000965 0.000000 0.000000 0.000000
# 2 -0.004306 0.010257 -0.002380 0.000000 0.000000 0.000000
# 3 -0.000965 -0.002380 0.008223 0.000000 0.000000 0.000000
# 4 0.000000 0.000000 0.000000 0.034365 0.000000 0.000000
# 5 0.000000 0.000000 0.000000 0.000000 0.035808 0.000000
# 6 0.000000 0.000000 0.000000 0.000000 0.000000 0.026199
#
#
# Mechanical properties :
#
#
# Convention : Reuss Voigt Hill
#
# Bulk Modulus (GPa) = 60.04244 62.78234 61.41239
# Shear Modulus (GPa) = 33.51572 35.29095 34.40334
#
# Velocity S-wave (km/s) = 3.88147 3.98294 3.93253
# Velocity P-wave (km/s) = 6.86132 7.02661 6.94446
#
# Compressibility (1/GPa) = 0.01665489
#
# Stress axis : x y z
#
# Youngs Moduli (GPa) = 74.19996 97.49192 121.60919
#
# Poissons Ratio (x) = 0.41980 0.11741
# Poissons Ratio (y) = 0.31951 0.28940
# Poissons Ratio (z) = 0.07164 0.23201
#
# Static dielectric constant tensor:
#      x y z
#    x 4.076110 0.000000 0.000000 
#    y 0.000000 4.095860 0.000000 
#    z 0.000000 0.000000 4.200450 
# 
# 
# High freq. dielectric constant tensor:
#      x y z
#    x 1.882170 0.000000 0.000000 
#    y 0.000000 1.880290 0.000000 
#    z 0.000000 0.000000 1.897490 
# 
# From -- ./inp_files/4313.got.cif
#   From: 2010.03.12/outbox.cif.g09.slc.cpg/sg29_3_cif.got.tgz:4313.got - 2010.04.14 03:43:10.
