data_PCOD8170460
_publ_section_title
;
Structure prediction by ZEFSAII (Michael W. Deem and Ramdas Pophale) SiO2 
 PCOD8170460
Probable space group: P B A 2
;
_chemical_formula_sum "Si O2"
_cell_formula_units_Z 30
_cell_length_a 16.530702
_cell_length_b 13.633717
_cell_length_c 6.753887
_cell_angle_alpha 90.000000
_cell_angle_beta 90.000000
_cell_angle_gamma 90.000000
_cell_volume 1522.156694
_symmetry_space_group_name_H-M "P B A 2"
_symmetry_group_IT_number 32
_symmetry_cell_setting 'orthorhombic'
loop_
_space_group_symop_operation_xyz
x,y,z
-x,-y,z
1/2-x,1/2+y,z
1/2+x,1/2-y,z
loop_
_atom_site_type_symbol
_atom_site_label
_atom_site_fract_x
_atom_site_fract_y
_atom_site_fract_z
Si Si1 0.728726 0.738308 0.477490
Si Si2 0.338085 0.873694 0.201086
Si Si3 0.710318 0.281494 0.884805
Si Si4 0.686899 0.901308 0.178065
Si Si5 0.465157 0.660819 0.833343
Si Si6 0.939234 0.147692 0.431852
Si Si7 0.500000 0.500000 0.137343
Si Si8 0.514573 0.812364 0.142964
O O1 0.809782 0.685210 0.396858
O O2 0.730243 0.754407 0.709688
O O3 0.712671 0.843177 0.375020
O O4 0.655204 0.664320 0.450523
O O5 0.435165 0.877990 0.181801
O O6 0.303114 0.983112 0.209645
O O7 0.299906 0.815443 0.016917
O O8 0.626825 0.313598 0.780558
O O9 0.752440 0.369321 0.004310
O O10 0.593583 0.879347 0.124340
O O11 0.515498 0.627425 0.640567
O O12 0.454185 0.575435 0.995450
O O13 0.509060 0.753213 0.936316
O O14 0.939058 0.054777 0.285496
O O15 0.982546 0.240081 0.330509
#
# Coordination Sequence:
#
# PCOD8170460 Si02
#       8
#     4   4   4   4   4   4   2   4
#     4  10  22  39  58  84 121 154 193 241 298 348
#     4  10  21  38  60  88 114 153 194 244 290 351
#     4  10  22  39  58  84 121 154 193 241 298 348
#     4  10  21  38  60  88 114 153 194 244 290 351
#     4  10  20  37  58  81 116 156 194 240 290 349
#     4  10  20  37  58  81 116 156 194 240 290 349
#     4  10  22  36  54  86 110 154 200 244 286 342
#     4   9  19  37  61  82 116 148 194 236 292 350
#
# _framework density 19.708877000000001
#
# number of rings (size 3 to 8) (size 9 to 14) (size 15 to 20)
#    0.000    2.133    0.000    2.400    1.867    3.200 
#    4.800    0.000    0.000    4.800    0.000    0.000 
#    0.000    0.000    0.000    0.000    0.000    0.000 
#
# Total GULP energy -371943.202684 kJ/mol
# GULP energy per Si atom -12398.106756 kJ/mol
# Density = 1.966402 g / cm^3
# Si number density = 19.708877 Si / 1000 Ang^3
#
#
#
# Elastic Constant Matrix: (Units=GPa)
#
#
# Indices 1 2 3 4 5 6 
#
# 1 71.1468 24.0095 20.0253 0.0000 0.0000 0.0000
# 2 24.0095 97.1540 18.1284 0.0000 0.0000 0.0000
# 3 20.0253 18.1284 99.0536 0.0000 0.0000 0.0000
# 4 0.0000 0.0000 0.0000 15.6003 0.0000 0.0000
# 5 0.0000 0.0000 0.0000 0.0000 27.1848 0.0000
# 6 0.0000 0.0000 0.0000 0.0000 0.0000 18.6827
#
#
#
# Elastic Compliance Matrix: (Units=1/GPa)
#
#
# Indices 1 2 3 4 5 6 
#
# 1 0.015952 -0.003459 -0.002592 0.000000 0.000000 0.000000
# 2 -0.003459 0.011407 -0.001388 0.000000 0.000000 0.000000
# 3 -0.002592 -0.001388 0.010874 0.000000 0.000000 0.000000
# 4 0.000000 0.000000 0.000000 0.064101 0.000000 0.000000
# 5 0.000000 0.000000 0.000000 0.000000 0.036785 0.000000
# 6 0.000000 0.000000 0.000000 0.000000 0.000000 0.053525
#
#
# Mechanical properties :
#
#
# Convention : Reuss Voigt Hill
#
# Bulk Modulus (GPa) = 42.81821 43.52009 43.16915
# Shear Modulus (GPa) = 23.22261 25.97297 24.59779
#
# Velocity S-wave (km/s) = 3.43633 3.63413 3.53662
# Velocity P-wave (km/s) = 6.12511 6.30386 6.21513
#
# Compressibility (1/GPa) = 0.02335455
#
# Stress axis : x y z
#
# Youngs Moduli (GPa) = 62.68752 87.66765 91.96530
#
# Poissons Ratio (x) = 0.30320 0.23837
# Poissons Ratio (y) = 0.21681 0.12769
# Poissons Ratio (z) = 0.16249 0.12172
#
# Static dielectric constant tensor:
#      x y z
#    x 3.582780 0.000000 0.000000 
#    y 0.000000 3.466680 0.000000 
#    z 0.000000 0.000000 3.543640 
# 
# 
# High freq. dielectric constant tensor:
#      x y z
#    x 1.774960 0.000000 0.000000 
#    y 0.000000 1.761830 0.000000 
#    z 0.000000 0.000000 1.769190 
# 
# From -- ./inp_files/1294.got.cif
#   From: 2010.03.12/outbox.cif.g09.slc.cpg/sg32_1_cif.got.tgz:1294.got - 2010.04.14 01:46:39.
