data_PCOD8170971
_publ_section_title
;
Structure prediction by ZEFSAII (Michael W. Deem and Ramdas Pophale) SiO2 
 PCOD8170971
Probable space group: P N A 21
;
_chemical_formula_sum "Si O2"
_cell_formula_units_Z 32
_cell_length_a 10.717924
_cell_length_b 16.605654
_cell_length_c 8.870329
_cell_angle_alpha 90.000000
_cell_angle_beta 90.000000
_cell_angle_gamma 90.000000
_cell_volume 1578.724635
_symmetry_space_group_name_H-M "P N A 21"
_symmetry_group_IT_number 33
_symmetry_cell_setting 'orthorhombic'
loop_
_space_group_symop_operation_xyz
x,y,z
-x,-y,1/2+z
1/2-x,1/2+y,1/2+z
1/2+x,1/2-y,z
loop_
_atom_site_type_symbol
_atom_site_label
_atom_site_fract_x
_atom_site_fract_y
_atom_site_fract_z
Si Si1 0.572823 0.599491 0.680470
Si Si2 0.746803 0.902516 0.270090
Si Si3 0.077540 0.991589 0.963560
Si Si4 0.702356 0.227425 0.832392
Si Si5 0.774796 0.556831 0.202254
Si Si6 0.562883 0.930187 0.531621
Si Si7 0.219446 0.474995 0.029948
Si Si8 0.051504 0.746423 0.520342
O O1 0.530406 0.531799 0.559680
O O2 0.529645 0.577647 0.849225
O O3 0.721702 0.589774 0.649912
O O4 0.520121 0.688341 0.649849
O O5 0.862594 0.938180 0.362666
O O6 0.770911 0.808621 0.239679
O O7 0.624939 0.926071 0.366410
O O8 0.729413 0.936991 0.102598
O O9 0.168807 0.946762 0.077696
O O10 0.686248 0.150700 0.721678
O O11 0.825811 0.217281 0.936700
O O12 0.571596 0.237123 0.919047
O O13 0.885519 0.498146 0.144326
O O14 0.720904 0.524313 0.361975
O O15 0.419986 0.946676 0.500183
O O16 0.582593 0.839601 0.598751
#
# Coordination Sequence:
#
# PCOD8170971 Si02
#       8
#     4   4   4   4   4   4   4   4
#     4  11  21  38  64  89 127 165 219 268 326 393
#     4   9  21  38  61  88 124 166 214 266 315 387
#     4  10  22  38  62  89 123 166 211 269 324 385
#     4  11  22  39  67  94 128 175 224 264 330 391
#     4  11  22  40  62  91 128 168 219 263 328 399
#     4  10  21  37  61  89 125 170 215 259 323 386
#     4  11  20  36  61  91 121 165 211 263 323 391
#     4  11  21  40  64  95 126 177 219 272 319 398
#
# _framework density 20.269525000000002
#
# number of rings (size 3 to 8) (size 9 to 14) (size 15 to 20)
#    0.000    1.500    3.750    1.500    1.750    0.000 
#    2.250    0.000    0.000    4.500    0.000    0.000 
#    0.000    0.000    0.000    0.000    0.000    0.000 
#
# Total GULP energy -396506.064191 kJ/mol
# GULP energy per Si atom -12390.814506 kJ/mol
# Density = 2.022339 g / cm^3
# Si number density = 20.269525 Si / 1000 Ang^3
#
#
#
# Elastic Constant Matrix: (Units=GPa)
#
#
# Indices 1 2 3 4 5 6 
#
# 1 74.7992 17.9419 12.6926 0.0000 0.0000 0.0000
# 2 17.9419 171.1368 65.6686 0.0000 0.0000 0.0000
# 3 12.6926 65.6686 111.0778 0.0000 0.0000 0.0000
# 4 0.0000 0.0000 0.0000 43.1422 0.0000 0.0000
# 5 0.0000 0.0000 0.0000 0.0000 17.0704 0.0000
# 6 0.0000 0.0000 0.0000 0.0000 0.0000 20.3678
#
#
#
# Elastic Compliance Matrix: (Units=1/GPa)
#
#
# Indices 1 2 3 4 5 6 
#
# 1 0.013788 -0.001088 -0.000932 0.000000 0.000000 0.000000
# 2 -0.001088 0.007644 -0.004395 0.000000 0.000000 0.000000
# 3 -0.000932 -0.004395 0.011707 0.000000 0.000000 0.000000
# 4 0.000000 0.000000 0.000000 0.023179 0.000000 0.000000
# 5 0.000000 0.000000 0.000000 0.000000 0.058581 0.000000
# 6 0.000000 0.000000 0.000000 0.000000 0.000000 0.049097
#
#
# Mechanical properties :
#
#
# Convention : Reuss Voigt Hill
#
# Bulk Modulus (GPa) = 49.23786 61.06890 55.15338
# Shear Modulus (GPa) = 27.23374 33.49680 30.36527
#
# Velocity S-wave (km/s) = 3.66946 4.06959 3.87470
# Velocity P-wave (km/s) = 6.50366 7.23021 6.87654
#
# Compressibility (1/GPa) = 0.02030958
#
# Stress axis : x y z
#
# Youngs Moduli (GPa) = 72.52540 130.82850 85.41689
#
# Poissons Ratio (x) = 0.14231 0.07965
# Poissons Ratio (y) = 0.07889 0.37537
# Poissons Ratio (z) = 0.06763 0.57493
#
# Static dielectric constant tensor:
#      x y z
#    x 3.810980 0.000000 0.000000 
#    y 0.000000 3.949940 0.000000 
#    z 0.000000 0.000000 3.626220 
# 
# 
# High freq. dielectric constant tensor:
#      x y z
#    x 1.803910 0.000000 0.000000 
#    y 0.000000 1.797590 0.000000 
#    z 0.000000 0.000000 1.767200 
# 
# From -- ./inp_files/4066.got.cif
#   From: 2010.03.12/outbox.cif.g09.slc.cpg/sg33_3_cif.got.tgz:4066.got - 2010.04.14 01:49:19.
