data_PCOD8170488
_publ_section_title
;
Structure prediction by ZEFSAII (Michael W. Deem and Ramdas Pophale) SiO2 
 PCOD8170488
Probable space group: P B A 2
;
_chemical_formula_sum "Si O2"
_cell_formula_units_Z 32
_cell_length_a 5.181078
_cell_length_b 17.592369
_cell_length_c 16.553692
_cell_angle_alpha 90.000000
_cell_angle_beta 90.000000
_cell_angle_gamma 90.000000
_cell_volume 1508.826582
_symmetry_space_group_name_H-M "P B A 2"
_symmetry_group_IT_number 32
_symmetry_cell_setting 'orthorhombic'
loop_
_space_group_symop_operation_xyz
x,y,z
-x,-y,z
1/2-x,1/2+y,z
1/2+x,1/2-y,z
loop_
_atom_site_type_symbol
_atom_site_label
_atom_site_fract_x
_atom_site_fract_y
_atom_site_fract_z
Si Si1 0.003327 0.911333 0.339780
Si Si2 0.150010 0.796052 0.471483
Si Si3 0.160663 0.796706 0.659388
Si Si4 0.840824 0.285627 0.137105
Si Si5 0.749605 0.546653 0.747593
Si Si6 0.002269 0.587779 0.242089
Si Si7 0.711938 0.719950 0.960190
Si Si8 0.249224 0.453231 0.938342
O O1 0.720768 0.888297 0.307206
O O2 0.074256 0.871462 0.423467
O O3 0.221572 0.888699 0.274487
O O4 0.000000 0.000000 0.359087
O O5 0.435455 0.767112 0.448734
O O6 0.153622 0.817663 0.565290
O O7 0.377998 0.734462 0.682365
O O8 0.235651 0.871477 0.707861
O O9 0.563554 0.268031 0.176705
O O10 0.930415 0.371084 0.157424
O O11 0.834679 0.270165 0.041505
O O12 0.500000 0.500000 0.720769
O O13 0.758637 0.559619 0.843065
O O14 0.000000 0.500000 0.717922
O O15 0.000000 0.500000 0.220367
O O16 0.450712 0.741775 0.911111
O O17 0.742158 0.630563 0.978332
O O18 0.500000 0.500000 0.966026
O O19 0.000000 0.500000 0.968364
#
# Coordination Sequence:
#
# PCOD8170488 Si02
#       8
#     4   4   4   4   4   4   4   4
#     4  10  21  36  55  81 108 141 186 231 279 334
#     4  10  21  36  54  80 112 147 186 228 279 334
#     4  10  21  37  56  82 118 155 192 237 289 342
#     4  10  21  37  55  80 109 139 180 226 274 335
#     4  10  21  37  58  86 116 152 197 237 282 340
#     4  10  21  37  56  78 108 142 181 231 283 333
#     4  10  21  38  58  85 115 145 188 236 282 344
#     4  10  21  38  60  86 118 153 190 236 288 340
#
# _framework density 21.208534
#
# number of rings (size 3 to 8) (size 9 to 14) (size 15 to 20)
#    0.000    2.000    0.000    3.000    0.000    4.500 
#    0.000    9.375    0.000    0.000    0.000    0.000 
#    0.000    0.000    0.000    0.000    0.000    0.000 
#
# Total GULP energy -396647.857003 kJ/mol
# GULP energy per Si atom -12395.245531 kJ/mol
# Density = 2.116026 g / cm^3
# Si number density = 21.208534 Si / 1000 Ang^3
#
#
#
# Elastic Constant Matrix: (Units=GPa)
#
#
# Indices 1 2 3 4 5 6 
#
# 1 172.8469 40.1812 14.9166 0.0000 0.0000 0.0000
# 2 40.1812 89.2497 29.5411 0.0000 0.0000 0.0000
# 3 14.9166 29.5411 41.0874 0.0000 0.0000 0.0000
# 4 0.0000 0.0000 0.0000 35.4366 0.0000 0.0000
# 5 0.0000 0.0000 0.0000 0.0000 12.2520 0.0000
# 6 0.0000 0.0000 0.0000 0.0000 0.0000 39.8023
#
#
#
# Elastic Compliance Matrix: (Units=1/GPa)
#
#
# Indices 1 2 3 4 5 6 
#
# 1 0.006465 -0.002800 -0.000334 0.000000 0.000000 0.000000
# 2 -0.002800 0.015916 -0.010427 0.000000 0.000000 0.000000
# 3 -0.000334 -0.010427 0.031956 0.000000 0.000000 0.000000
# 4 0.000000 0.000000 0.000000 0.028219 0.000000 0.000000
# 5 0.000000 0.000000 0.000000 0.000000 0.081620 0.000000
# 6 0.000000 0.000000 0.000000 0.000000 0.000000 0.025124
#
#
# Mechanical properties :
#
#
# Convention : Reuss Voigt Hill
#
# Bulk Modulus (GPa) = 36.74329 52.49576 44.61953
# Shear Modulus (GPa) = 22.17339 32.06786 27.12062
#
# Velocity S-wave (km/s) = 3.23692 3.89270 3.57985
# Velocity P-wave (km/s) = 5.59755 6.70895 6.17829
#
# Compressibility (1/GPa) = 0.02721585
#
# Stress axis : x y z
#
# Youngs Moduli (GPa) = 154.67337 62.82788 31.29262
#
# Poissons Ratio (x) = 0.17593 0.01045
# Poissons Ratio (y) = 0.43312 0.32629
# Poissons Ratio (z) = 0.05164 0.65511
#
# Static dielectric constant tensor:
#      x y z
#    x 5.327390 0.000000 0.000000 
#    y 0.000000 3.746100 0.000000 
#    z 0.000000 0.000000 3.476860 
# 
# 
# High freq. dielectric constant tensor:
#      x y z
#    x 1.866790 0.000000 0.000000 
#    y 0.000000 1.831520 0.000000 
#    z 0.000000 0.000000 1.798290 
# 
# From -- ./inp_files/4230.got.cif
#   From: 2010.03.12/outbox.cif.g09.slc.cpg/sg32_3_cif.got.tgz:4230.got - 2010.04.14 01:46:39.
