data_PCOD8170724
_publ_section_title
;
Structure prediction by ZEFSAII (Michael W. Deem and Ramdas Pophale) SiO2 
 PCOD8170724
Probable space group: P N A 21
;
_chemical_formula_sum "Si O2"
_cell_formula_units_Z 20
_cell_length_a 9.817412
_cell_length_b 8.977024
_cell_length_c 9.573226
_cell_angle_alpha 90.000000
_cell_angle_beta 90.000000
_cell_angle_gamma 90.000000
_cell_volume 843.699351
_symmetry_space_group_name_H-M "P N A 21"
_symmetry_group_IT_number 33
_symmetry_cell_setting 'orthorhombic'
loop_
_space_group_symop_operation_xyz
x,y,z
-x,-y,1/2+z
1/2-x,1/2+y,1/2+z
1/2+x,1/2-y,z
loop_
_atom_site_type_symbol
_atom_site_label
_atom_site_fract_x
_atom_site_fract_y
_atom_site_fract_z
Si Si1 0.283879 0.073921 0.838650
Si Si2 0.282365 0.595159 0.643612
Si Si3 0.438867 0.881397 0.642613
Si Si4 0.589615 0.594523 0.646141
Si Si5 0.779419 0.593829 0.393343
O O1 0.418169 0.019275 0.749861
O O2 0.154155 0.984576 0.780082
O O3 0.252184 0.248417 0.819424
O O4 0.299532 0.042676 0.004374
O O5 0.298897 0.776822 0.658998
O O6 0.435992 0.531677 0.635768
O O7 0.202384 0.526745 0.772983
O O8 0.574350 0.780035 0.666943
O O9 0.424656 0.918577 0.477235
O O10 0.658443 0.548395 0.499656
#
# Coordination Sequence:
#
# PCOD8170724 Si02
#       5
#     4   4   4   4   4
#     4  10  19  36  56  85 111 141 197 236 275 336
#     4   9  19  34  57  80 106 153 183 232 287 344
#     4   8  20  35  55  77 116 154 178 238 288 336
#     4   9  19  38  58  76 118 156 178 228 301 334
#     4  10  19  35  58  84 109 142 202 234 273 340
#
# _framework density 23.705127999999998
#
# number of rings (size 3 to 8) (size 9 to 14) (size 15 to 20)
#    1.200    1.600    0.000    1.200    0.000    3.200 
#    0.000    8.000    0.000    0.000    0.000    0.000 
#    0.000    0.000    0.000    0.000    0.000    0.000 
#
# Total GULP energy -247842.128780 kJ/mol
# GULP energy per Si atom -12392.106439 kJ/mol
# Density = 2.365117 g / cm^3
# Si number density = 23.705128 Si / 1000 Ang^3
#
#
#
# Elastic Constant Matrix: (Units=GPa)
#
#
# Indices 1 2 3 4 5 6 
#
# 1 50.6761 2.4162 -3.1285 0.0000 0.0000 0.0000
# 2 2.4162 71.6318 69.2851 0.0000 0.0000 0.0000
# 3 -3.1285 69.2851 150.0293 0.0000 0.0000 0.0000
# 4 0.0000 0.0000 0.0000 40.5344 0.0000 0.0000
# 5 0.0000 0.0000 0.0000 0.0000 17.0021 0.0000
# 6 0.0000 0.0000 0.0000 0.0000 0.0000 28.9434
#
#
#
# Elastic Compliance Matrix: (Units=1/GPa)
#
#
# Indices 1 2 3 4 5 6 
#
# 1 0.019907 -0.001939 0.001311 0.000000 0.000000 0.000000
# 2 -0.001939 0.025419 -0.011779 0.000000 0.000000 0.000000
# 3 0.001311 -0.011779 0.012132 0.000000 0.000000 0.000000
# 4 0.000000 0.000000 0.000000 0.024670 0.000000 0.000000
# 5 0.000000 0.000000 0.000000 0.000000 0.058816 0.000000
# 6 0.000000 0.000000 0.000000 0.000000 0.000000 0.034550
#
#
# Mechanical properties :
#
#
# Convention : Reuss Voigt Hill
#
# Bulk Modulus (GPa) = 30.63486 45.49809 38.06648
# Shear Modulus (GPa) = 23.67524 30.88028 27.27776
#
# Velocity S-wave (km/s) = 3.16371 3.61319 3.39589
# Velocity P-wave (km/s) = 5.12804 6.05325 5.60975
#
# Compressibility (1/GPa) = 0.03264255
#
# Stress axis : x y z
#
# Youngs Moduli (GPa) = 50.23477 39.34068 82.42363
#
# Poissons Ratio (x) = 0.07629 -0.10803
# Poissons Ratio (y) = 0.09741 0.97088
# Poissons Ratio (z) = -0.06584 0.46340
#
# Static dielectric constant tensor:
#      x y z
#    x 4.603700 0.000000 0.000000 
#    y 0.000000 4.043890 0.000000 
#    z 0.000000 0.000000 4.057140 
# 
# 
# High freq. dielectric constant tensor:
#      x y z
#    x 1.984410 0.000000 0.000000 
#    y 0.000000 1.915290 0.000000 
#    z 0.000000 0.000000 1.934030 
# 
# From -- ./inp_files/3748.got.cif
#   From: 2010.03.12/outbox.cif.g09.slc.cpg/sg33_2_cif.got.tgz:3748.got - 2010.04.14 01:49:19.
