data_PCOD8170103
_publ_section_title
;
Structure prediction by ZEFSAII (Michael W. Deem and Ramdas Pophale) SiO2 
 PCOD8170103
Probable space group: P M N 21
;
_chemical_formula_sum "Si O2"
_cell_formula_units_Z 32
_cell_length_a 8.969196
_cell_length_b 12.078147
_cell_length_c 14.670036
_cell_angle_alpha 90.000000
_cell_angle_beta 90.000000
_cell_angle_gamma 90.000000
_cell_volume 1589.223598
_symmetry_space_group_name_H-M "P M N 21"
_symmetry_group_IT_number 31
_symmetry_cell_setting 'orthorhombic'
loop_
_space_group_symop_operation_xyz
x,y,z
1/2-x,-y,1/2+z
-x,y,z
1/2+x,-y,1/2+z
loop_
_atom_site_type_symbol
_atom_site_label
_atom_site_fract_x
_atom_site_fract_y
_atom_site_fract_z
Si Si1 0.825813 0.545264 0.436610
Si Si2 0.174396 0.016501 0.537890
Si Si3 0.830287 0.780483 0.134070
Si Si4 0.674934 0.166055 0.177230
Si Si5 0.171796 0.907442 0.866968
Si Si6 0.323306 0.617376 0.260949
Si Si7 0.164649 0.669051 0.948755
Si Si8 0.322515 0.409565 0.141040
O O1 0.736749 0.618389 0.363859
O O2 0.789681 0.416780 0.416981
O O3 0.766579 0.573774 0.537544
O O4 0.000000 0.567548 0.424857
O O5 0.209306 0.897308 0.582970
O O6 0.000000 0.043377 0.537471
O O7 0.255843 0.107566 0.598836
O O8 0.233650 0.013066 0.433728
O O9 0.739309 0.730639 0.218227
O O10 0.000000 0.806963 0.162680
O O11 0.825597 0.687056 0.056553
O O12 0.500000 0.178529 0.193544
O O13 0.734005 0.092133 0.263020
O O14 0.742127 0.290541 0.174490
O O15 0.195233 0.782372 0.898043
O O16 0.000000 0.945040 0.874565
O O17 0.500000 0.623134 0.259569
O O18 0.264513 0.508031 0.206703
O O19 0.000000 0.623502 0.921922
O O20 0.500000 0.409753 0.141183
#
# Coordination Sequence:
#
# PCOD8170103 Si02
#       8
#     4   4   4   4   4   4   4   4
#     4  11  21  33  52  82 116 150 185 226 280 340
#     4  10  20  35  58  85 112 145 188 238 283 335
#     4  10  20  36  57  79 108 144 185 235 284 332
#     4   9  18  36  59  81 111 151 192 230 279 340
#     4   9  18  35  59  83 108 146 192 237 284 334
#     4  11  21  36  58  84 114 150 190 231 280 341
#     4   9  17  31  54  79 106 141 183 230 275 325
#     4   9  19  36  57  81 113 151 187 227 279 337
#
# _framework density 20.135619999999999
#
# number of rings (size 3 to 8) (size 9 to 14) (size 15 to 20)
#    0.000    2.250    1.250    3.000    0.000    4.000 
#    2.250    1.250    0.000    6.750    0.000    0.000 
#    0.000    0.000    0.000    0.000    0.000    0.000 
#
# Total GULP energy -396706.114110 kJ/mol
# GULP energy per Si atom -12397.066066 kJ/mol
# Density = 2.008979 g / cm^3
# Si number density = 20.135620 Si / 1000 Ang^3
#
#
#
# Elastic Constant Matrix: (Units=GPa)
#
#
# Indices 1 2 3 4 5 6 
#
# 1 70.6167 15.2645 22.5146 0.0000 0.0000 0.0000
# 2 15.2645 40.6184 6.2099 0.0000 0.0000 0.0000
# 3 22.5146 6.2099 101.6211 0.0000 0.0000 0.0000
# 4 0.0000 0.0000 0.0000 24.5276 0.0000 0.0000
# 5 0.0000 0.0000 0.0000 0.0000 30.9081 0.0000
# 6 0.0000 0.0000 0.0000 0.0000 0.0000 20.0805
#
#
#
# Elastic Compliance Matrix: (Units=1/GPa)
#
#
# Indices 1 2 3 4 5 6 
#
# 1 0.016438 -0.005674 -0.003295 0.000000 0.000000 0.000000
# 2 -0.005674 0.026810 -0.000381 0.000000 0.000000 0.000000
# 3 -0.003295 -0.000381 0.010594 0.000000 0.000000 0.000000
# 4 0.000000 0.000000 0.000000 0.040770 0.000000 0.000000
# 5 0.000000 0.000000 0.000000 0.000000 0.032354 0.000000
# 6 0.000000 0.000000 0.000000 0.000000 0.000000 0.049800
#
#
# Mechanical properties :
#
#
# Convention : Reuss Voigt Hill
#
# Bulk Modulus (GPa) = 28.45645 33.42601 30.94123
# Shear Modulus (GPa) = 24.13364 26.36105 25.24735
#
# Velocity S-wave (km/s) = 3.46577 3.62218 3.54484
# Velocity P-wave (km/s) = 5.49350 5.84209 5.67047
#
# Compressibility (1/GPa) = 0.03514142
#
# Stress axis : x y z
#
# Youngs Moduli (GPa) = 60.83473 37.29973 94.39448
#
# Poissons Ratio (x) = 0.21163 0.31105
# Poissons Ratio (y) = 0.34515 0.03599
# Poissons Ratio (z) = 0.20046 0.01422
#
# Static dielectric constant tensor:
#      x y z
#    x 3.447330 0.000000 0.000000 
#    y 0.000000 3.475220 0.000000 
#    z 0.000000 0.000000 3.960010 
# 
# 
# High freq. dielectric constant tensor:
#      x y z
#    x 1.759960 0.000000 0.000000 
#    y 0.000000 1.769980 0.000000 
#    z 0.000000 0.000000 1.795710 
# 
# From -- ./inp_files/5099.got.cif
#   From: 2010.03.12/outbox.cif.g09.slc.cpg/sg31_3_cif.got.tgz:5099.got - 2010.04.14 01:42:59.
