data_PCOD8170481
_publ_section_title
;
Structure prediction by ZEFSAII (Michael W. Deem and Ramdas Pophale) SiO2 
 PCOD8170481
Probable space group: P B A 2
;
_chemical_formula_sum "Si O2"
_cell_formula_units_Z 32
_cell_length_a 9.310008
_cell_length_b 26.674330
_cell_length_c 5.259748
_cell_angle_alpha 90.000000
_cell_angle_beta 90.000000
_cell_angle_gamma 90.000000
_cell_volume 1306.196486
_symmetry_space_group_name_H-M "P B A 2"
_symmetry_group_IT_number 32
_symmetry_cell_setting 'orthorhombic'
loop_
_space_group_symop_operation_xyz
x,y,z
-x,-y,z
1/2-x,1/2+y,z
1/2+x,1/2-y,z
loop_
_atom_site_type_symbol
_atom_site_label
_atom_site_fract_x
_atom_site_fract_y
_atom_site_fract_z
Si Si1 0.447955 0.862932 0.118540
Si Si2 0.850897 0.851175 0.901315
Si Si3 0.649603 0.673645 0.001175
Si Si4 0.053903 0.733500 0.296679
Si Si5 0.295273 0.747936 0.649721
Si Si6 0.291939 0.105462 0.400631
Si Si7 0.668472 0.006497 0.335180
Si Si8 0.887253 0.544473 0.833580
O O1 0.517598 0.807204 0.071634
O O2 0.534078 0.884884 0.366835
O O3 0.275299 0.856603 0.149338
O O4 0.469768 0.902399 0.885127
O O5 0.837092 0.790583 0.873420
O O6 0.769981 0.878184 0.670955
O O7 0.022939 0.863255 0.900919
O O8 0.783689 0.866842 0.166960
O O9 0.714057 0.704298 0.765228
O O10 0.570854 0.710649 0.196527
O O11 0.198851 0.717696 0.443908
O O12 0.930964 0.729995 0.506134
O O13 0.256472 0.046599 0.381162
O O14 0.500000 0.000000 0.279964
O O15 0.702577 0.044718 0.569522
O O16 0.719783 0.032555 0.070937
O O17 0.000000 0.500000 0.778920
#
# Coordination Sequence:
#
# PCOD8170481 Si02
#       8
#     4   4   4   4   4   4   4   4
#     4  12  25  43  75 109 144 198 267 312 386 460
#     4  12  27  44  69 103 153 198 255 309 386 467
#     4  12  28  47  65 105 160 205 254 320 388 464
#     4  12  25  46  67 107 150 207 257 323 373 466
#     4  12  25  44  72  96 154 208 259 316 385 439
#     4  12  25  43  75 111 139 196 259 314 381 468
#     4  10  20  41  66 106 147 169 230 333 385 425
#     4  10  21  40  68 107 145 176 239 333 386 429
#
# _framework density 24.498612000000001
#
# number of rings (size 3 to 8) (size 9 to 14) (size 15 to 20)
#    0.000    0.500    6.250    3.000    3.500    1.000 
#    0.000    0.000    0.000    4.500    0.000    0.000 
#    0.000    0.000    0.000    0.000    0.000    0.000 
#
# Total GULP energy -396532.553646 kJ/mol
# GULP energy per Si atom -12391.642301 kJ/mol
# Density = 2.444285 g / cm^3
# Si number density = 24.498612 Si / 1000 Ang^3
#
#
#
# Elastic Constant Matrix: (Units=GPa)
#
#
# Indices 1 2 3 4 5 6 
#
# 1 96.7216 24.7071 32.4523 0.0000 0.0000 0.0000
# 2 24.7071 77.5556 11.9296 0.0000 0.0000 0.0000
# 3 32.4523 11.9296 112.7147 0.0000 0.0000 0.0000
# 4 0.0000 0.0000 0.0000 27.9917 0.0000 0.0000
# 5 0.0000 0.0000 0.0000 0.0000 29.1532 0.0000
# 6 0.0000 0.0000 0.0000 0.0000 0.0000 15.4862
#
#
#
# Elastic Compliance Matrix: (Units=1/GPa)
#
#
# Indices 1 2 3 4 5 6 
#
# 1 0.012278 -0.003423 -0.003173 0.000000 0.000000 0.000000
# 2 -0.003423 0.014062 -0.000503 0.000000 0.000000 0.000000
# 3 -0.003173 -0.000503 0.009839 0.000000 0.000000 0.000000
# 4 0.000000 0.000000 0.000000 0.035725 0.000000 0.000000
# 5 0.000000 0.000000 0.000000 0.000000 0.034302 0.000000
# 6 0.000000 0.000000 0.000000 0.000000 0.000000 0.064574
#
#
# Mechanical properties :
#
#
# Convention : Reuss Voigt Hill
#
# Bulk Modulus (GPa) = 45.49377 47.24106 46.36742
# Shear Modulus (GPa) = 26.00061 29.05307 27.52684
#
# Velocity S-wave (km/s) = 3.26131 3.44744 3.35566
# Velocity P-wave (km/s) = 5.72641 5.93055 5.82937
#
# Compressibility (1/GPa) = 0.02198103
#
# Stress axis : x y z
#
# Youngs Moduli (GPa) = 81.44682 71.11415 101.64026
#
# Poissons Ratio (x) = 0.24345 0.32247
# Poissons Ratio (y) = 0.27882 0.05109
# Poissons Ratio (z) = 0.25840 0.03574
#
# Static dielectric constant tensor:
#      x y z
#    x 4.440310 0.000000 0.000000 
#    y 0.000000 4.562490 0.000000 
#    z 0.000000 0.000000 4.789240 
# 
# 
# High freq. dielectric constant tensor:
#      x y z
#    x 1.942220 0.000000 0.000000 
#    y 0.000000 1.970530 0.000000 
#    z 0.000000 0.000000 1.985790 
# 
# From -- ./inp_files/639.got.cif
#   From: 2010.03.12/outbox.cif.g09.slc.cpg/sg32_1_cif.got.tgz:639.got - 2010.04.14 01:46:39.
