data_PCOD8170844
_publ_section_title
;
Structure prediction by ZEFSAII (Michael W. Deem and Ramdas Pophale) SiO2 
 PCOD8170844
Probable space group: P N A 21
;
_chemical_formula_sum "Si O2"
_cell_formula_units_Z 20
_cell_length_a 23.444478
_cell_length_b 5.184248
_cell_length_c 8.295110
_cell_angle_alpha 90.000000
_cell_angle_beta 90.000000
_cell_angle_gamma 90.000000
_cell_volume 1008.204162
_symmetry_space_group_name_H-M "P N A 21"
_symmetry_group_IT_number 33
_symmetry_cell_setting 'orthorhombic'
loop_
_space_group_symop_operation_xyz
x,y,z
-x,-y,1/2+z
1/2-x,1/2+y,1/2+z
1/2+x,1/2-y,z
loop_
_atom_site_type_symbol
_atom_site_label
_atom_site_fract_x
_atom_site_fract_y
_atom_site_fract_z
Si Si1 0.283645 0.408794 0.051410
Si Si2 0.699327 0.084819 0.765143
Si Si3 0.095452 0.846463 0.445786
Si Si4 0.534595 0.149986 0.434870
Si Si5 0.573076 0.942366 0.744929
O O1 0.279297 0.158188 0.162827
O O2 0.286836 0.659964 0.163472
O O3 0.228214 0.415696 0.939546
O O4 0.337036 0.392304 0.926595
O O5 0.631946 0.068005 0.804140
O O6 0.060233 0.082536 0.369604
O O7 0.073147 0.583683 0.359848
O O8 0.085323 0.816622 0.639988
O O9 0.539815 0.144811 0.628918
O O10 0.467870 0.125364 0.393590
#
# Coordination Sequence:
#
# PCOD8170844 Si02
#       5
#     4   4   4   4   4
#     4  11  21  43  63  87 124 163 200 255 304 352
#     4  11  23  41  64  89 125 160 203 253 301 362
#     4   9  20  36  58  79 119 152 187 238 296 338
#     4  10  20  36  61  82 116 156 187 240 292 354
#     4   9  22  38  60  83 122 149 195 240 299 344
#
# _framework density 19.837250000000001
#
# number of rings (size 3 to 8) (size 9 to 14) (size 15 to 20)
#    1.200    0.800    2.000    1.200    2.800    0.000 
#    7.200    0.000    0.000    0.000    0.000    0.000 
#    0.000    0.000    0.000    0.000    0.000    0.000 
#
# Total GULP energy -247813.038494 kJ/mol
# GULP energy per Si atom -12390.651925 kJ/mol
# Density = 1.979210 g / cm^3
# Si number density = 19.837250 Si / 1000 Ang^3
#
#
#
# Elastic Constant Matrix: (Units=GPa)
#
#
# Indices 1 2 3 4 5 6 
#
# 1 121.0056 24.1216 44.3239 0.0000 0.0000 0.0000
# 2 24.1216 141.5838 16.8017 0.0000 0.0000 0.0000
# 3 44.3239 16.8017 37.9549 0.0000 0.0000 0.0000
# 4 0.0000 0.0000 0.0000 21.5178 0.0000 0.0000
# 5 0.0000 0.0000 0.0000 0.0000 45.4147 0.0000
# 6 0.0000 0.0000 0.0000 0.0000 0.0000 20.4949
#
#
#
# Elastic Compliance Matrix: (Units=1/GPa)
#
#
# Indices 1 2 3 4 5 6 
#
# 1 0.014473 -0.000486 -0.016687 0.000000 0.000000 0.000000
# 2 -0.000486 0.007471 -0.002740 0.000000 0.000000 0.000000
# 3 -0.016687 -0.002740 0.047047 0.000000 0.000000 0.000000
# 4 0.000000 0.000000 0.000000 0.046473 0.000000 0.000000
# 5 0.000000 0.000000 0.000000 0.000000 0.022019 0.000000
# 6 0.000000 0.000000 0.000000 0.000000 0.000000 0.048793
#
#
# Mechanical properties :
#
#
# Convention : Reuss Voigt Hill
#
# Bulk Modulus (GPa) = 34.28659 52.33764 43.31211
# Shear Modulus (GPa) = 21.20230 31.83862 26.52046
#
# Velocity S-wave (km/s) = 3.27282 4.01058 3.66033
# Velocity P-wave (km/s) = 5.62168 6.92005 6.30438
#
# Compressibility (1/GPa) = 0.02916593
#
# Stress axis : x y z
#
# Youngs Moduli (GPa) = 69.09301 133.85365 21.25531
#
# Poissons Ratio (x) = 0.06500 0.35469
# Poissons Ratio (y) = 0.03355 0.05824
# Poissons Ratio (z) = 1.15295 0.36677
#
# Static dielectric constant tensor:
#      x y z
#    x 3.581320 0.000000 0.000000 
#    y 0.000000 3.673830 0.000000 
#    z 0.000000 0.000000 3.094900 
# 
# 
# High freq. dielectric constant tensor:
#      x y z
#    x 1.779290 0.000000 0.000000 
#    y 0.000000 1.785130 0.000000 
#    z 0.000000 0.000000 1.727310 
# 
# From -- ./inp_files/4895.got.cif
#   From: 2010.03.12/outbox.cif.g09.slc.cpg/sg33_3_cif.got.tgz:4895.got - 2010.04.14 01:49:19.
