data_PCOD8170769
_publ_section_title
;
Structure prediction by ZEFSAII (Michael W. Deem and Ramdas Pophale) SiO2 
 PCOD8170769
Probable space group: P N A 21
;
_chemical_formula_sum "Si O2"
_cell_formula_units_Z 32
_cell_length_a 5.080241
_cell_length_b 23.806112
_cell_length_c 12.183541
_cell_angle_alpha 90.000000
_cell_angle_beta 90.000000
_cell_angle_gamma 90.000000
_cell_volume 1473.487028
_symmetry_space_group_name_H-M "P N A 21"
_symmetry_group_IT_number 33
_symmetry_cell_setting 'orthorhombic'
loop_
_space_group_symop_operation_xyz
x,y,z
-x,-y,1/2+z
1/2-x,1/2+y,1/2+z
1/2+x,1/2-y,z
loop_
_atom_site_type_symbol
_atom_site_label
_atom_site_fract_x
_atom_site_fract_y
_atom_site_fract_z
Si Si1 0.036289 0.105235 0.011710
Si Si2 0.573749 0.780190 0.680817
Si Si3 0.994526 0.055654 0.250825
Si Si4 0.005007 0.288818 0.509963
Si Si5 0.009113 0.617520 0.823747
Si Si6 0.040888 0.328635 0.970861
Si Si7 0.528471 0.572834 0.276567
Si Si8 0.520931 0.854834 0.233083
O O1 0.995283 0.075799 0.126547
O O2 0.342378 0.119823 0.995948
O O3 0.950889 0.066961 0.908560
O O4 0.840827 0.158862 0.007703
O O5 0.351086 0.739378 0.730322
O O6 0.523576 0.844052 0.715163
O O7 0.559102 0.777289 0.547603
O O8 0.247035 0.074710 0.321106
O O9 0.750513 0.079784 0.319748
O O10 0.977505 0.989274 0.234220
O O11 0.272544 0.255190 0.487880
O O12 0.993863 0.312013 0.632891
O O13 0.985120 0.342382 0.429671
O O14 0.023878 0.315713 0.841247
O O15 0.798919 0.597027 0.226591
O O16 0.302038 0.614925 0.235809
#
# Coordination Sequence:
#
# PCOD8170769 Si02
#       8
#     4   4   4   4   4   4   4   4
#     4  10  19  38  59  84 126 155 193 260 314 370
#     4  12  22  35  58  86 118 152 197 248 306 364
#     4  12  22  40  66  92 128 174 216 261 331 386
#     4  12  26  46  69  94 132 183 222 278 336 386
#     4  12  25  41  61  92 129 167 220 266 315 392
#     4  10  20  38  59  86 118 158 193 254 317 367
#     4  10  23  39  65  99 124 172 213 270 324 386
#     4  10  23  43  65  91 133 161 218 267 325 381
#
# _framework density 21.717193000000002
#
# number of rings (size 3 to 8) (size 9 to 14) (size 15 to 20)
#    0.000    1.000    2.500    4.500    0.000    3.000 
#    0.000    0.000    0.000    0.000    0.000    0.000 
#    0.000    0.000    0.000    0.000    0.000    0.000 
#
# Total GULP energy -396743.319128 kJ/mol
# GULP energy per Si atom -12398.228723 kJ/mol
# Density = 2.166776 g / cm^3
# Si number density = 21.717193 Si / 1000 Ang^3
#
#
#
# Elastic Constant Matrix: (Units=GPa)
#
#
# Indices 1 2 3 4 5 6 
#
# 1 121.2914 16.8115 13.5947 0.0000 0.0000 0.0000
# 2 16.8115 48.9142 9.7478 0.0000 0.0000 0.0000
# 3 13.5947 9.7478 98.5917 0.0000 0.0000 0.0000
# 4 0.0000 0.0000 0.0000 22.2096 0.0000 0.0000
# 5 0.0000 0.0000 0.0000 0.0000 21.4234 0.0000
# 6 0.0000 0.0000 0.0000 0.0000 0.0000 33.2054
#
#
#
# Elastic Compliance Matrix: (Units=1/GPa)
#
#
# Indices 1 2 3 4 5 6 
#
# 1 0.008739 -0.002819 -0.000926 0.000000 0.000000 0.000000
# 2 -0.002819 0.021764 -0.001763 0.000000 0.000000 0.000000
# 3 -0.000926 -0.001763 0.010445 0.000000 0.000000 0.000000
# 4 0.000000 0.000000 0.000000 0.045025 0.000000 0.000000
# 5 0.000000 0.000000 0.000000 0.000000 0.046678 0.000000
# 6 0.000000 0.000000 0.000000 0.000000 0.000000 0.030116
#
#
# Mechanical properties :
#
#
# Convention : Reuss Voigt Hill
#
# Bulk Modulus (GPa) = 33.40975 38.78946 36.09961
# Shear Modulus (GPa) = 27.20923 30.61059 28.90991
#
# Velocity S-wave (km/s) = 3.54346 3.75842 3.65252
# Velocity P-wave (km/s) = 5.67088 6.06088 5.86912
#
# Compressibility (1/GPa) = 0.02993138
#
# Stress axis : x y z
#
# Youngs Moduli (GPa) = 114.42755 45.94703 95.74059
#
# Poissons Ratio (x) = 0.12952 0.08869
# Poissons Ratio (y) = 0.32257 0.16880
# Poissons Ratio (z) = 0.10600 0.08101
#
# Static dielectric constant tensor:
#      x y z
#    x 4.232790 0.000000 0.000000 
#    y 0.000000 3.661230 0.000000 
#    z 0.000000 0.000000 4.072060 
# 
# 
# High freq. dielectric constant tensor:
#      x y z
#    x 1.876590 0.000000 0.000000 
#    y 0.000000 1.834080 0.000000 
#    z 0.000000 0.000000 1.859530 
# 
# From -- ./inp_files/5568.got.cif
#   From: 2010.03.12/outbox.cif.g09.slc.cpg/sg33_3_cif.got.tgz:5568.got - 2010.04.14 01:49:19.
