data_PCOD8170287
_publ_section_title
;
Structure prediction by ZEFSAII (Michael W. Deem and Ramdas Pophale) SiO2 
 PCOD8170287
Probable space group: P M N 21
;
_chemical_formula_sum "Si O2"
_cell_formula_units_Z 32
_cell_length_a 14.418816
_cell_length_b 9.371524
_cell_length_c 11.428662
_cell_angle_alpha 90.000000
_cell_angle_beta 90.000000
_cell_angle_gamma 90.000000
_cell_volume 1544.312584
_symmetry_space_group_name_H-M "P M N 21"
_symmetry_group_IT_number 31
_symmetry_cell_setting 'orthorhombic'
loop_
_space_group_symop_operation_xyz
x,y,z
1/2-x,-y,1/2+z
-x,y,z
1/2+x,-y,1/2+z
loop_
_atom_site_type_symbol
_atom_site_label
_atom_site_fract_x
_atom_site_fract_y
_atom_site_fract_z
Si Si1 0.726836 0.335006 0.275030
Si Si2 0.841244 0.890564 0.949642
Si Si3 0.269132 0.343533 0.836441
Si Si4 0.898038 0.846695 0.195141
Si Si5 0.105605 0.725954 0.552363
Si Si6 0.896746 0.148903 0.292179
Si Si7 0.104867 0.145548 0.793298
Si Si8 0.645805 0.949415 0.036081
O O1 0.688401 0.256758 0.389738
O O2 0.740947 0.498578 0.303409
O O3 0.652167 0.319243 0.173286
O O4 0.826255 0.265942 0.240489
O O5 0.888667 0.991319 0.854064
O O6 0.910340 0.854862 0.055295
O O7 0.754185 0.969632 0.009615
O O8 0.326806 0.276810 0.729109
O O9 0.174393 0.255247 0.856523
O O10 0.333396 0.344382 0.950458
O O11 0.000000 0.814724 0.248520
O O12 0.860177 0.995121 0.248441
O O13 0.000000 0.666750 0.548404
O O14 0.099545 0.895872 0.539062
O O15 0.899409 0.146273 0.433429
O O16 0.000000 0.182378 0.243749
O O17 0.130018 0.132704 0.656980
O O18 0.000000 0.202880 0.806887
#
# Coordination Sequence:
#
# PCOD8170287 Si02
#       8
#     4   4   4   4   4   4   4   4
#     4  11  27  42  65  94 137 174 210 266 324 389
#     4  11  22  41  63  96 131 169 211 275 334 380
#     4  12  26  44  64  95 138 171 214 260 327 387
#     4  11  22  40  67  95 126 167 217 273 327 384
#     4  12  24  43  72  98 125 171 224 267 318 387
#     4  10  21  40  66  97 129 169 222 275 325 382
#     4  12  24  41  68  97 129 170 218 271 327 387
#     4  11  20  39  69  98 127 165 220 283 324 374
#
# _framework density 20.721193
#
# number of rings (size 3 to 8) (size 9 to 14) (size 15 to 20)
#    0.000    0.750    5.000    3.375    1.750    2.000 
#    0.000    0.000    0.000    0.000    0.000    0.000 
#    0.000    0.000    0.000    0.000    0.000    0.000 
#
# Total GULP energy -396902.387940 kJ/mol
# GULP energy per Si atom -12403.199623 kJ/mol
# Density = 2.067403 g / cm^3
# Si number density = 20.721193 Si / 1000 Ang^3
#
#
#
# Elastic Constant Matrix: (Units=GPa)
#
#
# Indices 1 2 3 4 5 6 
#
# 1 136.8066 37.7005 40.6535 0.0000 0.0000 0.0000
# 2 37.7005 102.3361 21.7460 0.0000 0.0000 0.0000
# 3 40.6535 21.7460 108.0867 0.0000 0.0000 0.0000
# 4 0.0000 0.0000 0.0000 10.7720 0.0000 0.0000
# 5 0.0000 0.0000 0.0000 0.0000 26.7451 0.0000
# 6 0.0000 0.0000 0.0000 0.0000 0.0000 10.1878
#
#
#
# Elastic Compliance Matrix: (Units=1/GPa)
#
#
# Indices 1 2 3 4 5 6 
#
# 1 0.008879 -0.002676 -0.002801 0.000000 0.000000 0.000000
# 2 -0.002676 0.011015 -0.001210 0.000000 0.000000 0.000000
# 3 -0.002801 -0.001210 0.010549 0.000000 0.000000 0.000000
# 4 0.000000 0.000000 0.000000 0.092833 0.000000 0.000000
# 5 0.000000 0.000000 0.000000 0.000000 0.037390 0.000000
# 6 0.000000 0.000000 0.000000 0.000000 0.000000 0.098157
#
#
# Mechanical properties :
#
#
# Convention : Reuss Voigt Hill
#
# Bulk Modulus (GPa) = 58.58514 60.82548 59.70531
# Shear Modulus (GPa) = 17.99295 26.01626 22.00461
#
# Velocity S-wave (km/s) = 2.94995 3.54720 3.26227
# Velocity P-wave (km/s) = 6.31960 6.79668 6.56248
#
# Compressibility (1/GPa) = 0.01706918
#
# Stress axis : x y z
#
# Youngs Moduli (GPa) = 112.61948 90.78896 94.79718
#
# Poissons Ratio (x) = 0.24294 0.26556
# Poissons Ratio (y) = 0.30136 0.11466
# Poissons Ratio (z) = 0.31549 0.10981
#
# Static dielectric constant tensor:
#      x y z
#    x 3.958850 0.000000 0.000000 
#    y 0.000000 3.422520 0.000000 
#    z 0.000000 0.000000 3.936660 
# 
# 
# High freq. dielectric constant tensor:
#      x y z
#    x 1.829060 0.000000 0.000000 
#    y 0.000000 1.777950 0.000000 
#    z 0.000000 0.000000 1.818750 
# 
# From -- ./inp_files/4277.got.cif
#   From: 2010.03.12/outbox.cif.g09.slc.cpg/sg31_3_cif.got.tgz:4277.got - 2010.04.14 01:42:59.
