data_PCOD8170236
_publ_section_title
;
Structure prediction by ZEFSAII (Michael W. Deem and Ramdas Pophale) SiO2 
 PCOD8170236
Probable space group: P M N 21
;
_chemical_formula_sum "Si O2"
_cell_formula_units_Z 32
_cell_length_a 14.854344
_cell_length_b 9.118440
_cell_length_c 11.474744
_cell_angle_alpha 90.000000
_cell_angle_beta 90.000000
_cell_angle_gamma 90.000000
_cell_volume 1554.236226
_symmetry_space_group_name_H-M "P M N 21"
_symmetry_group_IT_number 31
_symmetry_cell_setting 'orthorhombic'
loop_
_space_group_symop_operation_xyz
x,y,z
1/2-x,-y,1/2+z
-x,y,z
1/2+x,-y,1/2+z
loop_
_atom_site_type_symbol
_atom_site_label
_atom_site_fract_x
_atom_site_fract_y
_atom_site_fract_z
Si Si1 0.721588 0.362428 0.705030
Si Si2 0.724669 0.127917 0.526870
Si Si3 0.901265 0.413427 0.096520
Si Si4 0.394474 0.525825 0.330370
Si Si5 0.168352 0.797813 0.776979
Si Si6 0.349237 0.882369 0.680307
Si Si7 0.100033 0.861943 0.337170
Si Si8 0.402827 0.021304 0.079885
O O1 0.711112 0.290644 0.577193
O O2 0.666789 0.513480 0.690234
O O3 0.824867 0.387703 0.745732
O O4 0.674729 0.252429 0.795692
O O5 0.700761 0.119180 0.392513
O O6 0.659729 0.008497 0.583970
O O7 0.827550 0.100083 0.562461
O O8 0.915050 0.242434 0.131222
O O9 0.000000 0.487465 0.107886
O O10 0.869015 0.430745 0.962590
O O11 0.500000 0.563660 0.302673
O O12 0.378449 0.354312 0.308138
O O13 0.257226 0.790163 0.697545
O O14 0.099335 0.898312 0.705089
O O15 0.382889 0.968971 0.795289
O O16 0.106821 0.858580 0.476927
O O17 0.000000 0.813773 0.295617
O O18 0.500000 0.942673 0.071100
#
# Coordination Sequence:
#
# PCOD8170236 Si02
#       8
#     4   4   4   4   4   4   4   4
#     4  11  23  40  64  89 127 170 207 259 324 380
#     4  10  22  39  63  91 122 168 207 254 323 389
#     4  11  23  40  62  93 127 166 213 262 317 385
#     4  11  25  41  63  94 131 169 219 271 321 388
#     4  11  20  40  63  90 128 170 209 257 328 381
#     4  10  21  37  65  93 125 164 207 261 322 381
#     4  10  21  39  62  95 130 164 211 263 319 389
#     4  10  22  38  62  93 126 161 212 269 319 383
#
# _framework density 20.588891
#
# number of rings (size 3 to 8) (size 9 to 14) (size 15 to 20)
#    0.000    1.500    3.750    1.125    3.500    0.500 
#    0.000    3.125    0.000    0.750    0.000    0.000 
#    0.000    0.000    0.000    0.000    0.000    0.000 
#
# Total GULP energy -396568.267057 kJ/mol
# GULP energy per Si atom -12392.758346 kJ/mol
# Density = 2.054203 g / cm^3
# Si number density = 20.588891 Si / 1000 Ang^3
#
#
#
# Elastic Constant Matrix: (Units=GPa)
#
#
# Indices 1 2 3 4 5 6 
#
# 1 104.0903 29.2741 21.1489 0.0000 0.0000 0.0000
# 2 29.2741 98.8695 36.1263 0.0000 0.0000 0.0000
# 3 21.1489 36.1263 95.2898 0.0000 0.0000 0.0000
# 4 0.0000 0.0000 0.0000 21.7950 0.0000 0.0000
# 5 0.0000 0.0000 0.0000 0.0000 29.3983 0.0000
# 6 0.0000 0.0000 0.0000 0.0000 0.0000 22.3692
#
#
#
# Elastic Compliance Matrix: (Units=1/GPa)
#
#
# Indices 1 2 3 4 5 6 
#
# 1 0.010628 -0.002652 -0.001353 0.000000 0.000000 0.000000
# 2 -0.002652 0.012403 -0.004113 0.000000 0.000000 0.000000
# 3 -0.001353 -0.004113 0.012354 0.000000 0.000000 0.000000
# 4 0.000000 0.000000 0.000000 0.045882 0.000000 0.000000
# 5 0.000000 0.000000 0.000000 0.000000 0.034016 0.000000
# 6 0.000000 0.000000 0.000000 0.000000 0.000000 0.044704
#
#
# Mechanical properties :
#
#
# Convention : Reuss Voigt Hill
#
# Bulk Modulus (GPa) = 52.22830 52.37203 52.30017
# Shear Modulus (GPa) = 27.38120 28.82585 28.10352
#
# Velocity S-wave (km/s) = 3.65074 3.74581 3.69858
# Velocity P-wave (km/s) = 6.57212 6.64833 6.61034
#
# Compressibility (1/GPa) = 0.01914671
#
# Stress axis : x y z
#
# Youngs Moduli (GPa) = 94.09176 80.62761 80.94456
#
# Poissons Ratio (x) = 0.21385 0.10954
# Poissons Ratio (y) = 0.24956 0.33296
# Poissons Ratio (z) = 0.12733 0.33166
#
# Static dielectric constant tensor:
#      x y z
#    x 3.817210 0.000000 0.000000 
#    y 0.000000 3.502070 0.000000 
#    z 0.000000 0.000000 3.719720 
# 
# 
# High freq. dielectric constant tensor:
#      x y z
#    x 1.814270 0.000000 0.000000 
#    y 0.000000 1.790880 0.000000 
#    z 0.000000 0.000000 1.805470 
# 
# From -- ./inp_files/4273.got.cif
#   From: 2010.03.12/outbox.cif.g09.slc.cpg/sg31_3_cif.got.tgz:4273.got - 2010.04.14 01:42:59.
