data_PCOD8170104
_publ_section_title
;
Structure prediction by ZEFSAII (Michael W. Deem and Ramdas Pophale) SiO2 
 PCOD8170104
Probable space group: P M N 21
;
_chemical_formula_sum "Si O2"
_cell_formula_units_Z 32
_cell_length_a 8.784056
_cell_length_b 12.389687
_cell_length_c 14.171481
_cell_angle_alpha 90.000000
_cell_angle_beta 90.000000
_cell_angle_gamma 90.000000
_cell_volume 1542.306432
_symmetry_space_group_name_H-M "P M N 21"
_symmetry_group_IT_number 31
_symmetry_cell_setting 'orthorhombic'
loop_
_space_group_symop_operation_xyz
x,y,z
1/2-x,-y,1/2+z
-x,y,z
1/2+x,-y,1/2+z
loop_
_atom_site_type_symbol
_atom_site_label
_atom_site_fract_x
_atom_site_fract_y
_atom_site_fract_z
Si Si1 0.179955 0.685651 0.005090
Si Si2 0.321100 0.412488 0.307886
Si Si3 0.822229 0.084238 0.482073
Si Si4 0.324030 0.387601 0.708171
Si Si5 0.675692 0.861772 0.505948
Si Si6 0.825362 0.031518 0.268479
Si Si7 0.826366 0.182295 0.788126
Si Si8 0.822417 0.775676 0.669960
O O1 0.220358 0.611638 0.096486
O O2 0.000000 0.705998 0.997349
O O3 0.242190 0.624440 0.910859
O O4 0.258321 0.801869 0.019222
O O5 0.500000 0.420833 0.315941
O O6 0.263146 0.527255 0.273058
O O7 0.269474 0.328352 0.227796
O O8 0.789196 0.078937 0.371159
O O9 0.000000 0.076830 0.506688
O O10 0.736918 0.982483 0.529302
O O11 0.500000 0.413081 0.719921
O O12 0.286898 0.271127 0.749025
O O13 0.500000 0.855867 0.535479
O O14 0.700188 0.830093 0.398593
O O15 0.776071 0.769295 0.559880
O O16 0.783870 0.124964 0.197386
O O17 0.000000 0.996065 0.259001
O O18 0.719146 0.930800 0.240929
O O19 0.000000 0.211187 0.762398
O O20 0.000000 0.798689 0.686427
#
# Coordination Sequence:
#
# PCOD8170104 Si02
#       8
#     4   4   4   4   4   4   4   4
#     4  10  22  42  64  88 120 161 204 252 312 372
#     4  10  23  44  66  88 122 164 209 257 309 375
#     4  10  20  35  59  91 124 160 206 256 304 364
#     4  11  25  42  65  93 122 160 208 262 313 369
#     4  10  22  38  59  88 127 171 208 253 311 373
#     4  10  20  35  58  89 125 161 201 253 309 365
#     4  10  22  41  62  86 123 167 207 252 311 371
#     4  11  22  37  61  91 123 164 209 255 307 367
#
# _framework density 20.748148
#
# number of rings (size 3 to 8) (size 9 to 14) (size 15 to 20)
#    0.000    1.750    1.250    2.250    1.750    6.000 
#    0.000    3.750    0.000    0.000    0.000    0.000 
#    0.000    0.000    0.000    0.000    0.000    0.000 
#
# Total GULP energy -396790.644576 kJ/mol
# GULP energy per Si atom -12399.707643 kJ/mol
# Density = 2.070092 g / cm^3
# Si number density = 20.748148 Si / 1000 Ang^3
#
#
#
# Elastic Constant Matrix: (Units=GPa)
#
#
# Indices 1 2 3 4 5 6 
#
# 1 41.8086 14.1871 25.6905 0.0000 0.0000 0.0000
# 2 14.1871 78.0751 33.0233 0.0000 0.0000 0.0000
# 3 25.6905 33.0233 56.5325 0.0000 0.0000 0.0000
# 4 0.0000 0.0000 0.0000 32.1343 0.0000 0.0000
# 5 0.0000 0.0000 0.0000 0.0000 31.3976 0.0000
# 6 0.0000 0.0000 0.0000 0.0000 0.0000 36.0070
#
#
#
# Elastic Compliance Matrix: (Units=1/GPa)
#
#
# Indices 1 2 3 4 5 6 
#
# 1 0.033198 0.000463 -0.015357 0.000000 0.000000 0.000000
# 2 0.000463 0.017018 -0.010151 0.000000 0.000000 0.000000
# 3 -0.015357 -0.010151 0.030597 0.000000 0.000000 0.000000
# 4 0.000000 0.000000 0.000000 0.031119 0.000000 0.000000
# 5 0.000000 0.000000 0.000000 0.000000 0.031850 0.000000
# 6 0.000000 0.000000 0.000000 0.000000 0.000000 0.027772
#
#
# Mechanical properties :
#
#
# Convention : Reuss Voigt Hill
#
# Bulk Modulus (GPa) = 32.54900 35.80201 34.17551
# Shear Modulus (GPa) = 21.56238 26.80878 24.18558
#
# Velocity S-wave (km/s) = 3.22723 3.59849 3.41790
# Velocity P-wave (km/s) = 5.44136 5.87864 5.66422
#
# Compressibility (1/GPa) = 0.03072291
#
# Stress axis : x y z
#
# Youngs Moduli (GPa) = 30.12247 58.76237 32.68247
#
# Poissons Ratio (x) = -0.02721 0.50190
# Poissons Ratio (y) = -0.01395 0.33177
# Poissons Ratio (z) = 0.46258 0.59651
#
# Static dielectric constant tensor:
#      x y z
#    x 3.667680 0.000000 0.000000 
#    y 0.000000 3.647520 0.000000 
#    z 0.000000 0.000000 4.081410 
# 
# 
# High freq. dielectric constant tensor:
#      x y z
#    x 1.811670 0.000000 0.000000 
#    y 0.000000 1.799670 0.000000 
#    z 0.000000 0.000000 1.829460 
# 
# From -- ./inp_files/5081.got.cif
#   From: 2010.03.12/outbox.cif.g09.slc.cpg/sg31_3_cif.got.tgz:5081.got - 2010.04.14 01:42:59.
