data_PCOD8170249
_publ_section_title
;
Structure prediction by ZEFSAII (Michael W. Deem and Ramdas Pophale) SiO2 
 PCOD8170249
Probable space group: P M N 21
;
_chemical_formula_sum "Si O2"
_cell_formula_units_Z 32
_cell_length_a 14.153826
_cell_length_b 9.301771
_cell_length_c 12.959884
_cell_angle_alpha 90.000000
_cell_angle_beta 90.000000
_cell_angle_gamma 90.000000
_cell_volume 1706.241929
_symmetry_space_group_name_H-M "P M N 21"
_symmetry_group_IT_number 31
_symmetry_cell_setting 'orthorhombic'
loop_
_space_group_symop_operation_xyz
x,y,z
1/2-x,-y,1/2+z
-x,y,z
1/2+x,-y,1/2+z
loop_
_atom_site_type_symbol
_atom_site_label
_atom_site_fract_x
_atom_site_fract_y
_atom_site_fract_z
Si Si1 0.236500 0.023587 0.254880
Si Si2 0.749746 0.559613 0.075605
Si Si3 0.891661 0.358292 0.974410
Si Si4 0.235037 0.143482 0.470760
Si Si5 0.108106 0.043362 0.065477
Si Si6 0.750982 0.690543 0.301695
Si Si7 0.892107 0.942234 0.597395
Si Si8 0.607932 0.352516 0.978325
O O1 0.212493 0.125963 0.350495
O O2 0.145654 0.032769 0.181679
O O3 0.331059 0.083987 0.200253
O O4 0.253333 0.860750 0.288781
O O5 0.753281 0.612039 0.192567
O O6 0.845144 0.472274 0.052095
O O7 0.744405 0.689917 0.995386
O O8 0.658183 0.460293 0.058015
O O9 0.841750 0.361067 0.863041
O O10 0.000000 0.400289 0.958167
O O11 0.878309 0.203344 0.024906
O O12 0.333569 0.063732 0.493156
O O13 0.149595 0.080184 0.538635
O O14 0.000000 0.993430 0.063455
O O15 0.843401 0.644713 0.366290
O O16 0.883190 0.807327 0.522317
O O17 0.000000 0.972923 0.629217
O O18 0.500000 0.400943 0.965494
#
# Coordination Sequence:
#
# PCOD8170249 Si02
#       8
#     4   4   4   4   4   4   4   4
#     4  11  20  37  62  92 118 155 197 247 296 349
#     4  11  23  38  60  92 120 154 193 253 297 348
#     4  10  23  42  61  85 123 162 196 240 298 361
#     4  11  21  38  59  89 121 149 193 253 295 339
#     4  10  21  38  60  86 117 156 198 241 292 351
#     4  11  20  39  65  87 115 160 201 241 298 356
#     4  10  21  38  60  86 117 156 198 241 292 351
#     4  10  23  42  61  85 123 162 196 240 298 361
#
# _framework density 18.754667999999999
#
# number of rings (size 3 to 8) (size 9 to 14) (size 15 to 20)
#    0.000    1.500    5.000    2.250    0.000    8.000 
#    0.000    2.500    0.000    0.000    0.000    0.000 
#    0.000    0.000    0.000    0.000    0.000    0.000 
#
# Total GULP energy -396914.180146 kJ/mol
# GULP energy per Si atom -12403.568130 kJ/mol
# Density = 1.871198 g / cm^3
# Si number density = 18.754668 Si / 1000 Ang^3
#
#
#
# Elastic Constant Matrix: (Units=GPa)
#
#
# Indices 1 2 3 4 5 6 
#
# 1 115.7727 42.0916 16.3686 0.0000 0.0000 0.0000
# 2 42.0916 58.4445 4.6527 0.0000 0.0000 0.0000
# 3 16.3686 4.6527 88.3024 0.0000 0.0000 0.0000
# 4 0.0000 0.0000 0.0000 31.8505 0.0000 0.0000
# 5 0.0000 0.0000 0.0000 0.0000 14.8328 0.0000
# 6 0.0000 0.0000 0.0000 0.0000 0.0000 24.5074
#
#
#
# Elastic Compliance Matrix: (Units=1/GPa)
#
#
# Indices 1 2 3 4 5 6 
#
# 1 0.011972 -0.008481 -0.001772 0.000000 0.000000 0.000000
# 2 -0.008481 0.023190 0.000350 0.000000 0.000000 0.000000
# 3 -0.001772 0.000350 0.011635 0.000000 0.000000 0.000000
# 4 0.000000 0.000000 0.000000 0.031397 0.000000 0.000000
# 5 0.000000 0.000000 0.000000 0.000000 0.067418 0.000000
# 6 0.000000 0.000000 0.000000 0.000000 0.000000 0.040804
#
#
# Mechanical properties :
#
#
# Convention : Reuss Voigt Hill
#
# Bulk Modulus (GPa) = 37.04975 43.19392 40.12184
# Shear Modulus (GPa) = 23.23223 27.53191 25.38207
#
# Velocity S-wave (km/s) = 3.52340 3.83561 3.68281
# Velocity P-wave (km/s) = 6.02912 6.53429 6.28678
#
# Compressibility (1/GPa) = 0.02699073
#
# Stress axis : x y z
#
# Youngs Moduli (GPa) = 83.53118 43.12156 85.94906
#
# Poissons Ratio (x) = 0.36571 0.15233
# Poissons Ratio (y) = 0.70841 -0.03010
# Poissons Ratio (z) = 0.14804 -0.01510
#
# Static dielectric constant tensor:
#      x y z
#    x 3.584700 0.000000 0.000000 
#    y 0.000000 3.457370 0.000000 
#    z 0.000000 0.000000 3.554240 
# 
# 
# High freq. dielectric constant tensor:
#      x y z
#    x 1.731520 0.000000 0.000000 
#    y 0.000000 1.730230 0.000000 
#    z 0.000000 0.000000 1.733740 
# 
# From -- ./inp_files/4295.got.cif
#   From: 2010.03.12/outbox.cif.g09.slc.cpg/sg31_3_cif.got.tgz:4295.got - 2010.04.14 01:42:59.
