data_PCOD8170633
_publ_section_title
;
Structure prediction by ZEFSAII (Michael W. Deem and Ramdas Pophale) SiO2 
 PCOD8170633
Probable space group: P B A 2
;
_chemical_formula_sum "Si O2"
_cell_formula_units_Z 12
_cell_length_a 4.949831
_cell_length_b 17.438775
_cell_length_c 5.192928
_cell_angle_alpha 90.000000
_cell_angle_beta 90.000000
_cell_angle_gamma 90.000000
_cell_volume 448.248295
_symmetry_space_group_name_H-M "P B A 2"
_symmetry_group_IT_number 32
_symmetry_cell_setting 'orthorhombic'
loop_
_space_group_symop_operation_xyz
x,y,z
-x,-y,z
1/2-x,1/2+y,z
1/2+x,1/2-y,z
loop_
_atom_site_type_symbol
_atom_site_label
_atom_site_fract_x
_atom_site_fract_y
_atom_site_fract_z
Si Si1 0.302924 0.196559 0.958310
Si Si2 0.926766 0.086015 0.738294
Si Si3 0.912909 0.586721 0.263541
O O1 0.603209 0.231554 0.945648
O O2 0.203710 0.136328 0.739720
O O3 0.326651 0.142413 0.214595
O O4 0.738584 0.119813 0.513151
O O5 0.776985 0.090487 0.011327
O O6 0.000000 0.000000 0.662768
O O7 0.000000 0.500000 0.314780
#
# Coordination Sequence:
#
# PCOD8170633 Si02
#       3
#     4   4   4
#     4  12  28  52  80 122 168 214 268 342 418 498
#     4  12  27  50  83 119 160 219 283 342 407 492
#     4  12  27  50  83 119 160 219 283 342 407 492
#
# _framework density 26.770873000000002
#
# number of rings (size 3 to 8) (size 9 to 14) (size 15 to 20)
#    0.000    0.000    6.667    2.000    0.000    2.667 
#    0.000    0.000    0.000    0.000    0.000    0.000 
#    0.000    0.000    0.000    0.000    0.000    0.000 
#
# Total GULP energy -148661.248080 kJ/mol
# GULP energy per Si atom -12388.437340 kJ/mol
# Density = 2.670994 g / cm^3
# Si number density = 26.770873 Si / 1000 Ang^3
#
#
#
# Elastic Constant Matrix: (Units=GPa)
#
#
# Indices 1 2 3 4 5 6 
#
# 1 107.7978 15.1892 38.2207 0.0000 0.0000 0.0000
# 2 15.1892 145.8631 -3.4522 0.0000 0.0000 0.0000
# 3 38.2207 -3.4522 140.3401 0.0000 0.0000 0.0000
# 4 0.0000 0.0000 0.0000 -15.9904 0.0000 0.0000
# 5 0.0000 0.0000 0.0000 0.0000 58.7129 0.0000
# 6 0.0000 0.0000 0.0000 0.0000 0.0000 37.2670
#
#
#
# Elastic Compliance Matrix: (Units=1/GPa)
#
#
# Indices 1 2 3 4 5 6 
#
# 1 0.010460 -0.001157 -0.002877 0.000000 0.000000 0.000000
# 2 -0.001157 0.006988 0.000487 0.000000 0.000000 0.000000
# 3 -0.002877 0.000487 0.007921 0.000000 0.000000 0.000000
# 4 0.000000 0.000000 0.000000 -0.062538 0.000000 0.000000
# 5 0.000000 0.000000 0.000000 0.000000 0.017032 0.000000
# 6 0.000000 0.000000 0.000000 0.000000 0.000000 0.026833
#
#
# Mechanical properties :
#
#
# Convention : Reuss Voigt Hill
#
# Bulk Modulus (GPa) = 54.72265 54.87960 54.80113
# Shear Modulus (GPa) = 251.47576 38.93412 145.20494
#
# Velocity S-wave (km/s) = 9.70259 3.81773 7.37276
# Velocity P-wave (km/s) = 12.08329 6.32279 9.64322
#
# Compressibility (1/GPa) = 0.01827397
#
# Stress axis : x y z
#
# Youngs Moduli (GPa) = 95.60399 143.10686 126.24515
#
# Poissons Ratio (x) = 0.16562 0.36322
# Poissons Ratio (y) = 0.11064 -0.06149
# Poissons Ratio (z) = 0.27507 -0.06970
#
# Static dielectric constant tensor:
#      x y z
#    x 5.147990 0.000000 0.000000 
#    y 0.000000 5.339510 0.000000 
#    z 0.000000 0.000000 4.792460 
# 
# 
# High freq. dielectric constant tensor:
#      x y z
#    x 2.089200 0.000000 0.000000 
#    y 0.000000 2.101630 0.000000 
#    z 0.000000 0.000000 2.062400 
# 
# From -- ./inp_files/86.got.cif
#   From: 2010.03.12/outbox.cif.g09.slc.cpg/sg32_1_cif.got.tgz:86.got - 2010.04.14 01:46:39.
