data_PCOD8170478
_publ_section_title
;
Structure prediction by ZEFSAII (Michael W. Deem and Ramdas Pophale) SiO2 
 PCOD8170478
Probable space group: P B A 2
;
_chemical_formula_sum "Si O2"
_cell_formula_units_Z 22
_cell_length_a 13.146384
_cell_length_b 10.026769
_cell_length_c 7.632264
_cell_angle_alpha 90.000000
_cell_angle_beta 90.000000
_cell_angle_gamma 90.000000
_cell_volume 1006.052646
_symmetry_space_group_name_H-M "P B A 2"
_symmetry_group_IT_number 32
_symmetry_cell_setting 'orthorhombic'
loop_
_space_group_symop_operation_xyz
x,y,z
-x,-y,z
1/2-x,1/2+y,z
1/2+x,1/2-y,z
loop_
_atom_site_type_symbol
_atom_site_label
_atom_site_fract_x
_atom_site_fract_y
_atom_site_fract_z
Si Si1 0.503631 0.214092 0.578560
Si Si2 0.655761 0.847747 0.281513
Si Si3 0.287803 0.881185 0.426853
Si Si4 0.641587 0.846175 0.888204
Si Si5 0.789718 0.073046 0.786032
Si Si6 0.000000 0.000000 0.710628
O O1 0.432249 0.172820 0.420012
O O2 0.612225 0.149499 0.542043
O O3 0.456797 0.158006 0.761525
O O4 0.515256 0.372496 0.586204
O O5 0.748096 0.744956 0.316561
O O6 0.697549 0.998138 0.292162
O O7 0.607141 0.829805 0.089294
O O8 0.207668 0.928414 0.573691
O O9 0.720805 0.726715 0.845959
O O10 0.700606 0.985181 0.867129
O O11 0.901814 0.017666 0.837913
#
# Coordination Sequence:
#
# PCOD8170478 Si02
#       6
#     4   4   4   4   4   2
#     4  11  24  44  67 100 137 177 226 279 346 407
#     4  12  25  45  68 104 133 179 230 285 340 412
#     4  12  23  46  71  97 140 180 223 285 346 405
#     4  11  24  44  69 100 138 174 233 278 345 404
#     4  11  21  44  70  94 133 182 218 277 340 406
#     4  10  20  40  72  94 126 178 224 270 334 398
#
# _framework density 21.867645
#
# number of rings (size 3 to 8) (size 9 to 14) (size 15 to 20)
#    0.000    0.727    5.455    3.818    0.000    0.000 
#   16.364    0.909    0.000    0.000    0.000    0.000 
#    0.000    0.000    0.000    0.000    0.000    0.000 
#
# Total GULP energy -272820.433886 kJ/mol
# GULP energy per Si atom -12400.928813 kJ/mol
# Density = 2.181787 g / cm^3
# Si number density = 21.867645 Si / 1000 Ang^3
#
#
#
# Elastic Constant Matrix: (Units=GPa)
#
#
# Indices 1 2 3 4 5 6 
#
# 1 83.3419 26.4583 30.2705 0.0000 0.0000 0.0000
# 2 26.4583 106.1428 14.4575 0.0000 0.0000 0.0000
# 3 30.2705 14.4575 151.7527 0.0000 0.0000 0.0000
# 4 0.0000 0.0000 0.0000 25.3190 0.0000 0.0000
# 5 0.0000 0.0000 0.0000 0.0000 5.2725 0.0000
# 6 0.0000 0.0000 0.0000 0.0000 0.0000 35.0531
#
#
#
# Elastic Compliance Matrix: (Units=1/GPa)
#
#
# Indices 1 2 3 4 5 6 
#
# 1 0.013889 -0.003125 -0.002473 0.000000 0.000000 0.000000
# 2 -0.003125 0.010248 -0.000353 0.000000 0.000000 0.000000
# 3 -0.002473 -0.000353 0.007117 0.000000 0.000000 0.000000
# 4 0.000000 0.000000 0.000000 0.039496 0.000000 0.000000
# 5 0.000000 0.000000 0.000000 0.000000 0.189662 0.000000
# 6 0.000000 0.000000 0.000000 0.000000 0.000000 0.028528
#
#
# Mechanical properties :
#
#
# Convention : Reuss Voigt Hill
#
# Bulk Modulus (GPa) = 51.67433 53.73445 52.70439
# Shear Modulus (GPa) = 16.27114 31.13232 23.70173
#
# Velocity S-wave (km/s) = 2.73073 3.77725 3.29579
# Velocity P-wave (km/s) = 5.79865 6.60677 6.21586
#
# Compressibility (1/GPa) = 0.01935197
#
# Stress axis : x y z
#
# Youngs Moduli (GPa) = 71.99899 97.57617 140.51774
#
# Poissons Ratio (x) = 0.30496 0.34746
# Poissons Ratio (y) = 0.22502 0.04960
# Poissons Ratio (z) = 0.17803 0.03444
#
# Static dielectric constant tensor:
#      x y z
#    x 3.994770 0.000000 0.000000 
#    y 0.000000 4.261720 0.000000 
#    z 0.000000 0.000000 3.756180 
# 
# 
# High freq. dielectric constant tensor:
#      x y z
#    x 1.858080 0.000000 0.000000 
#    y 0.000000 1.882090 0.000000 
#    z 0.000000 0.000000 1.841060 
# 
# From -- ./inp_files/3007.got.cif
#   From: 2010.03.12/outbox.cif.g09.slc.cpg/sg32_2_cif.got.tgz:3007.got - 2010.04.14 01:46:39.
