data_PCOD8170355
_publ_section_title
;
Structure prediction by ZEFSAII (Michael W. Deem and Ramdas Pophale) SiO2 
 PCOD8170355
Probable space group: P M N 21
;
_chemical_formula_sum "Si O2"
_cell_formula_units_Z 32
_cell_length_a 8.833374
_cell_length_b 11.925682
_cell_length_c 15.135334
_cell_angle_alpha 90.000000
_cell_angle_beta 90.000000
_cell_angle_gamma 90.000000
_cell_volume 1594.416766
_symmetry_space_group_name_H-M "P M N 21"
_symmetry_group_IT_number 31
_symmetry_cell_setting 'orthorhombic'
loop_
_space_group_symop_operation_xyz
x,y,z
1/2-x,-y,1/2+z
-x,y,z
1/2+x,-y,1/2+z
loop_
_atom_site_type_symbol
_atom_site_label
_atom_site_fract_x
_atom_site_fract_y
_atom_site_fract_z
Si Si1 0.671338 0.242459 0.635330
Si Si2 0.676780 0.614661 0.548022
Si Si3 0.824149 0.546726 0.891175
Si Si4 0.829773 0.526193 0.221342
Si Si5 0.823345 0.020625 0.697017
Si Si6 0.176963 0.986927 0.899510
Si Si7 0.678064 0.143936 0.038712
Si Si8 0.676372 0.759434 0.958111
O O1 0.500000 0.228876 0.599179
O O2 0.678779 0.341443 0.705805
O O3 0.723558 0.129448 0.681482
O O4 0.783537 0.277761 0.556972
O O5 0.500000 0.642150 0.539666
O O6 0.732342 0.541106 0.464776
O O7 0.714561 0.543959 0.634992
O O8 0.767297 0.729814 0.551176
O O9 0.794477 0.496583 0.795335
O O10 0.731222 0.662265 0.893094
O O11 0.000000 0.574047 0.904972
O O12 0.000000 0.493755 0.252159
O O13 0.000000 0.050736 0.686673
O O14 0.783681 0.981491 0.795815
O O15 0.775413 0.925474 0.626613
O O16 0.237239 0.874277 0.942253
O O17 0.000000 0.996568 0.915398
O O18 0.251384 0.092063 0.949671
O O19 0.500000 0.143458 0.026178
O O20 0.500000 0.780792 0.945788
#
# Coordination Sequence:
#
# PCOD8170355 Si02
#       8
#     4   4   4   4   4   4   4   4
#     4  11  22  41  68  94 125 165 209 260 317 376
#     4  10  23  44  64  88 127 170 208 254 313 377
#     4  11  24  43  66  93 126 168 214 259 314 375
#     4  10  23  43  64  94 128 161 208 261 315 376
#     4  10  24  43  63  92 128 164 208 260 312 374
#     4  11  24  43  66  93 127 168 211 258 316 376
#     4  11  24  42  63  93 128 165 210 261 313 371
#     4  12  24  41  66  95 127 163 210 265 318 371
#
# _framework density 20.070034
#
# number of rings (size 3 to 8) (size 9 to 14) (size 15 to 20)
#    0.000    1.250    2.500    2.625    3.500    4.000 
#    0.000    0.000    0.000    0.000    0.000    0.000 
#    0.000    0.000    0.000    0.000    0.000    0.000 
#
# Total GULP energy -396948.241011 kJ/mol
# GULP energy per Si atom -12404.632532 kJ/mol
# Density = 2.002435 g / cm^3
# Si number density = 20.070034 Si / 1000 Ang^3
#
#
#
# Elastic Constant Matrix: (Units=GPa)
#
#
# Indices 1 2 3 4 5 6 
#
# 1 63.0183 45.5076 40.3799 0.0000 0.0000 0.0000
# 2 45.5076 114.8601 23.6119 0.0000 0.0000 0.0000
# 3 40.3799 23.6119 97.3351 0.0000 0.0000 0.0000
# 4 0.0000 0.0000 0.0000 24.4493 0.0000 0.0000
# 5 0.0000 0.0000 0.0000 0.0000 33.5044 0.0000
# 6 0.0000 0.0000 0.0000 0.0000 0.0000 30.4786
#
#
#
# Elastic Compliance Matrix: (Units=1/GPa)
#
#
# Indices 1 2 3 4 5 6 
#
# 1 0.028918 -0.009463 -0.009701 0.000000 0.000000 0.000000
# 2 -0.009463 0.012260 0.000952 0.000000 0.000000 0.000000
# 3 -0.009701 0.000952 0.014068 0.000000 0.000000 0.000000
# 4 0.000000 0.000000 0.000000 0.040901 0.000000 0.000000
# 5 0.000000 0.000000 0.000000 0.000000 0.029847 0.000000
# 6 0.000000 0.000000 0.000000 0.000000 0.000000 0.032810
#
#
# Mechanical properties :
#
#
# Convention : Reuss Voigt Hill
#
# Bulk Modulus (GPa) = 53.13379 54.91248 54.02314
# Shear Modulus (GPa) = 24.81362 28.73405 26.77384
#
# Velocity S-wave (km/s) = 3.51999 3.78787 3.65639
# Velocity P-wave (km/s) = 6.56141 6.82279 6.69338
#
# Compressibility (1/GPa) = 0.01882042
#
# Stress axis : x y z
#
# Youngs Moduli (GPa) = 34.58019 81.56682 71.08582
#
# Poissons Ratio (x) = 0.77188 0.68962
# Poissons Ratio (y) = 0.32724 -0.06766
# Poissons Ratio (z) = 0.33547 -0.07763
#
# Static dielectric constant tensor:
#      x y z
#    x 3.674490 0.000000 0.000000 
#    y 0.000000 3.698660 0.000000 
#    z 0.000000 0.000000 3.751960 
# 
# 
# High freq. dielectric constant tensor:
#      x y z
#    x 1.786630 0.000000 0.000000 
#    y 0.000000 1.794790 0.000000 
#    z 0.000000 0.000000 1.789280 
# 
# From -- ./inp_files/4979.got.cif
#   From: 2010.03.12/outbox.cif.g09.slc.cpg/sg31_3_cif.got.tgz:4979.got - 2010.04.14 01:42:59.
