data_PCOD8170124
_publ_section_title
;
Structure prediction by ZEFSAII (Michael W. Deem and Ramdas Pophale) SiO2 
 PCOD8170124
Probable space group: P M N 21
;
_chemical_formula_sum "Si O2"
_cell_formula_units_Z 32
_cell_length_a 8.702211
_cell_length_b 12.262448
_cell_length_c 14.311292
_cell_angle_alpha 90.000000
_cell_angle_beta 90.000000
_cell_angle_gamma 90.000000
_cell_volume 1527.163835
_symmetry_space_group_name_H-M "P M N 21"
_symmetry_group_IT_number 31
_symmetry_cell_setting 'orthorhombic'
loop_
_space_group_symop_operation_xyz
x,y,z
1/2-x,-y,1/2+z
-x,y,z
1/2+x,-y,1/2+z
loop_
_atom_site_type_symbol
_atom_site_label
_atom_site_fract_x
_atom_site_fract_y
_atom_site_fract_z
Si Si1 0.676767 0.612725 0.769820
Si Si2 0.682252 0.684420 0.569451
Si Si3 0.826427 0.055131 0.838943
Si Si4 0.321816 0.586181 0.373639
Si Si5 0.174396 0.812197 0.859463
Si Si6 0.180871 0.912828 0.537279
Si Si7 0.321686 0.128594 0.564834
Si Si8 0.173387 0.757120 0.244563
O O1 0.500000 0.584551 0.780154
O O2 0.722942 0.608349 0.659488
O O3 0.762173 0.528975 0.837402
O O4 0.710515 0.733474 0.806085
O O5 0.500000 0.705757 0.564124
O O6 0.744998 0.624943 0.474714
O O7 0.768707 0.799591 0.585381
O O8 0.701698 0.120715 0.780201
O O9 0.000000 0.099436 0.823610
O O10 0.817134 0.929175 0.808721
O O11 0.784678 0.072597 0.946247
O O12 0.500000 0.573121 0.387660
O O13 0.288083 0.674186 0.293512
O O14 0.000000 0.766515 0.855971
O O15 0.232861 0.825540 0.965365
O O16 0.000000 0.908604 0.515914
O O17 0.221365 0.022291 0.596949
O O18 0.500000 0.093153 0.561424
O O19 0.297056 0.231946 0.633914
O O20 0.000000 0.719650 0.267080
#
# Coordination Sequence:
#
# PCOD8170124 Si02
#       8
#     4   4   4   4   4   4   4   4
#     4  11  25  43  65  92 122 159 209 264 313 370
#     4  10  23  43  64  87 120 164 202 249 319 379
#     4  10  20  36  58  86 126 167 201 249 315 374
#     4  11  24  44  67  88 121 166 209 255 311 378
#     4   9  20  40  61  85 123 166 205 248 308 375
#     4  11  21  34  59  92 124 160 210 262 302 360
#     4   9  21  39  59  87 130 174 205 249 315 380
#     4  11  22  37  61  93 124 162 211 258 305 366
#
# _framework density 20.953876000000001
#
# number of rings (size 3 to 8) (size 9 to 14) (size 15 to 20)
#    0.000    1.750    1.250    3.375    1.750    6.000 
#    0.000    5.000    0.000    0.000    0.000    0.000 
#    0.000    0.000    0.000    0.000    0.000    0.000 
#
# Total GULP energy -396710.441319 kJ/mol
# GULP energy per Si atom -12397.201291 kJ/mol
# Density = 2.090618 g / cm^3
# Si number density = 20.953876 Si / 1000 Ang^3
#
#
#
# Elastic Constant Matrix: (Units=GPa)
#
#
# Indices 1 2 3 4 5 6 
#
# 1 50.6739 23.5219 16.9379 0.0000 0.0000 0.0000
# 2 23.5219 83.3694 31.6681 0.0000 0.0000 0.0000
# 3 16.9379 31.6681 65.3203 0.0000 0.0000 0.0000
# 4 0.0000 0.0000 0.0000 26.7050 0.0000 0.0000
# 5 0.0000 0.0000 0.0000 0.0000 27.0759 0.0000
# 6 0.0000 0.0000 0.0000 0.0000 0.0000 33.9259
#
#
#
# Elastic Compliance Matrix: (Units=1/GPa)
#
#
# Indices 1 2 3 4 5 6 
#
# 1 0.023345 -0.005255 -0.003506 0.000000 0.000000 0.000000
# 2 -0.005255 0.015885 -0.006339 0.000000 0.000000 0.000000
# 3 -0.003506 -0.006339 0.019291 0.000000 0.000000 0.000000
# 4 0.000000 0.000000 0.000000 0.037446 0.000000 0.000000
# 5 0.000000 0.000000 0.000000 0.000000 0.036933 0.000000
# 6 0.000000 0.000000 0.000000 0.000000 0.000000 0.029476
#
#
# Mechanical properties :
#
#
# Convention : Reuss Voigt Hill
#
# Bulk Modulus (GPa) = 35.30737 38.17993 36.74365
# Shear Modulus (GPa) = 24.75039 26.02373 25.38706
#
# Velocity S-wave (km/s) = 3.44056 3.52796 3.48454
# Velocity P-wave (km/s) = 5.71576 5.90388 5.81058
#
# Compressibility (1/GPa) = 0.02832270
#
# Stress axis : x y z
#
# Youngs Moduli (GPa) = 42.83553 62.95166 51.83667
#
# Poissons Ratio (x) = 0.33080 0.18173
# Poissons Ratio (y) = 0.22510 0.32858
# Poissons Ratio (z) = 0.15018 0.39903
#
# Static dielectric constant tensor:
#      x y z
#    x 3.664170 0.000000 0.000000 
#    y 0.000000 3.794260 0.000000 
#    z 0.000000 0.000000 4.029380 
# 
# 
# High freq. dielectric constant tensor:
#      x y z
#    x 1.814210 0.000000 0.000000 
#    y 0.000000 1.812500 0.000000 
#    z 0.000000 0.000000 1.825640 
# 
# From -- ./inp_files/4991.got.cif
#   From: 2010.03.12/outbox.cif.g09.slc.cpg/sg31_3_cif.got.tgz:4991.got - 2010.04.14 01:42:59.
