data_PCOD8170179
_publ_section_title
;
Structure prediction by ZEFSAII (Michael W. Deem and Ramdas Pophale) SiO2 
 PCOD8170179
Probable space group: P M N 21
;
_chemical_formula_sum "Si O2"
_cell_formula_units_Z 32
_cell_length_a 17.817138
_cell_length_b 5.272026
_cell_length_c 15.572560
_cell_angle_alpha 90.000000
_cell_angle_beta 90.000000
_cell_angle_gamma 90.000000
_cell_volume 1462.768165
_symmetry_space_group_name_H-M "P M N 21"
_symmetry_group_IT_number 31
_symmetry_cell_setting 'orthorhombic'
loop_
_space_group_symop_operation_xyz
x,y,z
1/2-x,-y,1/2+z
-x,y,z
1/2+x,-y,1/2+z
loop_
_atom_site_type_symbol
_atom_site_label
_atom_site_fract_x
_atom_site_fract_y
_atom_site_fract_z
Si Si1 0.825861 0.004086 0.528810
Si Si2 0.585003 0.696888 0.279930
Si Si3 0.857871 0.432074 0.955369
Si Si4 0.182661 0.999780 0.242707
Si Si5 0.587727 0.749460 0.888543
Si Si6 0.709561 0.358075 0.879006
Si Si7 0.839147 0.801736 0.710338
Si Si8 0.335399 0.089910 0.555849
O O1 0.788651 0.847668 0.453062
O O2 0.894460 0.157412 0.485751
O O3 0.856470 0.846431 0.609368
O O4 0.753485 0.169480 0.559266
O O5 0.500000 0.710817 0.246231
O O6 0.582407 0.634098 0.381616
O O7 0.623274 0.971013 0.264897
O O8 0.627031 0.472441 0.229585
O O9 0.782279 0.525590 0.903600
O O10 0.881411 0.679750 0.011066
O O11 0.851109 0.183681 0.014391
O O12 0.223959 0.756116 0.284381
O O13 0.248694 0.207545 0.227327
O O14 0.139247 0.930383 0.155284
O O15 0.120240 0.076791 0.312641
O O16 0.500000 0.713832 0.876434
O O17 0.628161 0.482320 0.879453
#
# Coordination Sequence:
#
# PCOD8170179 Si02
#       8
#     4   4   4   4   4   4   4   4
#     4   9  22  38  60  94 125 164 218 260 316 382
#     4  12  26  42  64  96 130 170 210 264 335 387
#     4  11  21  41  65  93 124 167 208 277 317 382
#     4  10  23  40  66  97 123 172 219 271 315 384
#     4  11  23  39  61  91 136 175 211 263 331 396
#     4  10  20  38  65  90 127 165 217 261 319 387
#     4  11  24  42  69  96 129 169 218 269 314 387
#     4  10  22  38  70  97 121 158 227 273 314 367
#
# _framework density 21.876331
#
# number of rings (size 3 to 8) (size 9 to 14) (size 15 to 20)
#    0.000    1.500    2.500    1.875    5.250    5.000 
#    0.000    1.250    0.000    0.000    0.000    0.000 
#    0.000    0.000    0.000    0.000    0.000    0.000 
#
# Total GULP energy -396521.494116 kJ/mol
# GULP energy per Si atom -12391.296691 kJ/mol
# Density = 2.182654 g / cm^3
# Si number density = 21.876331 Si / 1000 Ang^3
#
#
#
# Elastic Constant Matrix: (Units=GPa)
#
#
# Indices 1 2 3 4 5 6 
#
# 1 78.2159 -3.8173 -3.0699 0.0000 0.0000 0.0000
# 2 -3.8173 71.7945 6.1294 0.0000 0.0000 0.0000
# 3 -3.0699 6.1294 121.0811 0.0000 0.0000 0.0000
# 4 0.0000 0.0000 0.0000 2.7981 0.0000 0.0000
# 5 0.0000 0.0000 0.0000 0.0000 21.0130 0.0000
# 6 0.0000 0.0000 0.0000 0.0000 0.0000 20.2361
#
#
#
# Elastic Compliance Matrix: (Units=1/GPa)
#
#
# Indices 1 2 3 4 5 6 
#
# 1 0.012829 0.000657 0.000292 0.000000 0.000000 0.000000
# 2 0.000657 0.014023 -0.000693 0.000000 0.000000 0.000000
# 3 0.000292 -0.000693 0.008301 0.000000 0.000000 0.000000
# 4 0.000000 0.000000 0.000000 0.357382 0.000000 0.000000
# 5 0.000000 0.000000 0.000000 0.000000 0.047589 0.000000
# 6 0.000000 0.000000 0.000000 0.000000 0.000000 0.049417
#
#
# Mechanical properties :
#
#
# Convention : Reuss Voigt Hill
#
# Bulk Modulus (GPa) = 28.03890 29.95290 28.99590
# Shear Modulus (GPa) = 9.98168 26.93273 18.45721
#
# Velocity S-wave (km/s) = 2.13838 3.51256 2.90781
# Velocity P-wave (km/s) = 4.35221 5.49294 4.95551
#
# Compressibility (1/GPa) = 0.03566474
#
# Stress axis : x y z
#
# Youngs Moduli (GPa) = 77.95048 71.31263 120.46124
#
# Poissons Ratio (x) = -0.04686 -0.03517
# Poissons Ratio (y) = -0.05123 0.08350
# Poissons Ratio (z) = -0.02276 0.04943
#
# Static dielectric constant tensor:
#      x y z
#    x 3.726220 0.000000 0.000000 
#    y 0.000000 3.818380 0.000000 
#    z 0.000000 0.000000 4.205060 
# 
# 
# High freq. dielectric constant tensor:
#      x y z
#    x 1.825250 0.000000 0.000000 
#    y 0.000000 1.854020 0.000000 
#    z 0.000000 0.000000 1.878390 
# 
# From -- ./inp_files/5528.got.cif
#   From: 2010.03.12/outbox.cif.g09.slc.cpg/sg31_3_cif.got.tgz:5528.got - 2010.04.14 01:42:59.
