data_PCOD8170879
_publ_section_title
;
Structure prediction by ZEFSAII (Michael W. Deem and Ramdas Pophale) SiO2 
 PCOD8170879
Probable space group: P N A 21
;
_chemical_formula_sum "Si O2"
_cell_formula_units_Z 28
_cell_length_a 9.729223
_cell_length_b 17.222821
_cell_length_c 8.059900
_cell_angle_alpha 90.000000
_cell_angle_beta 90.000000
_cell_angle_gamma 90.000000
_cell_volume 1350.554453
_symmetry_space_group_name_H-M "P N A 21"
_symmetry_group_IT_number 33
_symmetry_cell_setting 'orthorhombic'
loop_
_space_group_symop_operation_xyz
x,y,z
-x,-y,1/2+z
1/2-x,1/2+y,1/2+z
1/2+x,1/2-y,z
loop_
_atom_site_type_symbol
_atom_site_label
_atom_site_fract_x
_atom_site_fract_y
_atom_site_fract_z
Si Si1 0.395600 0.221544 0.776980
Si Si2 0.232913 0.426026 0.483178
Si Si3 0.786414 0.400302 0.018180
Si Si4 0.910312 0.214817 0.429599
Si Si5 0.578495 0.114612 0.149037
Si Si6 0.666371 0.276103 0.233679
Si Si7 0.320159 0.847780 0.324150
O O1 0.380921 0.225853 0.578882
O O2 0.556330 0.216065 0.822895
O O3 0.322733 0.300108 0.846851
O O4 0.320929 0.144267 0.846860
O O5 0.278320 0.515579 0.483913
O O6 0.367638 0.373811 0.463136
O O7 0.132007 0.415911 0.325335
O O8 0.164276 0.398884 0.656356
O O9 0.673250 0.352125 0.120190
O O10 0.922520 0.413390 0.129539
O O11 0.820462 0.249094 0.278702
O O12 0.072651 0.208829 0.395335
O O13 0.586869 0.208095 0.137857
O O14 0.664838 0.092279 0.981270
#
# Coordination Sequence:
#
# PCOD8170879 Si02
#       7
#     4   4   4   4   4   4   4
#     4  10  20  38  61  90 115 159 213 262 300 377
#     4  10  24  41  58  93 132 163 206 264 321 382
#     4  11  23  38  64  93 128 164 213 264 323 375
#     4  10  21  40  65  89 126 164 212 260 314 381
#     4  10  21  39  63  89 120 167 204 267 307 381
#     4  11  20  40  66  93 119 165 215 258 314 377
#     4  10  21  38  63  89 120 160 211 259 313 373
#
# _framework density 20.732227000000002
#
# number of rings (size 3 to 8) (size 9 to 14) (size 15 to 20)
#    0.000    1.714    2.857    2.571    4.000    0.000 
#    2.571    4.286    0.000    0.000    0.000    0.000 
#    0.000    0.000    0.000    0.000    0.000    0.000 
#
# Total GULP energy -346940.845671 kJ/mol
# GULP energy per Si atom -12390.744488 kJ/mol
# Density = 2.068504 g / cm^3
# Si number density = 20.732227 Si / 1000 Ang^3
#
#
#
# Elastic Constant Matrix: (Units=GPa)
#
#
# Indices 1 2 3 4 5 6 
#
# 1 65.3540 21.8665 22.1002 0.0000 0.0000 0.0000
# 2 21.8665 130.5209 47.2775 0.0000 0.0000 0.0000
# 3 22.1002 47.2775 124.6737 0.0000 0.0000 0.0000
# 4 0.0000 0.0000 0.0000 25.7137 0.0000 0.0000
# 5 0.0000 0.0000 0.0000 0.0000 30.2872 0.0000
# 6 0.0000 0.0000 0.0000 0.0000 0.0000 19.0140
#
#
#
# Elastic Compliance Matrix: (Units=1/GPa)
#
#
# Indices 1 2 3 4 5 6 
#
# 1 0.016717 -0.002002 -0.002204 0.000000 0.000000 0.000000
# 2 -0.002002 0.009121 -0.003104 0.000000 0.000000 0.000000
# 3 -0.002204 -0.003104 0.009589 0.000000 0.000000 0.000000
# 4 0.000000 0.000000 0.000000 0.038890 0.000000 0.000000
# 5 0.000000 0.000000 0.000000 0.000000 0.033017 0.000000
# 6 0.000000 0.000000 0.000000 0.000000 0.000000 0.052593
#
#
# Mechanical properties :
#
#
# Convention : Reuss Voigt Hill
#
# Bulk Modulus (GPa) = 48.06266 55.89302 51.97784
# Shear Modulus (GPa) = 27.55089 30.28992 28.92041
#
# Velocity S-wave (km/s) = 3.64935 3.82646 3.73895
# Velocity P-wave (km/s) = 6.40234 6.82205 6.61552
#
# Compressibility (1/GPa) = 0.02080617
#
# Stress axis : x y z
#
# Youngs Moduli (GPa) = 59.82107 109.63246 104.28946
#
# Poissons Ratio (x) = 0.21951 0.22985
# Poissons Ratio (y) = 0.11978 0.32371
# Poissons Ratio (z) = 0.13184 0.34030
#
# Static dielectric constant tensor:
#      x y z
#    x 3.610190 0.000000 0.000000 
#    y 0.000000 3.534570 0.000000 
#    z 0.000000 0.000000 4.101730 
# 
# 
# High freq. dielectric constant tensor:
#      x y z
#    x 1.795180 0.000000 0.000000 
#    y 0.000000 1.782790 0.000000 
#    z 0.000000 0.000000 1.831270 
# 
# From -- ./inp_files/3291.got.cif
#   From: 2010.03.12/outbox.cif.g09.slc.cpg/sg33_2_cif.got.tgz:3291.got - 2010.04.14 01:49:19.
