data_PCOD8170139
_publ_section_title
;
Structure prediction by ZEFSAII (Michael W. Deem and Ramdas Pophale) SiO2 
 PCOD8170139
Probable space group: P M N 21
;
_chemical_formula_sum "Si O2"
_cell_formula_units_Z 32
_cell_length_a 8.438308
_cell_length_b 9.856622
_cell_length_c 20.198028
_cell_angle_alpha 90.000000
_cell_angle_beta 90.000000
_cell_angle_gamma 90.000000
_cell_volume 1679.934870
_symmetry_space_group_name_H-M "P M N 21"
_symmetry_group_IT_number 31
_symmetry_cell_setting 'orthorhombic'
loop_
_space_group_symop_operation_xyz
x,y,z
1/2-x,-y,1/2+z
-x,y,z
1/2+x,-y,1/2+z
loop_
_atom_site_type_symbol
_atom_site_label
_atom_site_fract_x
_atom_site_fract_y
_atom_site_fract_z
Si Si1 0.315926 0.834488 0.610110
Si Si2 0.185152 0.841751 0.471155
Si Si3 0.685954 0.854494 0.965086
Si Si4 0.312913 0.347171 0.718818
Si Si5 0.815009 0.637555 0.716543
Si Si6 0.815898 0.349285 0.861588
Si Si7 0.688074 0.644777 0.857546
Si Si8 0.314108 0.145602 0.604631
O O1 0.500000 0.810822 0.625689
O O2 0.278012 0.786885 0.535472
O O3 0.210849 0.747917 0.660086
O O4 0.265107 0.990944 0.619808
O O5 0.215207 0.745481 0.409527
O O6 0.000000 0.845781 0.488229
O O7 0.249542 0.992617 0.453882
O O8 0.500000 0.851651 0.957778
O O9 0.756096 0.756110 0.908688
O O10 0.733520 0.800955 0.037534
O O11 0.500000 0.340006 0.730679
O O12 0.265558 0.496783 0.694297
O O13 0.225401 0.309209 0.786623
O O14 0.254728 0.239416 0.664459
O O15 0.736065 0.691782 0.784066
O O16 0.000000 0.612251 0.728586
O O17 0.770643 0.503879 0.876039
O O18 0.000000 0.325601 0.875157
O O19 0.500000 0.626176 0.861818
O O20 0.500000 0.158334 0.594338
#
# Coordination Sequence:
#
# PCOD8170139 Si02
#       8
#     4   4   4   4   4   4   4   4
#     4  10  20  37  57  80 108 140 176 219 265 316
#     4  10  20  37  57  80 108 140 176 219 265 316
#     4   9  20  36  57  81 107 138 176 218 266 317
#     4  10  20  37  57  79 107 142 179 222 269 317
#     4  11  22  36  54  80 109 142 180 221 265 316
#     4  11  22  36  54  80 109 142 180 221 265 316
#     4  10  20  37  57  79 107 142 179 222 269 317
#     4   9  20  36  57  81 107 138 176 218 266 317
#
# _framework density 19.048356999999999
#
# number of rings (size 3 to 8) (size 9 to 14) (size 15 to 20)
#    0.000    2.000    0.000    5.250    0.000    5.000 
#    0.000    7.500    0.000    0.000    0.000    0.000 
#    0.000    0.000    0.000    0.000    0.000    0.000 
#
# Total GULP energy -396916.871165 kJ/mol
# GULP energy per Si atom -12403.652224 kJ/mol
# Density = 1.900500 g / cm^3
# Si number density = 19.048357 Si / 1000 Ang^3
#
#
#
# Elastic Constant Matrix: (Units=GPa)
#
#
# Indices 1 2 3 4 5 6 
#
# 1 45.7109 7.9913 6.2266 0.0000 0.0000 0.0000
# 2 7.9913 90.3615 79.7027 0.0000 0.0000 0.0000
# 3 6.2266 79.7027 119.6220 0.0000 0.0000 0.0000
# 4 0.0000 0.0000 0.0000 42.8358 0.0000 0.0000
# 5 0.0000 0.0000 0.0000 0.0000 33.0632 0.0000
# 6 0.0000 0.0000 0.0000 0.0000 0.0000 18.8089
#
#
#
# Elastic Compliance Matrix: (Units=1/GPa)
#
#
# Indices 1 2 3 4 5 6 
#
# 1 0.022227 -0.002292 0.000370 0.000000 0.000000 0.000000
# 2 -0.002292 0.027077 -0.017922 0.000000 0.000000 0.000000
# 3 0.000370 -0.017922 0.020282 0.000000 0.000000 0.000000
# 4 0.000000 0.000000 0.000000 0.023345 0.000000 0.000000
# 5 0.000000 0.000000 0.000000 0.000000 0.030245 0.000000
# 6 0.000000 0.000000 0.000000 0.000000 0.000000 0.053166
#
#
# Mechanical properties :
#
#
# Convention : Reuss Voigt Hill
#
# Bulk Modulus (GPa) = 33.44715 49.28175 41.36445
# Shear Modulus (GPa) = 22.12427 29.72651 25.92539
#
# Velocity S-wave (km/s) = 3.41175 3.95470 3.69322
# Velocity P-wave (km/s) = 5.75475 6.83966 6.32053
#
# Compressibility (1/GPa) = 0.02989791
#
# Stress axis : x y z
#
# Youngs Moduli (GPa) = 44.99049 36.93120 49.30581
#
# Poissons Ratio (x) = 0.08466 -0.01827
# Poissons Ratio (y) = 0.10314 0.88366
# Poissons Ratio (z) = -0.01667 0.66188
#
# Static dielectric constant tensor:
#      x y z
#    x 3.434770 0.000000 0.000000 
#    y 0.000000 3.579850 0.000000 
#    z 0.000000 0.000000 3.567500 
# 
# 
# High freq. dielectric constant tensor:
#      x y z
#    x 1.746330 0.000000 0.000000 
#    y 0.000000 1.738370 0.000000 
#    z 0.000000 0.000000 1.745120 
# 
# From -- ./inp_files/5918.got.cif
#   From: 2010.03.12/outbox.cif.g09.slc.cpg/sg31_3_cif.got.tgz:5918.got - 2010.04.14 01:42:59.
