data_PCOD8170387
_publ_section_title
;
Structure prediction by ZEFSAII (Michael W. Deem and Ramdas Pophale) SiO2 
 PCOD8170387
Probable space group: P M N 21
;
_chemical_formula_sum "Si O2"
_cell_formula_units_Z 20
_cell_length_a 17.693752
_cell_length_b 5.436372
_cell_length_c 8.442408
_cell_angle_alpha 90.000000
_cell_angle_beta 90.000000
_cell_angle_gamma 90.000000
_cell_volume 812.073689
_symmetry_space_group_name_H-M "P M N 21"
_symmetry_group_IT_number 31
_symmetry_cell_setting 'orthorhombic'
loop_
_space_group_symop_operation_xyz
x,y,z
1/2-x,-y,1/2+z
-x,y,z
1/2+x,-y,1/2+z
loop_
_atom_site_type_symbol
_atom_site_label
_atom_site_fract_x
_atom_site_fract_y
_atom_site_fract_z
Si Si1 0.873376 0.904508 0.210770
Si Si2 0.413127 0.038848 0.360538
Si Si3 0.823320 0.622879 0.640772
Si Si4 0.267488 0.750046 0.351070
Si Si5 0.415079 0.600248 0.887022
O O1 0.781805 0.918403 0.230268
O O2 0.901013 0.666480 0.308001
O O3 0.904928 0.165223 0.272143
O O4 0.900977 0.843274 0.033814
O O5 0.500000 0.955578 0.337923
O O6 0.390699 0.219163 0.217408
O O7 0.356134 0.810623 0.355284
O O8 0.768824 0.774940 0.524015
O O9 0.767873 0.526332 0.780062
O O10 0.860839 0.395275 0.541633
O O11 0.500000 0.608985 0.949447
#
# Coordination Sequence:
#
# PCOD8170387 Si02
#       5
#     4   4   4   4   4
#     4  11  27  47  78 107 151 203 258 314 392 468
#     4  12  27  46  74 112 151 198 257 328 394 465
#     4  11  27  46  75 108 149 203 262 319 392 469
#     4  11  27  47  75 106 149 202 261 318 387 467
#     4  11  25  48  75 111 152 198 252 321 394 465
#
# _framework density 24.628307
#
# number of rings (size 3 to 8) (size 9 to 14) (size 15 to 20)
#    0.000    0.800    0.000    4.800   22.400    1.600 
#    0.000    0.000    0.000    0.000    0.000    0.000 
#    0.000    0.000    0.000    0.000    0.000    0.000 
#
# Total GULP energy -247832.420274 kJ/mol
# GULP energy per Si atom -12391.621014 kJ/mol
# Density = 2.457225 g / cm^3
# Si number density = 24.628307 Si / 1000 Ang^3
#
#
#
# Elastic Constant Matrix: (Units=GPa)
#
#
# Indices 1 2 3 4 5 6 
#
# 1 186.2368 39.2334 65.6960 0.0000 0.0000 0.0000
# 2 39.2334 112.8537 41.0184 0.0000 0.0000 0.0000
# 3 65.6960 41.0184 130.7519 0.0000 0.0000 0.0000
# 4 0.0000 0.0000 0.0000 37.2775 0.0000 0.0000
# 5 0.0000 0.0000 0.0000 0.0000 35.5067 0.0000
# 6 0.0000 0.0000 0.0000 0.0000 0.0000 20.6885
#
#
#
# Elastic Compliance Matrix: (Units=1/GPa)
#
#
# Indices 1 2 3 4 5 6 
#
# 1 0.006677 -0.001244 -0.002965 0.000000 0.000000 0.000000
# 2 -0.001244 0.010233 -0.002585 0.000000 0.000000 0.000000
# 3 -0.002965 -0.002585 0.009949 0.000000 0.000000 0.000000
# 4 0.000000 0.000000 0.000000 0.026826 0.000000 0.000000
# 5 0.000000 0.000000 0.000000 0.000000 0.028164 0.000000
# 6 0.000000 0.000000 0.000000 0.000000 0.000000 0.048336
#
#
# Mechanical properties :
#
#
# Convention : Reuss Voigt Hill
#
# Bulk Modulus (GPa) = 75.34988 80.19309 77.77148
# Shear Modulus (GPa) = 33.73895 37.62083 35.67989
#
# Velocity S-wave (km/s) = 3.70527 3.91262 3.81035
# Velocity P-wave (km/s) = 6.99761 7.28310 7.14178
#
# Compressibility (1/GPa) = 0.01327142
#
# Stress axis : x y z
#
# Youngs Moduli (GPa) = 149.75905 97.72214 100.51460
#
# Poissons Ratio (x) = 0.12154 0.29801
# Poissons Ratio (y) = 0.18626 0.25986
# Poissons Ratio (z) = 0.44401 0.25264
#
# Static dielectric constant tensor:
#      x y z
#    x 4.796580 0.000000 0.000000 
#    y 0.000000 4.098210 0.000000 
#    z 0.000000 0.000000 4.811400 
# 
# 
# High freq. dielectric constant tensor:
#      x y z
#    x 1.993690 0.000000 0.000000 
#    y 0.000000 1.966210 0.000000 
#    z 0.000000 0.000000 1.995650 
# 
# From -- ./inp_files/2697.got.cif
#   From: 2010.03.12/outbox.cif.g09.slc.cpg/sg31_2_cif.got.tgz:2697.got - 2010.04.14 01:42:59.
