data_PCOD8170976
_publ_section_title
;
Structure prediction by ZEFSAII (Michael W. Deem and Ramdas Pophale) SiO2 
 PCOD8170976
Probable space group: P N A 21
;
_chemical_formula_sum "Si O2"
_cell_formula_units_Z 32
_cell_length_a 16.421923
_cell_length_b 10.793949
_cell_length_c 8.256479
_cell_angle_alpha 90.000000
_cell_angle_beta 90.000000
_cell_angle_gamma 90.000000
_cell_volume 1463.521995
_symmetry_space_group_name_H-M "P N A 21"
_symmetry_group_IT_number 33
_symmetry_cell_setting 'orthorhombic'
loop_
_space_group_symop_operation_xyz
x,y,z
-x,-y,1/2+z
1/2-x,1/2+y,1/2+z
1/2+x,1/2-y,z
loop_
_atom_site_type_symbol
_atom_site_label
_atom_site_fract_x
_atom_site_fract_y
_atom_site_fract_z
Si Si1 0.123223 0.048816 0.965130
Si Si2 0.806545 0.794594 0.729235
Si Si3 0.965240 0.193977 0.974731
Si Si4 0.744998 0.033927 0.862554
Si Si5 0.407527 0.081150 0.476179
Si Si6 0.321128 0.393787 0.180418
Si Si7 0.956258 0.622562 0.714400
Si Si8 0.859699 0.186231 0.667000
O O1 0.036778 0.104603 0.914205
O O2 0.174377 0.002063 0.811850
O O3 0.178940 0.155479 0.046109
O O4 0.102004 0.934178 0.082455
O O5 0.805890 0.917224 0.839985
O O6 0.717780 0.731910 0.753846
O O7 0.879645 0.702923 0.778284
O O8 0.913678 0.231040 0.818169
O O9 0.910164 0.124688 0.107331
O O10 0.999161 0.315260 0.061617
O O11 0.769918 0.144011 0.736188
O O12 0.649905 0.997238 0.851668
O O13 0.754227 0.072641 0.047635
O O14 0.487385 0.112751 0.372757
O O15 0.358387 0.203867 0.535382
O O16 0.429288 0.009429 0.642455
#
# Coordination Sequence:
#
# PCOD8170976 Si02
#       8
#     4   4   4   4   4   4   4   4
#     4  10  21  37  64  92 128 167 220 274 325 390
#     4  10  22  43  60  96 128 167 222 266 329 394
#     4  10  21  38  64  94 128 169 219 274 331 393
#     4  10  23  42  66  93 131 170 226 272 327 399
#     4  12  24  46  64  97 137 174 225 272 346 403
#     4  11  21  40  65  95 129 172 212 276 326 386
#     4  11  24  43  66  94 137 175 216 278 335 412
#     4  10  22  39  65  95 126 176 220 272 335 393
#
# _framework density 21.865062000000002
#
# number of rings (size 3 to 8) (size 9 to 14) (size 15 to 20)
#    0.000    1.500    1.250    3.750    0.000    7.000 
#    9.000    0.000    0.000    0.000    0.000    0.000 
#    0.000    0.000    0.000    0.000    0.000    0.000 
#
# Total GULP energy -396682.944602 kJ/mol
# GULP energy per Si atom -12396.342019 kJ/mol
# Density = 2.181530 g / cm^3
# Si number density = 21.865062 Si / 1000 Ang^3
#
#
#
# Elastic Constant Matrix: (Units=GPa)
#
#
# Indices 1 2 3 4 5 6 
#
# 1 88.0906 36.7744 27.4965 0.0000 0.0000 0.0000
# 2 36.7744 93.4616 30.2066 0.0000 0.0000 0.0000
# 3 27.4965 30.2066 73.4408 0.0000 0.0000 0.0000
# 4 0.0000 0.0000 0.0000 32.6906 0.0000 0.0000
# 5 0.0000 0.0000 0.0000 0.0000 28.4624 0.0000
# 6 0.0000 0.0000 0.0000 0.0000 0.0000 34.9332
#
#
#
# Elastic Compliance Matrix: (Units=1/GPa)
#
#
# Indices 1 2 3 4 5 6 
#
# 1 0.014328 -0.004502 -0.003513 0.000000 0.000000 0.000000
# 2 -0.004502 0.013755 -0.003972 0.000000 0.000000 0.000000
# 3 -0.003513 -0.003972 0.016565 0.000000 0.000000 0.000000
# 4 0.000000 0.000000 0.000000 0.030590 0.000000 0.000000
# 5 0.000000 0.000000 0.000000 0.000000 0.035134 0.000000
# 6 0.000000 0.000000 0.000000 0.000000 0.000000 0.028626
#
#
# Mechanical properties :
#
#
# Convention : Reuss Voigt Hill
#
# Bulk Modulus (GPa) = 48.36873 49.32755 48.84814
# Shear Modulus (GPa) = 29.43554 29.91826 29.67690
#
# Velocity S-wave (km/s) = 3.67309 3.70309 3.68812
# Velocity P-wave (km/s) = 6.33706 6.39474 6.36597
#
# Compressibility (1/GPa) = 0.02067451
#
# Stress axis : x y z
#
# Youngs Moduli (GPa) = 69.79374 72.70199 60.36775
#
# Poissons Ratio (x) = 0.32733 0.21205
# Poissons Ratio (y) = 0.31424 0.23976
# Poissons Ratio (z) = 0.24516 0.28875
#
# Static dielectric constant tensor:
#      x y z
#    x 3.854220 0.000000 0.000000 
#    y 0.000000 4.016450 0.000000 
#    z 0.000000 0.000000 3.819070 
# 
# 
# High freq. dielectric constant tensor:
#      x y z
#    x 1.854220 0.000000 0.000000 
#    y 0.000000 1.866870 0.000000 
#    z 0.000000 0.000000 1.854410 
# 
# From -- ./inp_files/4867.got.cif
#   From: 2010.03.12/outbox.cif.g09.slc.cpg/sg33_3_cif.got.tgz:4867.got - 2010.04.14 01:49:19.
