data_PCOD8170223
_publ_section_title
;
Structure prediction by ZEFSAII (Michael W. Deem and Ramdas Pophale) SiO2 
 PCOD8170223
Probable space group: P M N 21
;
_chemical_formula_sum "Si O2"
_cell_formula_units_Z 24
_cell_length_a 8.815371
_cell_length_b 14.948695
_cell_length_c 8.808458
_cell_angle_alpha 90.000000
_cell_angle_beta 90.000000
_cell_angle_gamma 90.000000
_cell_volume 1160.763554
_symmetry_space_group_name_H-M "P M N 21"
_symmetry_group_IT_number 31
_symmetry_cell_setting 'orthorhombic'
loop_
_space_group_symop_operation_xyz
x,y,z
1/2-x,-y,1/2+z
-x,y,z
1/2+x,-y,1/2+z
loop_
_atom_site_type_symbol
_atom_site_label
_atom_site_fract_x
_atom_site_fract_y
_atom_site_fract_z
Si Si1 0.677367 0.558580 0.784690
Si Si2 0.825395 0.058279 0.852396
Si Si3 0.323379 0.279097 0.122469
Si Si4 0.823422 0.764647 0.277308
Si Si5 0.325552 0.897262 0.699621
Si Si6 0.822540 0.396496 0.629831
O O1 0.500000 0.570575 0.753295
O O2 0.770285 0.624168 0.675900
O O3 0.728629 0.458431 0.745448
O O4 0.718273 0.577436 0.958540
O O5 0.730285 0.132872 0.760965
O O6 0.000000 0.069810 0.807693
O O7 0.768589 0.959890 0.811593
O O8 0.798376 0.068620 0.030275
O O9 0.500000 0.266348 0.154292
O O10 0.233998 0.203796 0.217305
O O11 0.286039 0.271264 0.945038
O O12 0.730153 0.705174 0.157710
O O13 0.000000 0.759217 0.237956
O O14 0.500000 0.899732 0.748155
O O15 0.000000 0.406959 0.663123
#
# Coordination Sequence:
#
# PCOD8170223 Si02
#       6
#     4   4   4   4   4   4
#     4  11  24  40  59  85 115 148 187 230 278 333
#     4  10  21  37  58  84 114 150 190 232 281 334
#     4  10  21  38  60  85 113 147 188 233 281 333
#     4  10  21  38  60  85 113 147 188 233 281 333
#     4  10  21  37  58  84 114 150 190 232 281 334
#     4  11  24  40  59  85 115 148 187 230 278 333
#
# _framework density 20.676045999999999
#
# number of rings (size 3 to 8) (size 9 to 14) (size 15 to 20)
#    0.000    1.667    0.000    4.000    0.000   12.000 
#    0.000    0.000    0.000    0.000    0.000    0.000 
#    0.000    0.000    0.000    0.000    0.000    0.000 
#
# Total GULP energy -297789.258475 kJ/mol
# GULP energy per Si atom -12407.885770 kJ/mol
# Density = 2.062899 g / cm^3
# Si number density = 20.676046 Si / 1000 Ang^3
#
#
#
# Elastic Constant Matrix: (Units=GPa)
#
#
# Indices 1 2 3 4 5 6 
#
# 1 69.9324 4.7531 33.0116 0.0000 0.0000 0.0000
# 2 4.7531 57.3524 -4.2404 0.0000 0.0000 0.0000
# 3 33.0116 -4.2404 26.2373 0.0000 0.0000 0.0000
# 4 0.0000 0.0000 0.0000 38.6935 0.0000 0.0000
# 5 0.0000 0.0000 0.0000 0.0000 29.6779 0.0000
# 6 0.0000 0.0000 0.0000 0.0000 0.0000 45.4702
#
#
#
# Elastic Compliance Matrix: (Units=1/GPa)
#
#
# Indices 1 2 3 4 5 6 
#
# 1 0.037592 -0.006692 -0.048379 0.000000 0.000000 0.000000
# 2 -0.006692 0.018838 0.011465 0.000000 0.000000 0.000000
# 3 -0.048379 0.011465 0.100837 0.000000 0.000000 0.000000
# 4 0.000000 0.000000 0.000000 0.025844 0.000000 0.000000
# 5 0.000000 0.000000 0.000000 0.000000 0.033695 0.000000
# 6 0.000000 0.000000 0.000000 0.000000 0.000000 0.021992
#
#
# Mechanical properties :
#
#
# Convention : Reuss Voigt Hill
#
# Bulk Modulus (GPa) = 14.27475 24.50783 19.39129
# Shear Modulus (GPa) = 14.31170 30.76818 22.53994
#
# Velocity S-wave (km/s) = 2.63380 3.86178 3.30532
# Velocity P-wave (km/s) = 4.02097 5.63591 4.89549
#
# Compressibility (1/GPa) = 0.07005376
#
# Stress axis : x y z
#
# Youngs Moduli (GPa) = 26.60147 53.08318 9.91695
#
# Poissons Ratio (x) = 0.35525 0.47978
# Poissons Ratio (y) = 0.17803 -0.11370
# Poissons Ratio (z) = 1.28697 -0.60859
#
# Static dielectric constant tensor:
#      x y z
#    x 3.792840 0.000000 0.000000 
#    y 0.000000 3.769240 0.000000 
#    z 0.000000 0.000000 3.569420 
# 
# 
# High freq. dielectric constant tensor:
#      x y z
#    x 1.821520 0.000000 0.000000 
#    y 0.000000 1.820760 0.000000 
#    z 0.000000 0.000000 1.797730 
# 
# From -- ./inp_files/1699.got.cif
#   From: 2010.03.12/outbox.cif.g09.slc.cpg/sg31_1_cif.got.tgz:1699.got - 2010.04.14 01:42:59.
