data_PCOD8170698
_publ_section_title
;
Structure prediction by ZEFSAII (Michael W. Deem and Ramdas Pophale) SiO2 
 PCOD8170698
Probable space group: P N A 21
;
_chemical_formula_sum "Si O2"
_cell_formula_units_Z 32
_cell_length_a 8.185022
_cell_length_b 12.542168
_cell_length_c 15.052061
_cell_angle_alpha 90.000000
_cell_angle_beta 90.000000
_cell_angle_gamma 90.000000
_cell_volume 1545.213289
_symmetry_space_group_name_H-M "P N A 21"
_symmetry_group_IT_number 33
_symmetry_cell_setting 'orthorhombic'
loop_
_space_group_symop_operation_xyz
x,y,z
-x,-y,1/2+z
1/2-x,1/2+y,1/2+z
1/2+x,1/2-y,z
loop_
_atom_site_type_symbol
_atom_site_label
_atom_site_fract_x
_atom_site_fract_y
_atom_site_fract_z
Si Si1 0.778587 0.632097 0.924920
Si Si2 0.941865 0.816584 0.845482
Si Si3 0.234412 0.512705 0.761226
Si Si4 0.266288 0.428982 0.052136
Si Si5 0.526380 0.049559 0.906768
Si Si6 0.660298 0.800610 0.519891
Si Si7 0.873071 0.998595 0.576602
Si Si8 0.041292 0.339209 0.184870
O O1 0.875747 0.745355 0.928763
O O2 0.628742 0.650557 0.857701
O O3 0.901584 0.546076 0.881875
O O4 0.712735 0.592581 0.020096
O O5 0.840459 0.924443 0.834357
O O6 0.909759 0.750244 0.755194
O O7 0.141394 0.424128 0.821381
O O8 0.343494 0.468939 0.679893
O O9 0.095117 0.584735 0.721063
O O10 0.275715 0.316737 0.997944
O O11 0.433743 0.495685 0.056660
O O12 0.201075 0.406415 0.152547
O O13 0.130839 0.491391 0.993194
O O14 0.423708 0.154760 0.930644
O O15 0.799543 0.883300 0.552308
O O16 0.527382 0.781237 0.597182
#
# Coordination Sequence:
#
# PCOD8170698 Si02
#       8
#     4   4   4   4   4   4   4   4
#     4  11  23  39  57  91 127 168 198 256 317 381
#     4  12  21  35  62  89 125 156 209 248 313 375
#     4  11  21  36  57  89 119 157 202 254 297 365
#     4  11  20  36  59  89 123 157 197 253 322 370
#     4  10  21  37  55  82 123 160 197 254 309 371
#     4   9  19  34  55  83 117 155 198 249 318 365
#     4  10  22  35  57  88 127 158 206 252 319 372
#     4  10  19  32  56  89 121 149 183 252 307 357
#
# _framework density 20.709115000000001
#
# number of rings (size 3 to 8) (size 9 to 14) (size 15 to 20)
#    0.000    1.500    2.500    5.250    1.750    0.000 
#    0.000    0.000    2.750    0.000    0.000    0.000 
#    0.000    0.000    0.000    0.000    0.000    0.000 
#
# Total GULP energy -396607.455348 kJ/mol
# GULP energy per Si atom -12393.982980 kJ/mol
# Density = 2.066198 g / cm^3
# Si number density = 20.709115 Si / 1000 Ang^3
#
#
#
# Elastic Constant Matrix: (Units=GPa)
#
#
# Indices 1 2 3 4 5 6 
#
# 1 121.6250 28.1800 38.3381 0.0000 0.0000 0.0000
# 2 28.1800 40.8178 28.8141 0.0000 0.0000 0.0000
# 3 38.3381 28.8141 77.8749 0.0000 0.0000 0.0000
# 4 0.0000 0.0000 0.0000 19.2854 0.0000 0.0000
# 5 0.0000 0.0000 0.0000 0.0000 36.8415 0.0000
# 6 0.0000 0.0000 0.0000 0.0000 0.0000 27.2761
#
#
#
# Elastic Compliance Matrix: (Units=1/GPa)
#
#
# Indices 1 2 3 4 5 6 
#
# 1 0.010389 -0.004821 -0.003331 0.000000 0.000000 0.000000
# 2 -0.004821 0.035398 -0.010724 0.000000 0.000000 0.000000
# 3 -0.003331 -0.010724 0.018449 0.000000 0.000000 0.000000
# 4 0.000000 0.000000 0.000000 0.051853 0.000000 0.000000
# 5 0.000000 0.000000 0.000000 0.000000 0.027143 0.000000
# 6 0.000000 0.000000 0.000000 0.000000 0.000000 0.036662
#
#
# Mechanical properties :
#
#
# Convention : Reuss Voigt Hill
#
# Bulk Modulus (GPa) = 37.75867 47.88689 42.82278
# Shear Modulus (GPa) = 22.07773 26.34631 24.21202
#
# Velocity S-wave (km/s) = 3.26864 3.57067 3.42299
# Velocity P-wave (km/s) = 5.70244 6.33825 6.02873
#
# Compressibility (1/GPa) = 0.02648398
#
# Stress axis : x y z
#
# Youngs Moduli (GPa) = 96.25644 28.25043 54.20448
#
# Poissons Ratio (x) = 0.13620 0.18054
# Poissons Ratio (y) = 0.46407 0.58128
# Poissons Ratio (z) = 0.32060 0.30295
#
# Static dielectric constant tensor:
#      x y z
#    x 4.128310 0.000000 0.000000 
#    y 0.000000 3.548160 0.000000 
#    z 0.000000 0.000000 3.994380 
# 
# 
# High freq. dielectric constant tensor:
#      x y z
#    x 1.838880 0.000000 0.000000 
#    y 0.000000 1.764880 0.000000 
#    z 0.000000 0.000000 1.796940 
# 
# From -- ./inp_files/7733.got.cif
#   From: 2010.03.12/outbox.cif.g09.slc.cpg/sg33_4_cif.got.tgz:7733.got - 2010.04.14 01:49:19.
