data_PCOD8170150
_publ_section_title
;
Structure prediction by ZEFSAII (Michael W. Deem and Ramdas Pophale) SiO2 
 PCOD8170150
Probable space group: P M N 21
;
_chemical_formula_sum "Si O2"
_cell_formula_units_Z 32
_cell_length_a 8.585874
_cell_length_b 14.526349
_cell_length_c 12.329157
_cell_angle_alpha 90.000000
_cell_angle_beta 90.000000
_cell_angle_gamma 90.000000
_cell_volume 1537.709749
_symmetry_space_group_name_H-M "P M N 21"
_symmetry_group_IT_number 31
_symmetry_cell_setting 'orthorhombic'
loop_
_space_group_symop_operation_xyz
x,y,z
1/2-x,-y,1/2+z
-x,y,z
1/2+x,-y,1/2+z
loop_
_atom_site_type_symbol
_atom_site_label
_atom_site_fract_x
_atom_site_fract_y
_atom_site_fract_z
Si Si1 0.819686 0.561506 0.336140
Si Si2 0.679393 0.377509 0.409231
Si Si3 0.682345 0.049000 0.557208
Si Si4 0.815809 0.270376 0.945167
Si Si5 0.173823 0.170201 0.730047
Si Si6 0.672485 0.636847 0.126510
Si Si7 0.316857 0.140344 0.116123
Si Si8 0.815826 0.826085 0.859122
O O1 0.790384 0.455314 0.361392
O O2 0.766245 0.630036 0.433035
O O3 0.714351 0.581551 0.233159
O O4 0.000000 0.578250 0.311114
O O5 0.500000 0.393587 0.376416
O O6 0.695603 0.383329 0.538577
O O7 0.744786 0.278695 0.369696
O O8 0.500000 0.031615 0.544654
O O9 0.715301 0.095094 0.674254
O O10 0.749362 0.109237 0.456235
O O11 0.768132 0.951453 0.553133
O O12 0.761493 0.202044 0.847416
O O13 0.000000 0.285533 0.939002
O O14 0.766042 0.227285 0.059520
O O15 0.170132 0.255305 0.648989
O O16 0.000000 0.127805 0.742868
O O17 0.500000 0.605185 0.087572
O O18 0.500000 0.155512 0.107805
O O19 0.262925 0.135396 0.241959
O O20 0.000000 0.824084 0.871216
#
# Coordination Sequence:
#
# PCOD8170150 Si02
#       8
#     4   4   4   4   4   4   4   4
#     4  11  23  39  61  92 126 167 212 260 315 384
#     4  11  21  39  64  90 121 165 211 263 320 378
#     4  11  22  39  62  91 121 159 207 256 312 375
#     4  10  22  42  63  89 125 164 208 263 316 370
#     4   9  19  36  60  86 116 153 196 255 313 363
#     4  10  20  37  59  88 121 157 203 260 317 375
#     4  11  24  42  62  90 127 171 211 256 318 381
#     4   9  22  42  63  88 125 164 204 257 315 372
#
# _framework density 20.810169999999999
#
# number of rings (size 3 to 8) (size 9 to 14) (size 15 to 20)
#    0.000    1.750    1.250    3.750    1.750    3.500 
#    0.000    8.125    0.000    0.000    0.000    0.000 
#    0.000    0.000    0.000    0.000    0.000    0.000 
#
# Total GULP energy -396828.594609 kJ/mol
# GULP energy per Si atom -12400.893582 kJ/mol
# Density = 2.076281 g / cm^3
# Si number density = 20.810170 Si / 1000 Ang^3
#
#
#
# Elastic Constant Matrix: (Units=GPa)
#
#
# Indices 1 2 3 4 5 6 
#
# 1 68.6673 22.8094 15.1485 0.0000 0.0000 0.0000
# 2 22.8094 118.8820 39.6045 0.0000 0.0000 0.0000
# 3 15.1485 39.6045 74.5878 0.0000 0.0000 0.0000
# 4 0.0000 0.0000 0.0000 24.4543 0.0000 0.0000
# 5 0.0000 0.0000 0.0000 0.0000 30.6410 0.0000
# 6 0.0000 0.0000 0.0000 0.0000 0.0000 30.6667
#
#
#
# Elastic Compliance Matrix: (Units=1/GPa)
#
#
# Indices 1 2 3 4 5 6 
#
# 1 0.015782 -0.002382 -0.001941 0.000000 0.000000 0.000000
# 2 -0.002382 0.010579 -0.005133 0.000000 0.000000 0.000000
# 3 -0.001941 -0.005133 0.016527 0.000000 0.000000 0.000000
# 4 0.000000 0.000000 0.000000 0.040893 0.000000 0.000000
# 5 0.000000 0.000000 0.000000 0.000000 0.032636 0.000000
# 6 0.000000 0.000000 0.000000 0.000000 0.000000 0.032609
#
#
# Mechanical properties :
#
#
# Convention : Reuss Voigt Hill
#
# Bulk Modulus (GPa) = 41.70758 46.36245 44.03502
# Shear Modulus (GPa) = 28.42060 29.45738 28.93899
#
# Velocity S-wave (km/s) = 3.69956 3.76643 3.73314
# Velocity P-wave (km/s) = 6.19148 6.42198 6.30778
#
# Compressibility (1/GPa) = 0.02397646
#
# Stress axis : x y z
#
# Youngs Moduli (GPa) = 63.36257 94.52871 60.50733
#
# Poissons Ratio (x) = 0.22512 0.11743
# Poissons Ratio (y) = 0.15090 0.31061
# Poissons Ratio (z) = 0.12297 0.48526
#
# Static dielectric constant tensor:
#      x y z
#    x 3.619190 0.000000 0.000000 
#    y 0.000000 3.839810 0.000000 
#    z 0.000000 0.000000 3.805410 
# 
# 
# High freq. dielectric constant tensor:
#      x y z
#    x 1.804670 0.000000 0.000000 
#    y 0.000000 1.814860 0.000000 
#    z 0.000000 0.000000 1.811890 
# 
# From -- ./inp_files/3600.got.cif
#   From: 2010.03.12/outbox.cif.g09.slc.cpg/sg31_2_cif.got.tgz:3600.got - 2010.04.14 01:42:59.
