data_PCOD8170693
_publ_section_title
;
Structure prediction by ZEFSAII (Michael W. Deem and Ramdas Pophale) SiO2 
 PCOD8170693
Probable space group: P N A 21
;
_chemical_formula_sum "Si O2"
_cell_formula_units_Z 32
_cell_length_a 14.118093
_cell_length_b 22.194452
_cell_length_c 6.177052
_cell_angle_alpha 90.000000
_cell_angle_beta 90.000000
_cell_angle_gamma 90.000000
_cell_volume 1935.538089
_symmetry_space_group_name_H-M "P N A 21"
_symmetry_group_IT_number 33
_symmetry_cell_setting 'orthorhombic'
loop_
_space_group_symop_operation_xyz
x,y,z
-x,-y,1/2+z
1/2-x,1/2+y,1/2+z
1/2+x,1/2-y,z
loop_
_atom_site_type_symbol
_atom_site_label
_atom_site_fract_x
_atom_site_fract_y
_atom_site_fract_z
Si Si1 0.699529 0.274376 0.612120
Si Si2 0.327955 0.814916 0.486643
Si Si3 0.331367 0.258376 0.237498
Si Si4 0.923314 0.563858 0.375230
Si Si5 0.964454 0.364549 0.554750
Si Si6 0.039900 0.253377 0.316870
Si Si7 0.313113 0.151214 0.906370
Si Si8 0.102949 0.557614 0.678419
O O1 0.793197 0.259958 0.472881
O O2 0.611433 0.289854 0.452764
O O3 0.718271 0.332681 0.768337
O O4 0.683987 0.213883 0.750988
O O5 0.231437 0.811026 0.628476
O O6 0.352959 0.885627 0.471197
O O7 0.411369 0.776143 0.597308
O O8 0.440792 0.279968 0.262227
O O9 0.326514 0.199126 0.093824
O O10 0.866379 0.503485 0.302912
O O11 0.966106 0.585044 0.147965
O O12 0.002832 0.548535 0.554950
O O13 0.901866 0.340362 0.750553
O O14 0.903728 0.391006 0.359322
O O15 0.026477 0.310040 0.470969
O O16 0.316659 0.083349 0.010381
#
# Coordination Sequence:
#
# PCOD8170693 Si02
#       8
#     4   4   4   4   4   4   4   4
#     4  10  20  31  49  71  98 142 168 212 254 309
#     4  10  21  31  48  73 103 140 169 209 254 314
#     4  10  20  33  48  70 100 141 171 208 258 315
#     4  11  20  31  44  72 101 143 179 197 252 308
#     4  11  18  30  48  69 102 140 170 204 247 304
#     4  11  18  31  51  69  98 143 172 210 258 311
#     4  10  19  32  46  68  98 138 173 207 253 300
#     4  11  20  29  48  68 102 143 176 207 240 317
#
# _framework density 16.532871
#
# number of rings (size 3 to 8) (size 9 to 14) (size 15 to 20)
#    0.000    1.500    6.250    0.750    0.000    0.000 
#    0.000    0.000    0.000    0.000    0.000    0.000 
#    0.000    0.000  191.250    0.000    0.000    0.000 
#
# Total GULP energy -396524.433847 kJ/mol
# GULP energy per Si atom -12391.388558 kJ/mol
# Density = 1.649524 g / cm^3
# Si number density = 16.532871 Si / 1000 Ang^3
#
#
#
# Elastic Constant Matrix: (Units=GPa)
#
#
# Indices 1 2 3 4 5 6 
#
# 1 96.5700 39.4309 35.4120 0.0000 0.0000 0.0000
# 2 39.4309 82.6776 36.4552 0.0000 0.0000 0.0000
# 3 35.4120 36.4552 91.5477 0.0000 0.0000 0.0000
# 4 0.0000 0.0000 0.0000 31.4936 0.0000 0.0000
# 5 0.0000 0.0000 0.0000 0.0000 32.5460 0.0000
# 6 0.0000 0.0000 0.0000 0.0000 0.0000 21.5351
#
#
#
# Elastic Compliance Matrix: (Units=1/GPa)
#
#
# Indices 1 2 3 4 5 6 
#
# 1 0.013613 -0.005059 -0.003251 0.000000 0.000000 0.000000
# 2 -0.005059 0.016551 -0.004634 0.000000 0.000000 0.000000
# 3 -0.003251 -0.004634 0.014026 0.000000 0.000000 0.000000
# 4 0.000000 0.000000 0.000000 0.031753 0.000000 0.000000
# 5 0.000000 0.000000 0.000000 0.000000 0.030726 0.000000
# 6 0.000000 0.000000 0.000000 0.000000 0.000000 0.046436
#
#
# Mechanical properties :
#
#
# Convention : Reuss Voigt Hill
#
# Bulk Modulus (GPa) = 54.63814 54.82128 54.72971
# Shear Modulus (GPa) = 27.01343 27.74807 27.38075
#
# Velocity S-wave (km/s) = 4.04657 4.10122 4.07398
# Velocity P-wave (km/s) = 7.41302 7.46040 7.43675
#
# Compressibility (1/GPa) = 0.01830223
#
# Stress axis : x y z
#
# Youngs Moduli (GPa) = 73.45930 60.41890 71.29509
#
# Poissons Ratio (x) = 0.30565 0.23180
# Poissons Ratio (y) = 0.37161 0.33038
# Poissons Ratio (z) = 0.23883 0.27998
#
# Static dielectric constant tensor:
#      x y z
#    x 3.133370 0.000000 0.000000 
#    y 0.000000 2.973420 0.000000 
#    z 0.000000 0.000000 3.449420 
# 
# 
# High freq. dielectric constant tensor:
#      x y z
#    x 1.607090 0.000000 0.000000 
#    y 0.000000 1.601150 0.000000 
#    z 0.000000 0.000000 1.669690 
# 
# From -- ./inp_files/1149.got.cif
#   From: 2010.03.12/outbox.cif.g09.slc.cpg/sg33_1_cif.got.tgz:1149.got - 2010.04.14 01:49:19.
