data_PCOD8170025
_publ_section_title
;
Structure prediction by ZEFSAII (Michael W. Deem and Ramdas Pophale) SiO2 
 PCOD8170025
Probable space group: P M N 21
;
_chemical_formula_sum "Si O2"
_cell_formula_units_Z 32
_cell_length_a 8.927286
_cell_length_b 11.106460
_cell_length_c 16.195786
_cell_angle_alpha 90.000000
_cell_angle_beta 90.000000
_cell_angle_gamma 90.000000
_cell_volume 1605.821006
_symmetry_space_group_name_H-M "P M N 21"
_symmetry_group_IT_number 31
_symmetry_cell_setting 'orthorhombic'
loop_
_space_group_symop_operation_xyz
x,y,z
1/2-x,-y,1/2+z
-x,y,z
1/2+x,-y,1/2+z
loop_
_atom_site_type_symbol
_atom_site_label
_atom_site_fract_x
_atom_site_fract_y
_atom_site_fract_z
Si Si1 0.666119 0.678125 0.335090
Si Si2 0.323395 0.120682 0.082785
Si Si3 0.821576 0.916970 0.765801
Si Si4 0.324669 0.388333 0.088860
Si Si5 0.335637 0.459215 0.455650
Si Si6 0.335394 0.698335 0.846757
Si Si7 0.336254 0.484117 0.729321
Si Si8 0.177811 0.906975 0.400363
O O1 0.500000 0.729585 0.312419
O O2 0.645523 0.553415 0.382034
O O3 0.762345 0.644861 0.253376
O O4 0.759305 0.772844 0.389075
O O5 0.500000 0.134492 0.086591
O O6 0.273982 0.055021 0.169279
O O7 0.252408 0.255163 0.079464
O O8 0.280183 0.053545 0.995814
O O9 0.757761 0.786020 0.787320
O O10 0.000000 0.917616 0.775397
O O11 0.752241 0.010266 0.830760
O O12 0.500000 0.378241 0.080546
O O13 0.280530 0.442338 0.175771
O O14 0.267925 0.482797 0.023360
O O15 0.500000 0.428974 0.491646
O O16 0.261223 0.331581 0.428576
O O17 0.500000 0.755263 0.867906
O O18 0.363418 0.568147 0.807882
O O19 0.500000 0.460243 0.687697
O O20 0.000000 0.907392 0.387908
#
# Coordination Sequence:
#
# PCOD8170025 Si02
#       8
#     4   4   4   4   4   4   4   4
#     4  10  20  35  55  82 113 150 190 235 291 352
#     4   9  20  37  60  85 116 153 197 243 297 360
#     4  11  22  40  62  88 118 157 202 252 303 360
#     4  11  19  33  56  85 116 153 193 239 295 358
#     4  10  20  33  53  83 117 149 185 236 290 347
#     4  10  20  35  55  82 113 150 190 235 291 352
#     4  10  20  33  53  83 117 149 185 236 290 347
#     4  11  22  40  62  88 118 157 202 252 303 360
#
# _framework density 19.927500999999999
#
# number of rings (size 3 to 8) (size 9 to 14) (size 15 to 20)
#    0.000    1.750    2.500    2.625    0.000    2.000 
#    0.000    3.750    0.000    1.500    0.000    0.000 
#    0.000    0.000    0.000    0.000    0.000    0.000 
#
# Total GULP energy -396418.042862 kJ/mol
# GULP energy per Si atom -12388.063839 kJ/mol
# Density = 1.988215 g / cm^3
# Si number density = 19.927501 Si / 1000 Ang^3
#
#
#
# Elastic Constant Matrix: (Units=GPa)
#
#
# Indices 1 2 3 4 5 6 
#
# 1 118.3149 30.7839 43.6449 0.0000 0.0000 0.0000
# 2 30.7839 49.8475 42.8080 0.0000 0.0000 0.0000
# 3 43.6449 42.8080 96.6426 0.0000 0.0000 0.0000
# 4 0.0000 0.0000 0.0000 30.3368 0.0000 0.0000
# 5 0.0000 0.0000 0.0000 0.0000 21.9276 0.0000
# 6 0.0000 0.0000 0.0000 0.0000 0.0000 29.9193
#
#
#
# Elastic Compliance Matrix: (Units=1/GPa)
#
#
# Indices 1 2 3 4 5 6 
#
# 1 0.010598 -0.003929 -0.003046 0.000000 0.000000 0.000000
# 2 -0.003929 0.033834 -0.013213 0.000000 0.000000 0.000000
# 3 -0.003046 -0.013213 0.017575 0.000000 0.000000 0.000000
# 4 0.000000 0.000000 0.000000 0.032963 0.000000 0.000000
# 5 0.000000 0.000000 0.000000 0.000000 0.045605 0.000000
# 6 0.000000 0.000000 0.000000 0.000000 0.000000 0.033423
#
#
# Mechanical properties :
#
#
# Convention : Reuss Voigt Hill
#
# Bulk Modulus (GPa) = 46.22621 55.47541 50.85081
# Shear Modulus (GPa) = 22.56474 26.27460 24.41967
#
# Velocity S-wave (km/s) = 3.36868 3.63507 3.50441
# Velocity P-wave (km/s) = 6.19502 6.74665 6.47671
#
# Compressibility (1/GPa) = 0.02163275
#
# Stress axis : x y z
#
# Youngs Moduli (GPa) = 94.35866 29.55573 56.89785
#
# Poissons Ratio (x) = 0.11613 0.17329
# Poissons Ratio (y) = 0.37076 0.75176
# Poissons Ratio (z) = 0.28738 0.39051
#
# Static dielectric constant tensor:
#      x y z
#    x 4.133870 0.000000 0.000000 
#    y 0.000000 3.404840 0.000000 
#    z 0.000000 0.000000 4.414140 
# 
# 
# High freq. dielectric constant tensor:
#      x y z
#    x 1.786950 0.000000 0.000000 
#    y 0.000000 1.745160 0.000000 
#    z 0.000000 0.000000 1.771690 
# 
# From -- ./inp_files/5882.got.cif
#   From: 2010.03.12/outbox.cif.g09.slc.cpg/sg31_3_cif.got.tgz:5882.got - 2010.04.14 01:42:59.
