data_PCOD8170839
_publ_section_title
;
Structure prediction by ZEFSAII (Michael W. Deem and Ramdas Pophale) SiO2 
 PCOD8170839
Probable space group: P N A 21
;
_chemical_formula_sum "Si O2"
_cell_formula_units_Z 24
_cell_length_a 29.499373
_cell_length_b 4.908598
_cell_length_c 8.342053
_cell_angle_alpha 90.000000
_cell_angle_beta 90.000000
_cell_angle_gamma 90.000000
_cell_volume 1207.933974
_symmetry_space_group_name_H-M "P N A 21"
_symmetry_group_IT_number 33
_symmetry_cell_setting 'orthorhombic'
loop_
_space_group_symop_operation_xyz
x,y,z
-x,-y,1/2+z
1/2-x,1/2+y,1/2+z
1/2+x,1/2-y,z
loop_
_atom_site_type_symbol
_atom_site_label
_atom_site_fract_x
_atom_site_fract_y
_atom_site_fract_z
Si Si1 0.114274 0.070001 0.436210
Si Si2 0.282828 0.978419 0.746336
Si Si3 0.025016 0.648103 0.125331
Si Si4 0.712869 0.515380 0.466952
Si Si5 0.479335 0.356574 0.986445
Si Si6 0.881596 0.428666 0.725206
O O1 0.106611 0.381069 0.379594
O O2 0.161623 0.039673 0.532848
O O3 0.070770 0.966528 0.536538
O O4 0.119988 0.886038 0.277335
O O5 0.281110 0.181870 0.897859
O O6 0.332131 0.990046 0.657439
O O7 0.274867 0.681318 0.819330
O O8 0.245052 0.042085 0.616322
O O9 0.992093 0.391036 0.102906
O O10 0.018667 0.757574 0.304637
O O11 0.077224 0.547636 0.097304
O O12 0.014049 0.891761 0.003180
#
# Coordination Sequence:
#
# PCOD8170839 Si02
#       6
#     4   4   4   4   4   4
#     4   9  18  34  55  76 104 145 179 205 259 333
#     4  10  20  36  58  81 107 140 178 219 264 316
#     4  11  21  36  56  79 107 141 179 220 262 313
#     4  10  20  36  58  81 107 140 178 219 264 316
#     4  11  21  36  56  79 107 141 179 220 262 313
#     4   9  18  34  55  76 104 145 179 205 259 333
#
# _framework density 19.868637
#
# number of rings (size 3 to 8) (size 9 to 14) (size 15 to 20)
#    0.000    2.000    0.000    6.000    0.000    0.000 
#    0.000    5.000    0.000    0.000    0.000    0.000 
#    0.000    0.000    0.000    0.000    0.000    0.000 
#
# Total GULP energy -297497.766436 kJ/mol
# GULP energy per Si atom -12395.740268 kJ/mol
# Density = 1.982341 g / cm^3
# Si number density = 19.868637 Si / 1000 Ang^3
#
#
#
# Elastic Constant Matrix: (Units=GPa)
#
#
# Indices 1 2 3 4 5 6 
#
# 1 54.5141 13.4145 10.8428 0.0000 0.0000 0.0000
# 2 13.4145 87.3810 2.3784 0.0000 0.0000 0.0000
# 3 10.8428 2.3784 23.9828 0.0000 0.0000 0.0000
# 4 0.0000 0.0000 0.0000 24.5943 0.0000 0.0000
# 5 0.0000 0.0000 0.0000 0.0000 34.2456 0.0000
# 6 0.0000 0.0000 0.0000 0.0000 0.0000 31.0181
#
#
#
# Elastic Compliance Matrix: (Units=1/GPa)
#
#
# Indices 1 2 3 4 5 6 
#
# 1 0.020892 -0.002958 -0.009152 0.000000 0.000000 0.000000
# 2 -0.002958 0.011894 0.000158 0.000000 0.000000 0.000000
# 3 -0.009152 0.000158 0.045819 0.000000 0.000000 0.000000
# 4 0.000000 0.000000 0.000000 0.040660 0.000000 0.000000
# 5 0.000000 0.000000 0.000000 0.000000 0.029201 0.000000
# 6 0.000000 0.000000 0.000000 0.000000 0.000000 0.032239
#
#
# Mechanical properties :
#
#
# Convention : Reuss Voigt Hill
#
# Bulk Modulus (GPa) = 18.28157 24.34993 21.31575
# Shear Modulus (GPa) = 22.43735 27.25444 24.84589
#
# Velocity S-wave (km/s) = 3.36413 3.70771 3.54009
# Velocity P-wave (km/s) = 4.93062 5.53277 5.24035
#
# Compressibility (1/GPa) = 0.05469989
#
# Stress axis : x y z
#
# Youngs Moduli (GPa) = 47.86487 84.07622 21.82517
#
# Poissons Ratio (x) = 0.24871 0.19975
# Poissons Ratio (y) = 0.14159 -0.00345
# Poissons Ratio (z) = 0.43806 -0.01327
#
# Static dielectric constant tensor:
#      x y z
#    x 4.120480 0.000000 0.000000 
#    y 0.000000 3.836480 0.000000 
#    z 0.000000 0.000000 2.998220 
# 
# 
# High freq. dielectric constant tensor:
#      x y z
#    x 1.793740 0.000000 0.000000 
#    y 0.000000 1.803050 0.000000 
#    z 0.000000 0.000000 1.708500 
# 
# From -- ./inp_files/2381.got.cif
#   From: 2010.03.12/outbox.cif.g09.slc.cpg/sg33_2_cif.got.tgz:2381.got - 2010.04.14 01:49:19.
