data_PCOD8170050
_publ_section_title
;
Structure prediction by ZEFSAII (Michael W. Deem and Ramdas Pophale) SiO2 
 PCOD8170050
Probable space group: P M N 21
;
_chemical_formula_sum "Si O2"
_cell_formula_units_Z 32
_cell_length_a 9.121224
_cell_length_b 16.684057
_cell_length_c 10.494276
_cell_angle_alpha 90.000000
_cell_angle_beta 90.000000
_cell_angle_gamma 90.000000
_cell_volume 1597.008649
_symmetry_space_group_name_H-M "P M N 21"
_symmetry_group_IT_number 31
_symmetry_cell_setting 'orthorhombic'
loop_
_space_group_symop_operation_xyz
x,y,z
1/2-x,-y,1/2+z
-x,y,z
1/2+x,-y,1/2+z
loop_
_atom_site_type_symbol
_atom_site_label
_atom_site_fract_x
_atom_site_fract_y
_atom_site_fract_z
Si Si1 0.828947 0.603076 0.646580
Si Si2 0.335715 0.571785 0.156831
Si Si3 0.328788 0.071149 0.195389
Si Si4 0.174112 0.268893 0.542906
Si Si5 0.834206 0.179332 0.797375
Si Si6 0.828595 0.757500 0.790470
Si Si7 0.326444 0.032162 0.907357
Si Si8 0.158353 0.342935 0.923442
O O1 0.754550 0.514884 0.665574
O O2 0.762533 0.674363 0.733600
O O3 0.796439 0.627464 0.502553
O O4 0.000000 0.599298 0.672989
O O5 0.500000 0.554649 0.107355
O O6 0.264437 0.639369 0.063541
O O7 0.338011 0.609298 0.294158
O O8 0.500000 0.052747 0.212895
O O9 0.299140 0.167219 0.196364
O O10 0.246927 0.036642 0.320547
O O11 0.276039 0.034063 0.058011
O O12 0.216493 0.212434 0.660783
O O13 0.246232 0.227159 0.422265
O O14 0.000000 0.272809 0.529324
O O15 0.717505 0.114486 0.840663
O O16 0.827775 0.248851 0.901326
O O17 0.000000 0.143779 0.789568
O O18 0.000000 0.748888 0.817948
O O19 0.500000 0.021128 0.901522
O O20 0.000000 0.359821 0.990420
#
# Coordination Sequence:
#
# PCOD8170050 Si02
#       8
#     4   4   4   4   4   4   4   4
#     4  10  20  34  54  78 111 151 187 234 293 339
#     4   8  17  34  53  77 111 150 186 231 290 342
#     4  10  24  44  61  87 128 161 197 249 305 361
#     4   9  19  36  58  83 115 154 196 239 288 352
#     4   9  19  37  60  84 115 151 188 240 298 347
#     4  10  22  38  57  83 118 156 192 241 300 350
#     4  11  24  41  66  94 119 156 203 246 297 363
#     4   9  18  34  55  78 105 143 189 230 279 346
#
# _framework density 20.037462999999999
#
# number of rings (size 3 to 8) (size 9 to 14) (size 15 to 20)
#    0.000    2.500    0.000    2.625    3.500    4.000 
#    0.000    2.500    0.000    0.000    0.000    0.000 
#    0.000    0.000    0.000    0.000    0.000    0.000 
#
# Total GULP energy -396459.907209 kJ/mol
# GULP energy per Si atom -12389.372100 kJ/mol
# Density = 1.999186 g / cm^3
# Si number density = 20.037463 Si / 1000 Ang^3
#
#
#
# Elastic Constant Matrix: (Units=GPa)
#
#
# Indices 1 2 3 4 5 6 
#
# 1 28.6374 27.1010 26.9468 0.0000 0.0000 0.0000
# 2 27.1010 107.2463 45.3762 0.0000 0.0000 0.0000
# 3 26.9468 45.3762 76.5354 0.0000 0.0000 0.0000
# 4 0.0000 0.0000 0.0000 9.7910 0.0000 0.0000
# 5 0.0000 0.0000 0.0000 0.0000 34.3287 0.0000
# 6 0.0000 0.0000 0.0000 0.0000 0.0000 387.0859
#
#
#
# Elastic Compliance Matrix: (Units=1/GPa)
#
#
# Indices 1 2 3 4 5 6 
#
# 1 0.056788 -0.007863 -0.015332 0.000000 0.000000 0.000000
# 2 -0.007863 0.013535 -0.005256 0.000000 0.000000 0.000000
# 3 -0.015332 -0.005256 0.021580 0.000000 0.000000 0.000000
# 4 0.000000 0.000000 0.000000 0.102135 0.000000 0.000000
# 5 0.000000 0.000000 0.000000 0.000000 0.029130 0.000000
# 6 0.000000 0.000000 0.000000 0.000000 0.000000 0.002583
#
#
# Mechanical properties :
#
#
# Convention : Reuss Voigt Hill
#
# Bulk Modulus (GPa) = 28.57126 45.69635 37.13380
# Shear Modulus (GPa) = 16.98825 93.77413 55.38119
#
# Velocity S-wave (km/s) = 2.91490 6.84843 5.26297
# Velocity P-wave (km/s) = 5.06150 9.24065 7.45011
#
# Compressibility (1/GPa) = 0.03500021
#
# Stress axis : x y z
#
# Youngs Moduli (GPa) = 17.60949 73.88087 46.33839
#
# Poissons Ratio (x) = 0.58093 0.71046
# Poissons Ratio (y) = 0.13847 0.24357
# Poissons Ratio (z) = 0.26999 0.38834
#
# Static dielectric constant tensor:
#      x y z
#    x 3.533980 0.000000 0.000000 
#    y 0.000000 4.054560 0.000000 
#    z 0.000000 0.000000 3.653730 
# 
# 
# High freq. dielectric constant tensor:
#      x y z
#    x 1.751320 0.000000 0.000000 
#    y 0.000000 1.799430 0.000000 
#    z 0.000000 0.000000 1.777940 
# 
# From -- ./inp_files/3645.got.cif
#   From: 2010.03.12/outbox.cif.g09.slc.cpg/sg31_2_cif.got.tgz:3645.got - 2010.04.14 01:42:59.
