data_PCOD8170107
_publ_section_title
;
Structure prediction by ZEFSAII (Michael W. Deem and Ramdas Pophale) SiO2 
 PCOD8170107
Probable space group: P M N 21
;
_chemical_formula_sum "Si O2"
_cell_formula_units_Z 32
_cell_length_a 8.814558
_cell_length_b 14.485686
_cell_length_c 12.438838
_cell_angle_alpha 90.000000
_cell_angle_beta 90.000000
_cell_angle_gamma 90.000000
_cell_volume 1588.252028
_symmetry_space_group_name_H-M "P M N 21"
_symmetry_group_IT_number 31
_symmetry_cell_setting 'orthorhombic'
loop_
_space_group_symop_operation_xyz
x,y,z
1/2-x,-y,1/2+z
-x,y,z
1/2+x,-y,1/2+z
loop_
_atom_site_type_symbol
_atom_site_label
_atom_site_fract_x
_atom_site_fract_y
_atom_site_fract_z
Si Si1 0.323328 0.369660 0.181020
Si Si2 0.822848 0.875913 0.987968
Si Si3 0.174693 0.760359 0.492236
Si Si4 0.820186 0.674038 0.918418
Si Si5 0.679104 0.446149 0.619008
Si Si6 0.325002 0.048074 0.903072
Si Si7 0.670263 0.872379 0.206875
Si Si8 0.329612 0.674022 0.291758
O O1 0.500000 0.395132 0.185260
O O2 0.256829 0.357437 0.301719
O O3 0.237273 0.449444 0.116001
O O4 0.296838 0.275218 0.113527
O O5 0.768510 0.779484 0.936845
O O6 0.000000 0.871757 0.017759
O O7 0.786891 0.960863 0.909930
O O8 0.719420 0.900705 0.088972
O O9 0.221072 0.868795 0.485564
O O10 0.268127 0.697094 0.409829
O O11 0.000000 0.750784 0.457871
O O12 0.000000 0.668885 0.915920
O O13 0.756241 0.608707 0.014226
O O14 0.500000 0.443864 0.615443
O O15 0.731843 0.403345 0.732154
O O16 0.500000 0.018844 0.916882
O O17 0.296627 0.085883 0.784368
O O18 0.500000 0.909515 0.230981
O O19 0.674346 0.762371 0.215014
O O20 0.500000 0.635960 0.305921
#
# Coordination Sequence:
#
# PCOD8170107 Si02
#       8
#     4   4   4   4   4   4   4   4
#     4  10  22  41  61  86 118 160 202 244 298 361
#     4  11  21  37  61  88 119 160 201 249 304 364
#     4   9  20  38  60  85 120 159 199 243 298 358
#     4   9  21  40  61  85 121 160 197 242 303 368
#     4  11  22  38  59  87 118 154 197 244 301 361
#     4  10  21  37  58  88 122 161 203 250 301 361
#     4  10  20  36  57  84 114 151 199 252 302 355
#     4  10  20  35  59  85 112 149 196 250 297 346
#
# _framework density 20.147936999999999
#
# number of rings (size 3 to 8) (size 9 to 14) (size 15 to 20)
#    0.000    2.000    1.250    1.875    1.750    3.000 
#    0.000    4.375    0.000    0.000    0.000    0.000 
#    0.000    0.000    0.000    0.000    0.000    0.000 
#
# Total GULP energy -396782.964006 kJ/mol
# GULP energy per Si atom -12399.467625 kJ/mol
# Density = 2.010208 g / cm^3
# Si number density = 20.147937 Si / 1000 Ang^3
#
#
#
# Elastic Constant Matrix: (Units=GPa)
#
#
# Indices 1 2 3 4 5 6 
#
# 1 63.7982 30.8705 28.1132 0.0000 0.0000 0.0000
# 2 30.8705 118.9699 49.4384 0.0000 0.0000 0.0000
# 3 28.1132 49.4384 99.8290 0.0000 0.0000 0.0000
# 4 0.0000 0.0000 0.0000 23.0553 0.0000 0.0000
# 5 0.0000 0.0000 0.0000 0.0000 27.3964 0.0000
# 6 0.0000 0.0000 0.0000 0.0000 0.0000 30.8999
#
#
#
# Elastic Compliance Matrix: (Units=1/GPa)
#
#
# Indices 1 2 3 4 5 6 
#
# 1 0.018925 -0.003394 -0.003648 0.000000 0.000000 0.000000
# 2 -0.003394 0.011192 -0.004587 0.000000 0.000000 0.000000
# 3 -0.003648 -0.004587 0.013316 0.000000 0.000000 0.000000
# 4 0.000000 0.000000 0.000000 0.043374 0.000000 0.000000
# 5 0.000000 0.000000 0.000000 0.000000 0.036501 0.000000
# 6 0.000000 0.000000 0.000000 0.000000 0.000000 0.032363
#
#
# Mechanical properties :
#
#
# Convention : Reuss Voigt Hill
#
# Bulk Modulus (GPa) = 49.56961 55.49346 52.53154
# Shear Modulus (GPa) = 26.93170 27.88200 27.40685
#
# Velocity S-wave (km/s) = 3.66005 3.72407 3.69220
# Velocity P-wave (km/s) = 6.52055 6.78928 6.65627
#
# Compressibility (1/GPa) = 0.02017365
#
# Stress axis : x y z
#
# Youngs Moduli (GPa) = 52.84121 89.34642 75.09692
#
# Poissons Ratio (x) = 0.30329 0.27398
# Poissons Ratio (y) = 0.17937 0.34446
# Poissons Ratio (z) = 0.19278 0.40982
#
# Static dielectric constant tensor:
#      x y z
#    x 3.476290 0.000000 0.000000 
#    y 0.000000 3.696970 0.000000 
#    z 0.000000 0.000000 3.621220 
# 
# 
# High freq. dielectric constant tensor:
#      x y z
#    x 1.774680 0.000000 0.000000 
#    y 0.000000 1.786690 0.000000 
#    z 0.000000 0.000000 1.784200 
# 
# From -- ./inp_files/3602.got.cif
#   From: 2010.03.12/outbox.cif.g09.slc.cpg/sg31_2_cif.got.tgz:3602.got - 2010.04.14 01:42:59.
