data_PCOD8170728
_publ_section_title
;
Structure prediction by ZEFSAII (Michael W. Deem and Ramdas Pophale) SiO2 
 PCOD8170728
Probable space group: P N A 21
;
_chemical_formula_sum "Si O2"
_cell_formula_units_Z 28
_cell_length_a 8.186513
_cell_length_b 9.480090
_cell_length_c 17.323336
_cell_angle_alpha 90.000000
_cell_angle_beta 90.000000
_cell_angle_gamma 90.000000
_cell_volume 1344.444705
_symmetry_space_group_name_H-M "P N A 21"
_symmetry_group_IT_number 33
_symmetry_cell_setting 'orthorhombic'
loop_
_space_group_symop_operation_xyz
x,y,z
-x,-y,1/2+z
1/2-x,1/2+y,1/2+z
1/2+x,1/2-y,z
loop_
_atom_site_type_symbol
_atom_site_label
_atom_site_fract_x
_atom_site_fract_y
_atom_site_fract_z
Si Si1 0.641431 0.890518 0.205510
Si Si2 0.472891 0.807185 0.692217
Si Si3 0.203159 0.694573 0.448305
Si Si4 0.996220 0.872980 0.163007
Si Si5 0.009422 0.111644 0.047693
Si Si6 0.211445 0.078903 0.258446
Si Si7 0.917879 0.613355 0.353122
O O1 0.564694 0.783113 0.141694
O O2 0.533580 0.855621 0.280588
O O3 0.832479 0.858154 0.213971
O O4 0.636739 0.054081 0.182700
O O5 0.448643 0.718505 0.615705
O O6 0.658623 0.853109 0.699861
O O7 0.418813 0.708122 0.766480
O O8 0.141164 0.829970 0.497423
O O9 0.326777 0.596821 0.496313
O O10 0.297466 0.757127 0.373344
O O11 0.047566 0.597212 0.423959
O O12 0.131788 0.943812 0.218145
O O13 0.965684 0.958948 0.083629
O O14 0.305779 0.026542 0.336249
#
# Coordination Sequence:
#
# PCOD8170728 Si02
#       7
#     4   4   4   4   4   4   4
#     4  11  21  35  59  88 119 147 187 251 303 342
#     4  10  19  35  59  87 115 145 184 243 297 339
#     4  10  20  36  58  81 119 159 195 235 273 363
#     4  11  21  34  56  88 117 145 187 247 296 339
#     4  10  20  36  59  86 111 151 197 233 290 349
#     4  10  20  35  57  85 116 144 187 242 289 338
#     4  10  21  35  56  87 115 155 197 233 292 344
#
# _framework density 20.826443000000001
#
# number of rings (size 3 to 8) (size 9 to 14) (size 15 to 20)
#    0.000    1.714    0.000    7.714    0.000    1.143 
#    0.000    0.000    0.000   24.000    0.000    0.000 
#    0.000    0.000    0.000    0.000    0.000    0.000 
#
# Total GULP energy -346894.084214 kJ/mol
# GULP energy per Si atom -12389.074436 kJ/mol
# Density = 2.077904 g / cm^3
# Si number density = 20.826443 Si / 1000 Ang^3
#
#
#
# Elastic Constant Matrix: (Units=GPa)
#
#
# Indices 1 2 3 4 5 6 
#
# 1 112.8954 27.6092 32.4664 0.0000 0.0000 0.0000
# 2 27.6092 106.4720 38.7256 0.0000 0.0000 0.0000
# 3 32.4664 38.7256 74.2436 0.0000 0.0000 0.0000
# 4 0.0000 0.0000 0.0000 28.6345 0.0000 0.0000
# 5 0.0000 0.0000 0.0000 0.0000 34.7711 0.0000
# 6 0.0000 0.0000 0.0000 0.0000 0.0000 34.6876
#
#
#
# Elastic Compliance Matrix: (Units=1/GPa)
#
#
# Indices 1 2 3 4 5 6 
#
# 1 0.010269 -0.001271 -0.003828 0.000000 0.000000 0.000000
# 2 -0.001271 0.011748 -0.005572 0.000000 0.000000 0.000000
# 3 -0.003828 -0.005572 0.018050 0.000000 0.000000 0.000000
# 4 0.000000 0.000000 0.000000 0.034923 0.000000 0.000000
# 5 0.000000 0.000000 0.000000 0.000000 0.028760 0.000000
# 6 0.000000 0.000000 0.000000 0.000000 0.000000 0.028829
#
#
# Mechanical properties :
#
#
# Convention : Reuss Voigt Hill
#
# Bulk Modulus (GPa) = 53.40310 54.57926 53.99118
# Shear Modulus (GPa) = 31.21832 32.60595 31.91214
#
# Velocity S-wave (km/s) = 3.87586 3.96106 3.91869
# Velocity P-wave (km/s) = 6.76220 6.86903 6.81583
#
# Compressibility (1/GPa) = 0.01872551
#
# Stress axis : x y z
#
# Youngs Moduli (GPa) = 97.37721 85.11810 55.40267
#
# Poissons Ratio (x) = 0.10815 0.21208
# Poissons Ratio (y) = 0.12373 0.30872
# Poissons Ratio (z) = 0.37276 0.47431
#
# Static dielectric constant tensor:
#      x y z
#    x 4.098940 0.000000 0.000000 
#    y 0.000000 3.981350 0.000000 
#    z 0.000000 0.000000 3.572160 
# 
# 
# High freq. dielectric constant tensor:
#      x y z
#    x 1.848310 0.000000 0.000000 
#    y 0.000000 1.801460 0.000000 
#    z 0.000000 0.000000 1.774490 
# 
# From -- ./inp_files/8466.got.cif
#   From: 2010.03.12/outbox.cif.g09.slc.cpg/sg33_5_cif.got.tgz:8466.got - 2010.04.14 01:49:19.
