data_PCOD8170168
_publ_section_title
;
Structure prediction by ZEFSAII (Michael W. Deem and Ramdas Pophale) SiO2 
 PCOD8170168
Probable space group: P M N 21
;
_chemical_formula_sum "Si O2"
_cell_formula_units_Z 32
_cell_length_a 8.788095
_cell_length_b 11.857888
_cell_length_c 15.458141
_cell_angle_alpha 90.000000
_cell_angle_beta 90.000000
_cell_angle_gamma 90.000000
_cell_volume 1610.865764
_symmetry_space_group_name_H-M "P M N 21"
_symmetry_group_IT_number 31
_symmetry_cell_setting 'orthorhombic'
loop_
_space_group_symop_operation_xyz
x,y,z
1/2-x,-y,1/2+z
-x,y,z
1/2+x,-y,1/2+z
loop_
_atom_site_type_symbol
_atom_site_label
_atom_site_fract_x
_atom_site_fract_y
_atom_site_fract_z
Si Si1 0.676247 0.116016 0.301950
Si Si2 0.319429 0.501810 0.205317
Si Si3 0.178596 0.877244 0.301953
Si Si4 0.179563 0.255919 0.644684
Si Si5 0.821834 0.733974 0.967866
Si Si6 0.680571 0.501805 0.398584
Si Si7 0.320435 0.744073 0.459222
Si Si8 0.321831 0.266028 0.136042
O O1 0.500000 0.078870 0.301939
O O2 0.715516 0.189097 0.385949
O O3 0.715548 0.189105 0.217959
O O4 0.784024 0.008749 0.301953
O O5 0.500000 0.495769 0.211488
O O6 0.265301 0.615084 0.157460
O O7 0.250579 0.502219 0.301951
O O8 0.259234 0.392296 0.154391
O O9 0.247180 0.822788 0.216336
O O10 0.247222 0.822778 0.387554
O O11 0.000000 0.858467 0.301969
O O12 0.233845 0.215659 0.550361
O O13 0.000000 0.244038 0.653401
O O14 0.759236 0.607710 0.949508
O O15 0.000000 0.732932 0.988484
O O16 0.500000 0.495763 0.392410
O O17 0.734700 0.615076 0.446444
O O18 0.500000 0.755947 0.450530
O O19 0.266126 0.784340 0.553537
O O20 0.500000 0.267065 0.115446
#
# Coordination Sequence:
#
# PCOD8170168 Si02
#       8
#     4   4   4   4   4   4   4   4
#     4  10  22  41  64  86 114 157 201 246 297 348
#     4   9  16  32  60  90 121 157 192 233 289 350
#     4  12  26  43  62  84 114 153 203 256 295 344
#     4  11  22  38  62  90 124 159 193 237 294 355
#     4  10  20  37  63  92 121 155 197 240 290 351
#     4   9  16  32  60  90 121 157 192 233 289 350
#     4  11  22  38  62  90 124 159 193 237 294 355
#     4  10  20  37  63  92 121 155 197 240 290 351
#
# _framework density 19.865093000000002
#
# number of rings (size 3 to 8) (size 9 to 14) (size 15 to 20)
#    0.000    1.750    2.500    2.625    0.000    2.000 
#    0.000    1.250    0.000    0.000    0.000    0.000 
#    0.000    0.000    0.000    0.000    0.000    0.000 
#
# Total GULP energy -396888.924309 kJ/mol
# GULP energy per Si atom -12402.778885 kJ/mol
# Density = 1.981988 g / cm^3
# Si number density = 19.865093 Si / 1000 Ang^3
#
#
#
# Elastic Constant Matrix: (Units=GPa)
#
#
# Indices 1 2 3 4 5 6 
#
# 1 75.3968 47.1946 53.5164 0.0000 0.0000 0.0000
# 2 47.1946 119.4045 56.8875 0.0000 0.0000 0.0000
# 3 53.5164 56.8875 171.1570 0.0000 0.0000 0.0000
# 4 0.0000 0.0000 0.0000 -8.3845 0.0000 0.0000
# 5 0.0000 0.0000 0.0000 0.0000 22.5617 0.0000
# 6 0.0000 0.0000 0.0000 0.0000 0.0000 19.7473
#
#
#
# Elastic Compliance Matrix: (Units=1/GPa)
#
#
# Indices 1 2 3 4 5 6 
#
# 1 0.019977 -0.005846 -0.004303 0.000000 0.000000 0.000000
# 2 -0.005846 0.011661 -0.002048 0.000000 0.000000 0.000000
# 3 -0.004303 -0.002048 0.007869 0.000000 0.000000 0.000000
# 4 0.000000 0.000000 0.000000 -0.119267 0.000000 0.000000
# 5 0.000000 0.000000 0.000000 0.000000 0.044323 0.000000
# 6 0.000000 0.000000 0.000000 0.000000 0.000000 0.050640
#
#
# Mechanical properties :
#
#
# Convention : Reuss Voigt Hill
#
# Bulk Modulus (GPa) = 66.16923 75.68394 70.92659
# Shear Modulus (GPa) = 112.02370 20.67555 66.34963
#
# Velocity S-wave (km/s) = 7.51762 3.22964 5.78555
# Velocity P-wave (km/s) = 10.42758 7.21728 8.96726
#
# Compressibility (1/GPa) = 0.01511276
#
# Stress axis : x y z
#
# Youngs Moduli (GPa) = 50.05844 85.75522 127.08373
#
# Poissons Ratio (x) = 0.50129 0.54688
# Poissons Ratio (y) = 0.29262 0.26027
# Poissons Ratio (z) = 0.21542 0.17563
#
# Static dielectric constant tensor:
#      x y z
#    x 3.286530 0.000000 0.000000 
#    y 0.000000 3.706730 0.000000 
#    z 0.000000 0.000000 3.712110 
# 
# 
# High freq. dielectric constant tensor:
#      x y z
#    x 1.747070 0.000000 0.000000 
#    y 0.000000 1.776090 0.000000 
#    z 0.000000 0.000000 1.792420 
# 
# From -- ./inp_files/4964.got.cif
#   From: 2010.03.12/outbox.cif.g09.slc.cpg/sg31_3_cif.got.tgz:4964.got - 2010.04.14 01:42:59.
