data_PCOD8170145
_publ_section_title
;
Structure prediction by ZEFSAII (Michael W. Deem and Ramdas Pophale) SiO2 
 PCOD8170145
Probable space group: P M N 21
;
_chemical_formula_sum "Si O2"
_cell_formula_units_Z 32
_cell_length_a 8.990384
_cell_length_b 11.900127
_cell_length_c 14.400075
_cell_angle_alpha 90.000000
_cell_angle_beta 90.000000
_cell_angle_gamma 90.000000
_cell_volume 1540.616668
_symmetry_space_group_name_H-M "P M N 21"
_symmetry_group_IT_number 31
_symmetry_cell_setting 'orthorhombic'
loop_
_space_group_symop_operation_xyz
x,y,z
1/2-x,-y,1/2+z
-x,y,z
1/2+x,-y,1/2+z
loop_
_atom_site_type_symbol
_atom_site_label
_atom_site_fract_x
_atom_site_fract_y
_atom_site_fract_z
Si Si1 0.329476 0.317694 0.631340
Si Si2 0.831964 0.029007 0.411351
Si Si3 0.328538 0.516269 0.004853
Si Si4 0.830491 0.617813 0.330588
Si Si5 0.326023 0.282641 0.097184
Si Si6 0.325308 0.913150 0.119426
Si Si7 0.672995 0.812222 0.425927
Si Si8 0.829630 0.122889 0.218737
O O1 0.500000 0.287524 0.612353
O O2 0.266460 0.378504 0.539782
O O3 0.313834 0.402898 0.720200
O O4 0.243988 0.203285 0.655776
O O5 0.790564 0.083627 0.509604
O O6 0.000000 0.980333 0.413617
O O7 0.716461 0.931657 0.382573
O O8 0.816928 0.121250 0.330325
O O9 0.500000 0.547281 0.019675
O O10 0.283433 0.408419 0.067013
O O11 0.294071 0.490677 0.895596
O O12 0.715659 0.715639 0.354190
O O13 0.000000 0.655735 0.355288
O O14 0.500000 0.267801 0.110927
O O15 0.243428 0.242644 0.190632
O O16 0.269331 0.196282 0.019351
O O17 0.500000 0.912945 0.140990
O O18 0.252903 0.017819 0.171748
O O19 0.500000 0.805140 0.449162
O O20 0.000000 0.119223 0.185655
#
# Coordination Sequence:
#
# PCOD8170145 Si02
#       8
#     4   4   4   4   4   4   4   4
#     4  11  23  40  62  89 120 154 197 252 300 347
#     4  10  22  38  55  80 120 162 193 231 295 360
#     4   9  20  40  63  84 113 153 196 238 290 361
#     4   9  20  39  61  85 116 157 197 239 301 361
#     4  10  20  37  59  82 114 152 189 237 298 352
#     4  11  23  40  61  85 121 166 198 235 297 362
#     4  11  20  31  56  88 115 147 195 248 285 335
#     4  11  22  37  59  89 119 153 199 246 290 350
#
# _framework density 20.770904000000002
#
# number of rings (size 3 to 8) (size 9 to 14) (size 15 to 20)
#    0.000    1.750    1.250    4.125    0.000    8.000 
#    2.250    0.000    0.000    0.000    0.000    0.000 
#    0.000    0.000    0.000    0.000    0.000    0.000 
#
# Total GULP energy -396763.947293 kJ/mol
# GULP energy per Si atom -12398.873353 kJ/mol
# Density = 2.072363 g / cm^3
# Si number density = 20.770904 Si / 1000 Ang^3
#
#
#
# Elastic Constant Matrix: (Units=GPa)
#
#
# Indices 1 2 3 4 5 6 
#
# 1 96.4612 22.2976 21.4045 0.0000 0.0000 0.0000
# 2 22.2976 38.4304 0.0300 0.0000 0.0000 0.0000
# 3 21.4045 0.0300 78.9969 0.0000 0.0000 0.0000
# 4 0.0000 0.0000 0.0000 24.6880 0.0000 0.0000
# 5 0.0000 0.0000 0.0000 0.0000 22.7357 0.0000
# 6 0.0000 0.0000 0.0000 0.0000 0.0000 25.6160
#
#
#
# Elastic Compliance Matrix: (Units=1/GPa)
#
#
# Indices 1 2 3 4 5 6 
#
# 1 0.012864 -0.007461 -0.003483 0.000000 0.000000 0.000000
# 2 -0.007461 0.030349 0.002010 0.000000 0.000000 0.000000
# 3 -0.003483 0.002010 0.013602 0.000000 0.000000 0.000000
# 4 0.000000 0.000000 0.000000 0.040506 0.000000 0.000000
# 5 0.000000 0.000000 0.000000 0.000000 0.043984 0.000000
# 6 0.000000 0.000000 0.000000 0.000000 0.000000 0.039038
#
#
# Mechanical properties :
#
#
# Convention : Reuss Voigt Hill
#
# Bulk Modulus (GPa) = 25.67612 33.48364 29.57988
# Shear Modulus (GPa) = 23.67511 25.95169 24.81340
#
# Velocity S-wave (km/s) = 3.37979 3.53856 3.46008
# Velocity P-wave (km/s) = 5.25538 5.73155 5.49862
#
# Compressibility (1/GPa) = 0.03894670
#
# Stress axis : x y z
#
# Youngs Moduli (GPa) = 77.73378 32.95042 73.52048
#
# Poissons Ratio (x) = 0.24585 0.25606
# Poissons Ratio (y) = 0.58000 -0.14779
# Poissons Ratio (z) = 0.27073 -0.06624
#
# Static dielectric constant tensor:
#      x y z
#    x 3.759150 0.000000 0.000000 
#    y 0.000000 3.482270 0.000000 
#    z 0.000000 0.000000 3.876500 
# 
# 
# High freq. dielectric constant tensor:
#      x y z
#    x 1.816340 0.000000 0.000000 
#    y 0.000000 1.788800 0.000000 
#    z 0.000000 0.000000 1.816820 
# 
# From -- ./inp_files/5079.got.cif
#   From: 2010.03.12/outbox.cif.g09.slc.cpg/sg31_3_cif.got.tgz:5079.got - 2010.04.14 01:42:59.
