data_PCOD8170134
_publ_section_title
;
Structure prediction by ZEFSAII (Michael W. Deem and Ramdas Pophale) SiO2 
 PCOD8170134
Probable space group: P M N 21
;
_chemical_formula_sum "Si O2"
_cell_formula_units_Z 32
_cell_length_a 9.104813
_cell_length_b 15.785016
_cell_length_c 10.988287
_cell_angle_alpha 90.000000
_cell_angle_beta 90.000000
_cell_angle_gamma 90.000000
_cell_volume 1579.232420
_symmetry_space_group_name_H-M "P M N 21"
_symmetry_group_IT_number 31
_symmetry_cell_setting 'orthorhombic'
loop_
_space_group_symop_operation_xyz
x,y,z
1/2-x,-y,1/2+z
-x,y,z
1/2+x,-y,1/2+z
loop_
_atom_site_type_symbol
_atom_site_label
_atom_site_fract_x
_atom_site_fract_y
_atom_site_fract_z
Si Si1 0.162143 0.207755 0.030470
Si Si2 0.664862 0.642802 0.337601
Si Si3 0.668422 0.647528 0.694802
Si Si4 0.827113 0.957457 0.478919
Si Si5 0.826417 0.944577 0.201702
Si Si6 0.827933 0.754353 0.152632
Si Si7 0.669968 0.468812 0.013097
Si Si8 0.667035 0.657161 0.973059
O O1 0.197169 0.253848 0.158410
O O2 0.000000 0.164045 0.032511
O O3 0.164904 0.283246 0.935602
O O4 0.286813 0.140258 0.999530
O O5 0.500000 0.618582 0.297316
O O6 0.751621 0.677928 0.223217
O O7 0.742917 0.560083 0.392100
O O8 0.500000 0.623313 0.662223
O O9 0.775930 0.582169 0.629877
O O10 0.703737 0.639213 0.834577
O O11 0.782511 0.981003 0.337243
O O12 0.000000 0.969276 0.494835
O O13 0.748570 0.010207 0.585992
O O14 0.775565 0.846712 0.196806
O O15 0.000000 0.953018 0.182982
O O16 0.000000 0.746408 0.165614
O O17 0.773478 0.733756 0.016091
O O18 0.500000 0.448970 0.989073
O O19 0.695970 0.567823 0.040770
O O20 0.500000 0.688121 0.990881
#
# Coordination Sequence:
#
# PCOD8170134 Si02
#       8
#     4   4   4   4   4   4   4   4
#     4   9  18  35  61  87 113 151 195 242 296 356
#     4  10  20  36  61  88 116 152 197 242 292 358
#     4   9  20  39  58  81 117 159 200 248 303 363
#     4  11  23  40  65  94 125 163 205 258 316 376
#     4  10  24  44  63  92 130 162 208 261 315 381
#     4  11  23  40  62  87 121 160 200 253 307 360
#     4  10  21  36  57  87 118 155 200 250 301 353
#     4  10  23  40  57  84 122 160 203 250 304 367
#
# _framework density 20.263007999999999
#
# number of rings (size 3 to 8) (size 9 to 14) (size 15 to 20)
#    0.000    2.000    1.250    2.250    1.750    6.500 
#    0.000    3.750    0.000    0.000    0.000    0.000 
#    0.000    0.000    0.000    0.000    0.000    0.000 
#
# Total GULP energy -396637.956424 kJ/mol
# GULP energy per Si atom -12394.936138 kJ/mol
# Density = 2.021689 g / cm^3
# Si number density = 20.263008 Si / 1000 Ang^3
#
#
#
# Elastic Constant Matrix: (Units=GPa)
#
#
# Indices 1 2 3 4 5 6 
#
# 1 81.7564 36.6803 50.4880 0.0000 0.0000 0.0000
# 2 36.6803 55.8351 48.7910 0.0000 0.0000 0.0000
# 3 50.4880 48.7910 100.6643 0.0000 0.0000 0.0000
# 4 0.0000 0.0000 0.0000 26.2000 0.0000 0.0000
# 5 0.0000 0.0000 0.0000 0.0000 36.8423 0.0000
# 6 0.0000 0.0000 0.0000 0.0000 0.0000 32.2802
#
#
#
# Elastic Compliance Matrix: (Units=1/GPa)
#
#
# Indices 1 2 3 4 5 6 
#
# 1 0.019304 -0.007323 -0.006133 0.000000 0.000000 0.000000
# 2 -0.007323 0.033847 -0.012732 0.000000 0.000000 0.000000
# 3 -0.006133 -0.012732 0.019181 0.000000 0.000000 0.000000
# 4 0.000000 0.000000 0.000000 0.038168 0.000000 0.000000
# 5 0.000000 0.000000 0.000000 0.000000 0.027143 0.000000
# 6 0.000000 0.000000 0.000000 0.000000 0.000000 0.030979
#
#
# Mechanical properties :
#
#
# Convention : Reuss Voigt Hill
#
# Bulk Modulus (GPa) = 50.10973 56.68606 53.39790
# Shear Modulus (GPa) = 21.96367 25.88425 23.92396
#
# Velocity S-wave (km/s) = 3.29588 3.57797 3.43982
# Velocity P-wave (km/s) = 6.26635 6.71603 6.49508
#
# Compressibility (1/GPa) = 0.01995620
#
# Stress axis : x y z
#
# Youngs Moduli (GPa) = 51.80287 29.54512 52.13443
#
# Poissons Ratio (x) = 0.21635 0.31973
# Poissons Ratio (y) = 0.37933 0.66380
# Poissons Ratio (z) = 0.31769 0.37618
#
# Static dielectric constant tensor:
#      x y z
#    x 3.681070 0.000000 0.000000 
#    y 0.000000 3.681050 0.000000 
#    z 0.000000 0.000000 4.019860 
# 
# 
# High freq. dielectric constant tensor:
#      x y z
#    x 1.788760 0.000000 0.000000 
#    y 0.000000 1.781200 0.000000 
#    z 0.000000 0.000000 1.803170 
# 
# From -- ./inp_files/3732.got.cif
#   From: 2010.03.12/outbox.cif.g09.slc.cpg/sg31_2_cif.got.tgz:3732.got - 2010.04.14 01:42:59.
