data_PCOD8170572
_publ_section_title
;
Structure prediction by ZEFSAII (Michael W. Deem and Ramdas Pophale) SiO2 
 PCOD8170572
Probable space group: P B A 2
;
_chemical_formula_sum "Si O2"
_cell_formula_units_Z 30
_cell_length_a 12.246954
_cell_length_b 19.388852
_cell_length_c 5.613165
_cell_angle_alpha 90.000000
_cell_angle_beta 90.000000
_cell_angle_gamma 90.000000
_cell_volume 1332.870607
_symmetry_space_group_name_H-M "P B A 2"
_symmetry_group_IT_number 32
_symmetry_cell_setting 'orthorhombic'
loop_
_space_group_symop_operation_xyz
x,y,z
-x,-y,z
1/2-x,1/2+y,z
1/2+x,1/2-y,z
loop_
_atom_site_type_symbol
_atom_site_label
_atom_site_fract_x
_atom_site_fract_y
_atom_site_fract_z
Si Si1 0.262189 0.977597 0.790340
Si Si2 0.911493 0.708770 0.510708
Si Si3 0.485270 0.650948 0.281427
Si Si4 0.500000 0.000000 0.920544
Si Si5 0.710727 0.450413 0.297612
Si Si6 0.450799 0.252356 0.903004
Si Si7 0.076269 0.627260 0.224942
Si Si8 0.314852 0.342355 0.598529
O O1 0.223948 0.898181 0.794668
O O2 0.208618 0.007487 0.546355
O O3 0.393131 0.986075 0.758877
O O4 0.226065 0.008186 0.047535
O O5 0.926222 0.780932 0.378598
O O6 0.791563 0.680970 0.452088
O O7 0.995985 0.649049 0.435823
O O8 0.937350 0.721905 0.789464
O O9 0.405023 0.586652 0.273301
O O10 0.522847 0.673176 0.018661
O O11 0.591925 0.626757 0.427203
O O12 0.482506 0.066849 0.081624
O O13 0.807990 0.395880 0.328999
O O14 0.398506 0.195388 0.071738
O O15 0.359795 0.270894 0.707874
#
# Coordination Sequence:
#
# PCOD8170572 Si02
#       8
#     4   4   4   2   4   4   4   4
#     4  11  28  47  75 108 143 201 237 311 359 446
#     4  10  24  41  73 104 140 183 242 306 367 433
#     4  10  26  46  68 104 143 193 243 306 359 448
#     4  10  24  46  74 110 150 184 246 304 382 440
#     4  11  28  47  74 104 148 193 245 293 372 432
#     4  10  24  44  67 108 137 192 241 304 367 432
#     4  10  24  43  73 106 146 189 237 306 370 439
#     4  11  26  44  74 103 144 190 248 303 368 431
#
# _framework density 22.507809000000002
#
# number of rings (size 3 to 8) (size 9 to 14) (size 15 to 20)
#    0.000    1.600    0.000    0.800   22.400    2.133 
#    0.000    0.000    0.000    0.000    0.000    0.000 
#    0.000    0.000    0.000    0.000    0.000    0.000 
#
# Total GULP energy -371851.443860 kJ/mol
# GULP energy per Si atom -12395.048129 kJ/mol
# Density = 2.245658 g / cm^3
# Si number density = 22.507809 Si / 1000 Ang^3
#
#
#
# Elastic Constant Matrix: (Units=GPa)
#
#
# Indices 1 2 3 4 5 6 
#
# 1 146.9320 48.5420 36.5531 0.0000 0.0000 0.0000
# 2 48.5420 82.1807 27.9212 0.0000 0.0000 0.0000
# 3 36.5531 27.9212 101.9121 0.0000 0.0000 0.0000
# 4 0.0000 0.0000 0.0000 32.7473 0.0000 0.0000
# 5 0.0000 0.0000 0.0000 0.0000 13.0515 0.0000
# 6 0.0000 0.0000 0.0000 0.0000 0.0000 37.7310
#
#
#
# Elastic Compliance Matrix: (Units=1/GPa)
#
#
# Indices 1 2 3 4 5 6 
#
# 1 0.008779 -0.004538 -0.001905 0.000000 0.000000 0.000000
# 2 -0.004538 0.015763 -0.002691 0.000000 0.000000 0.000000
# 3 -0.001905 -0.002691 0.011233 0.000000 0.000000 0.000000
# 4 0.000000 0.000000 0.000000 0.030537 0.000000 0.000000
# 5 0.000000 0.000000 0.000000 0.000000 0.076620 0.000000
# 6 0.000000 0.000000 0.000000 0.000000 0.000000 0.026503
#
#
# Mechanical properties :
#
#
# Convention : Reuss Voigt Hill
#
# Bulk Modulus (GPa) = 57.12303 61.89527 59.50915
# Shear Modulus (GPa) = 25.83441 31.23984 28.53713
#
# Velocity S-wave (km/s) = 3.39159 3.72957 3.56459
# Velocity P-wave (km/s) = 6.38526 6.79010 6.59079
#
# Compressibility (1/GPa) = 0.01750607
#
# Stress axis : x y z
#
# Youngs Moduli (GPa) = 113.90545 63.43892 89.02276
#
# Poissons Ratio (x) = 0.28790 0.16963
# Poissons Ratio (y) = 0.51693 0.23956
# Poissons Ratio (z) = 0.21705 0.17071
#
# Static dielectric constant tensor:
#      x y z
#    x 4.085310 0.000000 0.000000 
#    y 0.000000 4.081540 0.000000 
#    z 0.000000 0.000000 4.118260 
# 
# 
# High freq. dielectric constant tensor:
#      x y z
#    x 1.890430 0.000000 0.000000 
#    y 0.000000 1.895480 0.000000 
#    z 0.000000 0.000000 1.885100 
# 
# From -- ./inp_files/1032.got.cif
#   From: 2010.03.12/outbox.cif.g09.slc.cpg/sg32_1_cif.got.tgz:1032.got - 2010.04.14 01:46:39.
