data_PCOD8170699
_publ_section_title
;
Structure prediction by ZEFSAII (Michael W. Deem and Ramdas Pophale) SiO2 
 PCOD8170699
Probable space group: P N A 21
;
_chemical_formula_sum "Si O2"
_cell_formula_units_Z 32
_cell_length_a 8.897786
_cell_length_b 9.413642
_cell_length_c 18.538334
_cell_angle_alpha 90.000000
_cell_angle_beta 90.000000
_cell_angle_gamma 90.000000
_cell_volume 1552.781460
_symmetry_space_group_name_H-M "P N A 21"
_symmetry_group_IT_number 33
_symmetry_cell_setting 'orthorhombic'
loop_
_space_group_symop_operation_xyz
x,y,z
-x,-y,1/2+z
1/2-x,1/2+y,1/2+z
1/2+x,1/2-y,z
loop_
_atom_site_type_symbol
_atom_site_label
_atom_site_fract_x
_atom_site_fract_y
_atom_site_fract_z
Si Si1 0.046790 0.144862 0.171370
Si Si2 0.959788 0.721393 0.869275
Si Si3 0.482347 0.451386 0.910873
Si Si4 0.542786 0.580909 0.056775
Si Si5 0.272831 0.754641 0.443526
Si Si6 0.377123 0.847890 0.028617
Si Si7 0.478239 0.141682 0.044032
Si Si8 0.704897 0.746785 0.769421
O O1 0.021276 0.271687 0.115071
O O2 0.206815 0.158518 0.211271
O O3 0.909444 0.141373 0.228133
O O4 0.058123 0.993801 0.133335
O O5 0.108989 0.663052 0.828768
O O6 0.825938 0.664559 0.818331
O O7 0.971034 0.896066 0.871803
O O8 0.941140 0.654913 0.947155
O O9 0.638458 0.364638 0.894875
O O10 0.336589 0.352144 0.893500
O O11 0.479033 0.469454 0.998234
O O12 0.423717 0.705726 0.069766
O O13 0.697614 0.645802 0.027007
O O14 0.396084 0.852667 0.482334
O O15 0.181632 0.680924 0.508549
O O16 0.455993 0.979001 0.069138
#
# Coordination Sequence:
#
# PCOD8170699 Si02
#       8
#     4   4   4   4   4   4   4   4
#     4  11  21  40  63  89 123 154 220 250 298 376
#     4  10  22  40  58  90 126 155 213 253 306 376
#     4  10  20  35  57  87 131 151 196 262 314 368
#     4  11  22  36  56  93 126 156 191 267 325 361
#     4  10  19  32  56  94 121 162 183 246 336 366
#     4  11  23  35  61  95 125 153 191 267 340 365
#     4  11  20  34  60  94 119 151 200 253 321 371
#     4  10  23  38  61  82 111 180 202 250 276 365
#
# _framework density 20.608179
#
# number of rings (size 3 to 8) (size 9 to 14) (size 15 to 20)
#    0.000    1.500    3.750    3.000    5.250    0.000 
#    0.000    0.000    0.000   12.000    0.000    0.000 
#    0.000    0.000    0.000    0.000    0.000    0.000 
#
# Total GULP energy -396595.486245 kJ/mol
# GULP energy per Si atom -12393.608945 kJ/mol
# Density = 2.056127 g / cm^3
# Si number density = 20.608179 Si / 1000 Ang^3
#
#
#
# Elastic Constant Matrix: (Units=GPa)
#
#
# Indices 1 2 3 4 5 6 
#
# 1 119.2803 34.4139 23.3129 0.0000 0.0000 0.0000
# 2 34.4139 87.2100 22.6592 0.0000 0.0000 0.0000
# 3 23.3129 22.6592 75.3367 0.0000 0.0000 0.0000
# 4 0.0000 0.0000 0.0000 17.3766 0.0000 0.0000
# 5 0.0000 0.0000 0.0000 0.0000 28.9955 0.0000
# 6 0.0000 0.0000 0.0000 0.0000 0.0000 29.0800
#
#
#
# Elastic Compliance Matrix: (Units=1/GPa)
#
#
# Indices 1 2 3 4 5 6 
#
# 1 0.009735 -0.003318 -0.002014 0.000000 0.000000 0.000000
# 2 -0.003318 0.013570 -0.003055 0.000000 0.000000 0.000000
# 3 -0.002014 -0.003055 0.014816 0.000000 0.000000 0.000000
# 4 0.000000 0.000000 0.000000 0.057549 0.000000 0.000000
# 5 0.000000 0.000000 0.000000 0.000000 0.034488 0.000000
# 6 0.000000 0.000000 0.000000 0.000000 0.000000 0.034388
#
#
# Mechanical properties :
#
#
# Convention : Reuss Voigt Hill
#
# Bulk Modulus (GPa) = 46.84716 49.17767 48.01241
# Shear Modulus (GPa) = 26.53446 28.51979 27.52713
#
# Velocity S-wave (km/s) = 3.59216 3.72412 3.65874
# Velocity P-wave (km/s) = 6.32349 6.51208 6.41848
#
# Compressibility (1/GPa) = 0.02134601
#
# Stress axis : x y z
#
# Youngs Moduli (GPa) = 102.72626 73.69446 67.49529
#
# Poissons Ratio (x) = 0.24452 0.13596
# Poissons Ratio (y) = 0.34084 0.20617
# Poissons Ratio (z) = 0.20693 0.22511
#
# Static dielectric constant tensor:
#      x y z
#    x 4.098150 0.000000 0.000000 
#    y 0.000000 3.618100 0.000000 
#    z 0.000000 0.000000 3.543510 
# 
# 
# High freq. dielectric constant tensor:
#      x y z
#    x 1.832090 0.000000 0.000000 
#    y 0.000000 1.784370 0.000000 
#    z 0.000000 0.000000 1.776760 
# 
# From -- ./inp_files/8555.got.cif
#   From: 2010.03.12/outbox.cif.g09.slc.cpg/sg33_5_cif.got.tgz:8555.got - 2010.04.14 01:49:19.
