data_PCOD8170533
_publ_section_title
;
Structure prediction by ZEFSAII (Michael W. Deem and Ramdas Pophale) SiO2 
 PCOD8170533
Probable space group: P B A 2
;
_chemical_formula_sum "Si O2"
_cell_formula_units_Z 26
_cell_length_a 13.961430
_cell_length_b 10.311741
_cell_length_c 10.207706
_cell_angle_alpha 90.000000
_cell_angle_beta 90.000000
_cell_angle_gamma 90.000000
_cell_volume 1469.569239
_symmetry_space_group_name_H-M "P B A 2"
_symmetry_group_IT_number 32
_symmetry_cell_setting 'orthorhombic'
loop_
_space_group_symop_operation_xyz
x,y,z
-x,-y,z
1/2-x,1/2+y,z
1/2+x,1/2-y,z
loop_
_atom_site_type_symbol
_atom_site_label
_atom_site_fract_x
_atom_site_fract_y
_atom_site_fract_z
Si Si1 0.061675 0.883490 0.823710
Si Si2 0.753018 0.357441 0.160230
Si Si3 0.463770 0.863851 0.925879
Si Si4 0.751543 0.608671 0.987998
Si Si5 0.500000 0.500000 0.573803
Si Si6 0.063062 0.115355 0.324032
Si Si7 0.534545 0.863348 0.222587
O O1 0.166001 0.872310 0.886000
O O2 0.004789 0.750102 0.837751
O O3 0.068421 0.912155 0.667398
O O4 0.000000 0.000000 0.892127
O O5 0.667607 0.379456 0.261821
O O6 0.851608 0.368583 0.237747
O O7 0.747963 0.463520 0.045035
O O8 0.752065 0.212527 0.104176
O O9 0.349651 0.865642 0.911865
O O10 0.500000 0.000000 0.869433
O O11 0.499400 0.842365 0.074090
O O12 0.430573 0.586495 0.480354
O O13 0.007842 0.250001 0.310256
O O14 0.000000 0.000000 0.255754
O O15 0.500000 0.000000 0.279291
#
# Coordination Sequence:
#
# PCOD8170533 Si02
#       7
#     4   4   4   4   2   4   4
#     4  10  22  39  62  80 119 165 207 244 277 361
#     4  12  21  32  60  95 119 151 188 245 321 367
#     4  11  20  36  56  91 130 145 177 251 323 365
#     4  12  21  32  60  95 119 151 188 245 321 367
#     4   8  24  44  60  76 118 164 226 242 268 332
#     4  10  22  39  62  80 119 165 207 244 277 361
#     4  11  20  36  56  91 130 145 177 251 323 365
#
# _framework density 17.692257999999999
#
# number of rings (size 3 to 8) (size 9 to 14) (size 15 to 20)
#    0.923    0.308    6.154    1.846    0.000    0.000 
#    0.000    2.308    0.000    0.000    0.000    0.000 
#    0.000    0.000    0.000    0.000    0.000    0.000 
#
# Total GULP energy -322296.505530 kJ/mol
# GULP energy per Si atom -12396.019443 kJ/mol
# Density = 1.765199 g / cm^3
# Si number density = 17.692258 Si / 1000 Ang^3
#
#
#
# Elastic Constant Matrix: (Units=GPa)
#
#
# Indices 1 2 3 4 5 6 
#
# 1 175.9478 45.8518 52.2049 0.0000 0.0000 0.0000
# 2 45.8518 130.0474 40.0336 0.0000 0.0000 0.0000
# 3 52.2049 40.0336 85.8210 0.0000 0.0000 0.0000
# 4 0.0000 0.0000 0.0000 191.1481 0.0000 0.0000
# 5 0.0000 0.0000 0.0000 0.0000 -8.6317 0.0000
# 6 0.0000 0.0000 0.0000 0.0000 0.0000 30.7691
#
#
#
# Elastic Compliance Matrix: (Units=1/GPa)
#
#
# Indices 1 2 3 4 5 6 
#
# 1 0.007141 -0.001378 -0.003701 0.000000 0.000000 0.000000
# 2 -0.001378 0.009245 -0.003474 0.000000 0.000000 0.000000
# 3 -0.003701 -0.003474 0.015524 0.000000 0.000000 0.000000
# 4 0.000000 0.000000 0.000000 0.005232 0.000000 0.000000
# 5 0.000000 0.000000 0.000000 0.000000 -0.115852 0.000000
# 6 0.000000 0.000000 0.000000 0.000000 0.000000 0.032500
#
#
# Mechanical properties :
#
#
# Convention : Reuss Voigt Hill
#
# Bulk Modulus (GPa) = 67.55314 74.22185 70.88749
# Shear Modulus (GPa) = -206.87085 59.57214 -73.64935
#
# Velocity S-wave (km/s) = -10.82502 5.80899 -6.45898
# Velocity P-wave (km/s) = 10.86169 9.32927 3.93326
#
# Compressibility (1/GPa) = 0.01480316
#
# Stress axis : x y z
#
# Youngs Moduli (GPa) = 140.04134 108.16696 64.41695
#
# Poissons Ratio (x) = 0.14910 0.23839
# Poissons Ratio (y) = 0.19304 0.22379
# Poissons Ratio (z) = 0.51825 0.37578
#
# Static dielectric constant tensor:
#      x y z
#    x 3.472810 0.000000 0.000000 
#    y 0.000000 3.545330 0.000000 
#    z 0.000000 0.000000 2.853080 
# 
# 
# High freq. dielectric constant tensor:
#      x y z
#    x 1.695540 0.000000 0.000000 
#    y 0.000000 1.706200 0.000000 
#    z 0.000000 0.000000 1.637900 
# 
# From -- ./inp_files/3917.got.cif
#   From: 2010.03.12/outbox.cif.g09.slc.cpg/sg32_2_cif.got.tgz:3917.got - 2010.04.14 01:46:39.
