data_PCOD8170816
_publ_section_title
;
Structure prediction by ZEFSAII (Michael W. Deem and Ramdas Pophale) SiO2 
 PCOD8170816
Probable space group: P N A 21
;
_chemical_formula_sum "Si O2"
_cell_formula_units_Z 24
_cell_length_a 9.057482
_cell_length_b 24.998671
_cell_length_c 5.028898
_cell_angle_alpha 90.000000
_cell_angle_beta 90.000000
_cell_angle_gamma 90.000000
_cell_volume 1138.668293
_symmetry_space_group_name_H-M "P N A 21"
_symmetry_group_IT_number 33
_symmetry_cell_setting 'orthorhombic'
loop_
_space_group_symop_operation_xyz
x,y,z
-x,-y,1/2+z
1/2-x,1/2+y,1/2+z
1/2+x,1/2-y,z
loop_
_atom_site_type_symbol
_atom_site_label
_atom_site_fract_x
_atom_site_fract_y
_atom_site_fract_z
Si Si1 0.167137 0.612515 0.166110
Si Si2 0.740448 0.823892 0.636638
Si Si3 0.832654 0.612507 0.370916
Si Si4 0.100065 0.500007 0.018144
Si Si5 0.740645 0.176105 0.400408
Si Si6 0.000097 0.248911 0.268506
O O1 0.263595 0.629682 0.419935
O O2 0.999882 0.616526 0.268433
O O3 0.209672 0.651559 0.926582
O O4 0.202050 0.551052 0.088248
O O5 0.887716 0.788842 0.609178
O O6 0.598762 0.786029 0.571151
O O7 0.797786 0.551035 0.448701
O O8 0.790141 0.651535 0.610510
O O9 0.736169 0.629689 0.117150
O O10 0.000262 0.517266 0.767796
O O11 0.598953 0.213968 0.465851
O O12 0.887903 0.211161 0.427830
#
# Coordination Sequence:
#
# PCOD8170816 Si02
#       6
#     4   4   4   4   4   4
#     4  11  20  37  59  90 117 153 192 253 295 351
#     4  11  23  38  60  85 126 153 204 235 299 344
#     4  11  20  37  59  90 117 153 192 253 295 351
#     4  10  20  34  60  90 120 148 196 248 308 346
#     4  11  23  38  60  85 126 153 204 235 299 344
#     4  10  24  40  58  88 120 170 196 244 284 360
#
# _framework density 21.077255999999998
#
# number of rings (size 3 to 8) (size 9 to 14) (size 15 to 20)
#    0.000    1.333    3.333    4.000    0.000    9.333 
#    0.000    0.000    0.000    4.000    0.000    2.333 
#    0.000    0.000    0.000    0.000    0.000    0.000 
#
# Total GULP energy -297426.959520 kJ/mol
# GULP energy per Si atom -12392.789980 kJ/mol
# Density = 2.102928 g / cm^3
# Si number density = 21.077256 Si / 1000 Ang^3
#
#
#
# Elastic Constant Matrix: (Units=GPa)
#
#
# Indices 1 2 3 4 5 6 
#
# 1 93.9286 54.1079 23.8789 0.0000 0.0000 0.0000
# 2 54.1079 149.8596 48.0292 0.0000 0.0000 0.0000
# 3 23.8789 48.0292 124.6970 0.0000 0.0000 0.0000
# 4 0.0000 0.0000 0.0000 26.1483 0.0000 0.0000
# 5 0.0000 0.0000 0.0000 0.0000 16.8320 0.0000
# 6 0.0000 0.0000 0.0000 0.0000 0.0000 -11.2712
#
#
#
# Elastic Compliance Matrix: (Units=1/GPa)
#
#
# Indices 1 2 3 4 5 6 
#
# 1 0.013513 -0.004620 -0.000808 0.000000 0.000000 0.000000
# 2 -0.004620 0.009192 -0.002656 0.000000 0.000000 0.000000
# 3 -0.000808 -0.002656 0.009197 0.000000 0.000000 0.000000
# 4 0.000000 0.000000 0.000000 0.038243 0.000000 0.000000
# 5 0.000000 0.000000 0.000000 0.000000 0.059411 0.000000
# 6 0.000000 0.000000 0.000000 0.000000 0.000000 -0.088722
#
#
# Mechanical properties :
#
#
# Convention : Reuss Voigt Hill
#
# Bulk Modulus (GPa) = 63.55497 68.94637 66.25067
# Shear Modulus (GPa) = 80.32396 22.50643 51.41520
#
# Velocity S-wave (km/s) = 6.17997 3.27128 4.94435
# Velocity P-wave (km/s) = 9.00786 6.85934 8.00600
#
# Compressibility (1/GPa) = 0.01573441
#
# Stress axis : x y z
#
# Youngs Moduli (GPa) = 74.00152 108.78816 108.72935
#
# Poissons Ratio (x) = 0.50260 0.08788
# Poissons Ratio (y) = 0.34189 0.28876
# Poissons Ratio (z) = 0.05981 0.28892
#
# Static dielectric constant tensor:
#      x y z
#    x 3.560920 0.000000 0.000000 
#    y 0.000000 4.233780 0.000000 
#    z 0.000000 0.000000 3.918540 
# 
# 
# High freq. dielectric constant tensor:
#      x y z
#    x 1.780560 0.000000 0.000000 
#    y 0.000000 1.846470 0.000000 
#    z 0.000000 0.000000 1.825930 
# 
# From -- ./inp_files/451.got.cif
#   From: 2010.03.12/outbox.cif.g09.slc.cpg/sg33_1_cif.got.tgz:451.got - 2010.04.14 01:49:19.
