data_PCOD8170397
_publ_section_title
;
Structure prediction by ZEFSAII (Michael W. Deem and Ramdas Pophale) SiO2 
 PCOD8170397
Probable space group: P M N 21
;
_chemical_formula_sum "Si O2"
_cell_formula_units_Z 32
_cell_length_a 9.458802
_cell_length_b 7.736084
_cell_length_c 24.296466
_cell_angle_alpha 90.000000
_cell_angle_beta 90.000000
_cell_angle_gamma 90.000000
_cell_volume 1777.871712
_symmetry_space_group_name_H-M "P M N 21"
_symmetry_group_IT_number 31
_symmetry_cell_setting 'orthorhombic'
loop_
_space_group_symop_operation_xyz
x,y,z
1/2-x,-y,1/2+z
-x,y,z
1/2+x,-y,1/2+z
loop_
_atom_site_type_symbol
_atom_site_label
_atom_site_fract_x
_atom_site_fract_y
_atom_site_fract_z
Si Si1 0.669237 0.250000 0.346840
Si Si2 0.159199 0.546647 0.038507
Si Si3 0.167222 0.440736 0.920774
Si Si4 0.832778 0.059263 0.920774
Si Si5 0.832650 0.750001 0.723696
Si Si6 0.834005 0.447873 0.644446
Si Si7 0.340801 0.046647 0.538507
Si Si8 0.834005 0.052129 0.644447
O O1 0.500000 0.250000 0.345530
O O2 0.729228 0.419027 0.378261
O O3 0.731782 0.250000 0.285087
O O4 0.729228 0.080974 0.378261
O O5 0.256721 0.490592 0.089146
O O6 0.158764 0.750000 0.030264
O O7 0.000000 0.478700 0.049632
O O8 0.224851 0.465959 0.982797
O O9 0.209397 0.250000 0.899444
O O10 0.000000 0.465859 0.923662
O O11 0.000000 0.034141 0.923662
O O12 0.775149 0.034041 0.982797
O O13 0.782163 0.575475 0.692852
O O14 0.000000 0.750000 0.727348
O O15 0.782163 0.924527 0.692852
O O16 0.794184 0.250001 0.660318
O O17 0.000000 0.466397 0.633776
O O18 0.500000 0.978701 0.549632
O O19 0.243279 0.990592 0.589146
O O20 0.000000 0.033604 0.633776
#
# Coordination Sequence:
#
# PCOD8170397 Si02
#       8
#     4   4   4   4   4   4   4   4
#     4   9  16  28  42  61  91 121 148 185 228 266
#     4   9  16  28  46  68  95 120 146 185 228 270
#     4   9  16  25  40  64  91 117 145 182 228 271
#     4   9  16  25  40  64  91 117 145 182 228 271
#     4   9  18  30  45  63  89 125 158 185 220 270
#     4   9  18  31  45  65  93 122 151 185 223 266
#     4   9  16  28  46  68  95 120 146 185 228 270
#     4   9  18  31  45  65  93 122 151 185 223 266
#
# _framework density 17.999047999999998
#
# number of rings (size 3 to 8) (size 9 to 14) (size 15 to 20)
#    0.000    3.000    1.250    0.000    1.750    1.000 
#    0.000    5.000    0.000    0.000    0.000    3.500 
#    0.000    0.000    0.000    0.000    0.000    0.000 
#
# Total GULP energy -396660.680042 kJ/mol
# GULP energy per Si atom -12395.646251 kJ/mol
# Density = 1.795808 g / cm^3
# Si number density = 17.999048 Si / 1000 Ang^3
#
#
#
# Elastic Constant Matrix: (Units=GPa)
#
#
# Indices 1 2 3 4 5 6 
#
# 1 20.1535 16.9287 26.2991 0.0000 0.0000 0.0000
# 2 16.9287 131.3934 95.4877 0.0000 0.0000 0.0000
# 3 26.2991 95.4877 173.8904 0.0000 0.0000 0.0000
# 4 0.0000 0.0000 0.0000 27.2351 0.0000 0.0000
# 5 0.0000 0.0000 0.0000 0.0000 19.3574 0.0000
# 6 0.0000 0.0000 0.0000 0.0000 0.0000 9.5322
#
#
#
# Elastic Compliance Matrix: (Units=1/GPa)
#
#
# Indices 1 2 3 4 5 6 
#
# 1 0.062121 -0.001957 -0.008321 0.000000 0.000000 0.000000
# 2 -0.001957 0.012726 -0.006693 0.000000 0.000000 0.000000
# 3 -0.008321 -0.006693 0.010684 0.000000 0.000000 0.000000
# 4 0.000000 0.000000 0.000000 0.036717 0.000000 0.000000
# 5 0.000000 0.000000 0.000000 0.000000 0.051660 0.000000
# 6 0.000000 0.000000 0.000000 0.000000 0.000000 0.104907
#
#
# Mechanical properties :
#
#
# Convention : Reuss Voigt Hill
#
# Bulk Modulus (GPa) = 19.38294 66.98535 43.18415
# Shear Modulus (GPa) = 15.15369 23.67309 19.41339
#
# Velocity S-wave (km/s) = 2.90473 3.63056 3.28774
# Velocity P-wave (km/s) = 4.69491 7.40753 6.20136
#
# Compressibility (1/GPa) = 0.05159175
#
# Stress axis : x y z
#
# Youngs Moduli (GPa) = 16.09766 78.57625 93.59635
#
# Poissons Ratio (x) = 0.15376 0.77878
# Poissons Ratio (y) = 0.03150 0.62639
# Poissons Ratio (z) = 0.13394 0.52587
#
# Static dielectric constant tensor:
#      x y z
#    x 2.826700 0.000000 0.000000 
#    y 0.000000 3.489020 0.000000 
#    z 0.000000 0.000000 3.513360 
# 
# 
# High freq. dielectric constant tensor:
#      x y z
#    x 1.627430 0.000000 0.000000 
#    y 0.000000 1.710790 0.000000 
#    z 0.000000 0.000000 1.697560 
# 
# From -- ./inp_files/6056.got.cif
#   From: 2010.03.12/outbox.cif.g09.slc.cpg/sg31_4_cif.got.tgz:6056.got - 2010.04.14 01:42:59.
