data_PCOD8170243
_publ_section_title
;
Structure prediction by ZEFSAII (Michael W. Deem and Ramdas Pophale) SiO2 
 PCOD8170243
Probable space group: P M N 21
;
_chemical_formula_sum "Si O2"
_cell_formula_units_Z 24
_cell_length_a 8.792991
_cell_length_b 11.913765
_cell_length_c 11.966162
_cell_angle_alpha 90.000000
_cell_angle_beta 90.000000
_cell_angle_gamma 90.000000
_cell_volume 1253.546752
_symmetry_space_group_name_H-M "P M N 21"
_symmetry_group_IT_number 31
_symmetry_cell_setting 'orthorhombic'
loop_
_space_group_symop_operation_xyz
x,y,z
1/2-x,-y,1/2+z
-x,y,z
1/2+x,-y,1/2+z
loop_
_atom_site_type_symbol
_atom_site_label
_atom_site_fract_x
_atom_site_fract_y
_atom_site_fract_z
Si Si1 0.822765 0.912612 0.158860
Si Si2 0.679578 0.335158 0.282983
Si Si3 0.321939 0.791399 0.357161
Si Si4 0.676827 0.830682 0.611277
Si Si5 0.180217 0.276683 0.518442
Si Si6 0.321281 0.578101 0.222001
O O1 0.769597 0.880859 0.283264
O O2 0.732714 0.843383 0.065053
O O3 0.000000 0.887207 0.144567
O O4 0.784788 0.042152 0.140993
O O5 0.500000 0.341062 0.297648
O O6 0.720774 0.247788 0.187482
O O7 0.750381 0.296129 0.398337
O O8 0.749899 0.456726 0.249456
O O9 0.500000 0.814073 0.337715
O O10 0.274116 0.807118 0.484512
O O11 0.277369 0.665201 0.320094
O O12 0.500000 0.802774 0.630901
O O13 0.238766 0.373973 0.603314
O O14 0.000000 0.275647 0.509330
O O15 0.500000 0.564541 0.213553
#
# Coordination Sequence:
#
# PCOD8170243 Si02
#       6
#     4   4   4   4   4   4
#     4  10  21  38  59  88 117 147 195 240 283 341
#     4  11  23  37  58  89 119 149 193 242 284 336
#     4   9  19  39  62  82 113 156 193 232 289 344
#     4  10  23  39  58  86 118 154 192 234 286 344
#     4  10  21  40  62  84 116 156 192 232 292 347
#     4   8  18  37  59  83 113 150 191 234 284 342
#
# _framework density 19.145674
#
# number of rings (size 3 to 8) (size 9 to 14) (size 15 to 20)
#    0.000    2.333    0.000    2.500    4.667    2.000 
#    0.000    7.500    0.000    0.000    0.000    0.000 
#    0.000    0.000    0.000    0.000    0.000    0.000 
#
# Total GULP energy -297638.359764 kJ/mol
# GULP energy per Si atom -12401.598324 kJ/mol
# Density = 1.910210 g / cm^3
# Si number density = 19.145674 Si / 1000 Ang^3
#
#
#
# Elastic Constant Matrix: (Units=GPa)
#
#
# Indices 1 2 3 4 5 6 
#
# 1 58.6139 44.7789 39.7277 0.0000 0.0000 0.0000
# 2 44.7789 137.3812 80.0440 0.0000 0.0000 0.0000
# 3 39.7277 80.0440 148.9719 0.0000 0.0000 0.0000
# 4 0.0000 0.0000 0.0000 22.6090 0.0000 0.0000
# 5 0.0000 0.0000 0.0000 0.0000 31.8604 0.0000
# 6 0.0000 0.0000 0.0000 0.0000 0.0000 26.3110
#
#
#
# Elastic Compliance Matrix: (Units=1/GPa)
#
#
# Indices 1 2 3 4 5 6 
#
# 1 0.023696 -0.005884 -0.003158 0.000000 0.000000 0.000000
# 2 -0.005884 0.012057 -0.004909 0.000000 0.000000 0.000000
# 3 -0.003158 -0.004909 0.010193 0.000000 0.000000 0.000000
# 4 0.000000 0.000000 0.000000 0.044230 0.000000 0.000000
# 5 0.000000 0.000000 0.000000 0.000000 0.031387 0.000000
# 6 0.000000 0.000000 0.000000 0.000000 0.000000 0.038007
#
#
# Mechanical properties :
#
#
# Convention : Reuss Voigt Hill
#
# Bulk Modulus (GPa) = 55.42006 74.89647 65.15826
# Shear Modulus (GPa) = 25.84156 28.18383 27.01270
#
# Velocity S-wave (km/s) = 3.67786 3.84092 3.76027
# Velocity P-wave (km/s) = 6.85893 7.67297 7.27734
#
# Compressibility (1/GPa) = 0.01804401
#
# Stress axis : x y z
#
# Youngs Moduli (GPa) = 42.20096 82.93787 98.10973
#
# Poissons Ratio (x) = 0.48799 0.30982
# Poissons Ratio (y) = 0.24830 0.48166
# Poissons Ratio (z) = 0.13326 0.40717
#
# Static dielectric constant tensor:
#      x y z
#    x 3.372770 0.000000 0.000000 
#    y 0.000000 3.732180 0.000000 
#    z 0.000000 0.000000 3.617970 
# 
# 
# High freq. dielectric constant tensor:
#      x y z
#    x 1.732690 0.000000 0.000000 
#    y 0.000000 1.753410 0.000000 
#    z 0.000000 0.000000 1.754530 
# 
# From -- ./inp_files/3437.got.cif
#   From: 2010.03.12/outbox.cif.g09.slc.cpg/sg31_2_cif.got.tgz:3437.got - 2010.04.14 01:42:59.
