data_PCOD8170286
_publ_section_title
;
Structure prediction by ZEFSAII (Michael W. Deem and Ramdas Pophale) SiO2 
 PCOD8170286
Probable space group: P M N 21
;
_chemical_formula_sum "Si O2"
_cell_formula_units_Z 32
_cell_length_a 13.388473
_cell_length_b 8.481485
_cell_length_c 13.137873
_cell_angle_alpha 90.000000
_cell_angle_beta 90.000000
_cell_angle_gamma 90.000000
_cell_volume 1491.859777
_symmetry_space_group_name_H-M "P M N 21"
_symmetry_group_IT_number 31
_symmetry_cell_setting 'orthorhombic'
loop_
_space_group_symop_operation_xyz
x,y,z
1/2-x,-y,1/2+z
-x,y,z
1/2+x,-y,1/2+z
loop_
_atom_site_type_symbol
_atom_site_label
_atom_site_fract_x
_atom_site_fract_y
_atom_site_fract_z
Si Si1 0.287293 0.885821 0.419350
Si Si2 0.618500 0.411169 0.274406
Si Si3 0.267945 0.875589 0.079456
Si Si4 0.118592 0.436908 0.565086
Si Si5 0.882640 0.943207 0.740088
Si Si6 0.885150 0.647254 0.158918
Si Si7 0.385212 0.336632 0.886056
Si Si8 0.118419 0.423904 0.979401
O O1 0.177616 0.824639 0.387941
O O2 0.343977 0.754788 0.486520
O O3 0.279373 0.048967 0.479213
O O4 0.354391 0.922314 0.320974
O O5 0.500000 0.419357 0.275031
O O6 0.659587 0.499252 0.173678
O O7 0.653467 0.229609 0.274972
O O8 0.660759 0.497853 0.374985
O O9 0.344635 0.739538 0.047350
O O10 0.177603 0.807684 0.147498
O O11 0.326444 0.015290 0.136106
O O12 0.158145 0.546317 0.472506
O O13 0.000000 0.436928 0.563276
O O14 0.000000 0.947425 0.719496
O O15 0.874916 0.582546 0.274411
O O16 0.841468 0.520586 0.077685
O O17 0.000000 0.687082 0.133475
O O18 0.500000 0.291779 0.908657
O O19 0.000000 0.425627 0.981070
#
# Coordination Sequence:
#
# PCOD8170286 Si02
#       8
#     4   4   4   4   4   4   4   4
#     4  12  24  40  62  98 132 162 206 264 325 385
#     4   9  19  37  65  95 124 161 208 260 311 371
#     4  12  24  40  62  98 132 162 206 264 325 385
#     4  10  21  40  66  95 124 164 214 261 312 373
#     4  11  23  41  64  95 132 167 207 266 332 381
#     4  10  22  42  63  87 126 175 217 254 302 375
#     4  10  22  42  63  87 126 175 217 254 302 375
#     4  10  21  40  66  95 124 164 214 261 312 373
#
# _framework density 21.449738
#
# number of rings (size 3 to 8) (size 9 to 14) (size 15 to 20)
#    0.000    1.500    1.250    3.750    0.000    5.000 
#    2.250    0.000    0.000    0.000    0.000    0.000 
#    0.000    0.000    0.000    0.000    0.000    0.000 
#
# Total GULP energy -396952.417104 kJ/mol
# GULP energy per Si atom -12404.763035 kJ/mol
# Density = 2.140092 g / cm^3
# Si number density = 21.449738 Si / 1000 Ang^3
#
#
#
# Elastic Constant Matrix: (Units=GPa)
#
#
# Indices 1 2 3 4 5 6 
#
# 1 33.4117 19.6701 31.5640 0.0000 0.0000 0.0000
# 2 19.6701 107.1436 38.0192 0.0000 0.0000 0.0000
# 3 31.5640 38.0192 120.7543 0.0000 0.0000 0.0000
# 4 0.0000 0.0000 0.0000 40.0905 0.0000 0.0000
# 5 0.0000 0.0000 0.0000 0.0000 32.3220 0.0000
# 6 0.0000 0.0000 0.0000 0.0000 0.0000 36.9926
#
#
#
# Elastic Compliance Matrix: (Units=1/GPa)
#
#
# Indices 1 2 3 4 5 6 
#
# 1 0.041381 -0.004232 -0.009484 0.000000 0.000000 0.000000
# 2 -0.004232 0.010940 -0.002338 0.000000 0.000000 0.000000
# 3 -0.009484 -0.002338 0.011497 0.000000 0.000000 0.000000
# 4 0.000000 0.000000 0.000000 0.024944 0.000000 0.000000
# 5 0.000000 0.000000 0.000000 0.000000 0.030939 0.000000
# 6 0.000000 0.000000 0.000000 0.000000 0.000000 0.027032
#
#
# Mechanical properties :
#
#
# Convention : Reuss Voigt Hill
#
# Bulk Modulus (GPa) = 31.53688 48.86850 40.20269
# Shear Modulus (GPa) = 26.39786 33.35143 29.87465
#
# Velocity S-wave (km/s) = 3.51192 3.94745 3.73604
# Velocity P-wave (km/s) = 5.58385 6.60369 6.11507
#
# Compressibility (1/GPa) = 0.03170890
#
# Stress axis : x y z
#
# Youngs Moduli (GPa) = 24.16597 91.40892 86.98249
#
# Poissons Ratio (x) = 0.38680 0.82496
# Poissons Ratio (y) = 0.10226 0.20339
# Poissons Ratio (z) = 0.22919 0.21374
#
# Static dielectric constant tensor:
#      x y z
#    x 3.873260 0.000000 0.000000 
#    y 0.000000 3.690500 0.000000 
#    z 0.000000 0.000000 4.047880 
# 
# 
# High freq. dielectric constant tensor:
#      x y z
#    x 1.856790 0.000000 0.000000 
#    y 0.000000 1.829390 0.000000 
#    z 0.000000 0.000000 1.849840 
# 
# From -- ./inp_files/4279.got.cif
#   From: 2010.03.12/outbox.cif.g09.slc.cpg/sg31_3_cif.got.tgz:4279.got - 2010.04.14 01:42:59.
