data_PCOD8170444
_publ_section_title
;
Structure prediction by ZEFSAII (Michael W. Deem and Ramdas Pophale) SiO2 
 PCOD8170444
Probable space group: P B A 2
;
_chemical_formula_sum "Si O2"
_cell_formula_units_Z 24
_cell_length_a 9.623583
_cell_length_b 16.502180
_cell_length_c 7.364620
_cell_angle_alpha 90.000000
_cell_angle_beta 90.000000
_cell_angle_gamma 90.000000
_cell_volume 1169.576031
_symmetry_space_group_name_H-M "P B A 2"
_symmetry_group_IT_number 32
_symmetry_cell_setting 'orthorhombic'
loop_
_space_group_symop_operation_xyz
x,y,z
-x,-y,z
1/2-x,1/2+y,z
1/2+x,1/2-y,z
loop_
_atom_site_type_symbol
_atom_site_label
_atom_site_fract_x
_atom_site_fract_y
_atom_site_fract_z
Si Si1 0.982642 0.653634 0.943910
Si Si2 0.587919 0.918413 0.294276
Si Si3 0.956182 0.835649 0.834024
Si Si4 0.216183 0.934291 0.810401
Si Si5 0.622460 0.450677 0.128524
Si Si6 0.691728 0.909612 0.670978
O O1 0.991950 0.741935 0.857621
O O2 0.830124 0.621196 0.905653
O O3 0.097581 0.597120 0.850450
O O4 0.020210 0.648354 0.159285
O O5 0.749629 0.936613 0.259436
O O6 0.596259 0.883133 0.499089
O O7 0.500000 0.000000 0.277699
O O8 0.826770 0.852044 0.697632
O O9 0.090858 0.877592 0.741460
O O10 0.929320 0.866083 0.040541
O O11 0.272076 0.993731 0.649952
O O12 0.158838 0.996526 0.955178
O O13 0.500000 0.500000 0.235045
#
# Coordination Sequence:
#
# PCOD8170444 Si02
#       6
#     4   4   4   4   4   4
#     4  12  21  40  63  92 127 163 205 268 322 380
#     4  12  22  39  67  98 123 165 218 266 316 381
#     4  10  22  39  64  89 126 169 204 257 329 377
#     4  10  19  38  65  87 120 168 213 254 314 375
#     4   9  19  37  60  89 118 162 211 252 307 378
#     4  11  23  41  63  91 122 165 216 260 311 384
#
# _framework density 20.520254999999999
#
# number of rings (size 3 to 8) (size 9 to 14) (size 15 to 20)
#    0.000    1.333    5.000    4.000    0.000    1.333 
#    3.000    0.000    3.667    0.000    0.000    0.000 
#    0.000    0.000    0.000    0.000    0.000    0.000 
#
# Total GULP energy -297486.072756 kJ/mol
# GULP energy per Si atom -12395.253031 kJ/mol
# Density = 2.047355 g / cm^3
# Si number density = 20.520255 Si / 1000 Ang^3
#
#
#
# Elastic Constant Matrix: (Units=GPa)
#
#
# Indices 1 2 3 4 5 6 
#
# 1 104.9349 19.4496 15.5853 0.0000 0.0000 0.0000
# 2 19.4496 93.3471 21.2627 0.0000 0.0000 0.0000
# 3 15.5853 21.2627 78.2999 0.0000 0.0000 0.0000
# 4 0.0000 0.0000 0.0000 32.2594 0.0000 0.0000
# 5 0.0000 0.0000 0.0000 0.0000 34.6661 0.0000
# 6 0.0000 0.0000 0.0000 0.0000 0.0000 23.3898
#
#
#
# Elastic Compliance Matrix: (Units=1/GPa)
#
#
# Indices 1 2 3 4 5 6 
#
# 1 0.010082 -0.001752 -0.001531 0.000000 0.000000 0.000000
# 2 -0.001752 0.011723 -0.002835 0.000000 0.000000 0.000000
# 3 -0.001531 -0.002835 0.013846 0.000000 0.000000 0.000000
# 4 0.000000 0.000000 0.000000 0.030999 0.000000 0.000000
# 5 0.000000 0.000000 0.000000 0.000000 0.028847 0.000000
# 6 0.000000 0.000000 0.000000 0.000000 0.000000 0.042754
#
#
# Mechanical properties :
#
#
# Convention : Reuss Voigt Hill
#
# Bulk Modulus (GPa) = 42.70635 43.24191 42.97413
# Shear Modulus (GPa) = 31.58739 32.74867 32.16803
#
# Velocity S-wave (km/s) = 3.92768 3.99923 3.96362
# Velocity P-wave (km/s) = 6.43630 6.51488 6.47571
#
# Compressibility (1/GPa) = 0.02341572
#
# Stress axis : x y z
#
# Youngs Moduli (GPa) = 99.18846 85.29915 72.22324
#
# Poissons Ratio (x) = 0.14943 0.11057
# Poissons Ratio (y) = 0.17377 0.20474
# Poissons Ratio (z) = 0.15186 0.24181
#
# Static dielectric constant tensor:
#      x y z
#    x 3.896090 0.000000 0.000000 
#    y 0.000000 3.733030 0.000000 
#    z 0.000000 0.000000 3.467970 
# 
# 
# High freq. dielectric constant tensor:
#      x y z
#    x 1.827980 0.000000 0.000000 
#    y 0.000000 1.788810 0.000000 
#    z 0.000000 0.000000 1.770420 
# 
# From -- ./inp_files/2404.got.cif
#   From: 2010.03.12/outbox.cif.g09.slc.cpg/sg32_2_cif.got.tgz:2404.got - 2010.04.14 01:46:39.
