data_PCOD8170962
_publ_section_title
;
Structure prediction by ZEFSAII (Michael W. Deem and Ramdas Pophale) SiO2 
 PCOD8170962
Probable space group: P N A 21
;
_chemical_formula_sum "Si O2"
_cell_formula_units_Z 28
_cell_length_a 13.855796
_cell_length_b 17.482101
_cell_length_c 6.007262
_cell_angle_alpha 90.000000
_cell_angle_beta 90.000000
_cell_angle_gamma 90.000000
_cell_volume 1455.129613
_symmetry_space_group_name_H-M "P N A 21"
_symmetry_group_IT_number 33
_symmetry_cell_setting 'orthorhombic'
loop_
_space_group_symop_operation_xyz
x,y,z
-x,-y,1/2+z
1/2-x,1/2+y,1/2+z
1/2+x,1/2-y,z
loop_
_atom_site_type_symbol
_atom_site_label
_atom_site_fract_x
_atom_site_fract_y
_atom_site_fract_z
Si Si1 0.794135 0.651832 0.225760
Si Si2 0.028344 0.594235 0.611398
Si Si3 0.815574 0.379116 0.773274
Si Si4 0.646502 0.000426 0.948870
Si Si5 0.275183 0.725198 0.599334
Si Si6 0.061896 0.275856 0.390573
Si Si7 0.142244 0.763785 0.975474
O O1 0.794840 0.564709 0.313650
O O2 0.802680 0.706556 0.435895
O O3 0.695305 0.662546 0.084648
O O4 0.887045 0.669517 0.071650
O O5 0.077785 0.609454 0.374121
O O6 0.109266 0.563123 0.778374
O O7 0.942795 0.534393 0.584095
O O8 0.985387 0.672622 0.701154
O O9 0.787082 0.455786 0.633355
O O10 0.819075 0.308649 0.608059
O O11 0.739147 0.355525 0.968070
O O12 0.360800 0.717423 0.781425
O O13 0.175648 0.750537 0.720211
O O14 0.973673 0.226269 0.494605
#
# Coordination Sequence:
#
# PCOD8170962 Si02
#       7
#     4   4   4   4   4   4   4
#     4  10  23  34  54  84 123 149 191 246 302 363
#     4  12  21  32  55  85 123 157 184 232 303 371
#     4  11  21  34  53  81 124 155 191 237 301 365
#     4  12  21  32  51  85 122 159 188 230 309 375
#     4  10  21  37  54  81 123 153 195 244 291 352
#     4  11  20  36  57  82 120 158 201 243 298 363
#     4  10  21  37  54  80 119 151 198 244 292 357
#
# _framework density 19.242270999999999
#
# number of rings (size 3 to 8) (size 9 to 14) (size 15 to 20)
#    0.000    1.143    5.714    1.714    0.000    0.000 
#    0.000    0.000    0.000    0.000    0.000    0.000 
#  192.857    0.000    0.000    0.000    0.000    0.000 
#
# Total GULP energy -347086.659171 kJ/mol
# GULP energy per Si atom -12395.952113 kJ/mol
# Density = 1.919847 g / cm^3
# Si number density = 19.242271 Si / 1000 Ang^3
#
#
#
# Elastic Constant Matrix: (Units=GPa)
#
#
# Indices 1 2 3 4 5 6 
#
# 1 91.8388 45.8923 30.6194 0.0000 0.0000 0.0000
# 2 45.8923 87.7216 45.0912 0.0000 0.0000 0.0000
# 3 30.6194 45.0912 85.6267 0.0000 0.0000 0.0000
# 4 0.0000 0.0000 0.0000 43.5869 0.0000 0.0000
# 5 0.0000 0.0000 0.0000 0.0000 33.3382 0.0000
# 6 0.0000 0.0000 0.0000 0.0000 0.0000 27.6572
#
#
#
# Elastic Compliance Matrix: (Units=1/GPa)
#
#
# Indices 1 2 3 4 5 6 
#
# 1 0.014917 -0.006941 -0.001679 0.000000 0.000000 0.000000
# 2 -0.006941 0.018860 -0.007450 0.000000 0.000000 0.000000
# 3 -0.001679 -0.007450 0.016202 0.000000 0.000000 0.000000
# 4 0.000000 0.000000 0.000000 0.022943 0.000000 0.000000
# 5 0.000000 0.000000 0.000000 0.000000 0.029996 0.000000
# 6 0.000000 0.000000 0.000000 0.000000 0.000000 0.036157
#
#
# Mechanical properties :
#
#
# Convention : Reuss Voigt Hill
#
# Bulk Modulus (GPa) = 56.05472 56.48810 56.27141
# Shear Modulus (GPa) = 28.22299 30.48874 29.35586
#
# Velocity S-wave (km/s) = 3.83393 3.98485 3.91012
# Velocity P-wave (km/s) = 6.98520 7.11281 7.04929
#
# Compressibility (1/GPa) = 0.01783971
#
# Stress axis : x y z
#
# Youngs Moduli (GPa) = 67.03859 53.02157 61.72013
#
# Poissons Ratio (x) = 0.36801 0.10364
# Poissons Ratio (y) = 0.46530 0.45981
# Poissons Ratio (z) = 0.11257 0.39500
#
# Static dielectric constant tensor:
#      x y z
#    x 3.875740 0.000000 0.000000 
#    y 0.000000 3.400690 0.000000 
#    z 0.000000 0.000000 3.944660 
# 
# 
# High freq. dielectric constant tensor:
#      x y z
#    x 1.723920 0.000000 0.000000 
#    y 0.000000 1.720330 0.000000 
#    z 0.000000 0.000000 1.775530 
# 
# From -- ./inp_files/940.got.cif
#   From: 2010.03.12/outbox.cif.g09.slc.cpg/sg33_1_cif.got.tgz:940.got - 2010.04.14 01:49:19.
