data_PCOD8170029
_publ_section_title
;
Structure prediction by ZEFSAII (Michael W. Deem and Ramdas Pophale) SiO2 
 PCOD8170029
Probable space group: P M N 21
;
_chemical_formula_sum "Si O2"
_cell_formula_units_Z 22
_cell_length_a 10.513612
_cell_length_b 8.919086
_cell_length_c 13.446446
_cell_angle_alpha 90.000000
_cell_angle_beta 90.000000
_cell_angle_gamma 90.000000
_cell_volume 1260.897574
_symmetry_space_group_name_H-M "P M N 21"
_symmetry_group_IT_number 31
_symmetry_cell_setting 'orthorhombic'
loop_
_space_group_symop_operation_xyz
x,y,z
1/2-x,-y,1/2+z
-x,y,z
1/2+x,-y,1/2+z
loop_
_atom_site_type_symbol
_atom_site_label
_atom_site_fract_x
_atom_site_fract_y
_atom_site_fract_z
Si Si1 0.252350 0.740547 0.980710
Si Si2 0.000000 0.166060 0.374312
Si Si3 0.000000 0.919255 0.003772
Si Si4 0.000000 0.254598 0.998060
Si Si5 0.706938 0.356230 0.699376
Si Si6 0.500000 0.123472 0.734897
Si Si7 0.139303 0.471633 0.874835
Si Si8 0.500000 0.605652 0.699393
O O1 0.375479 0.832116 0.944328
O O2 0.241319 0.591109 0.913929
O O3 0.125286 0.836715 0.964240
O O4 0.267776 0.698314 0.096041
O O5 0.000000 0.314014 0.305779
O O6 0.000000 0.013806 0.311156
O O7 0.000000 0.932816 0.122272
O O8 0.000000 0.085288 0.959631
O O9 0.000000 0.263458 0.117305
O O10 0.873882 0.337073 0.955182
O O11 0.624891 0.225174 0.751721
O O12 0.821404 0.400078 0.770645
O O13 0.622202 0.502726 0.681120
O O14 0.000000 0.548221 0.860514
#
# Coordination Sequence:
#
# PCOD8170029 Si02
#       8
#     4   2   2   2   4   2   4   2
#     4  11  22  38  58  86 117 150 189 242 285 341
#     4  12  24  33  57  93 117 144 189 247 298 324
#     4  10  20  40  61  76 113 159 187 223 286 353
#     4  10  20  33  57  86 103 147 202 232 262 346
#     4  10  20  38  57  81 115 150 190 235 288 337
#     4   9  22  37  57  79 112 152 188 231 286 348
#     4  10  20  34  57  82 109 148 195 232 273 342
#     4  11  18  35  60  82 107 148 200 231 268 349
#
# _framework density 17.447887999999999
#
# number of rings (size 3 to 8) (size 9 to 14) (size 15 to 20)
#    0.545    1.091    5.455    0.545    3.818    0.000 
#    0.000    0.000    0.000    0.000    2.364    0.000 
#    0.000    0.000    0.000    0.000    0.000    0.000 
#
# Total GULP energy -272730.585377 kJ/mol
# GULP energy per Si atom -12396.844790 kJ/mol
# Density = 1.740818 g / cm^3
# Si number density = 17.447888 Si / 1000 Ang^3
#
#
#
# Elastic Constant Matrix: (Units=GPa)
#
#
# Indices 1 2 3 4 5 6 
#
# 1 93.9464 32.2015 49.2199 0.0000 0.0000 0.0000
# 2 32.2015 102.1112 37.8079 0.0000 0.0000 0.0000
# 3 49.2199 37.8079 91.7461 0.0000 0.0000 0.0000
# 4 0.0000 0.0000 0.0000 29.3967 0.0000 0.0000
# 5 0.0000 0.0000 0.0000 0.0000 29.7579 0.0000
# 6 0.0000 0.0000 0.0000 0.0000 0.0000 10.2994
#
#
#
# Elastic Compliance Matrix: (Units=1/GPa)
#
#
# Indices 1 2 3 4 5 6 
#
# 1 0.015175 -0.002090 -0.007280 0.000000 0.000000 0.000000
# 2 -0.002090 0.011844 -0.003760 0.000000 0.000000 0.000000
# 3 -0.007280 -0.003760 0.016354 0.000000 0.000000 0.000000
# 4 0.000000 0.000000 0.000000 0.034017 0.000000 0.000000
# 5 0.000000 0.000000 0.000000 0.000000 0.033605 0.000000
# 6 0.000000 0.000000 0.000000 0.000000 0.000000 0.097093
#
#
# Mechanical properties :
#
#
# Convention : Reuss Voigt Hill
#
# Bulk Modulus (GPa) = 58.42942 58.47361 58.45151
# Shear Modulus (GPa) = 20.82884 25.12909 22.97896
#
# Velocity S-wave (km/s) = 3.45885 3.79916 3.63299
# Velocity P-wave (km/s) = 7.03649 7.26849 7.15343
#
# Compressibility (1/GPa) = 0.01711467
#
# Stress axis : x y z
#
# Youngs Moduli (GPa) = 65.89934 84.42772 61.14575
#
# Poissons Ratio (x) = 0.17646 0.44512
# Poissons Ratio (y) = 0.13774 0.22989
# Poissons Ratio (z) = 0.47972 0.31743
#
# Static dielectric constant tensor:
#      x y z
#    x 3.121040 0.000000 0.000000 
#    y 0.000000 3.165690 0.000000 
#    z 0.000000 0.000000 3.113820 
# 
# 
# High freq. dielectric constant tensor:
#      x y z
#    x 1.662930 0.000000 0.000000 
#    y 0.000000 1.674630 0.000000 
#    z 0.000000 0.000000 1.671590 
# 
# From -- ./inp_files/4786.got.cif
#   From: 2010.03.12/outbox.cif.g09.slc.cpg/sg31_3_cif.got.tgz:4786.got - 2010.04.14 01:42:59.
