data_PCOD8170437
_publ_section_title
;
Structure prediction by ZEFSAII (Michael W. Deem and Ramdas Pophale) SiO2 
 PCOD8170437
Probable space group: P B A 2
;
_chemical_formula_sum "Si O2"
_cell_formula_units_Z 28
_cell_length_a 18.908391
_cell_length_b 8.894354
_cell_length_c 8.462450
_cell_angle_alpha 90.000000
_cell_angle_beta 90.000000
_cell_angle_gamma 90.000000
_cell_volume 1423.197266
_symmetry_space_group_name_H-M "P B A 2"
_symmetry_group_IT_number 32
_symmetry_cell_setting 'orthorhombic'
loop_
_space_group_symop_operation_xyz
x,y,z
-x,-y,z
1/2-x,1/2+y,z
1/2+x,1/2-y,z
loop_
_atom_site_type_symbol
_atom_site_label
_atom_site_fract_x
_atom_site_fract_y
_atom_site_fract_z
Si Si1 0.776293 0.074355 0.996070
Si Si2 0.422123 0.521008 0.673544
Si Si3 0.531800 0.342789 0.992302
Si Si4 0.892739 0.261188 0.860155
Si Si5 0.808129 0.787738 0.517425
Si Si6 0.330649 0.718790 0.155509
Si Si7 0.201858 0.518274 0.694389
O O1 0.835301 0.205088 0.988769
O O2 0.764313 0.005934 0.821737
O O3 0.703683 0.148624 0.053393
O O4 0.801756 0.945738 0.114006
O O5 0.500000 0.500000 0.598967
O O6 0.423684 0.619989 0.834145
O O7 0.394677 0.355764 0.715709
O O8 0.372191 0.597070 0.545467
O O9 0.500000 0.500000 0.057383
O O10 0.468583 0.226008 0.949163
O O11 0.584809 0.272856 0.122060
O O12 0.867970 0.418001 0.782866
O O13 0.809657 0.746871 0.334383
O O14 0.821127 0.635593 0.613576
O O15 0.733703 0.863761 0.567241
#
# Coordination Sequence:
#
# PCOD8170437 Si02
#       7
#     4   4   4   4   4   4   4
#     4  12  20  38  63  90 114 161 214 262 296 373
#     4   9  18  38  61  87 114 156 213 253 295 376
#     4   9  18  37  63  89 114 158 214 257 300 376
#     4  10  19  36  68  87 111 156 224 261 290 362
#     4  12  23  37  58  94 132 163 196 266 336 382
#     4  12  24  37  60  95 131 158 204 264 332 379
#     4  12  21  38  65  89 120 163 216 257 310 377
#
# _framework density 19.674012000000001
#
# number of rings (size 3 to 8) (size 9 to 14) (size 15 to 20)
#    0.000    1.429    7.143    1.714    0.000    0.571 
#    0.000    6.429    0.000    3.429    0.000    0.000 
#    0.000    0.000    0.000    0.000    0.000    0.000 
#
# Total GULP energy -347206.573689 kJ/mol
# GULP energy per Si atom -12400.234775 kJ/mol
# Density = 1.962923 g / cm^3
# Si number density = 19.674012 Si / 1000 Ang^3
#
#
#
# Elastic Constant Matrix: (Units=GPa)
#
#
# Indices 1 2 3 4 5 6 
#
# 1 109.5299 39.4141 26.6579 0.0000 0.0000 0.0000
# 2 39.4141 84.3616 23.9696 0.0000 0.0000 0.0000
# 3 26.6579 23.9696 68.1340 0.0000 0.0000 0.0000
# 4 0.0000 0.0000 0.0000 23.7531 0.0000 0.0000
# 5 0.0000 0.0000 0.0000 0.0000 27.2115 0.0000
# 6 0.0000 0.0000 0.0000 0.0000 0.0000 35.9485
#
#
#
# Elastic Compliance Matrix: (Units=1/GPa)
#
#
# Indices 1 2 3 4 5 6 
#
# 1 0.011465 -0.004535 -0.002890 0.000000 0.000000 0.000000
# 2 -0.004535 0.014964 -0.003490 0.000000 0.000000 0.000000
# 3 -0.002890 -0.003490 0.017036 0.000000 0.000000 0.000000
# 4 0.000000 0.000000 0.000000 0.042100 0.000000 0.000000
# 5 0.000000 0.000000 0.000000 0.000000 0.036749 0.000000
# 6 0.000000 0.000000 0.000000 0.000000 0.000000 0.027818
#
#
# Mechanical properties :
#
#
# Convention : Reuss Voigt Hill
#
# Bulk Modulus (GPa) = 46.22382 49.12317 47.67349
# Shear Modulus (GPa) = 27.90571 28.84820 28.37696
#
# Velocity S-wave (km/s) = 3.77026 3.83340 3.80196
# Velocity P-wave (km/s) = 6.51912 6.67952 6.59981
#
# Compressibility (1/GPa) = 0.02163387
#
# Stress axis : x y z
#
# Youngs Moduli (GPa) = 87.21829 66.82558 58.70063
#
# Poissons Ratio (x) = 0.30309 0.16967
# Poissons Ratio (y) = 0.39558 0.20486
# Poissons Ratio (z) = 0.25209 0.23322
#
# Static dielectric constant tensor:
#      x y z
#    x 3.694330 0.000000 0.000000 
#    y 0.000000 3.451840 0.000000 
#    z 0.000000 0.000000 3.277010 
# 
# 
# High freq. dielectric constant tensor:
#      x y z
#    x 1.775290 0.000000 0.000000 
#    y 0.000000 1.758400 0.000000 
#    z 0.000000 0.000000 1.735560 
# 
# From -- ./inp_files/2507.got.cif
#   From: 2010.03.12/outbox.cif.g09.slc.cpg/sg32_2_cif.got.tgz:2507.got - 2010.04.14 01:46:39.
