data_PCOD8170660
_publ_section_title
;
Structure prediction by ZEFSAII (Michael W. Deem and Ramdas Pophale) SiO2 
 PCOD8170660
Probable space group: P N A 21
;
_chemical_formula_sum "Si O2"
_cell_formula_units_Z 32
_cell_length_a 8.844014
_cell_length_b 8.700597
_cell_length_c 17.991346
_cell_angle_alpha 90.000000
_cell_angle_beta 90.000000
_cell_angle_gamma 90.000000
_cell_volume 1384.401720
_symmetry_space_group_name_H-M "P N A 21"
_symmetry_group_IT_number 33
_symmetry_cell_setting 'orthorhombic'
loop_
_space_group_symop_operation_xyz
x,y,z
-x,-y,1/2+z
1/2-x,1/2+y,1/2+z
1/2+x,1/2-y,z
loop_
_atom_site_type_symbol
_atom_site_label
_atom_site_fract_x
_atom_site_fract_y
_atom_site_fract_z
Si Si1 0.252886 0.486103 0.154250
Si Si2 0.870746 0.174708 0.415641
Si Si3 0.989162 0.028453 0.561387
Si Si4 0.484006 0.037156 0.762290
Si Si5 0.984226 0.333680 0.068414
Si Si6 0.043773 0.470714 0.421423
Si Si7 0.490490 0.328981 0.258283
Si Si8 0.749097 0.984867 0.673923
O O1 0.353101 0.590366 0.097594
O O2 0.369065 0.374895 0.196690
O O3 0.160900 0.591526 0.213529
O O4 0.140068 0.385208 0.105091
O O5 0.693539 0.135912 0.419004
O O6 0.939000 0.109057 0.338703
O O7 0.897610 0.358520 0.422297
O O8 0.965471 0.098561 0.481380
O O9 0.001032 0.845463 0.552402
O O10 0.855237 0.080507 0.617679
O O11 0.466936 0.083052 0.848706
O O12 0.490986 0.852575 0.759643
O O13 0.636682 0.097620 0.721269
O O14 0.847018 0.366971 0.123851
O O15 0.953086 0.420412 0.991694
O O16 0.653456 0.395550 0.235995
#
# Coordination Sequence:
#
# PCOD8170660 Si02
#       8
#     4   4   4   4   4   4   4   4
#     4  10  19  32  57  92 111 148 193 252 293 330
#     4  11  25  40  58  86 123 159 194 239 294 356
#     4  11  21  37  62  88 119 151 194 243 294 346
#     4  10  18  32  56  84 117 146 194 246 291 333
#     4  11  21  37  62  88 119 151 194 243 294 346
#     4  11  25  40  58  86 123 159 194 239 294 356
#     4  10  18  32  56  84 117 146 194 246 291 333
#     4  10  19  34  59  90 117 144 195 252 293 330
#
# _framework density 23.114677
#
# number of rings (size 3 to 8) (size 9 to 14) (size 15 to 20)
#    0.000    1.500    2.500    6.000    7.000    0.000 
#    0.000    0.000    0.000    9.000    0.000    0.000 
#    0.000    0.000    0.000    0.000    0.000    0.000 
#
# Total GULP energy -396604.885651 kJ/mol
# GULP energy per Si atom -12393.902677 kJ/mol
# Density = 2.306207 g / cm^3
# Si number density = 23.114677 Si / 1000 Ang^3
#
#
#
# Elastic Constant Matrix: (Units=GPa)
#
#
# Indices 1 2 3 4 5 6 
#
# 1 133.5179 12.0763 47.8168 0.0000 0.0000 0.0000
# 2 12.0763 10.1741 28.9171 0.0000 0.0000 0.0000
# 3 47.8168 28.9171 167.8652 0.0000 0.0000 0.0000
# 4 0.0000 0.0000 0.0000 25.5080 0.0000 0.0000
# 5 0.0000 0.0000 0.0000 0.0000 34.9858 0.0000
# 6 0.0000 0.0000 0.0000 0.0000 0.0000 6.7700
#
#
#
# Elastic Compliance Matrix: (Units=1/GPa)
#
#
# Indices 1 2 3 4 5 6 
#
# 1 0.008543 -0.006316 -0.001345 0.000000 0.000000 0.000000
# 2 -0.006316 0.197247 -0.032179 0.000000 0.000000 0.000000
# 3 -0.001345 -0.032179 0.011884 0.000000 0.000000 0.000000
# 4 0.000000 0.000000 0.000000 0.039203 0.000000 0.000000
# 5 0.000000 0.000000 0.000000 0.000000 0.028583 0.000000
# 6 0.000000 0.000000 0.000000 0.000000 0.000000 0.147710
#
#
# Mechanical properties :
#
#
# Convention : Reuss Voigt Hill
#
# Bulk Modulus (GPa) = 7.24680 54.35304 30.79992
# Shear Modulus (GPa) = 8.94697 28.30258 18.62478
#
# Velocity S-wave (km/s) = 1.96954 3.50300 2.84166
# Velocity P-wave (km/s) = 2.88341 6.31877 4.91126
#
# Compressibility (1/GPa) = 0.13799203
#
# Stress axis : x y z
#
# Youngs Moduli (GPa) = 117.05873 5.06979 84.14867
#
# Poissons Ratio (x) = 0.03202 0.11321
# Poissons Ratio (y) = 0.73934 2.70785
# Poissons Ratio (z) = 0.15749 0.16314
#
# Static dielectric constant tensor:
#      x y z
#    x 4.785840 0.000000 0.000000 
#    y 0.000000 3.430490 0.000000 
#    z 0.000000 0.000000 4.981630 
# 
# 
# High freq. dielectric constant tensor:
#      x y z
#    x 1.938110 0.000000 0.000000 
#    y 0.000000 1.848280 0.000000 
#    z 0.000000 0.000000 1.940680 
# 
# From -- ./inp_files/8549.got.cif
#   From: 2010.03.12/outbox.cif.g09.slc.cpg/sg33_5_cif.got.tgz:8549.got - 2010.04.14 01:49:19.
