data_PCOD8170161
_publ_section_title
;
Structure prediction by ZEFSAII (Michael W. Deem and Ramdas Pophale) SiO2 
 PCOD8170161
Probable space group: P M N 21
;
_chemical_formula_sum "Si O2"
_cell_formula_units_Z 32
_cell_length_a 8.920626
_cell_length_b 16.043373
_cell_length_c 10.811007
_cell_angle_alpha 90.000000
_cell_angle_beta 90.000000
_cell_angle_gamma 90.000000
_cell_volume 1547.238135
_symmetry_space_group_name_H-M "P M N 21"
_symmetry_group_IT_number 31
_symmetry_cell_setting 'orthorhombic'
loop_
_space_group_symop_operation_xyz
x,y,z
1/2-x,-y,1/2+z
-x,y,z
1/2+x,-y,1/2+z
loop_
_atom_site_type_symbol
_atom_site_label
_atom_site_fract_x
_atom_site_fract_y
_atom_site_fract_z
Si Si1 0.674446 0.066470 0.795020
Si Si2 0.836556 0.644344 0.984453
Si Si3 0.665849 0.174450 0.381105
Si Si4 0.323738 0.240226 0.904703
Si Si5 0.177296 0.040187 0.534538
Si Si6 0.675891 0.393288 0.750525
Si Si7 0.674455 0.576511 0.769806
Si Si8 0.177705 0.251215 0.160295
O O1 0.500000 0.048406 0.774054
O O2 0.706819 0.165636 0.806754
O O3 0.756221 0.026506 0.673909
O O4 0.726233 0.026139 0.927198
O O5 0.782671 0.651837 0.124054
O O6 0.000000 0.598817 0.976387
O O7 0.855805 0.734706 0.932161
O O8 0.710504 0.592837 0.912799
O O9 0.500000 0.133967 0.361255
O O10 0.762403 0.127314 0.483526
O O11 0.753704 0.181488 0.251593
O O12 0.500000 0.243084 0.936976
O O13 0.263269 0.329407 0.854073
O O14 0.228972 0.222302 0.026454
O O15 0.000000 0.041454 0.549909
O O16 0.500000 0.402827 0.772971
O O17 0.749279 0.485950 0.744085
O O18 0.500000 0.571386 0.745789
O O19 0.738744 0.654097 0.688556
O O20 0.000000 0.248375 0.174586
#
# Coordination Sequence:
#
# PCOD8170161 Si02
#       8
#     4   4   4   4   4   4   4   4
#     4  10  24  44  64  92 127 164 209 256 306 370
#     4   9  18  34  56  78 103 141 190 235 281 350
#     4  10  20  37  62  87 114 155 201 244 299 362
#     4  10  21  39  61  84 116 158 207 251 298 367
#     4  11  24  41  65  97 128 161 205 257 311 366
#     4   9  18  33  55  78 107 149 191 236 291 350
#     4   9  19  34  51  78 114 149 185 237 296 349
#     4  10  21  36  56  86 123 157 196 250 308 362
#
# _framework density 20.682012
#
# number of rings (size 3 to 8) (size 9 to 14) (size 15 to 20)
#    0.000    2.250    0.000    1.875    3.500    4.500 
#    0.000    1.250    0.000    0.000    0.000    0.000 
#    0.000    0.000    0.000    0.000    0.000    0.000 
#
# Total GULP energy -396474.258200 kJ/mol
# GULP energy per Si atom -12389.820569 kJ/mol
# Density = 2.063494 g / cm^3
# Si number density = 20.682012 Si / 1000 Ang^3
#
#
#
# Elastic Constant Matrix: (Units=GPa)
#
#
# Indices 1 2 3 4 5 6 
#
# 1 47.6634 31.0628 37.0721 0.0000 0.0000 0.0000
# 2 31.0628 58.4397 34.3096 0.0000 0.0000 0.0000
# 3 37.0721 34.3096 128.0794 0.0000 0.0000 0.0000
# 4 0.0000 0.0000 0.0000 17.0063 0.0000 0.0000
# 5 0.0000 0.0000 0.0000 0.0000 35.8392 0.0000
# 6 0.0000 0.0000 0.0000 0.0000 0.0000 22.0335
#
#
#
# Elastic Compliance Matrix: (Units=1/GPa)
#
#
# Indices 1 2 3 4 5 6 
#
# 1 0.035887 -0.015398 -0.006262 0.000000 0.000000 0.000000
# 2 -0.015398 0.026912 -0.002752 0.000000 0.000000 0.000000
# 3 -0.006262 -0.002752 0.010358 0.000000 0.000000 0.000000
# 4 0.000000 0.000000 0.000000 0.058802 0.000000 0.000000
# 5 0.000000 0.000000 0.000000 0.000000 0.027902 0.000000
# 6 0.000000 0.000000 0.000000 0.000000 0.000000 0.045385
#
#
# Mechanical properties :
#
#
# Convention : Reuss Voigt Hill
#
# Bulk Modulus (GPa) = 41.10072 48.78571 44.94322
# Shear Modulus (GPa) = 19.07072 23.75834 21.41453
#
# Velocity S-wave (km/s) = 3.03989 3.39299 3.22128
# Velocity P-wave (km/s) = 5.67777 6.24416 5.96769
#
# Compressibility (1/GPa) = 0.02433047
#
# Stress axis : x y z
#
# Youngs Moduli (GPa) = 27.86553 37.15776 96.54819
#
# Poissons Ratio (x) = 0.57217 0.60462
# Poissons Ratio (y) = 0.42909 0.26572
# Poissons Ratio (z) = 0.17450 0.10226
#
# Static dielectric constant tensor:
#      x y z
#    x 3.792200 0.000000 0.000000 
#    y 0.000000 4.021100 0.000000 
#    z 0.000000 0.000000 3.828880 
# 
# 
# High freq. dielectric constant tensor:
#      x y z
#    x 1.785670 0.000000 0.000000 
#    y 0.000000 1.813090 0.000000 
#    z 0.000000 0.000000 1.813340 
# 
# From -- ./inp_files/3661.got.cif
#   From: 2010.03.12/outbox.cif.g09.slc.cpg/sg31_2_cif.got.tgz:3661.got - 2010.04.14 01:42:59.
