data_PCOD8170414
_publ_section_title
;
Structure prediction by ZEFSAII (Michael W. Deem and Ramdas Pophale) SiO2 
 PCOD8170414
Probable space group: P B A 2
;
_chemical_formula_sum "Si O2"
_cell_formula_units_Z 30
_cell_length_a 11.209220
_cell_length_b 14.567098
_cell_length_c 9.261664
_cell_angle_alpha 90.000000
_cell_angle_beta 90.000000
_cell_angle_gamma 90.000000
_cell_volume 1512.298273
_symmetry_space_group_name_H-M "P B A 2"
_symmetry_group_IT_number 32
_symmetry_cell_setting 'orthorhombic'
loop_
_space_group_symop_operation_xyz
x,y,z
-x,-y,z
1/2-x,1/2+y,z
1/2+x,1/2-y,z
loop_
_atom_site_type_symbol
_atom_site_label
_atom_site_fract_x
_atom_site_fract_y
_atom_site_fract_z
Si Si1 0.547506 0.395908 0.314340
Si Si2 0.216231 0.617226 0.826763
Si Si3 0.454374 0.598309 0.993246
Si Si4 0.282788 0.087329 0.490724
Si Si5 0.127454 0.805552 0.770129
Si Si6 0.500000 0.000000 0.787446
Si Si7 0.483646 0.231017 0.493592
Si Si8 0.668516 0.104576 0.585352
O O1 0.500000 0.500000 0.333347
O O2 0.675668 0.386684 0.387315
O O3 0.464175 0.321298 0.395466
O O4 0.556098 0.356193 0.151428
O O5 0.326262 0.587130 0.922243
O O6 0.248310 0.601956 0.659120
O O7 0.196993 0.725163 0.854644
O O8 0.102635 0.554088 0.877164
O O9 0.500000 0.500000 0.034579
O O10 0.550489 0.643467 0.889243
O O11 0.393816 0.150582 0.442829
O O12 0.307080 0.978433 0.473890
O O13 0.038135 0.759398 0.658193
O O14 0.217005 0.872756 0.684257
O O15 0.558965 0.077983 0.688959
O O16 0.620442 0.191794 0.492388
#
# Coordination Sequence:
#
# PCOD8170414 Si02
#       8
#     4   4   4   4   4   2   4   4
#     4  11  25  40  57  81 124 165 209 248 301 363
#     4  10  21  37  64  92 121 153 202 253 313 363
#     4  11  24  42  56  84 122 165 204 252 300 371
#     4  10  20  37  63  90 118 155 196 253 307 367
#     4  11  21  34  65  93 121 150 201 250 311 363
#     4  10  18  36  60  92 122 154 188 258 308 366
#     4  11  20  38  61  93 120 154 197 253 309 365
#     4  11  18  35  63  98 123 147 192 259 309 364
#
# _framework density 19.837354999999999
#
# number of rings (size 3 to 8) (size 9 to 14) (size 15 to 20)
#    0.000    1.333    4.000    5.600    0.000    2.133 
#    0.000    1.333    2.933    0.000    0.000    0.000 
#    0.000    0.000    0.000    0.000    0.000    0.000 
#
# Total GULP energy -371840.570545 kJ/mol
# GULP energy per Si atom -12394.685685 kJ/mol
# Density = 1.979220 g / cm^3
# Si number density = 19.837355 Si / 1000 Ang^3
#
#
#
# Elastic Constant Matrix: (Units=GPa)
#
#
# Indices 1 2 3 4 5 6 
#
# 1 109.8447 43.5420 49.2817 0.0000 0.0000 0.0000
# 2 43.5420 116.7795 36.0798 0.0000 0.0000 0.0000
# 3 49.2817 36.0798 78.5407 0.0000 0.0000 0.0000
# 4 0.0000 0.0000 0.0000 35.1520 0.0000 0.0000
# 5 0.0000 0.0000 0.0000 0.0000 55.5924 0.0000
# 6 0.0000 0.0000 0.0000 0.0000 0.0000 35.2747
#
#
#
# Elastic Compliance Matrix: (Units=1/GPa)
#
#
# Indices 1 2 3 4 5 6 
#
# 1 0.013412 -0.002798 -0.007130 0.000000 0.000000 0.000000
# 2 -0.002798 0.010563 -0.003097 0.000000 0.000000 0.000000
# 3 -0.007130 -0.003097 0.018629 0.000000 0.000000 0.000000
# 4 0.000000 0.000000 0.000000 0.028448 0.000000 0.000000
# 5 0.000000 0.000000 0.000000 0.000000 0.017988 0.000000
# 6 0.000000 0.000000 0.000000 0.000000 0.000000 0.028349
#
#
# Mechanical properties :
#
#
# Convention : Reuss Voigt Hill
#
# Bulk Modulus (GPa) = 60.40856 62.55241 61.48049
# Shear Modulus (GPa) = 33.56686 36.95459 35.26072
#
# Velocity S-wave (km/s) = 4.11798 4.32079 4.22060
# Velocity P-wave (km/s) = 7.28892 7.51621 7.40344
#
# Compressibility (1/GPa) = 0.01655394
#
# Stress axis : x y z
#
# Youngs Moduli (GPa) = 74.56158 94.66889 53.68002
#
# Poissons Ratio (x) = 0.26486 0.38275
# Poissons Ratio (y) = 0.20860 0.16625
# Poissons Ratio (z) = 0.53164 0.29319
#
# Static dielectric constant tensor:
#      x y z
#    x 3.669620 0.000000 0.000000 
#    y 0.000000 2.735930 0.000000 
#    z 0.000000 0.000000 3.270320 
# 
# 
# High freq. dielectric constant tensor:
#      x y z
#    x 1.783120 0.000000 0.000000 
#    y 0.000000 1.795350 0.000000 
#    z 0.000000 0.000000 1.730360 
# 
# From -- ./inp_files/2833.got.cif
#   From: 2010.03.12/outbox.cif.g09.slc.cpg/sg32_2_cif.got.tgz:2833.got - 2010.04.14 01:46:39.
