data_PCOD8170113
_publ_section_title
;
Structure prediction by ZEFSAII (Michael W. Deem and Ramdas Pophale) SiO2 
 PCOD8170113
Probable space group: P M N 21
;
_chemical_formula_sum "Si O2"
_cell_formula_units_Z 32
_cell_length_a 20.088164
_cell_length_b 9.594848
_cell_length_c 8.050905
_cell_angle_alpha 90.000000
_cell_angle_beta 90.000000
_cell_angle_gamma 90.000000
_cell_volume 1551.754618
_symmetry_space_group_name_H-M "P M N 21"
_symmetry_group_IT_number 31
_symmetry_cell_setting 'orthorhombic'
loop_
_space_group_symop_operation_xyz
x,y,z
1/2-x,-y,1/2+z
-x,y,z
1/2+x,-y,1/2+z
loop_
_atom_site_type_symbol
_atom_site_label
_atom_site_fract_x
_atom_site_fract_y
_atom_site_fract_z
Si Si1 0.133088 0.649693 0.609740
Si Si2 0.424655 0.953368 0.803344
Si Si3 0.223722 0.869013 0.758282
Si Si4 0.073496 0.731909 0.285070
Si Si5 0.838849 0.384385 0.759340
Si Si6 0.155731 0.265509 0.119024
Si Si7 0.311357 0.458429 0.794058
Si Si8 0.182394 0.120789 0.560927
O O1 0.161213 0.766076 0.735016
O O2 0.076917 0.715446 0.488735
O O3 0.111629 0.515027 0.720421
O O4 0.189546 0.579727 0.489461
O O5 0.500000 0.925920 0.862430
O O6 0.405588 0.834917 0.669235
O O7 0.375453 0.954486 0.959227
O O8 0.417888 0.108364 0.726750
O O9 0.278167 0.829190 0.618167
O O10 0.253203 0.855228 0.943388
O O11 0.202525 0.027526 0.719642
O O12 0.133032 0.641146 0.202669
O O13 0.000000 0.678513 0.230560
O O14 0.762767 0.432717 0.733241
O O15 0.849598 0.262418 0.627410
O O16 0.857691 0.333285 0.942166
O O17 0.166316 0.382916 0.261055
#
# Coordination Sequence:
#
# PCOD8170113 Si02
#       8
#     4   4   4   4   4   4   4   4
#     4  10  20  36  56  88 117 158 196 245 303 358
#     4  10  22  42  63  85 117 164 211 251 302 364
#     4  11  20  36  55  88 124 151 204 243 309 365
#     4   9  20  40  64  85 113 157 210 248 288 363
#     4  12  22  37  56  93 127 155 194 251 321 370
#     4  11  22  35  59  88 123 159 196 254 304 368
#     4  10  20  36  57  91 120 153 195 248 305 363
#     4  11  24  36  60  92 121 165 196 256 308 369
#
# _framework density 20.621818000000001
#
# number of rings (size 3 to 8) (size 9 to 14) (size 15 to 20)
#    0.750    0.750    3.750    2.250    5.250    0.500 
#    0.000    1.250    0.000    0.000    0.000    0.000 
#    0.000    0.000    0.000    0.000    0.000    0.000 
#
# Total GULP energy -396509.451452 kJ/mol
# GULP energy per Si atom -12390.920358 kJ/mol
# Density = 2.057488 g / cm^3
# Si number density = 20.621818 Si / 1000 Ang^3
#
#
#
# Elastic Constant Matrix: (Units=GPa)
#
#
# Indices 1 2 3 4 5 6 
#
# 1 57.4905 19.8092 -7.2197 0.0000 0.0000 0.0000
# 2 19.8092 112.7014 20.3541 0.0000 0.0000 0.0000
# 3 -7.2197 20.3541 57.2680 0.0000 0.0000 0.0000
# 4 0.0000 0.0000 0.0000 33.1843 0.0000 0.0000
# 5 0.0000 0.0000 0.0000 0.0000 12.0943 0.0000
# 6 0.0000 0.0000 0.0000 0.0000 0.0000 21.6950
#
#
#
# Elastic Compliance Matrix: (Units=1/GPa)
#
#
# Indices 1 2 3 4 5 6 
#
# 1 0.019293 -0.004093 0.003887 0.000000 0.000000 0.000000
# 2 -0.004093 0.010350 -0.004195 0.000000 0.000000 0.000000
# 3 0.003887 -0.004195 0.019443 0.000000 0.000000 0.000000
# 4 0.000000 0.000000 0.000000 0.030135 0.000000 0.000000
# 5 0.000000 0.000000 0.000000 0.000000 0.082683 0.000000
# 6 0.000000 0.000000 0.000000 0.000000 0.000000 0.046094
#
#
# Mechanical properties :
#
#
# Convention : Reuss Voigt Hill
#
# Bulk Modulus (GPa) = 24.82385 32.59413 28.70899
# Shear Modulus (GPa) = 21.71778 26.36247 24.04013
#
# Velocity S-wave (km/s) = 3.24874 3.57932 3.41803
# Velocity P-wave (km/s) = 5.11236 5.73777 5.43407
#
# Compressibility (1/GPa) = 0.04028384
#
# Stress axis : x y z
#
# Youngs Moduli (GPa) = 51.83337 96.61867 51.43348
#
# Poissons Ratio (x) = 0.39546 -0.19992
# Poissons Ratio (y) = 0.21215 0.21574
# Poissons Ratio (z) = -0.20147 0.40527
#
# Static dielectric constant tensor:
#      x y z
#    x 3.396120 0.000000 0.000000 
#    y 0.000000 3.996150 0.000000 
#    z 0.000000 0.000000 3.392040 
# 
# 
# High freq. dielectric constant tensor:
#      x y z
#    x 1.768810 0.000000 0.000000 
#    y 0.000000 1.829460 0.000000 
#    z 0.000000 0.000000 1.782750 
# 
# From -- ./inp_files/3089.got.cif
#   From: 2010.03.12/outbox.cif.g09.slc.cpg/sg31_2_cif.got.tgz:3089.got - 2010.04.14 01:42:59.
