data_PCOD8170432
_publ_section_title
;
Structure prediction by ZEFSAII (Michael W. Deem and Ramdas Pophale) SiO2 
 PCOD8170432
Probable space group: P B A 2
;
_chemical_formula_sum "Si O2"
_cell_formula_units_Z 22
_cell_length_a 8.587343
_cell_length_b 15.732218
_cell_length_c 7.678336
_cell_angle_alpha 90.000000
_cell_angle_beta 90.000000
_cell_angle_gamma 90.000000
_cell_volume 1037.327469
_symmetry_space_group_name_H-M "P B A 2"
_symmetry_group_IT_number 32
_symmetry_cell_setting 'orthorhombic'
loop_
_space_group_symop_operation_xyz
x,y,z
-x,-y,z
1/2-x,1/2+y,z
1/2+x,1/2-y,z
loop_
_atom_site_type_symbol
_atom_site_label
_atom_site_fract_x
_atom_site_fract_y
_atom_site_fract_z
Si Si1 0.330233 0.842790 0.940350
Si Si2 0.739812 0.212882 0.299846
Si Si3 0.970703 0.834221 0.852754
Si Si4 0.000000 0.500000 0.014065
Si Si5 0.761441 0.888633 0.162181
Si Si6 0.044060 0.155282 0.462790
O O1 0.425007 0.764668 0.859232
O O2 0.421643 0.929217 0.888042
O O3 0.153928 0.844079 0.877193
O O4 0.337330 0.845453 0.151766
O O5 0.812673 0.293856 0.190001
O O6 0.611463 0.248796 0.434355
O O7 0.863759 0.158940 0.408739
O O8 0.931810 0.872071 0.661972
O O9 0.875917 0.888160 0.994479
O O10 0.870094 0.458370 0.138947
O O11 0.864838 0.910310 0.334934
#
# Coordination Sequence:
#
# PCOD8170432 Si02
#       6
#     4   4   4   2   4   4
#     4  11  21  39  65  95 125 170 214 265 327 383
#     4   9  17  37  61  92 118 152 217 258 300 381
#     4  11  21  40  69  93 122 166 224 265 310 385
#     4  12  24  40  66  88 138 180 202 272 336 384
#     4   9  22  39  61  94 124 165 212 254 324 383
#     4  10  19  35  66  94 117 154 212 269 307 358
#
# _framework density 21.208347
#
# number of rings (size 3 to 8) (size 9 to 14) (size 15 to 20)
#    1.091    0.727    1.818    4.364    0.000    0.727 
#    0.000    0.909   12.000    0.000    0.000    0.000 
#    0.000    0.000    0.000    0.000    0.000    0.000 
#
# Total GULP energy -272619.837240 kJ/mol
# GULP energy per Si atom -12391.810784 kJ/mol
# Density = 2.116008 g / cm^3
# Si number density = 21.208347 Si / 1000 Ang^3
#
#
#
# Elastic Constant Matrix: (Units=GPa)
#
#
# Indices 1 2 3 4 5 6 
#
# 1 114.4467 30.2638 41.3976 0.0000 0.0000 0.0000
# 2 30.2638 59.4164 12.3270 0.0000 0.0000 0.0000
# 3 41.3976 12.3270 151.8920 0.0000 0.0000 0.0000
# 4 0.0000 0.0000 0.0000 8.9963 0.0000 0.0000
# 5 0.0000 0.0000 0.0000 0.0000 26.2429 0.0000
# 6 0.0000 0.0000 0.0000 0.0000 0.0000 41.4075
#
#
#
# Elastic Compliance Matrix: (Units=1/GPa)
#
#
# Indices 1 2 3 4 5 6 
#
# 1 0.011016 -0.005074 -0.002591 0.000000 0.000000 0.000000
# 2 -0.005074 0.019455 -0.000196 0.000000 0.000000 0.000000
# 3 -0.002591 -0.000196 0.007306 0.000000 0.000000 0.000000
# 4 0.000000 0.000000 0.000000 0.111156 0.000000 0.000000
# 5 0.000000 0.000000 0.000000 0.000000 0.038106 0.000000
# 6 0.000000 0.000000 0.000000 0.000000 0.000000 0.024150
#
#
# Mechanical properties :
#
#
# Convention : Reuss Voigt Hill
#
# Bulk Modulus (GPa) = 45.33851 54.85911 50.09881
# Shear Modulus (GPa) = 21.34355 31.44713 26.39534
#
# Velocity S-wave (km/s) = 3.17578 3.85485 3.53168
# Velocity P-wave (km/s) = 5.90521 6.76285 6.34853
#
# Compressibility (1/GPa) = 0.02205631
#
# Stress axis : x y z
#
# Youngs Moduli (GPa) = 90.77296 51.39970 136.88069
#
# Poissons Ratio (x) = 0.26079 0.35462
# Poissons Ratio (y) = 0.46056 0.02684
# Poissons Ratio (z) = 0.23517 0.01008
#
# Static dielectric constant tensor:
#      x y z
#    x 3.753820 0.000000 0.000000 
#    y 0.000000 3.487340 0.000000 
#    z 0.000000 0.000000 3.683660 
# 
# 
# High freq. dielectric constant tensor:
#      x y z
#    x 1.840790 0.000000 0.000000 
#    y 0.000000 1.794510 0.000000 
#    z 0.000000 0.000000 1.814880 
# 
# From -- ./inp_files/2381.got.cif
#   From: 2010.03.12/outbox.cif.g09.slc.cpg/sg32_2_cif.got.tgz:2381.got - 2010.04.14 01:46:39.
