data_PCOD8170283
_publ_section_title
;
Structure prediction by ZEFSAII (Michael W. Deem and Ramdas Pophale) SiO2 
 PCOD8170283
Probable space group: P M N 21
;
_chemical_formula_sum "Si O2"
_cell_formula_units_Z 32
_cell_length_a 8.721142
_cell_length_b 15.450957
_cell_length_c 12.062522
_cell_angle_alpha 90.000000
_cell_angle_beta 90.000000
_cell_angle_gamma 90.000000
_cell_volume 1625.424719
_symmetry_space_group_name_H-M "P M N 21"
_symmetry_group_IT_number 31
_symmetry_cell_setting 'orthorhombic'
loop_
_space_group_symop_operation_xyz
x,y,z
1/2-x,-y,1/2+z
-x,y,z
1/2+x,-y,1/2+z
loop_
_atom_site_type_symbol
_atom_site_label
_atom_site_fract_x
_atom_site_fract_y
_atom_site_fract_z
Si Si1 0.825709 0.907353 0.897090
Si Si2 0.821477 0.345278 0.176012
Si Si3 0.819076 0.101997 0.944747
Si Si4 0.180404 0.592438 0.890633
Si Si5 0.325413 0.168895 0.165644
Si Si6 0.818168 0.250569 0.777524
Si Si7 0.181061 0.249284 0.526420
Si Si8 0.682037 0.599189 0.435227
O O1 0.810456 0.898982 0.765056
O O2 0.000000 0.892690 0.935868
O O3 0.770249 0.004347 0.919329
O O4 0.724975 0.838783 0.964289
O O5 0.723247 0.400402 0.262089
O O6 0.790098 0.245093 0.197969
O O7 0.000000 0.365987 0.192316
O O8 0.761486 0.366681 0.053604
O O9 0.767114 0.164452 0.844040
O O10 0.000000 0.112571 0.967194
O O11 0.724629 0.124872 0.053017
O O12 0.244158 0.498246 0.924456
O O13 0.000000 0.600366 0.906774
O O14 0.256253 0.666542 0.964348
O O15 0.500000 0.203215 0.155549
O O16 0.752905 0.247483 0.652255
O O17 0.752905 0.336220 0.840322
O O18 0.000000 0.255073 0.773976
O O19 0.000000 0.256720 0.527540
O O20 0.500000 0.600018 0.428767
#
# Coordination Sequence:
#
# PCOD8170283 Si02
#       8
#     4   4   4   4   4   4   4   4
#     4  10  23  40  60  86 121 159 195 244 304 350
#     4  11  21  39  65  88 114 155 206 248 290 357
#     4  10  21  40  64  86 116 159 201 245 297 354
#     4  11  23  39  60  87 123 158 191 245 307 352
#     4  11  22  38  61  89 121 155 196 251 302 350
#     4   9  19  38  61  85 113 152 199 243 289 346
#     4  11  23  38  62  87 116 158 203 246 289 354
#     4   9  20  38  61  86 116 154 193 242 302 351
#
# _framework density 19.687162000000001
#
# number of rings (size 3 to 8) (size 9 to 14) (size 15 to 20)
#    0.000    1.750    2.500    1.500    3.500    1.000 
#    0.000    3.125    0.000    0.000    0.000    0.000 
#    0.000    0.000    0.000    0.000    0.000    0.000 
#
# Total GULP energy -396808.388708 kJ/mol
# GULP energy per Si atom -12400.262147 kJ/mol
# Density = 1.964235 g / cm^3
# Si number density = 19.687162 Si / 1000 Ang^3
#
#
#
# Elastic Constant Matrix: (Units=GPa)
#
#
# Indices 1 2 3 4 5 6 
#
# 1 42.4985 33.6635 34.2176 0.0000 0.0000 0.0000
# 2 33.6635 138.3306 46.6094 0.0000 0.0000 0.0000
# 3 34.2176 46.6094 130.3192 0.0000 0.0000 0.0000
# 4 0.0000 0.0000 0.0000 31.1633 0.0000 0.0000
# 5 0.0000 0.0000 0.0000 0.0000 28.5746 0.0000
# 6 0.0000 0.0000 0.0000 0.0000 0.0000 11.0754
#
#
#
# Elastic Compliance Matrix: (Units=1/GPa)
#
#
# Indices 1 2 3 4 5 6 
#
# 1 0.033624 -0.005921 -0.006711 0.000000 0.000000 0.000000
# 2 -0.005921 0.009262 -0.001758 0.000000 0.000000 0.000000
# 3 -0.006711 -0.001758 0.010064 0.000000 0.000000 0.000000
# 4 0.000000 0.000000 0.000000 0.032089 0.000000 0.000000
# 5 0.000000 0.000000 0.000000 0.000000 0.034996 0.000000
# 6 0.000000 0.000000 0.000000 0.000000 0.000000 0.090290
#
#
# Mechanical properties :
#
#
# Convention : Reuss Voigt Hill
#
# Bulk Modulus (GPa) = 41.37318 60.01435 50.69377
# Shear Modulus (GPa) = 20.22962 27.27320 23.75141
#
# Velocity S-wave (km/s) = 3.20903 3.72604 3.47715
# Velocity P-wave (km/s) = 5.89842 7.00438 6.47506
#
# Compressibility (1/GPa) = 0.02417025
#
# Stress axis : x y z
#
# Youngs Moduli (GPa) = 29.74087 107.96340 99.36185
#
# Poissons Ratio (x) = 0.63929 0.66679
# Poissons Ratio (y) = 0.17611 0.17468
# Poissons Ratio (z) = 0.19958 0.18980
#
# Static dielectric constant tensor:
#      x y z
#    x 3.350050 0.000000 0.000000 
#    y 0.000000 3.834030 0.000000 
#    z 0.000000 0.000000 3.892440 
# 
# 
# High freq. dielectric constant tensor:
#      x y z
#    x 1.744440 0.000000 0.000000 
#    y 0.000000 1.776910 0.000000 
#    z 0.000000 0.000000 1.782320 
# 
# From -- ./inp_files/3613.got.cif
#   From: 2010.03.12/outbox.cif.g09.slc.cpg/sg31_2_cif.got.tgz:3613.got - 2010.04.14 01:42:59.
