data_PCOD8170041
_publ_section_title
;
Structure prediction by ZEFSAII (Michael W. Deem and Ramdas Pophale) SiO2 
 PCOD8170041
Probable space group: P M N 21
;
_chemical_formula_sum "Si O2"
_cell_formula_units_Z 32
_cell_length_a 9.129192
_cell_length_b 13.989052
_cell_length_c 13.758539
_cell_angle_alpha 90.000000
_cell_angle_beta 90.000000
_cell_angle_gamma 90.000000
_cell_volume 1757.085702
_symmetry_space_group_name_H-M "P M N 21"
_symmetry_group_IT_number 31
_symmetry_cell_setting 'orthorhombic'
loop_
_space_group_symop_operation_xyz
x,y,z
1/2-x,-y,1/2+z
-x,y,z
1/2+x,-y,1/2+z
loop_
_atom_site_type_symbol
_atom_site_label
_atom_site_fract_x
_atom_site_fract_y
_atom_site_fract_z
Si Si1 0.834364 0.463181 0.342020
Si Si2 0.169655 0.145735 0.148521
Si Si3 0.665040 0.713921 0.954739
Si Si4 0.668447 0.323770 0.843548
Si Si5 0.329970 0.853584 0.425456
Si Si6 0.826412 0.705183 0.768483
Si Si7 0.670981 0.043599 0.759944
Si Si8 0.665620 0.228448 0.642705
O O1 0.833537 0.402228 0.442945
O O2 0.771830 0.568903 0.362118
O O3 0.734623 0.404377 0.264194
O O4 0.000000 0.471389 0.300327
O O5 0.267958 0.237083 0.175478
O O6 0.000000 0.171405 0.165840
O O7 0.218968 0.057337 0.215728
O O8 0.197693 0.117884 0.036909
O O9 0.500000 0.753921 0.944370
O O10 0.763003 0.757053 0.866307
O O11 0.725349 0.742958 0.058196
O O12 0.500000 0.312528 0.876508
O O13 0.763068 0.250929 0.906769
O O14 0.685111 0.303720 0.729366
O O15 0.500000 0.849178 0.399490
O O16 0.257033 0.935729 0.359521
O O17 0.000000 0.704549 0.769586
O O18 0.500000 0.048108 0.785271
O O19 0.709316 0.123663 0.680117
O O20 0.500000 0.229879 0.602618
#
# Coordination Sequence:
#
# PCOD8170041 Si02
#       8
#     4   4   4   4   4   4   4   4
#     4   8  17  35  54  74 106 145 181 221 272 323
#     4  10  21  39  58  79 111 149 184 223 278 334
#     4   9  18  33  52  75 107 141 175 218 268 319
#     4   9  18  36  58  77 108 149 184 224 272 326
#     4  10  21  36  56  85 115 144 182 230 276 328
#     4  10  20  34  53  78 107 137 177 226 269 319
#     4   9  20  38  58  78 107 146 185 226 273 327
#     4   9  17  31  53  80 105 137 180 224 270 322
#
# _framework density 18.211974999999999
#
# number of rings (size 3 to 8) (size 9 to 14) (size 15 to 20)
#    0.750    2.000    0.000    2.250    0.000    5.000 
#    2.250    1.250    0.000    0.000    0.000    0.000 
#    0.000    0.000    0.000    0.000    0.000    0.000 
#
# Total GULP energy -396638.450383 kJ/mol
# GULP energy per Si atom -12394.951574 kJ/mol
# Density = 1.817052 g / cm^3
# Si number density = 18.211975 Si / 1000 Ang^3
#
#
#
# Elastic Constant Matrix: (Units=GPa)
#
#
# Indices 1 2 3 4 5 6 
#
# 1 101.7347 44.0073 47.3793 0.0000 0.0000 0.0000
# 2 44.0073 95.0938 38.4321 0.0000 0.0000 0.0000
# 3 47.3793 38.4321 77.4187 0.0000 0.0000 0.0000
# 4 0.0000 0.0000 0.0000 17.3967 0.0000 0.0000
# 5 0.0000 0.0000 0.0000 0.0000 34.3513 0.0000
# 6 0.0000 0.0000 0.0000 0.0000 0.0000 20.7039
#
#
#
# Elastic Compliance Matrix: (Units=1/GPa)
#
#
# Indices 1 2 3 4 5 6 
#
# 1 0.014877 -0.004010 -0.007114 0.000000 0.000000 0.000000
# 2 -0.004010 0.014236 -0.004613 0.000000 0.000000 0.000000
# 3 -0.007114 -0.004613 0.019561 0.000000 0.000000 0.000000
# 4 0.000000 0.000000 0.000000 0.057482 0.000000 0.000000
# 5 0.000000 0.000000 0.000000 0.000000 0.029111 0.000000
# 6 0.000000 0.000000 0.000000 0.000000 0.000000 0.048300
#
#
# Mechanical properties :
#
#
# Convention : Reuss Voigt Hill
#
# Bulk Modulus (GPa) = 58.14026 59.32051 58.73038
# Shear Modulus (GPa) = 22.64760 24.11894 23.38327
#
# Velocity S-wave (km/s) = 3.53023 3.64310 3.58711
# Velocity P-wave (km/s) = 6.97210 7.09501 7.03383
#
# Compressibility (1/GPa) = 0.01719979
#
# Stress axis : x y z
#
# Youngs Moduli (GPa) = 67.21745 70.24506 51.12320
#
# Poissons Ratio (x) = 0.28165 0.36370
# Poissons Ratio (y) = 0.26952 0.23584
# Poissons Ratio (z) = 0.47820 0.32405
#
# Static dielectric constant tensor:
#      x y z
#    x 3.284530 0.000000 0.000000 
#    y 0.000000 3.394620 0.000000 
#    z 0.000000 0.000000 3.137020 
# 
# 
# High freq. dielectric constant tensor:
#      x y z
#    x 1.705090 0.000000 0.000000 
#    y 0.000000 1.699960 0.000000 
#    z 0.000000 0.000000 1.688990 
# 
# From -- ./inp_files/5140.got.cif
#   From: 2010.03.12/outbox.cif.g09.slc.cpg/sg31_3_cif.got.tgz:5140.got - 2010.04.14 01:42:59.
