data_PCOD8170277
_publ_section_title
;
Structure prediction by ZEFSAII (Michael W. Deem and Ramdas Pophale) SiO2 
 PCOD8170277
Probable space group: P M N 21
;
_chemical_formula_sum "Si O2"
_cell_formula_units_Z 32
_cell_length_a 9.030019
_cell_length_b 12.362191
_cell_length_c 14.253907
_cell_angle_alpha 90.000000
_cell_angle_beta 90.000000
_cell_angle_gamma 90.000000
_cell_volume 1591.175321
_symmetry_space_group_name_H-M "P M N 21"
_symmetry_group_IT_number 31
_symmetry_cell_setting 'orthorhombic'
loop_
_space_group_symop_operation_xyz
x,y,z
1/2-x,-y,1/2+z
-x,y,z
1/2+x,-y,1/2+z
loop_
_atom_site_type_symbol
_atom_site_label
_atom_site_fract_x
_atom_site_fract_y
_atom_site_fract_z
Si Si1 0.669328 0.305338 0.011970
Si Si2 0.172125 0.716154 0.152787
Si Si3 0.332848 0.580125 0.838855
Si Si4 0.837790 0.460560 0.558101
Si Si5 0.327571 0.823993 0.825065
Si Si6 0.828741 0.118152 0.116770
Si Si7 0.826447 0.898257 0.010531
Si Si8 0.674635 0.637251 0.323239
O O1 0.500000 0.287550 0.979114
O O2 0.683298 0.412184 0.075598
O O3 0.722444 0.207888 0.075268
O O4 0.772457 0.318405 0.922292
O O5 0.203932 0.598456 0.109702
O O6 0.231267 0.804014 0.078954
O O7 0.263939 0.724852 0.248885
O O8 0.000000 0.731443 0.174896
O O9 0.500000 0.566608 0.799641
O O10 0.269145 0.699786 0.814423
O O11 0.233312 0.483378 0.796359
O O12 0.330624 0.566555 0.949463
O O13 0.000000 0.424073 0.597404
O O14 0.500000 0.819088 0.850348
O O15 0.298274 0.889635 0.728623
O O16 0.249458 0.889212 0.909062
O O17 0.000000 0.148615 0.099294
O O18 0.785680 0.008435 0.063752
O O19 0.000000 0.887312 0.993213
O O20 0.500000 0.634122 0.322030
#
# Coordination Sequence:
#
# PCOD8170277 Si02
#       8
#     4   4   4   4   4   4   4   4
#     4  10  22  41  61  87 123 159 201 252 306 366
#     4  11  22  36  57  86 122 166 207 249 303 360
#     4   9  18  35  57  86 121 156 201 255 305 363
#     4   9  18  34  56  84 119 152 193 250 303 359
#     4  10  21  39  64  90 118 158 206 254 307 364
#     4  10  23  42  63  91 123 160 206 254 307 365
#     4  10  23  42  62  89 126 162 207 259 302 359
#     4  11  23  37  58  89 126 167 205 249 307 370
#
# _framework density 20.110921000000001
#
# number of rings (size 3 to 8) (size 9 to 14) (size 15 to 20)
#    0.000    2.000    1.250    2.625    1.750    5.500 
#    0.000    1.250    0.000    0.000    0.000    0.000 
#    0.000    0.000    0.000    0.000    0.000    0.000 
#
# Total GULP energy -396768.380719 kJ/mol
# GULP energy per Si atom -12399.011897 kJ/mol
# Density = 2.006515 g / cm^3
# Si number density = 20.110921 Si / 1000 Ang^3
#
#
#
# Elastic Constant Matrix: (Units=GPa)
#
#
# Indices 1 2 3 4 5 6 
#
# 1 85.3117 43.7883 35.1497 0.0000 0.0000 0.0000
# 2 43.7883 100.2511 60.2052 0.0000 0.0000 0.0000
# 3 35.1497 60.2052 88.9443 0.0000 0.0000 0.0000
# 4 0.0000 0.0000 0.0000 26.4915 0.0000 0.0000
# 5 0.0000 0.0000 0.0000 0.0000 33.8405 0.0000
# 6 0.0000 0.0000 0.0000 0.0000 0.0000 27.2963
#
#
#
# Elastic Compliance Matrix: (Units=1/GPa)
#
#
# Indices 1 2 3 4 5 6 
#
# 1 0.015456 -0.005194 -0.002592 0.000000 0.000000 0.000000
# 2 -0.005194 0.018553 -0.010505 0.000000 0.000000 0.000000
# 3 -0.002592 -0.010505 0.019378 0.000000 0.000000 0.000000
# 4 0.000000 0.000000 0.000000 0.037748 0.000000 0.000000
# 5 0.000000 0.000000 0.000000 0.000000 0.029550 0.000000
# 6 0.000000 0.000000 0.000000 0.000000 0.000000 0.036635
#
#
# Mechanical properties :
#
#
# Convention : Reuss Voigt Hill
#
# Bulk Modulus (GPa) = 59.51155 61.42149 60.46652
# Shear Modulus (GPa) = 25.06213 26.54993 25.80603
#
# Velocity S-wave (km/s) = 3.53398 3.63736 3.58604
# Velocity P-wave (km/s) = 6.80499 6.94609 6.87590
#
# Compressibility (1/GPa) = 0.01680346
#
# Stress axis : x y z
#
# Youngs Moduli (GPa) = 64.70094 53.90072 51.60433
#
# Poissons Ratio (x) = 0.27997 0.13376
# Poissons Ratio (y) = 0.33607 0.54212
# Poissons Ratio (z) = 0.16771 0.56624
#
# Static dielectric constant tensor:
#      x y z
#    x 3.575910 0.000000 0.000000 
#    y 0.000000 3.726530 0.000000 
#    z 0.000000 0.000000 3.672030 
# 
# 
# High freq. dielectric constant tensor:
#      x y z
#    x 1.779330 0.000000 0.000000 
#    y 0.000000 1.777290 0.000000 
#    z 0.000000 0.000000 1.791510 
# 
# From -- ./inp_files/5028.got.cif
#   From: 2010.03.12/outbox.cif.g09.slc.cpg/sg31_3_cif.got.tgz:5028.got - 2010.04.14 01:42:59.
