data_PCOD8170851
_publ_section_title
;
Structure prediction by ZEFSAII (Michael W. Deem and Ramdas Pophale) SiO2 
 PCOD8170851
Probable space group: P N A 21
;
_chemical_formula_sum "Si O2"
_cell_formula_units_Z 32
_cell_length_a 18.275092
_cell_length_b 9.096668
_cell_length_c 9.310456
_cell_angle_alpha 90.000000
_cell_angle_beta 90.000000
_cell_angle_gamma 90.000000
_cell_volume 1547.792966
_symmetry_space_group_name_H-M "P N A 21"
_symmetry_group_IT_number 33
_symmetry_cell_setting 'orthorhombic'
loop_
_space_group_symop_operation_xyz
x,y,z
-x,-y,1/2+z
1/2-x,1/2+y,1/2+z
1/2+x,1/2-y,z
loop_
_atom_site_type_symbol
_atom_site_label
_atom_site_fract_x
_atom_site_fract_y
_atom_site_fract_z
Si Si1 0.082768 0.092569 0.440780
Si Si2 0.920536 0.566413 0.937381
Si Si3 0.337934 0.153740 0.307200
Si Si4 0.505900 0.888733 0.668299
Si Si5 0.221601 0.932087 0.334262
Si Si6 0.835473 0.074770 0.524264
Si Si7 0.216284 0.636705 0.500498
Si Si8 0.480740 0.562809 0.639300
O O1 0.086636 0.263619 0.477403
O O2 0.025952 0.052251 0.312017
O O3 0.163204 0.049443 0.391213
O O4 0.057237 0.006858 0.584551
O O5 0.942823 0.547320 0.771122
O O6 0.983998 0.501978 0.039189
O O7 0.846187 0.480676 0.963862
O O8 0.421719 0.130983 0.264908
O O9 0.333272 0.285093 0.420949
O O10 0.288300 0.187660 0.166828
O O11 0.301722 0.002280 0.368611
O O12 0.480444 0.734757 0.598137
O O13 0.211438 0.892931 0.167185
O O14 0.206407 0.781401 0.411213
O O15 0.793698 0.935134 0.455079
O O16 0.917878 0.028471 0.559003
#
# Coordination Sequence:
#
# PCOD8170851 Si02
#       8
#     4   4   4   4   4   4   4   4
#     4  10  20  37  59  84 114 151 192 237 291 349
#     4  10  21  37  58  83 115 151 190 240 293 346
#     4  10  21  40  59  84 119 152 195 246 293 352
#     4  10  22  38  57  85 117 151 194 242 293 350
#     4  10  22  38  59  84 113 151 194 237 289 351
#     4  10  21  38  59  84 114 149 193 237 288 352
#     4  10  22  39  58  85 118 153 195 244 296 348
#     4  10  21  37  59  85 114 150 191 239 293 350
#
# _framework density 20.674599000000001
#
# number of rings (size 3 to 8) (size 9 to 14) (size 15 to 20)
#    0.000    2.000    0.000    3.750    0.000    7.000 
#    0.000    6.250    0.000    0.000    0.000    0.000 
#    0.000    0.000    0.000    0.000    0.000    0.000 
#
# Total GULP energy -396756.032203 kJ/mol
# GULP energy per Si atom -12398.626006 kJ/mol
# Density = 2.062754 g / cm^3
# Si number density = 20.674599 Si / 1000 Ang^3
#
#
#
# Elastic Constant Matrix: (Units=GPa)
#
#
# Indices 1 2 3 4 5 6 
#
# 1 44.0695 18.6033 19.7169 0.0000 0.0000 0.0000
# 2 18.6033 130.8096 69.5777 0.0000 0.0000 0.0000
# 3 19.7169 69.5777 65.3582 0.0000 0.0000 0.0000
# 4 0.0000 0.0000 0.0000 42.1570 0.0000 0.0000
# 5 0.0000 0.0000 0.0000 0.0000 28.2360 0.0000
# 6 0.0000 0.0000 0.0000 0.0000 0.0000 -16.1725
#
#
#
# Elastic Compliance Matrix: (Units=1/GPa)
#
#
# Indices 1 2 3 4 5 6 
#
# 1 0.026301 0.001106 -0.009112 0.000000 0.000000 0.000000
# 2 0.001106 0.017671 -0.019145 0.000000 0.000000 0.000000
# 3 -0.009112 -0.019145 0.038431 0.000000 0.000000 0.000000
# 4 0.000000 0.000000 0.000000 0.023721 0.000000 0.000000
# 5 0.000000 0.000000 0.000000 0.000000 0.035416 0.000000
# 6 0.000000 0.000000 0.000000 0.000000 0.000000 -0.061833
#
#
# Mechanical properties :
#
#
# Convention : Reuss Voigt Hill
#
# Bulk Modulus (GPa) = 35.58690 50.67034 43.12862
# Shear Modulus (GPa) = 34.87359 19.66671 27.27015
#
# Velocity S-wave (km/s) = 4.11150 3.08758 3.63577
# Velocity P-wave (km/s) = 6.30789 6.10513 6.20734
#
# Compressibility (1/GPa) = 0.02810023
#
# Stress axis : x y z
#
# Youngs Moduli (GPa) = 38.02104 56.59054 26.02096
#
# Poissons Ratio (x) = -0.06260 0.23710
# Poissons Ratio (y) = -0.04206 0.49818
# Poissons Ratio (z) = 0.34645 1.08345
#
# Static dielectric constant tensor:
#      x y z
#    x 3.943140 0.000000 0.000000 
#    y 0.000000 3.702670 0.000000 
#    z 0.000000 0.000000 3.808930 
# 
# 
# High freq. dielectric constant tensor:
#      x y z
#    x 1.810590 0.000000 0.000000 
#    y 0.000000 1.813600 0.000000 
#    z 0.000000 0.000000 1.806440 
# 
# From -- ./inp_files/5037.got.cif
#   From: 2010.03.12/outbox.cif.g09.slc.cpg/sg33_3_cif.got.tgz:5037.got - 2010.04.14 01:49:19.
