data_PCOD8170221
_publ_section_title
;
Structure prediction by ZEFSAII (Michael W. Deem and Ramdas Pophale) SiO2 
 PCOD8170221
Probable space group: P M N 21
;
_chemical_formula_sum "Si O2"
_cell_formula_units_Z 24
_cell_length_a 8.933431
_cell_length_b 15.026474
_cell_length_c 9.161435
_cell_angle_alpha 90.000000
_cell_angle_beta 90.000000
_cell_angle_gamma 90.000000
_cell_volume 1229.812424
_symmetry_space_group_name_H-M "P M N 21"
_symmetry_group_IT_number 31
_symmetry_cell_setting 'orthorhombic'
loop_
_space_group_symop_operation_xyz
x,y,z
1/2-x,-y,1/2+z
-x,y,z
1/2+x,-y,1/2+z
loop_
_atom_site_type_symbol
_atom_site_label
_atom_site_fract_x
_atom_site_fract_y
_atom_site_fract_z
Si Si1 0.169477 0.933670 0.478500
Si Si2 0.323106 0.751704 0.510494
Si Si3 0.325549 0.279447 0.708713
Si Si4 0.675050 0.444563 0.506794
Si Si5 0.676167 0.399430 0.177482
Si Si6 0.668344 0.084076 0.640566
O O1 0.272424 0.853213 0.534576
O O2 0.183196 0.946034 0.306704
O O3 0.000000 0.911965 0.524878
O O4 0.218081 0.026961 0.546109
O O5 0.500000 0.746745 0.515639
O O6 0.267773 0.711446 0.356889
O O7 0.255831 0.693642 0.641874
O O8 0.500000 0.279697 0.752915
O O9 0.281699 0.358569 0.601258
O O10 0.286409 0.187638 0.625911
O O11 0.500000 0.467071 0.520816
O O12 0.722053 0.427617 0.340331
O O13 0.770475 0.527029 0.562707
O O14 0.500000 0.386312 0.162562
O O15 0.500000 0.068692 0.582674
#
# Coordination Sequence:
#
# PCOD8170221 Si02
#       6
#     4   4   4   4   4   4
#     4  10  21  37  57  82 113 149 187 228 277 329
#     4  11  22  37  58  83 111 145 187 231 277 330
#     4   9  19  38  60  82 113 148 183 227 276 326
#     4  10  22  39  59  84 112 146 186 226 273 329
#     4  11  23  38  57  83 114 147 184 227 277 330
#     4   9  19  35  55  82 113 147 187 229 274 324
#
# _framework density 19.515173000000001
#
# number of rings (size 3 to 8) (size 9 to 14) (size 15 to 20)
#    0.000    2.000    0.000    4.500    0.000    9.333 
#    0.000    1.667    0.000    0.000    0.000    0.000 
#    0.000    0.000    0.000    0.000    0.000    0.000 
#
# Total GULP energy -297711.293347 kJ/mol
# GULP energy per Si atom -12404.637223 kJ/mol
# Density = 1.947076 g / cm^3
# Si number density = 19.515173 Si / 1000 Ang^3
#
#
#
# Elastic Constant Matrix: (Units=GPa)
#
#
# Indices 1 2 3 4 5 6 
#
# 1 77.1649 12.1801 13.1885 0.0000 0.0000 0.0000
# 2 12.1801 57.8052 1.2518 0.0000 0.0000 0.0000
# 3 13.1885 1.2518 29.2420 0.0000 0.0000 0.0000
# 4 0.0000 0.0000 0.0000 39.3956 0.0000 0.0000
# 5 0.0000 0.0000 0.0000 0.0000 31.1733 0.0000
# 6 0.0000 0.0000 0.0000 0.0000 0.0000 36.4785
#
#
#
# Elastic Compliance Matrix: (Units=1/GPa)
#
#
# Indices 1 2 3 4 5 6 
#
# 1 0.014518 -0.002920 -0.006423 0.000000 0.000000 0.000000
# 2 -0.002920 0.017903 0.000551 0.000000 0.000000 0.000000
# 3 -0.006423 0.000551 0.037071 0.000000 0.000000 0.000000
# 4 0.000000 0.000000 0.000000 0.025384 0.000000 0.000000
# 5 0.000000 0.000000 0.000000 0.000000 0.032079 0.000000
# 6 0.000000 0.000000 0.000000 0.000000 0.000000 0.027413
#
#
# Mechanical properties :
#
#
# Convention : Reuss Voigt Hill
#
# Bulk Modulus (GPa) = 19.26525 24.16143 21.71334
# Shear Modulus (GPa) = 26.41958 30.58227 28.50092
#
# Velocity S-wave (km/s) = 3.68339 3.96296 3.82573
# Velocity P-wave (km/s) = 5.28991 5.77475 5.53764
#
# Compressibility (1/GPa) = 0.05190694
#
# Stress axis : x y z
#
# Youngs Moduli (GPa) = 68.88054 55.85705 26.97559
#
# Poissons Ratio (x) = 0.16310 0.17326
# Poissons Ratio (y) = 0.20113 -0.01485
# Poissons Ratio (z) = 0.44240 -0.03075
#
# Static dielectric constant tensor:
#      x y z
#    x 3.513790 0.000000 0.000000 
#    y 0.000000 3.655770 0.000000 
#    z 0.000000 0.000000 3.489800 
# 
# 
# High freq. dielectric constant tensor:
#      x y z
#    x 1.760810 0.000000 0.000000 
#    y 0.000000 1.772540 0.000000 
#    z 0.000000 0.000000 1.754490 
# 
# From -- ./inp_files/1681.got.cif
#   From: 2010.03.12/outbox.cif.g09.slc.cpg/sg31_1_cif.got.tgz:1681.got - 2010.04.14 01:42:59.
