data_PCOD8170095
_publ_section_title
;
Structure prediction by ZEFSAII (Michael W. Deem and Ramdas Pophale) SiO2 
 PCOD8170095
Probable space group: P M N 21
;
_chemical_formula_sum "Si O2"
_cell_formula_units_Z 32
_cell_length_a 8.972752
_cell_length_b 11.294299
_cell_length_c 16.216806
_cell_angle_alpha 90.000000
_cell_angle_beta 90.000000
_cell_angle_gamma 90.000000
_cell_volume 1643.426428
_symmetry_space_group_name_H-M "P M N 21"
_symmetry_group_IT_number 31
_symmetry_cell_setting 'orthorhombic'
loop_
_space_group_symop_operation_xyz
x,y,z
1/2-x,-y,1/2+z
-x,y,z
1/2+x,-y,1/2+z
loop_
_atom_site_type_symbol
_atom_site_label
_atom_site_fract_x
_atom_site_fract_y
_atom_site_fract_z
Si Si1 0.327594 0.280105 0.081060
Si Si2 0.662406 0.590363 0.708933
Si Si3 0.822997 0.322205 0.505458
Si Si4 0.674530 0.074393 0.198532
Si Si5 0.330875 0.787311 0.837421
Si Si6 0.832757 0.643580 0.295197
Si Si7 0.176216 0.433428 0.956296
Si Si8 0.674905 0.806051 0.174461
O O1 0.500000 0.275731 0.056143
O O2 0.298042 0.383422 0.147648
O O3 0.270950 0.158427 0.123318
O O4 0.229997 0.312825 0.001599
O O5 0.500000 0.627686 0.671072
O O6 0.685984 0.659759 0.794372
O O7 0.660797 0.451142 0.722175
O O8 0.771723 0.234679 0.430687
O O9 0.745048 0.449866 0.498683
O O10 0.774501 0.258365 0.590267
O O11 0.000000 0.343206 0.500478
O O12 0.500000 0.089666 0.209997
O O13 0.743080 0.111781 0.286807
O O14 0.720117 0.943554 0.170750
O O15 0.500000 0.831957 0.840375
O O16 0.730520 0.583777 0.363823
O O17 0.758757 0.758862 0.255460
O O18 0.000000 0.672386 0.327972
O O19 0.000000 0.445022 0.958904
O O20 0.500000 0.789284 0.188316
#
# Coordination Sequence:
#
# PCOD8170095 Si02
#       8
#     4   4   4   4   4   4   4   4
#     4  10  20  35  57  83 113 151 192 233 283 341
#     4   9  17  32  55  82 113 143 181 233 288 342
#     4  10  20  38  62  88 118 152 194 243 295 352
#     4   9  20  39  59  82 116 155 197 240 284 341
#     4   9  17  33  58  86 113 147 192 241 287 337
#     4  11  22  38  58  82 117 153 189 236 290 351
#     4  12  24  37  57  87 121 151 188 238 297 355
#     4  10  22  40  60  84 119 158 197 242 292 345
#
# _framework density 19.471513999999999
#
# number of rings (size 3 to 8) (size 9 to 14) (size 15 to 20)
#    0.000    2.000    1.250    2.625    0.000    5.000 
#    2.250    0.000    0.000    0.000    0.000    0.000 
#    0.000    0.000    0.000    0.000    0.000    0.000 
#
# Total GULP energy -396684.762947 kJ/mol
# GULP energy per Si atom -12396.398842 kJ/mol
# Density = 1.942720 g / cm^3
# Si number density = 19.471514 Si / 1000 Ang^3
#
#
#
# Elastic Constant Matrix: (Units=GPa)
#
#
# Indices 1 2 3 4 5 6 
#
# 1 74.2501 46.0459 35.0903 0.0000 0.0000 0.0000
# 2 46.0459 112.4837 48.0549 0.0000 0.0000 0.0000
# 3 35.0903 48.0549 78.0266 0.0000 0.0000 0.0000
# 4 0.0000 0.0000 0.0000 31.1427 0.0000 0.0000
# 5 0.0000 0.0000 0.0000 0.0000 31.6255 0.0000
# 6 0.0000 0.0000 0.0000 0.0000 0.0000 26.5088
#
#
#
# Elastic Compliance Matrix: (Units=1/GPa)
#
#
# Indices 1 2 3 4 5 6 
#
# 1 0.019506 -0.005750 -0.005231 0.000000 0.000000 0.000000
# 2 -0.005750 0.013760 -0.005888 0.000000 0.000000 0.000000
# 3 -0.005231 -0.005888 0.018795 0.000000 0.000000 0.000000
# 4 0.000000 0.000000 0.000000 0.032110 0.000000 0.000000
# 5 0.000000 0.000000 0.000000 0.000000 0.031620 0.000000
# 6 0.000000 0.000000 0.000000 0.000000 0.000000 0.037723
#
#
# Mechanical properties :
#
#
# Convention : Reuss Voigt Hill
#
# Bulk Modulus (GPa) = 54.57912 58.12696 56.35304
# Shear Modulus (GPa) = 25.85845 26.89335 26.37590
#
# Velocity S-wave (km/s) = 3.64815 3.72043 3.68447
# Velocity P-wave (km/s) = 6.77026 6.95504 6.86327
#
# Compressibility (1/GPa) = 0.01832202
#
# Stress axis : x y z
#
# Youngs Moduli (GPa) = 51.26612 72.67642 53.20558
#
# Poissons Ratio (x) = 0.41791 0.27831
# Poissons Ratio (y) = 0.29479 0.31329
# Poissons Ratio (z) = 0.26817 0.42794
#
# Static dielectric constant tensor:
#      x y z
#    x 3.545180 0.000000 0.000000 
#    y 0.000000 3.502010 0.000000 
#    z 0.000000 0.000000 3.593580 
# 
# 
# High freq. dielectric constant tensor:
#      x y z
#    x 1.753110 0.000000 0.000000 
#    y 0.000000 1.745930 0.000000 
#    z 0.000000 0.000000 1.758510 
# 
# From -- ./inp_files/5088.got.cif
#   From: 2010.03.12/outbox.cif.g09.slc.cpg/sg31_3_cif.got.tgz:5088.got - 2010.04.14 01:42:59.
