data_PCOD8170256
_publ_section_title
;
Structure prediction by ZEFSAII (Michael W. Deem and Ramdas Pophale) SiO2 
 PCOD8170256
Probable space group: P M N 21
;
_chemical_formula_sum "Si O2"
_cell_formula_units_Z 32
_cell_length_a 8.454628
_cell_length_b 12.191731
_cell_length_c 15.447515
_cell_angle_alpha 90.000000
_cell_angle_beta 90.000000
_cell_angle_gamma 90.000000
_cell_volume 1592.276557
_symmetry_space_group_name_H-M "P M N 21"
_symmetry_group_IT_number 31
_symmetry_cell_setting 'orthorhombic'
loop_
_space_group_symop_operation_xyz
x,y,z
1/2-x,-y,1/2+z
-x,y,z
1/2+x,-y,1/2+z
loop_
_atom_site_type_symbol
_atom_site_label
_atom_site_fract_x
_atom_site_fract_y
_atom_site_fract_z
Si Si1 0.813544 0.013150 0.297990
Si Si2 0.813002 0.245990 0.349813
Si Si3 0.814403 0.480437 0.293251
Si Si4 0.187144 0.018628 0.608986
Si Si5 0.685274 0.612509 0.456694
Si Si6 0.187810 0.858633 0.454158
Si Si7 0.687922 0.752326 0.039247
Si Si8 0.315476 0.526681 0.110490
O O1 0.749829 0.926509 0.369860
O O2 0.000000 0.016743 0.309028
O O3 0.739409 0.134137 0.312360
O O4 0.768472 0.985440 0.201276
O O5 0.766197 0.352643 0.295868
O O6 0.741951 0.264089 0.444335
O O7 0.000000 0.233947 0.355184
O O8 0.771724 0.545655 0.380505
O O9 0.714898 0.518955 0.211901
O O10 0.000000 0.496105 0.276884
O O11 0.238347 0.922673 0.542180
O O12 0.000000 0.017685 0.620778
O O13 0.253627 0.133475 0.574245
O O14 0.500000 0.603220 0.441077
O O15 0.733376 0.739698 0.454181
O O16 0.727569 0.562905 0.550893
O O17 0.000000 0.844663 0.450594
O O18 0.500000 0.756622 0.039524
O O19 0.749758 0.648337 0.092185
O O20 0.500000 0.514584 0.089438
#
# Coordination Sequence:
#
# PCOD8170256 Si02
#       8
#     4   4   4   4   4   4   4   4
#     4  10  21  38  62  90 120 156 199 245 302 365
#     4   9  17  36  64  87 113 154 199 246 301 361
#     4  11  23  41  65  93 126 163 204 253 311 372
#     4  10  21  38  62  90 120 156 199 245 302 365
#     4  12  26  43  62  88 124 167 213 260 308 363
#     4  10  22  41  62  86 122 165 203 248 306 371
#     4   9  17  36  64  87 113 154 199 246 301 361
#     4  11  23  41  65  93 126 163 204 253 311 372
#
# _framework density 20.097011999999999
#
# number of rings (size 3 to 8) (size 9 to 14) (size 15 to 20)
#    0.000    1.750    2.500    1.875    3.500    1.000 
#    0.000    1.250    0.000    0.000    0.000    0.000 
#    0.000    0.000    0.000    0.000    0.000    0.000 
#
# Total GULP energy -396646.783818 kJ/mol
# GULP energy per Si atom -12395.211994 kJ/mol
# Density = 2.005127 g / cm^3
# Si number density = 20.097012 Si / 1000 Ang^3
#
#
#
# Elastic Constant Matrix: (Units=GPa)
#
#
# Indices 1 2 3 4 5 6 
#
# 1 31.7783 27.9699 5.8281 0.0000 0.0000 0.0000
# 2 27.9699 129.5066 17.5361 0.0000 0.0000 0.0000
# 3 5.8281 17.5361 89.0437 0.0000 0.0000 0.0000
# 4 0.0000 0.0000 0.0000 30.7782 0.0000 0.0000
# 5 0.0000 0.0000 0.0000 0.0000 31.3823 0.0000
# 6 0.0000 0.0000 0.0000 0.0000 0.0000 13.4457
#
#
#
# Elastic Compliance Matrix: (Units=1/GPa)
#
#
# Indices 1 2 3 4 5 6 
#
# 1 0.038926 -0.008283 -0.000917 0.000000 0.000000 0.000000
# 2 -0.008283 0.009696 -0.001367 0.000000 0.000000 0.000000
# 3 -0.000917 -0.001367 0.011560 0.000000 0.000000 0.000000
# 4 0.000000 0.000000 0.000000 0.032491 0.000000 0.000000
# 5 0.000000 0.000000 0.000000 0.000000 0.031865 0.000000
# 6 0.000000 0.000000 0.000000 0.000000 0.000000 0.074373
#
#
# Mechanical properties :
#
#
# Convention : Reuss Voigt Hill
#
# Bulk Modulus (GPa) = 25.60946 39.22187 32.41567
# Shear Modulus (GPa) = 21.45367 28.38753 24.92060
#
# Velocity S-wave (km/s) = 3.27081 3.76243 3.52521
# Velocity P-wave (km/s) = 5.19951 6.19945 5.72137
#
# Compressibility (1/GPa) = 0.03904806
#
# Stress axis : x y z
#
# Youngs Moduli (GPa) = 25.68956 103.13918 86.50739
#
# Poissons Ratio (x) = 0.85429 0.07929
# Poissons Ratio (y) = 0.21278 0.11828
# Poissons Ratio (z) = 0.02355 0.14102
#
# Static dielectric constant tensor:
#      x y z
#    x 3.378750 0.000000 0.000000 
#    y 0.000000 4.254970 0.000000 
#    z 0.000000 0.000000 3.724450 
# 
# 
# High freq. dielectric constant tensor:
#      x y z
#    x 1.755170 0.000000 0.000000 
#    y 0.000000 1.805180 0.000000 
#    z 0.000000 0.000000 1.795860 
# 
# From -- ./inp_files/5043.got.cif
#   From: 2010.03.12/outbox.cif.g09.slc.cpg/sg31_3_cif.got.tgz:5043.got - 2010.04.14 01:42:59.
