data_PCOD8170125
_publ_section_title
;
Structure prediction by ZEFSAII (Michael W. Deem and Ramdas Pophale) SiO2 
 PCOD8170125
Probable space group: P M N 21
;
_chemical_formula_sum "Si O2"
_cell_formula_units_Z 32
_cell_length_a 8.734192
_cell_length_b 13.444086
_cell_length_c 13.016484
_cell_angle_alpha 90.000000
_cell_angle_beta 90.000000
_cell_angle_gamma 90.000000
_cell_volume 1528.437574
_symmetry_space_group_name_H-M "P M N 21"
_symmetry_group_IT_number 31
_symmetry_cell_setting 'orthorhombic'
loop_
_space_group_symop_operation_xyz
x,y,z
1/2-x,-y,1/2+z
-x,y,z
1/2+x,-y,1/2+z
loop_
_atom_site_type_symbol
_atom_site_label
_atom_site_fract_x
_atom_site_fract_y
_atom_site_fract_z
Si Si1 0.827303 0.027716 0.352010
Si Si2 0.175706 0.119451 0.713774
Si Si3 0.820900 0.610261 0.026201
Si Si4 0.678325 0.744082 0.851209
Si Si5 0.182204 0.750799 0.636417
Si Si6 0.320552 0.612124 0.463124
Si Si7 0.678825 0.323856 0.751706
Si Si8 0.327077 0.038530 0.072060
O O1 0.783526 0.141344 0.374278
O O2 0.000000 0.021779 0.305949
O O3 0.697926 0.979898 0.281564
O O4 0.816788 0.957319 0.450838
O O5 0.286820 0.206566 0.749173
O O6 0.000000 0.157177 0.715898
O O7 0.232332 0.072148 0.605211
O O8 0.735130 0.683157 0.948968
O O9 0.777564 0.498644 0.996923
O O10 0.000000 0.631636 0.016252
O O11 0.765896 0.629069 0.143511
O O12 0.500000 0.723714 0.837370
O O13 0.758786 0.708428 0.745325
O O14 0.237056 0.685544 0.540917
O O15 0.252598 0.862639 0.620096
O O16 0.000000 0.750031 0.634693
O O17 0.500000 0.632773 0.469538
O O18 0.267445 0.625860 0.345742
O O19 0.500000 0.340894 0.769595
O O20 0.500000 0.041841 0.112509
#
# Coordination Sequence:
#
# PCOD8170125 Si02
#       8
#     4   4   4   4   4   4   4   4
#     4  10  20  36  58  88 126 168 210 257 309 370
#     4  11  21  37  60  89 124 166 210 256 304 368
#     4  10  25  46  68  94 128 167 215 270 327 390
#     4  11  23  39  64  97 135 173 217 269 322 384
#     4  11  22  40  65  95 134 177 216 263 325 386
#     4  11  25  45  68  98 127 164 218 273 326 388
#     4  11  24  44  66  94 131 170 211 266 329 393
#     4   9  19  35  57  85 123 165 207 250 302 367
#
# _framework density 20.936413999999999
#
# number of rings (size 3 to 8) (size 9 to 14) (size 15 to 20)
#    0.000    1.500    1.250    3.375    1.750    4.500 
#    0.000    1.875    0.000    0.000    0.000    0.000 
#    0.000    0.000    0.000    0.000    0.000    0.000 
#
# Total GULP energy -396671.243376 kJ/mol
# GULP energy per Si atom -12395.976356 kJ/mol
# Density = 2.088876 g / cm^3
# Si number density = 20.936414 Si / 1000 Ang^3
#
#
#
# Elastic Constant Matrix: (Units=GPa)
#
#
# Indices 1 2 3 4 5 6 
#
# 1 59.8580 38.0204 40.2773 0.0000 0.0000 0.0000
# 2 38.0204 113.3550 53.8995 0.0000 0.0000 0.0000
# 3 40.2773 53.8995 138.3590 0.0000 0.0000 0.0000
# 4 0.0000 0.0000 0.0000 36.9731 0.0000 0.0000
# 5 0.0000 0.0000 0.0000 0.0000 33.7518 0.0000
# 6 0.0000 0.0000 0.0000 0.0000 0.0000 27.8757
#
#
#
# Elastic Compliance Matrix: (Units=1/GPa)
#
#
# Indices 1 2 3 4 5 6 
#
# 1 0.023400 -0.005658 -0.004608 0.000000 0.000000 0.000000
# 2 -0.005658 0.012195 -0.003104 0.000000 0.000000 0.000000
# 3 -0.004608 -0.003104 0.009778 0.000000 0.000000 0.000000
# 4 0.000000 0.000000 0.000000 0.027047 0.000000 0.000000
# 5 0.000000 0.000000 0.000000 0.000000 0.029628 0.000000
# 6 0.000000 0.000000 0.000000 0.000000 0.000000 0.035874
#
#
# Mechanical properties :
#
#
# Convention : Reuss Voigt Hill
#
# Bulk Modulus (GPa) = 53.66288 63.99627 58.82958
# Shear Modulus (GPa) = 29.26150 31.67844 30.46997
#
# Velocity S-wave (km/s) = 3.74255 3.89405 3.81905
# Velocity P-wave (km/s) = 6.66053 7.13102 6.89979
#
# Compressibility (1/GPa) = 0.01863486
#
# Stress axis : x y z
#
# Youngs Moduli (GPa) = 42.73418 81.99847 102.26880
#
# Poissons Ratio (x) = 0.46392 0.47126
# Poissons Ratio (y) = 0.24178 0.31743
# Poissons Ratio (z) = 0.19692 0.25451
#
# Static dielectric constant tensor:
#      x y z
#    x 3.662720 0.000000 0.000000 
#    y 0.000000 3.851200 0.000000 
#    z 0.000000 0.000000 4.022080 
# 
# 
# High freq. dielectric constant tensor:
#      x y z
#    x 1.808870 0.000000 0.000000 
#    y 0.000000 1.825700 0.000000 
#    z 0.000000 0.000000 1.836510 
# 
# From -- ./inp_files/3619.got.cif
#   From: 2010.03.12/outbox.cif.g09.slc.cpg/sg31_2_cif.got.tgz:3619.got - 2010.04.14 01:42:59.
