data_PCOD8170901
_publ_section_title
;
Structure prediction by ZEFSAII (Michael W. Deem and Ramdas Pophale) SiO2 
 PCOD8170901
Probable space group: P N A 21
;
_chemical_formula_sum "Si O2"
_cell_formula_units_Z 24
_cell_length_a 7.876990
_cell_length_b 15.896900
_cell_length_c 9.039259
_cell_angle_alpha 90.000000
_cell_angle_beta 90.000000
_cell_angle_gamma 90.000000
_cell_volume 1131.893502
_symmetry_space_group_name_H-M "P N A 21"
_symmetry_group_IT_number 33
_symmetry_cell_setting 'orthorhombic'
loop_
_space_group_symop_operation_xyz
x,y,z
-x,-y,1/2+z
1/2-x,1/2+y,1/2+z
1/2+x,1/2-y,z
loop_
_atom_site_type_symbol
_atom_site_label
_atom_site_fract_x
_atom_site_fract_y
_atom_site_fract_z
Si Si1 0.791482 0.994020 0.524790
Si Si2 0.003128 0.440354 0.346427
Si Si3 0.918050 0.332213 0.089237
Si Si4 0.782356 0.482416 0.612314
Si Si5 0.479791 0.434777 0.785255
Si Si6 0.282738 0.342613 0.007923
O O1 0.714644 0.899838 0.525199
O O2 0.958783 0.993727 0.421296
O O3 0.662764 0.063306 0.457721
O O4 0.835456 0.018158 0.691800
O O5 0.049598 0.510101 0.218262
O O6 0.970671 0.353269 0.259359
O O7 0.836258 0.461296 0.444214
O O8 0.841005 0.239676 0.095280
O O9 0.080615 0.335311 0.979782
O O10 0.646561 0.416013 0.682043
O O11 0.689119 0.574114 0.609459
O O12 0.390356 0.351602 0.854691
#
# Coordination Sequence:
#
# PCOD8170901 Si02
#       6
#     4   4   4   4   4   4
#     4  11  22  38  67 102 130 174 222 269 317 397
#     4  10  20  39  66  99 128 173 220 270 316 397
#     4  11  24  40  67  94 133 172 222 266 336 389
#     4  10  21  39  67 102 128 171 226 263 323 388
#     4  11  23  37  66 102 132 169 224 268 318 400
#     4  11  22  41  61  97 129 175 212 270 326 395
#
# _framework density 21.203408
#
# number of rings (size 3 to 8) (size 9 to 14) (size 15 to 20)
#    0.000    1.333    5.000    2.000    0.000    0.000 
#    0.000    0.000    0.000   42.000    0.000    0.000 
#    0.000    0.000    0.000    0.000    0.000    0.000 
#
# Total GULP energy -297331.207233 kJ/mol
# GULP energy per Si atom -12388.800301 kJ/mol
# Density = 2.115515 g / cm^3
# Si number density = 21.203408 Si / 1000 Ang^3
#
#
#
# Elastic Constant Matrix: (Units=GPa)
#
#
# Indices 1 2 3 4 5 6 
#
# 1 95.9769 61.3166 70.1198 0.0000 0.0000 0.0000
# 2 61.3166 97.2172 58.9553 0.0000 0.0000 0.0000
# 3 70.1198 58.9553 146.0919 0.0000 0.0000 0.0000
# 4 0.0000 0.0000 0.0000 19.8665 0.0000 0.0000
# 5 0.0000 0.0000 0.0000 0.0000 54.7705 0.0000
# 6 0.0000 0.0000 0.0000 0.0000 0.0000 26.8281
#
#
#
# Elastic Compliance Matrix: (Units=1/GPa)
#
#
# Indices 1 2 3 4 5 6 
#
# 1 0.021065 -0.009473 -0.006288 0.000000 0.000000 0.000000
# 2 -0.009473 0.017879 -0.002668 0.000000 0.000000 0.000000
# 3 -0.006288 -0.002668 0.010940 0.000000 0.000000 0.000000
# 4 0.000000 0.000000 0.000000 0.050336 0.000000 0.000000
# 5 0.000000 0.000000 0.000000 0.000000 0.018258 0.000000
# 6 0.000000 0.000000 0.000000 0.000000 0.000000 0.037274
#
#
# Mechanical properties :
#
#
# Convention : Reuss Voigt Hill
#
# Bulk Modulus (GPa) = 76.77130 80.00772 78.38951
# Shear Modulus (GPa) = 25.38687 30.21932 27.80310
#
# Velocity S-wave (km/s) = 3.46396 3.77929 3.62506
# Velocity P-wave (km/s) = 7.23079 7.54052 7.38728
#
# Compressibility (1/GPa) = 0.01302570
#
# Stress axis : x y z
#
# Youngs Moduli (GPa) = 47.47232 55.93088 91.40962
#
# Poissons Ratio (x) = 0.52983 0.57476
# Poissons Ratio (y) = 0.44970 0.24392
# Poissons Ratio (z) = 0.29849 0.14925
#
# Static dielectric constant tensor:
#      x y z
#    x 4.203290 0.000000 0.000000 
#    y 0.000000 3.346280 0.000000 
#    z 0.000000 0.000000 4.079180 
# 
# 
# High freq. dielectric constant tensor:
#      x y z
#    x 1.863210 0.000000 0.000000 
#    y 0.000000 1.763380 0.000000 
#    z 0.000000 0.000000 1.837480 
# 
# From -- ./inp_files/3287.got.cif
#   From: 2010.03.12/outbox.cif.g09.slc.cpg/sg33_2_cif.got.tgz:3287.got - 2010.04.14 01:49:19.
