data_PCOD8170467
_publ_section_title
;
Structure prediction by ZEFSAII (Michael W. Deem and Ramdas Pophale) SiO2 
 PCOD8170467
Probable space group: P B A 2
;
_chemical_formula_sum "Si O2"
_cell_formula_units_Z 30
_cell_length_a 12.172060
_cell_length_b 14.417623
_cell_length_c 8.365983
_cell_angle_alpha 90.000000
_cell_angle_beta 90.000000
_cell_angle_gamma 90.000000
_cell_volume 1468.164529
_symmetry_space_group_name_H-M "P B A 2"
_symmetry_group_IT_number 32
_symmetry_cell_setting 'orthorhombic'
loop_
_space_group_symop_operation_xyz
x,y,z
-x,-y,z
1/2-x,1/2+y,z
1/2+x,1/2-y,z
loop_
_atom_site_type_symbol
_atom_site_label
_atom_site_fract_x
_atom_site_fract_y
_atom_site_fract_z
Si Si1 0.875732 0.983303 0.888140
Si Si2 0.202418 0.362472 0.900918
Si Si3 0.271212 0.178710 0.762551
Si Si4 0.500000 0.000000 0.429746
Si Si5 0.687929 0.095197 0.260038
Si Si6 0.847934 0.777578 0.462462
Si Si7 0.115571 0.038069 0.257000
Si Si8 0.492638 0.841581 0.669786
O O1 0.802718 0.912629 0.785232
O O2 0.813732 0.080772 0.869089
O O3 0.881522 0.942344 0.067345
O O4 0.000000 0.000000 0.822420
O O5 0.230933 0.254113 0.890429
O O6 0.106792 0.385790 0.773420
O O7 0.159940 0.385205 0.076541
O O8 0.255693 0.208953 0.578767
O O9 0.402766 0.170758 0.786794
O O10 0.601505 0.019730 0.316403
O O11 0.468321 0.087094 0.536575
O O12 0.682030 0.190944 0.353187
O O13 0.803277 0.046430 0.294801
O O14 0.863797 0.867314 0.352750
O O15 0.952578 0.752547 0.578052
O O16 0.000000 0.000000 0.315108
#
# Coordination Sequence:
#
# PCOD8170467 Si02
#       8
#     4   4   4   2   4   4   4   4
#     4  10  23  41  64  92 126 165 213 257 316 374
#     4  10  23  40  64  92 127 164 208 265 306 379
#     4  11  23  39  63  91 125 169 205 260 314 377
#     4  10  20  38  62  86 128 158 204 262 302 378
#     4  10  22  42  62  94 123 163 210 255 319 368
#     4  10  23  39  61  94 129 162 207 261 316 377
#     4  10  22  41  64  91 124 165 208 260 312 378
#     4  10  22  39  61  93 127 164 212 255 318 373
#
# _framework density 20.433678
#
# number of rings (size 3 to 8) (size 9 to 14) (size 15 to 20)
#    0.000    1.867    0.000    2.400    5.600    5.333 
#    2.400    0.000    0.000    0.000    0.000    0.000 
#    0.000    0.000    0.000    0.000    0.000    0.000 
#
# Total GULP energy -371910.936998 kJ/mol
# GULP energy per Si atom -12397.031233 kJ/mol
# Density = 2.038717 g / cm^3
# Si number density = 20.433678 Si / 1000 Ang^3
#
#
#
# Elastic Constant Matrix: (Units=GPa)
#
#
# Indices 1 2 3 4 5 6 
#
# 1 137.8711 42.6767 47.8136 0.0000 0.0000 0.0000
# 2 42.6767 99.3046 40.3546 0.0000 0.0000 0.0000
# 3 47.8136 40.3546 92.0202 0.0000 0.0000 0.0000
# 4 0.0000 0.0000 0.0000 41.0630 0.0000 0.0000
# 5 0.0000 0.0000 0.0000 0.0000 31.3354 0.0000
# 6 0.0000 0.0000 0.0000 0.0000 0.0000 29.3409
#
#
#
# Elastic Compliance Matrix: (Units=1/GPa)
#
#
# Indices 1 2 3 4 5 6 
#
# 1 0.009324 -0.002480 -0.003757 0.000000 0.000000 0.000000
# 2 -0.002480 0.012914 -0.004374 0.000000 0.000000 0.000000
# 3 -0.003757 -0.004374 0.014738 0.000000 0.000000 0.000000
# 4 0.000000 0.000000 0.000000 0.024353 0.000000 0.000000
# 5 0.000000 0.000000 0.000000 0.000000 0.031913 0.000000
# 6 0.000000 0.000000 0.000000 0.000000 0.000000 0.034082
#
#
# Mechanical properties :
#
#
# Convention : Reuss Voigt Hill
#
# Bulk Modulus (GPa) = 63.48467 65.65396 64.56931
# Shear Modulus (GPa) = 32.51050 33.57126 33.04088
#
# Velocity S-wave (km/s) = 3.99309 4.05771 4.02553
# Velocity P-wave (km/s) = 7.23850 7.35890 7.29895
#
# Compressibility (1/GPa) = 0.01575184
#
# Stress axis : x y z
#
# Youngs Moduli (GPa) = 107.25245 77.43800 67.85346
#
# Poissons Ratio (x) = 0.19206 0.25492
# Poissons Ratio (y) = 0.26601 0.29682
# Poissons Ratio (z) = 0.40294 0.33874
#
# Static dielectric constant tensor:
#      x y z
#    x 3.927890 0.000000 0.000000 
#    y 0.000000 3.692550 0.000000 
#    z 0.000000 0.000000 3.739070 
# 
# 
# High freq. dielectric constant tensor:
#      x y z
#    x 1.804990 0.000000 0.000000 
#    y 0.000000 1.804590 0.000000 
#    z 0.000000 0.000000 1.799800 
# 
# From -- ./inp_files/2854.got.cif
#   From: 2010.03.12/outbox.cif.g09.slc.cpg/sg32_2_cif.got.tgz:2854.got - 2010.04.14 01:46:39.
