data_PCOD8170653
_publ_section_title
;
Structure prediction by ZEFSAII (Michael W. Deem and Ramdas Pophale) SiO2 
 PCOD8170653
Probable space group: P N A 21
;
_chemical_formula_sum "Si O2"
_cell_formula_units_Z 28
_cell_length_a 8.860979
_cell_length_b 9.235799
_cell_length_c 17.411524
_cell_angle_alpha 90.000000
_cell_angle_beta 90.000000
_cell_angle_gamma 90.000000
_cell_volume 1424.928149
_symmetry_space_group_name_H-M "P N A 21"
_symmetry_group_IT_number 33
_symmetry_cell_setting 'orthorhombic'
loop_
_space_group_symop_operation_xyz
x,y,z
-x,-y,1/2+z
1/2-x,1/2+y,1/2+z
1/2+x,1/2-y,z
loop_
_atom_site_type_symbol
_atom_site_label
_atom_site_fract_x
_atom_site_fract_y
_atom_site_fract_z
Si Si1 0.821653 0.080824 0.446410
Si Si2 0.166501 0.129106 0.486319
Si Si3 0.664303 0.456194 0.779818
Si Si4 0.172621 0.184972 0.048125
Si Si5 0.121184 0.913200 0.619496
Si Si6 0.413728 0.239654 0.823393
Si Si7 0.337097 0.886123 0.417060
O O1 0.716165 0.204954 0.482793
O O2 0.997195 0.115462 0.456422
O O3 0.797422 0.049370 0.355984
O O4 0.765444 0.941252 0.492970
O O5 0.176953 0.052801 0.570169
O O6 0.288053 0.050575 0.431127
O O7 0.656191 0.563091 0.708405
O O8 0.505003 0.371175 0.784339
O O9 0.800833 0.341714 0.764832
O O10 0.302534 0.261728 0.096667
O O11 0.055555 0.113070 0.107010
O O12 0.097994 0.306942 0.993037
O O13 0.533947 0.120288 0.852935
O O14 0.315625 0.301718 0.893411
#
# Coordination Sequence:
#
# PCOD8170653 Si02
#       7
#     4   4   4   4   4   4   4
#     4  11  22  37  62  91 121 160 215 253 302 365
#     4  10  23  37  59  90 124 158 206 262 301 370
#     4  11  23  39  62  95 127 158 208 264 315 371
#     4  10  20  40  66  86 120 168 210 250 301 394
#     4  10  24  42  60  91 128 160 207 256 325 368
#     4  10  19  36  66  87 121 161 208 253 308 377
#     4  10  17  37  63  92 109 161 216 252 292 367
#
# _framework density 19.650113999999999
#
# number of rings (size 3 to 8) (size 9 to 14) (size 15 to 20)
#    0.000    1.714    4.286    1.714    2.000    4.571 
#    0.000    1.429    0.000    0.000    0.000    0.000 
#    0.000    0.000    0.000    0.000    0.000    0.000 
#
# Total GULP energy -347051.977586 kJ/mol
# GULP energy per Si atom -12394.713485 kJ/mol
# Density = 1.960539 g / cm^3
# Si number density = 19.650114 Si / 1000 Ang^3
#
#
#
# Elastic Constant Matrix: (Units=GPa)
#
#
# Indices 1 2 3 4 5 6 
#
# 1 73.3048 33.9086 35.1957 0.0000 0.0000 0.0000
# 2 33.9086 107.8927 50.6467 0.0000 0.0000 0.0000
# 3 35.1957 50.6467 112.1048 0.0000 0.0000 0.0000
# 4 0.0000 0.0000 0.0000 29.2533 0.0000 0.0000
# 5 0.0000 0.0000 0.0000 0.0000 18.6666 0.0000
# 6 0.0000 0.0000 0.0000 0.0000 0.0000 32.6865
#
#
#
# Elastic Compliance Matrix: (Units=1/GPa)
#
#
# Indices 1 2 3 4 5 6 
#
# 1 0.017111 -0.003625 -0.003735 0.000000 0.000000 0.000000
# 2 -0.003625 0.012531 -0.004523 0.000000 0.000000 0.000000
# 3 -0.003735 -0.004523 0.012136 0.000000 0.000000 0.000000
# 4 0.000000 0.000000 0.000000 0.034184 0.000000 0.000000
# 5 0.000000 0.000000 0.000000 0.000000 0.053572 0.000000
# 6 0.000000 0.000000 0.000000 0.000000 0.000000 0.030594
#
#
# Mechanical properties :
#
#
# Convention : Reuss Voigt Hill
#
# Bulk Modulus (GPa) = 55.51402 59.20049 57.35725
# Shear Modulus (GPa) = 26.32999 27.69139 27.01069
#
# Velocity S-wave (km/s) = 3.66449 3.75803 3.71156
# Velocity P-wave (km/s) = 6.79833 7.00165 6.90074
#
# Compressibility (1/GPa) = 0.01801347
#
# Stress axis : x y z
#
# Youngs Moduli (GPa) = 58.44039 79.80261 82.39792
#
# Poissons Ratio (x) = 0.28926 0.30773
# Poissons Ratio (y) = 0.21183 0.37270
# Poissons Ratio (z) = 0.21825 0.36096
#
# Static dielectric constant tensor:
#      x y z
#    x 3.635710 0.000000 0.000000 
#    y 0.000000 3.631900 0.000000 
#    z 0.000000 0.000000 3.305970 
# 
# 
# High freq. dielectric constant tensor:
#      x y z
#    x 1.774290 0.000000 0.000000 
#    y 0.000000 1.763010 0.000000 
#    z 0.000000 0.000000 1.738810 
# 
# From -- ./inp_files/8450.got.cif
#   From: 2010.03.12/outbox.cif.g09.slc.cpg/sg33_5_cif.got.tgz:8450.got - 2010.04.14 01:49:19.
