data_PCOD8170419
_publ_section_title
;
Structure prediction by ZEFSAII (Michael W. Deem and Ramdas Pophale) SiO2 
 PCOD8170419
Probable space group: P B A 2
;
_chemical_formula_sum "Si O2"
_cell_formula_units_Z 22
_cell_length_a 9.069797
_cell_length_b 15.434231
_cell_length_c 8.079915
_cell_angle_alpha 90.000000
_cell_angle_beta 90.000000
_cell_angle_gamma 90.000000
_cell_volume 1131.069665
_symmetry_space_group_name_H-M "P B A 2"
_symmetry_group_IT_number 32
_symmetry_cell_setting 'orthorhombic'
loop_
_space_group_symop_operation_xyz
x,y,z
-x,-y,z
1/2-x,1/2+y,z
1/2+x,1/2-y,z
loop_
_atom_site_type_symbol
_atom_site_label
_atom_site_fract_x
_atom_site_fract_y
_atom_site_fract_z
Si Si1 0.000000 0.500000 0.737780
Si Si2 0.112547 0.627048 0.312842
Si Si3 0.362703 0.147997 0.931412
Si Si4 0.143233 0.799400 0.529694
Si Si5 0.608102 0.261573 0.756828
Si Si6 0.323816 0.945727 0.435924
O O1 0.895223 0.445769 0.857876
O O2 0.895909 0.557733 0.619625
O O3 0.145091 0.711294 0.423494
O O4 0.208182 0.545000 0.381169
O O5 0.941123 0.600305 0.314236
O O6 0.154928 0.648683 0.127079
O O7 0.495682 0.209905 0.874194
O O8 0.200691 0.172465 0.867592
O O9 0.274877 0.798524 0.663000
O O10 0.175540 0.887256 0.424887
O O11 0.986744 0.812323 0.618338
#
# Coordination Sequence:
#
# PCOD8170419 Si02
#       6
#     2   4   4   4   4   4
#     4  10  18  40  60  84 120 158 208 246 294 394
#     4  10  22  36  62  92 124 155 210 258 314 366
#     4  11  22  38  61  93 125 157 206 265 314 362
#     4  11  19  40  62  88 120 162 211 250 297 386
#     4  10  21  37  62  86 119 164 207 248 309 368
#     4  10  19  38  64  88 113 170 207 244 305 379
#
# _framework density 19.450614999999999
#
# number of rings (size 3 to 8) (size 9 to 14) (size 15 to 20)
#    0.000    1.818    3.636    4.364    2.545    0.000 
#    0.000    3.636    0.000    2.182    0.000    0.000 
#    0.000    0.000    0.000    0.000    0.000    0.000 
#
# Total GULP energy -272645.220191 kJ/mol
# GULP energy per Si atom -12392.964554 kJ/mol
# Density = 1.940634 g / cm^3
# Si number density = 19.450615 Si / 1000 Ang^3
#
#
#
# Elastic Constant Matrix: (Units=GPa)
#
#
# Indices 1 2 3 4 5 6 
#
# 1 102.8402 49.9810 42.7500 0.0000 0.0000 0.0000
# 2 49.9810 116.3732 54.2508 0.0000 0.0000 0.0000
# 3 42.7500 54.2508 114.6107 0.0000 0.0000 0.0000
# 4 0.0000 0.0000 0.0000 25.6641 0.0000 0.0000
# 5 0.0000 0.0000 0.0000 0.0000 21.4577 0.0000
# 6 0.0000 0.0000 0.0000 0.0000 0.0000 38.9695
#
#
#
# Elastic Compliance Matrix: (Units=1/GPa)
#
#
# Indices 1 2 3 4 5 6 
#
# 1 0.012964 -0.004252 -0.002823 0.000000 0.000000 0.000000
# 2 -0.004252 0.012421 -0.004293 0.000000 0.000000 0.000000
# 3 -0.002823 -0.004293 0.011810 0.000000 0.000000 0.000000
# 4 0.000000 0.000000 0.000000 0.038965 0.000000 0.000000
# 5 0.000000 0.000000 0.000000 0.000000 0.046603 0.000000
# 6 0.000000 0.000000 0.000000 0.000000 0.000000 0.025661
#
#
# Mechanical properties :
#
#
# Convention : Reuss Voigt Hill
#
# Bulk Modulus (GPa) = 69.16295 69.75418 69.45856
# Shear Modulus (GPa) = 28.41239 29.67443 29.04341
#
# Velocity S-wave (km/s) = 3.82612 3.91017 3.86837
# Velocity P-wave (km/s) = 7.42659 7.50506 7.46593
#
# Compressibility (1/GPa) = 0.01445861
#
# Stress axis : x y z
#
# Youngs Moduli (GPa) = 77.13858 80.51129 84.67127
#
# Poissons Ratio (x) = 0.34232 0.23902
# Poissons Ratio (y) = 0.32798 0.36352
# Poissons Ratio (z) = 0.21775 0.34566
#
# Static dielectric constant tensor:
#      x y z
#    x 3.526220 0.000000 0.000000 
#    y 0.000000 3.663210 0.000000 
#    z 0.000000 0.000000 3.473210 
# 
# 
# High freq. dielectric constant tensor:
#      x y z
#    x 1.742100 0.000000 0.000000 
#    y 0.000000 1.760430 0.000000 
#    z 0.000000 0.000000 1.751010 
# 
# From -- ./inp_files/2274.got.cif
#   From: 2010.03.12/outbox.cif.g09.slc.cpg/sg32_2_cif.got.tgz:2274.got - 2010.04.14 01:46:39.
