data_PCOD8170345
_publ_section_title
;
Structure prediction by ZEFSAII (Michael W. Deem and Ramdas Pophale) SiO2 
 PCOD8170345
Probable space group: P M N 21
;
_chemical_formula_sum "Si O2"
_cell_formula_units_Z 20
_cell_length_a 27.356691
_cell_length_b 4.947444
_cell_length_c 5.331081
_cell_angle_alpha 90.000000
_cell_angle_beta 90.000000
_cell_angle_gamma 90.000000
_cell_volume 721.538872
_symmetry_space_group_name_H-M "P M N 21"
_symmetry_group_IT_number 31
_symmetry_cell_setting 'orthorhombic'
loop_
_space_group_symop_operation_xyz
x,y,z
1/2-x,-y,1/2+z
-x,y,z
1/2+x,-y,1/2+z
loop_
_atom_site_type_symbol
_atom_site_label
_atom_site_fract_x
_atom_site_fract_y
_atom_site_fract_z
Si Si1 0.500000 0.951607 0.044140
Si Si2 0.257536 0.336442 0.178699
Si Si3 0.858195 0.675216 0.477009
Si Si4 0.000000 0.532320 0.206366
Si Si5 0.657972 0.842875 0.656078
Si Si6 0.422543 0.618923 0.325076
O O1 0.452953 0.867063 0.208107
O O2 0.500000 0.263241 0.945892
O O3 0.500000 0.775900 0.794173
O O4 0.253028 0.441688 0.462519
O O5 0.312966 0.220725 0.151706
O O6 0.216332 0.102639 0.115862
O O7 0.841335 0.403325 0.347392
O O8 0.908345 0.612389 0.624439
O O9 0.870402 0.902610 0.272157
O O10 0.048710 0.553784 0.036871
O O11 0.628240 0.755288 0.410107
#
# Coordination Sequence:
#
# PCOD8170345 Si02
#       6
#     2   4   4   2   4   4
#     4  11  28  51  83 116 157 203 268 345 419 490
#     4  10  22  48  76 116 168 224 278 342 406 488
#     4  11  26  46  77 114 162 215 272 329 402 489
#     4  11  28  51  83 116 157 203 268 345 419 490
#     4  11  26  46  77 114 162 215 272 329 402 489
#     4  11  26  52  82 118 158 212 270 337 416 494
#
# _framework density 27.718533999999998
#
# number of rings (size 3 to 8) (size 9 to 14) (size 15 to 20)
#    0.000    1.200    2.000    1.200    0.000   20.800 
#    0.000    3.000    0.000    0.000    0.000    0.000 
#    0.000    0.000    0.000    0.000    0.000    0.000 
#
# Total GULP energy -247938.546530 kJ/mol
# GULP energy per Si atom -12396.927327 kJ/mol
# Density = 2.765544 g / cm^3
# Si number density = 27.718534 Si / 1000 Ang^3
#
#
#
# Elastic Constant Matrix: (Units=GPa)
#
#
# Indices 1 2 3 4 5 6 
#
# 1 143.1119 0.2189 12.4410 0.0000 0.0000 0.0000
# 2 0.2189 102.6499 5.4301 0.0000 0.0000 0.0000
# 3 12.4410 5.4301 73.8155 0.0000 0.0000 0.0000
# 4 0.0000 0.0000 0.0000 43.8068 0.0000 0.0000
# 5 0.0000 0.0000 0.0000 0.0000 88.0188 0.0000
# 6 0.0000 0.0000 0.0000 0.0000 0.0000 22.3639
#
#
#
# Elastic Compliance Matrix: (Units=1/GPa)
#
#
# Indices 1 2 3 4 5 6 
#
# 1 0.007092 0.000048 -0.001199 0.000000 0.000000 0.000000
# 2 0.000048 0.009780 -0.000728 0.000000 0.000000 0.000000
# 3 -0.001199 -0.000728 0.013803 0.000000 0.000000 0.000000
# 4 0.000000 0.000000 0.000000 0.022828 0.000000 0.000000
# 5 0.000000 0.000000 0.000000 0.000000 0.011361 0.000000
# 6 0.000000 0.000000 0.000000 0.000000 0.000000 0.044715
#
#
# Mechanical properties :
#
#
# Convention : Reuss Voigt Hill
#
# Bulk Modulus (GPa) = 37.14909 39.52859 38.33884
# Shear Modulus (GPa) = 40.88059 50.93706 45.90883
#
# Velocity S-wave (km/s) = 3.84454 4.29144 4.07412
# Velocity P-wave (km/s) = 5.75662 6.23273 5.99940
#
# Compressibility (1/GPa) = 0.02691856
#
# Stress axis : x y z
#
# Youngs Moduli (GPa) = 141.01030 102.24700 72.44872
#
# Poissons Ratio (x) = -0.00494 0.08685
# Poissons Ratio (y) = -0.00681 0.05271
# Poissons Ratio (z) = 0.16904 0.07440
#
# Static dielectric constant tensor:
#      x y z
#    x 5.408100 0.000000 0.000000 
#    y 0.000000 4.503950 0.000000 
#    z 0.000000 0.000000 5.028740 
# 
# 
# High freq. dielectric constant tensor:
#      x y z
#    x 2.144340 0.000000 0.000000 
#    y 0.000000 2.097990 0.000000 
#    z 0.000000 0.000000 2.124290 
# 
# From -- ./inp_files/1316.got.cif
#   From: 2010.03.12/outbox.cif.g09.slc.cpg/sg31_1_cif.got.tgz:1316.got - 2010.04.14 01:42:59.
