data_PCOD8170075
_publ_section_title
;
Structure prediction by ZEFSAII (Michael W. Deem and Ramdas Pophale) SiO2 
 PCOD8170075
Probable space group: P M N 21
;
_chemical_formula_sum "Si O2"
_cell_formula_units_Z 32
_cell_length_a 8.729190
_cell_length_b 14.194637
_cell_length_c 14.175005
_cell_angle_alpha 90.000000
_cell_angle_beta 90.000000
_cell_angle_gamma 90.000000
_cell_volume 1756.392031
_symmetry_space_group_name_H-M "P M N 21"
_symmetry_group_IT_number 31
_symmetry_cell_setting 'orthorhombic'
loop_
_space_group_symop_operation_xyz
x,y,z
1/2-x,-y,1/2+z
-x,y,z
1/2+x,-y,1/2+z
loop_
_atom_site_type_symbol
_atom_site_label
_atom_site_fract_x
_atom_site_fract_y
_atom_site_fract_z
Si Si1 0.818822 0.991060 0.505170
Si Si2 0.317909 0.855552 0.151778
Si Si3 0.180365 0.353659 0.641878
Si Si4 0.180905 0.510123 0.499008
Si Si5 0.319058 0.639152 0.654974
Si Si6 0.318989 0.008782 0.793212
Si Si7 0.179392 0.145106 0.144696
Si Si8 0.318831 0.499896 0.295175
O O1 0.755785 0.001751 0.399248
O O2 0.759167 0.894126 0.550500
O O3 0.000000 0.988474 0.505658
O O4 0.758304 0.080547 0.564990
O O5 0.500000 0.853318 0.155257
O O6 0.247393 0.750782 0.139092
O O7 0.256535 0.898032 0.249377
O O8 0.228478 0.411849 0.548791
O O9 0.235300 0.409086 0.735221
O O10 0.000000 0.343850 0.644799
O O11 0.231449 0.595822 0.565593
O O12 0.270964 0.516905 0.401899
O O13 0.000000 0.516292 0.481170
O O14 0.500000 0.625992 0.641815
O O15 0.270599 0.747941 0.661910
O O16 0.265410 0.591466 0.752555
O O17 0.500000 0.021938 0.791660
O O18 0.268268 0.915988 0.735306
O O19 0.000000 0.136599 0.128532
O O20 0.500000 0.484415 0.286975
#
# Coordination Sequence:
#
# PCOD8170075 Si02
#       8
#     4   4   4   4   4   4   4   4
#     4   9  18  31  50  73  98 127 162 204 248 291
#     4   9  17  32  52  72  93 125 165 202 239 289
#     4   8  17  33  52  72  97 128 165 204 245 294
#     4  10  20  35  54  76 102 135 170 210 256 304
#     4  10  20  35  54  76 101 135 174 212 253 301
#     4   9  18  33  49  71 101 130 161 203 250 297
#     4   9  19  34  52  72  99 133 168 205 249 300
#     4  10  20  35  53  76 105 135 167 210 256 304
#
# _framework density 18.219166999999999
#
# number of rings (size 3 to 8) (size 9 to 14) (size 15 to 20)
#    0.000    2.750    0.000    1.875    0.000    3.500 
#    0.000   11.250    0.000    3.000    0.000    0.000 
#    0.000    0.000    0.000    0.000    0.000    0.000 
#
# Total GULP energy -396785.196275 kJ/mol
# GULP energy per Si atom -12399.537384 kJ/mol
# Density = 1.817770 g / cm^3
# Si number density = 18.219167 Si / 1000 Ang^3
#
#
#
# Elastic Constant Matrix: (Units=GPa)
#
#
# Indices 1 2 3 4 5 6 
#
# 1 26.2432 22.4906 13.6411 0.0000 0.0000 0.0000
# 2 22.4906 121.4751 37.5335 0.0000 0.0000 0.0000
# 3 13.6411 37.5335 117.3780 0.0000 0.0000 0.0000
# 4 0.0000 0.0000 0.0000 14.9812 0.0000 0.0000
# 5 0.0000 0.0000 0.0000 0.0000 31.4701 0.0000
# 6 0.0000 0.0000 0.0000 0.0000 0.0000 23.8945
#
#
#
# Elastic Compliance Matrix: (Units=1/GPa)
#
#
# Indices 1 2 3 4 5 6 
#
# 1 0.046177 -0.007647 -0.002921 0.000000 0.000000 0.000000
# 2 -0.007647 0.010401 -0.002437 0.000000 0.000000 0.000000
# 3 -0.002921 -0.002437 0.009638 0.000000 0.000000 0.000000
# 4 0.000000 0.000000 0.000000 0.066750 0.000000 0.000000
# 5 0.000000 0.000000 0.000000 0.000000 0.031776 0.000000
# 6 0.000000 0.000000 0.000000 0.000000 0.000000 0.041851
#
#
# Mechanical properties :
#
#
# Convention : Reuss Voigt Hill
#
# Bulk Modulus (GPa) = 24.87216 45.82519 35.34867
# Shear Modulus (GPa) = 20.32473 26.83123 23.57798
#
# Velocity S-wave (km/s) = 3.34364 3.84173 3.60131
# Velocity P-wave (km/s) = 5.34676 6.69965 6.06107
#
# Compressibility (1/GPa) = 0.04020559
#
# Stress axis : x y z
#
# Youngs Moduli (GPa) = 21.65587 96.14486 103.75266
#
# Poissons Ratio (x) = 0.73520 0.30309
# Poissons Ratio (y) = 0.16560 0.25287
# Poissons Ratio (z) = 0.06326 0.23432
#
# Static dielectric constant tensor:
#      x y z
#    x 3.193830 0.000000 0.000000 
#    y 0.000000 3.645860 0.000000 
#    z 0.000000 0.000000 3.473740 
# 
# 
# High freq. dielectric constant tensor:
#      x y z
#    x 1.693820 0.000000 0.000000 
#    y 0.000000 1.709060 0.000000 
#    z 0.000000 0.000000 1.708720 
# 
# From -- ./inp_files/5123.got.cif
#   From: 2010.03.12/outbox.cif.g09.slc.cpg/sg31_3_cif.got.tgz:5123.got - 2010.04.14 01:42:59.
