data_PCOD8170704
_publ_section_title
;
Structure prediction by ZEFSAII (Michael W. Deem and Ramdas Pophale) SiO2 
 PCOD8170704
Probable space group: P N A 21
;
_chemical_formula_sum "Si O2"
_cell_formula_units_Z 24
_cell_length_a 9.116598
_cell_length_b 16.002857
_cell_length_c 8.120193
_cell_angle_alpha 90.000000
_cell_angle_beta 90.000000
_cell_angle_gamma 90.000000
_cell_volume 1184.668064
_symmetry_space_group_name_H-M "P N A 21"
_symmetry_group_IT_number 33
_symmetry_cell_setting 'orthorhombic'
loop_
_space_group_symop_operation_xyz
x,y,z
-x,-y,1/2+z
1/2-x,1/2+y,1/2+z
1/2+x,1/2-y,z
loop_
_atom_site_type_symbol
_atom_site_label
_atom_site_fract_x
_atom_site_fract_y
_atom_site_fract_z
Si Si1 0.134789 0.998592 0.284080
Si Si2 0.137361 0.462305 0.524456
Si Si3 0.873678 0.075509 0.105745
Si Si4 0.158708 0.814459 0.897120
Si Si5 0.344457 0.054992 0.701802
Si Si6 0.844998 0.838785 0.000777
O O1 0.284582 0.997215 0.185306
O O2 0.110432 0.917509 0.406083
O O3 0.154213 0.078159 0.396682
O O4 0.995691 0.008179 0.165670
O O5 0.238941 0.388719 0.457810
O O6 0.118385 0.539223 0.394608
O O7 0.983772 0.425127 0.586268
O O8 0.886702 0.163443 0.205844
O O9 0.716759 0.034221 0.141084
O O10 0.247083 0.729009 0.905195
O O11 0.013702 0.807283 0.013628
O O12 0.231185 0.133629 0.675109
#
# Coordination Sequence:
#
# PCOD8170704 Si02
#       6
#     4   4   4   4   4   4
#     4  10  19  35  58  82 110 148 193 239 282 335
#     4  11  21  35  58  84 112 147 192 241 283 336
#     4   9  18  33  55  82 110 146 190 231 278 333
#     4  10  21  36  57  82 115 153 187 227 283 343
#     4  10  19  33  54  82 112 145 189 234 279 334
#     4  10  20  36  56  82 115 151 187 228 283 341
#
# _framework density 20.258838999999998
#
# number of rings (size 3 to 8) (size 9 to 14) (size 15 to 20)
#    0.000    2.000    0.000    7.000    0.000    1.333 
#    0.000    1.667    0.000    6.000    0.000    0.000 
#    0.000    0.000    0.000    0.000    0.000    0.000 
#
# Total GULP energy -297319.179778 kJ/mol
# GULP energy per Si atom -12388.299157 kJ/mol
# Density = 2.021273 g / cm^3
# Si number density = 20.258839 Si / 1000 Ang^3
#
#
#
# Elastic Constant Matrix: (Units=GPa)
#
#
# Indices 1 2 3 4 5 6 
#
# 1 127.4977 27.4094 39.3019 0.0000 0.0000 0.0000
# 2 27.4094 51.5166 14.8507 0.0000 0.0000 0.0000
# 3 39.3019 14.8507 95.1447 0.0000 0.0000 0.0000
# 4 0.0000 0.0000 0.0000 16.2339 0.0000 0.0000
# 5 0.0000 0.0000 0.0000 0.0000 32.4081 0.0000
# 6 0.0000 0.0000 0.0000 0.0000 0.0000 31.9924
#
#
#
# Elastic Compliance Matrix: (Units=1/GPa)
#
#
# Indices 1 2 3 4 5 6 
#
# 1 0.009798 -0.004237 -0.003386 0.000000 0.000000 0.000000
# 2 -0.004237 0.022158 -0.001708 0.000000 0.000000 0.000000
# 3 -0.003386 -0.001708 0.012176 0.000000 0.000000 0.000000
# 4 0.000000 0.000000 0.000000 0.061600 0.000000 0.000000
# 5 0.000000 0.000000 0.000000 0.000000 0.030856 0.000000
# 6 0.000000 0.000000 0.000000 0.000000 0.000000 0.031257
#
#
# Mechanical properties :
#
#
# Convention : Reuss Voigt Hill
#
# Bulk Modulus (GPa) = 39.26341 48.58699 43.92520
# Shear Modulus (GPa) = 25.64142 28.96667 27.30405
#
# Velocity S-wave (km/s) = 3.56151 3.78541 3.67517
# Velocity P-wave (km/s) = 6.02789 6.56818 6.30382
#
# Compressibility (1/GPa) = 0.02546901
#
# Stress axis : x y z
#
# Youngs Moduli (GPa) = 102.06313 45.13053 82.13144
#
# Poissons Ratio (x) = 0.19121 0.27809
# Poissons Ratio (y) = 0.43243 0.14031
# Poissons Ratio (z) = 0.34558 0.07710
#
# Static dielectric constant tensor:
#      x y z
#    x 4.315400 0.000000 0.000000 
#    y 0.000000 3.431780 0.000000 
#    z 0.000000 0.000000 4.225460 
# 
# 
# High freq. dielectric constant tensor:
#      x y z
#    x 1.811820 0.000000 0.000000 
#    y 0.000000 1.749130 0.000000 
#    z 0.000000 0.000000 1.785190 
# 
# From -- ./inp_files/3135.got.cif
#   From: 2010.03.12/outbox.cif.g09.slc.cpg/sg33_2_cif.got.tgz:3135.got - 2010.04.14 01:49:19.
