data_PCOD8170291
_publ_section_title
;
Structure prediction by ZEFSAII (Michael W. Deem and Ramdas Pophale) SiO2 
 PCOD8170291
Probable space group: P M N 21
;
_chemical_formula_sum "Si O2"
_cell_formula_units_Z 24
_cell_length_a 8.528054
_cell_length_b 13.726912
_cell_length_c 10.046437
_cell_angle_alpha 90.000000
_cell_angle_beta 90.000000
_cell_angle_gamma 90.000000
_cell_volume 1176.074562
_symmetry_space_group_name_H-M "P M N 21"
_symmetry_group_IT_number 31
_symmetry_cell_setting 'orthorhombic'
loop_
_space_group_symop_operation_xyz
x,y,z
1/2-x,-y,1/2+z
-x,y,z
1/2+x,-y,1/2+z
loop_
_atom_site_type_symbol
_atom_site_label
_atom_site_fract_x
_atom_site_fract_y
_atom_site_fract_z
Si Si1 0.314098 0.218790 0.558770
Si Si2 0.684046 0.082639 0.796454
Si Si3 0.184056 0.871910 0.784240
Si Si4 0.685188 0.583441 0.423392
Si Si5 0.683723 0.793370 0.523340
Si Si6 0.185793 0.570645 0.138063
O O1 0.500000 0.222438 0.558664
O O2 0.253478 0.144943 0.671589
O O3 0.253450 0.182375 0.415994
O O4 0.244766 0.325787 0.588864
O O5 0.500000 0.097849 0.819407
O O6 0.775577 0.116369 0.927998
O O7 0.720582 0.971110 0.766429
O O8 0.221460 0.802555 0.660271
O O9 0.000000 0.894668 0.792637
O O10 0.500000 0.576777 0.411746
O O11 0.739765 0.693447 0.454077
O O12 0.757625 0.546588 0.285916
O O13 0.748715 0.513286 0.540026
O O14 0.500000 0.792706 0.555125
O O15 0.000000 0.573620 0.137476
#
# Coordination Sequence:
#
# PCOD8170291 Si02
#       6
#     4   4   4   4   4   4
#     4   9  20  38  60  85 116 153 198 244 293 354
#     4  11  21  39  64  89 117 159 204 249 304 357
#     4  11  23  38  60  91 121 159 202 248 301 357
#     4  10  23  40  62  91 121 154 197 249 301 351
#     4  11  23  40  58  87 127 161 198 247 295 358
#     4  10  21  41  64  87 118 156 197 245 300 361
#
# _framework density 20.406870000000001
#
# number of rings (size 3 to 8) (size 9 to 14) (size 15 to 20)
#    0.000    1.667    1.667    2.500    2.333    2.667 
#    0.000    4.167    0.000    0.000    0.000    0.000 
#    0.000    0.000    0.000    0.000    0.000    0.000 
#
# Total GULP energy -297739.102580 kJ/mol
# GULP energy per Si atom -12405.795941 kJ/mol
# Density = 2.036042 g / cm^3
# Si number density = 20.406870 Si / 1000 Ang^3
#
#
#
# Elastic Constant Matrix: (Units=GPa)
#
#
# Indices 1 2 3 4 5 6 
#
# 1 30.4981 18.6243 22.7581 0.0000 0.0000 0.0000
# 2 18.6243 106.8509 51.9049 0.0000 0.0000 0.0000
# 3 22.7581 51.9049 164.3269 0.0000 0.0000 0.0000
# 4 0.0000 0.0000 0.0000 43.6752 0.0000 0.0000
# 5 0.0000 0.0000 0.0000 0.0000 31.7000 0.0000
# 6 0.0000 0.0000 0.0000 0.0000 0.0000 24.6513
#
#
#
# Elastic Compliance Matrix: (Units=1/GPa)
#
#
# Indices 1 2 3 4 5 6 
#
# 1 0.038609 -0.004881 -0.003805 0.000000 0.000000 0.000000
# 2 -0.004881 0.011672 -0.003011 0.000000 0.000000 0.000000
# 3 -0.003805 -0.003011 0.007563 0.000000 0.000000 0.000000
# 4 0.000000 0.000000 0.000000 0.022896 0.000000 0.000000
# 5 0.000000 0.000000 0.000000 0.000000 0.031546 0.000000
# 6 0.000000 0.000000 0.000000 0.000000 0.000000 0.040566
#
#
# Mechanical properties :
#
#
# Convention : Reuss Voigt Hill
#
# Bulk Modulus (GPa) = 29.02728 54.25006 41.63867
# Shear Modulus (GPa) = 26.63386 33.89787 30.26587
#
# Velocity S-wave (km/s) = 3.61659 4.08008 3.85531
# Velocity P-wave (km/s) = 5.62982 6.98842 6.34558
#
# Compressibility (1/GPa) = 0.03445035
#
# Stress axis : x y z
#
# Youngs Moduli (GPa) = 25.90047 85.67368 132.21479
#
# Poissons Ratio (x) = 0.41819 0.50312
# Poissons Ratio (y) = 0.12642 0.39807
# Poissons Ratio (z) = 0.09856 0.25795
#
# Static dielectric constant tensor:
#      x y z
#    x 3.384410 0.000000 0.000000 
#    y 0.000000 3.864210 0.000000 
#    z 0.000000 0.000000 3.846740 
# 
# 
# High freq. dielectric constant tensor:
#      x y z
#    x 1.776970 0.000000 0.000000 
#    y 0.000000 1.805840 0.000000 
#    z 0.000000 0.000000 1.813020 
# 
# From -- ./inp_files/1693.got.cif
#   From: 2010.03.12/outbox.cif.g09.slc.cpg/sg31_1_cif.got.tgz:1693.got - 2010.04.14 01:42:59.
