data_PCOD8170983
_publ_section_title
;
Structure prediction by ZEFSAII (Michael W. Deem and Ramdas Pophale) SiO2 
 PCOD8170983
Probable space group: P N A 21
;
_chemical_formula_sum "Si O2"
_cell_formula_units_Z 32
_cell_length_a 13.878564
_cell_length_b 8.668995
_cell_length_c 13.990023
_cell_angle_alpha 90.000000
_cell_angle_beta 90.000000
_cell_angle_gamma 90.000000
_cell_volume 1683.184462
_symmetry_space_group_name_H-M "P N A 21"
_symmetry_group_IT_number 33
_symmetry_cell_setting 'orthorhombic'
loop_
_space_group_symop_operation_xyz
x,y,z
-x,-y,1/2+z
1/2-x,1/2+y,1/2+z
1/2+x,1/2-y,z
loop_
_atom_site_type_symbol
_atom_site_label
_atom_site_fract_x
_atom_site_fract_y
_atom_site_fract_z
Si Si1 0.753318 0.426742 0.137250
Si Si2 0.746682 0.573258 0.637250
Si Si3 0.241396 0.571097 0.340012
Si Si4 0.109049 0.071563 0.487878
Si Si5 0.093614 0.426055 0.983350
Si Si6 0.109048 0.428437 0.487878
Si Si7 0.741396 0.571097 0.340012
Si Si8 0.093614 0.073945 0.983350
O O1 0.766185 0.250000 0.168885
O O2 0.750706 0.534766 0.229054
O O3 0.654693 0.451102 0.079560
O O4 0.843914 0.472019 0.072200
O O5 0.749294 0.465234 0.729054
O O6 0.656086 0.527981 0.572200
O O7 0.845307 0.548898 0.579560
O O8 0.154497 0.473474 0.385738
O O9 0.216997 0.750000 0.355575
O O10 0.341513 0.529559 0.392022
O O11 0.128033 0.250000 0.508649
O O12 0.154497 0.026525 0.385738
O O13 0.995631 0.040953 0.485085
O O14 0.057358 0.250000 0.975692
O O15 0.158487 0.470441 0.892022
O O16 0.004369 0.540953 0.985085
#
# Coordination Sequence:
#
# PCOD8170983 Si02
#       8
#     4   4   4   4   4   4   4   4
#     4  10  21  38  59  82 111 145 183 228 274 324
#     4  10  21  38  59  82 111 145 183 228 274 324
#     4  10  21  38  59  82 111 145 183 228 274 324
#     4  11  22  36  57  83 111 145 183 225 274 326
#     4   9  20  38  57  79 109 145 183 225 272 322
#     4  11  22  36  57  83 111 145 183 225 274 326
#     4  10  21  38  59  82 111 145 183 228 274 324
#     4   9  20  38  57  79 109 145 183 225 272 322
#
# _framework density 19.011581
#
# number of rings (size 3 to 8) (size 9 to 14) (size 15 to 20)
#    0.000    2.000    0.000    5.250    0.000    8.000 
#    0.000    0.000    0.000    0.000    0.000    0.000 
#    0.000    0.000    0.000    0.000    0.000    0.000 
#
# Total GULP energy -396981.671555 kJ/mol
# GULP energy per Si atom -12405.677236 kJ/mol
# Density = 1.896831 g / cm^3
# Si number density = 19.011581 Si / 1000 Ang^3
#
#
#
# Elastic Constant Matrix: (Units=GPa)
#
#
# Indices 1 2 3 4 5 6 
#
# 1 108.5278 39.6950 31.7515 0.0000 0.0000 0.0000
# 2 39.6950 75.5139 11.5481 0.0000 0.0000 0.0000
# 3 31.7515 11.5481 103.4389 0.0000 0.0000 0.0000
# 4 0.0000 0.0000 0.0000 36.1956 0.0000 0.0000
# 5 0.0000 0.0000 0.0000 0.0000 11.8983 0.0000
# 6 0.0000 0.0000 0.0000 0.0000 0.0000 30.0267
#
#
#
# Elastic Compliance Matrix: (Units=1/GPa)
#
#
# Indices 1 2 3 4 5 6 
#
# 1 0.012319 -0.006000 -0.003112 0.000000 0.000000 0.000000
# 2 -0.006000 0.016395 0.000011 0.000000 0.000000 0.000000
# 3 -0.003112 0.000011 0.010621 0.000000 0.000000 0.000000
# 4 0.000000 0.000000 0.000000 0.027628 0.000000 0.000000
# 5 0.000000 0.000000 0.000000 0.000000 0.084045 0.000000
# 6 0.000000 0.000000 0.000000 0.000000 0.000000 0.033304
#
#
# Mechanical properties :
#
#
# Convention : Reuss Voigt Hill
#
# Bulk Modulus (GPa) = 47.31476 50.38552 48.85014
# Shear Modulus (GPa) = 23.85982 29.25652 26.55817
#
# Velocity S-wave (km/s) = 3.54646 3.92711 3.74163
# Velocity P-wave (km/s) = 6.45842 6.86462 6.66462
#
# Compressibility (1/GPa) = 0.02113505
#
# Stress axis : x y z
#
# Youngs Moduli (GPa) = 81.17491 60.99511 94.14944
#
# Poissons Ratio (x) = 0.36596 0.29296
# Poissons Ratio (y) = 0.48704 -0.00107
# Poissons Ratio (z) = 0.25258 -0.00069
#
# Static dielectric constant tensor:
#      x y z
#    x 3.347140 0.000000 0.000000 
#    y 0.000000 3.454220 0.000000 
#    z 0.000000 0.000000 3.448720 
# 
# 
# High freq. dielectric constant tensor:
#      x y z
#    x 1.736200 0.000000 0.000000 
#    y 0.000000 1.747550 0.000000 
#    z 0.000000 0.000000 1.739410 
# 
# From -- ./inp_files/8005.got.cif
#   From: 2010.03.12/outbox.cif.g09.slc.cpg/sg33_5_cif.got.tgz:8005.got - 2010.04.14 01:49:19.
