data_PCOD8170936
_publ_section_title
;
Structure prediction by ZEFSAII (Michael W. Deem and Ramdas Pophale) SiO2 
 PCOD8170936
Probable space group: P N A 21
;
_chemical_formula_sum "Si O2"
_cell_formula_units_Z 28
_cell_length_a 18.776126
_cell_length_b 5.579024
_cell_length_c 12.731485
_cell_angle_alpha 90.000000
_cell_angle_beta 90.000000
_cell_angle_gamma 90.000000
_cell_volume 1333.654342
_symmetry_space_group_name_H-M "P N A 21"
_symmetry_group_IT_number 33
_symmetry_cell_setting 'orthorhombic'
loop_
_space_group_symop_operation_xyz
x,y,z
-x,-y,1/2+z
1/2-x,1/2+y,1/2+z
1/2+x,1/2-y,z
loop_
_atom_site_type_symbol
_atom_site_label
_atom_site_fract_x
_atom_site_fract_y
_atom_site_fract_z
Si Si1 0.174268 0.545352 0.343450
Si Si2 0.767961 0.592148 0.454770
Si Si3 0.338178 0.082863 0.262780
Si Si4 0.801936 0.819900 0.664538
Si Si5 0.584514 0.409870 0.710081
Si Si6 0.628688 0.336197 0.484963
Si Si7 0.076795 0.925008 0.276096
O O1 0.237695 0.729274 0.365985
O O2 0.206972 0.369172 0.258404
O O3 0.150768 0.434343 0.455592
O O4 0.102422 0.654204 0.293619
O O5 0.813756 0.403001 0.385940
O O6 0.812998 0.714605 0.547759
O O7 0.701751 0.470706 0.512597
O O8 0.273182 0.039332 0.179129
O O9 0.377003 0.337156 0.238298
O O10 0.384489 0.836977 0.258284
O O11 0.872678 0.974445 0.683306
O O12 0.579230 0.363569 0.585534
O O13 0.504453 0.440125 0.747143
O O14 0.587523 0.434194 0.384162
#
# Coordination Sequence:
#
# PCOD8170936 Si02
#       7
#     4   4   4   4   4   4   4
#     4  10  20  42  68  99 139 178 236 283 352 424
#     4  11  22  39  68 107 133 180 235 301 347 408
#     4  12  25  45  69 108 138 178 244 295 339 429
#     4  11  22  42  72  99 137 188 237 290 352 416
#     4  12  28  46  70 104 146 186 234 295 362 423
#     4  10  22  41  73  93 138 192 230 285 367 415
#     4  10  25  45  66 100 143 188 234 293 353 437
#
# _framework density 20.994947
#
# number of rings (size 3 to 8) (size 9 to 14) (size 15 to 20)
#    0.000    1.143    5.714    1.714    6.000    2.286 
#    2.571    0.000    0.000    0.000    0.000    0.000 
#    0.000    0.000    0.000    0.000    0.000    0.000 
#
# Total GULP energy -346961.532929 kJ/mol
# GULP energy per Si atom -12391.483319 kJ/mol
# Density = 2.094716 g / cm^3
# Si number density = 20.994947 Si / 1000 Ang^3
#
#
#
# Elastic Constant Matrix: (Units=GPa)
#
#
# Indices 1 2 3 4 5 6 
#
# 1 106.2033 32.4907 42.3726 0.0000 0.0000 0.0000
# 2 32.4907 104.4363 23.7028 0.0000 0.0000 0.0000
# 3 42.3726 23.7028 109.1219 0.0000 0.0000 0.0000
# 4 0.0000 0.0000 0.0000 25.0509 0.0000 0.0000
# 5 0.0000 0.0000 0.0000 0.0000 -8.9270 0.0000
# 6 0.0000 0.0000 0.0000 0.0000 0.0000 1.6251
#
#
#
# Elastic Compliance Matrix: (Units=1/GPa)
#
#
# Indices 1 2 3 4 5 6 
#
# 1 0.011864 -0.002783 -0.004002 0.000000 0.000000 0.000000
# 2 -0.002783 0.010724 -0.001249 0.000000 0.000000 0.000000
# 3 -0.004002 -0.001249 0.010990 0.000000 0.000000 0.000000
# 4 0.000000 0.000000 0.000000 0.039919 0.000000 0.000000
# 5 0.000000 0.000000 0.000000 0.000000 -0.112020 0.000000
# 6 0.000000 0.000000 0.000000 0.000000 0.000000 0.615331
#
#
# Mechanical properties :
#
#
# Convention : Reuss Voigt Hill
#
# Bulk Modulus (GPa) = 57.11054 57.43261 57.27157
# Shear Modulus (GPa) = 8.35125 18.29618 13.32371
#
# Velocity S-wave (km/s) = 1.99659 2.95525 2.52189
# Velocity P-wave (km/s) = 5.70756 6.24976 5.98480
#
# Compressibility (1/GPa) = 0.01750990
#
# Stress axis : x y z
#
# Youngs Moduli (GPa) = 84.28816 93.24571 90.99560
#
# Poissons Ratio (x) = 0.25946 0.36421
# Poissons Ratio (y) = 0.23454 0.11365
# Poissons Ratio (z) = 0.33736 0.11646
#
# Static dielectric constant tensor:
#      x y z
#    x 3.598100 0.000000 0.000000 
#    y 0.000000 4.201650 0.000000 
#    z 0.000000 0.000000 3.708610 
# 
# 
# High freq. dielectric constant tensor:
#      x y z
#    x 1.803730 0.000000 0.000000 
#    y 0.000000 1.833660 0.000000 
#    z 0.000000 0.000000 1.826840 
# 
# From -- ./inp_files/6935.got.cif
#   From: 2010.03.12/outbox.cif.g09.slc.cpg/sg33_4_cif.got.tgz:6935.got - 2010.04.14 01:49:19.
