data_PCOD8170517
_publ_section_title
;
Structure prediction by ZEFSAII (Michael W. Deem and Ramdas Pophale) SiO2 
 PCOD8170517
Probable space group: P B A 2
;
_chemical_formula_sum "Si O2"
_cell_formula_units_Z 30
_cell_length_a 8.886614
_cell_length_b 11.443481
_cell_length_c 13.807135
_cell_angle_alpha 90.000000
_cell_angle_beta 90.000000
_cell_angle_gamma 90.000000
_cell_volume 1404.100004
_symmetry_space_group_name_H-M "P B A 2"
_symmetry_group_IT_number 32
_symmetry_cell_setting 'orthorhombic'
loop_
_space_group_symop_operation_xyz
x,y,z
-x,-y,z
1/2-x,1/2+y,z
1/2+x,1/2-y,z
loop_
_atom_site_type_symbol
_atom_site_label
_atom_site_fract_x
_atom_site_fract_y
_atom_site_fract_z
Si Si1 0.000000 0.000000 0.877010
Si Si2 0.842184 0.165196 0.022360
Si Si3 0.342087 0.711899 0.778954
Si Si4 0.052050 0.872445 0.236613
Si Si5 0.944504 0.374163 0.457160
Si Si6 0.047814 0.631587 0.678229
Si Si7 0.540465 0.135330 0.951873
Si Si8 0.694134 0.247843 0.348245
O O1 0.919218 0.909589 0.806030
O O2 0.117765 0.935736 0.946136
O O3 0.921335 0.143655 0.123546
O O4 0.662017 0.154515 0.038216
O O5 0.890108 0.292466 0.979157
O O6 0.169258 0.679896 0.756218
O O7 0.411591 0.774858 0.684002
O O8 0.366883 0.809986 0.861509
O O9 0.199544 0.850830 0.301709
O O10 0.912306 0.789542 0.261623
O O11 0.000000 0.000000 0.263429
O O12 0.892689 0.366514 0.568720
O O13 0.800677 0.348356 0.390973
O O14 0.000000 0.500000 0.426659
O O15 0.088602 0.292755 0.436714
O O16 0.000000 0.500000 0.707635
O O17 0.500000 0.000000 0.934446
#
# Coordination Sequence:
#
# PCOD8170517 Si02
#       8
#     2   4   4   4   4   4   4   4
#     4  10  24  40  64  88 134 170 216 266 322 378
#     4  11  24  42  63  95 130 174 220 274 321 383
#     4  11  24  42  63  95 126 173 217 265 322 386
#     4  11  22  40  64  94 129 169 218 268 320 392
#     4  10  21  42  64  94 128 166 208 270 331 385
#     4  11  25  41  68  95 132 168 222 271 325 399
#     4  11  26  42  66  91 131 174 220 271 329 383
#     4  10  22  39  66  94 128 169 214 264 332 392
#
# _framework density 21.366001000000001
#
# number of rings (size 3 to 8) (size 9 to 14) (size 15 to 20)
#    0.000    1.333    0.667    4.400    9.333    1.067 
#    0.000    3.333    2.933    0.000    0.000    0.000 
#    0.000    0.000    0.000    0.000    0.000    0.000 
#
# Total GULP energy -371911.266457 kJ/mol
# GULP energy per Si atom -12397.042215 kJ/mol
# Density = 2.131737 g / cm^3
# Si number density = 21.366001 Si / 1000 Ang^3
#
#
#
# Elastic Constant Matrix: (Units=GPa)
#
#
# Indices 1 2 3 4 5 6 
#
# 1 123.7265 58.8864 38.6508 0.0000 0.0000 0.0000
# 2 58.8864 147.4599 38.5254 0.0000 0.0000 0.0000
# 3 38.6508 38.5254 76.7311 0.0000 0.0000 0.0000
# 4 0.0000 0.0000 0.0000 27.4836 0.0000 0.0000
# 5 0.0000 0.0000 0.0000 0.0000 41.7286 0.0000
# 6 0.0000 0.0000 0.0000 0.0000 0.0000 33.2011
#
#
#
# Elastic Compliance Matrix: (Units=1/GPa)
#
#
# Indices 1 2 3 4 5 6 
#
# 1 0.010859 -0.003346 -0.003790 0.000000 0.000000 0.000000
# 2 -0.003346 0.008837 -0.002751 0.000000 0.000000 0.000000
# 3 -0.003790 -0.002751 0.016323 0.000000 0.000000 0.000000
# 4 0.000000 0.000000 0.000000 0.036385 0.000000 0.000000
# 5 0.000000 0.000000 0.000000 0.000000 0.023964 0.000000
# 6 0.000000 0.000000 0.000000 0.000000 0.000000 0.030119
#
#
# Mechanical properties :
#
#
# Convention : Reuss Voigt Hill
#
# Bulk Modulus (GPa) = 61.56115 68.89364 65.22739
# Shear Modulus (GPa) = 32.96500 34.60633 33.78566
#
# Velocity S-wave (km/s) = 3.93220 4.02890 3.98085
# Velocity P-wave (km/s) = 7.03502 7.34556 7.19197
#
# Compressibility (1/GPa) = 0.01624401
#
# Stress axis : x y z
#
# Youngs Moduli (GPa) = 92.09113 113.16629 61.26425
#
# Poissons Ratio (x) = 0.37868 0.23217
# Poissons Ratio (y) = 0.30816 0.16855
# Poissons Ratio (z) = 0.34899 0.31133
#
# Static dielectric constant tensor:
#      x y z
#    x 4.068900 0.000000 0.000000 
#    y 0.000000 4.002280 0.000000 
#    z 0.000000 0.000000 3.739000 
# 
# 
# High freq. dielectric constant tensor:
#      x y z
#    x 1.850340 0.000000 0.000000 
#    y 0.000000 1.844780 0.000000 
#    z 0.000000 0.000000 1.834790 
# 
# From -- ./inp_files/4127.got.cif
#   From: 2010.03.12/outbox.cif.g09.slc.cpg/sg32_3_cif.got.tgz:4127.got - 2010.04.14 01:46:39.
