data_PCOD8170163
_publ_section_title
;
Structure prediction by ZEFSAII (Michael W. Deem and Ramdas Pophale) SiO2 
 PCOD8170163
Probable space group: P M N 21
;
_chemical_formula_sum "Si O2"
_cell_formula_units_Z 24
_cell_length_a 8.964216
_cell_length_b 10.968903
_cell_length_c 12.647575
_cell_angle_alpha 90.000000
_cell_angle_beta 90.000000
_cell_angle_gamma 90.000000
_cell_volume 1243.605895
_symmetry_space_group_name_H-M "P M N 21"
_symmetry_group_IT_number 31
_symmetry_cell_setting 'orthorhombic'
loop_
_space_group_symop_operation_xyz
x,y,z
1/2-x,-y,1/2+z
-x,y,z
1/2+x,-y,1/2+z
loop_
_atom_site_type_symbol
_atom_site_label
_atom_site_fract_x
_atom_site_fract_y
_atom_site_fract_z
Si Si1 0.168352 0.503513 0.188390
Si Si2 0.823705 0.707550 0.781449
Si Si3 0.668046 0.729445 0.575455
Si Si4 0.672866 0.134240 0.894161
Si Si5 0.674744 0.223027 0.661983
Si Si6 0.824155 0.135877 0.457383
O O1 0.270591 0.434524 0.275960
O O2 0.169202 0.419179 0.082027
O O3 0.230963 0.636888 0.162652
O O4 0.000000 0.515015 0.233828
O O5 0.758452 0.779913 0.678469
O O6 0.760017 0.764359 0.887936
O O7 0.000000 0.716220 0.781922
O O8 0.500000 0.780835 0.582476
O O9 0.740187 0.769941 0.466384
O O10 0.500000 0.153089 0.918622
O O11 0.711427 0.161717 0.773458
O O12 0.724496 0.997673 0.919120
O O13 0.500000 0.214834 0.633508
O O14 0.771451 0.149527 0.577595
O O15 0.000000 0.156076 0.447456
#
# Coordination Sequence:
#
# PCOD8170163 Si02
#       6
#     4   4   4   4   4   4
#     4   8  18  37  60  89 120 151 193 246 296 352
#     4  10  20  37  62  88 116 156 199 236 294 355
#     4   9  19  37  61  87 117 153 193 240 295 347
#     4  10  23  40  60  86 119 158 199 245 294 352
#     4  10  22  41  61  87 119 156 201 246 298 353
#     4  11  24  40  58  87 123 158 201 247 295 349
#
# _framework density 19.298718999999998
#
# number of rings (size 3 to 8) (size 9 to 14) (size 15 to 20)
#    1.000    1.333    0.000    2.000    2.333    4.000 
#    0.000    3.333    0.000    0.000    0.000    0.000 
#    0.000    0.000    0.000    0.000    0.000    0.000 
#
# Total GULP energy -297506.129625 kJ/mol
# GULP energy per Si atom -12396.088734 kJ/mol
# Density = 1.925479 g / cm^3
# Si number density = 19.298719 Si / 1000 Ang^3
#
#
#
# Elastic Constant Matrix: (Units=GPa)
#
#
# Indices 1 2 3 4 5 6 
#
# 1 100.6887 48.8980 54.0975 0.0000 0.0000 0.0000
# 2 48.8980 118.5765 60.4790 0.0000 0.0000 0.0000
# 3 54.0975 60.4790 113.9530 0.0000 0.0000 0.0000
# 4 0.0000 0.0000 0.0000 32.0327 0.0000 0.0000
# 5 0.0000 0.0000 0.0000 0.0000 39.1892 0.0000
# 6 0.0000 0.0000 0.0000 0.0000 0.0000 17.9304
#
#
#
# Elastic Compliance Matrix: (Units=1/GPa)
#
#
# Indices 1 2 3 4 5 6 
#
# 1 0.014226 -0.003321 -0.004991 0.000000 0.000000 0.000000
# 2 -0.003321 0.012339 -0.004972 0.000000 0.000000 0.000000
# 3 -0.004991 -0.004972 0.013784 0.000000 0.000000 0.000000
# 4 0.000000 0.000000 0.000000 0.031218 0.000000 0.000000
# 5 0.000000 0.000000 0.000000 0.000000 0.025517 0.000000
# 6 0.000000 0.000000 0.000000 0.000000 0.000000 0.055771
#
#
# Mechanical properties :
#
#
# Convention : Reuss Voigt Hill
#
# Bulk Modulus (GPa) = 72.56596 73.35192 72.95894
# Shear Modulus (GPa) = 27.17145 29.14669 28.15907
#
# Velocity S-wave (km/s) = 3.75632 3.89046 3.82398
# Velocity P-wave (km/s) = 7.51641 7.63362 7.57524
#
# Compressibility (1/GPa) = 0.01378057
#
# Stress axis : x y z
#
# Youngs Moduli (GPa) = 70.29461 81.04528 72.54836
#
# Poissons Ratio (x) = 0.26913 0.36209
# Poissons Ratio (y) = 0.23343 0.36072
# Poissons Ratio (z) = 0.35085 0.40297
#
# Static dielectric constant tensor:
#      x y z
#    x 3.455520 0.000000 0.000000 
#    y 0.000000 3.500350 0.000000 
#    z 0.000000 0.000000 3.337800 
# 
# 
# High freq. dielectric constant tensor:
#      x y z
#    x 1.751320 0.000000 0.000000 
#    y 0.000000 1.746250 0.000000 
#    z 0.000000 0.000000 1.742090 
# 
# From -- ./inp_files/3446.got.cif
#   From: 2010.03.12/outbox.cif.g09.slc.cpg/sg31_2_cif.got.tgz:3446.got - 2010.04.14 01:42:59.
