data_PCOD8170030
_publ_section_title
;
Structure prediction by ZEFSAII (Michael W. Deem and Ramdas Pophale) SiO2 
 PCOD8170030
Probable space group: P M N 21
;
_chemical_formula_sum "Si O2"
_cell_formula_units_Z 32
_cell_length_a 9.353820
_cell_length_b 20.185592
_cell_length_c 9.219063
_cell_angle_alpha 90.000000
_cell_angle_beta 90.000000
_cell_angle_gamma 90.000000
_cell_volume 1740.673357
_symmetry_space_group_name_H-M "P M N 21"
_symmetry_group_IT_number 31
_symmetry_cell_setting 'orthorhombic'
loop_
_space_group_symop_operation_xyz
x,y,z
1/2-x,-y,1/2+z
-x,y,z
1/2+x,-y,1/2+z
loop_
_atom_site_type_symbol
_atom_site_label
_atom_site_fract_x
_atom_site_fract_y
_atom_site_fract_z
Si Si1 0.330507 0.952579 0.698310
Si Si2 0.666168 0.299696 0.876362
Si Si3 0.665750 0.803131 0.199364
Si Si4 0.164777 0.063225 0.864544
Si Si5 0.663976 0.448838 0.907812
Si Si6 0.169053 0.173577 0.374511
Si Si7 0.835733 0.439886 0.194608
Si Si8 0.833947 0.291508 0.172656
O O1 0.500000 0.959305 0.712603
O O2 0.284982 0.942948 0.530987
O O3 0.270344 0.890960 0.792071
O O4 0.259344 0.018421 0.759691
O O5 0.500000 0.280166 0.889189
O O6 0.740252 0.259078 0.747953
O O7 0.685014 0.376904 0.834239
O O8 0.741593 0.283120 0.028243
O O9 0.500000 0.781596 0.191068
O O10 0.687841 0.861448 0.315120
O O11 0.722276 0.825523 0.040694
O O12 0.000000 0.042098 0.846600
O O13 0.500000 0.460935 0.947947
O O14 0.724591 0.508159 0.810150
O O15 0.752573 0.454078 0.050920
O O16 0.222175 0.239098 0.290752
O O17 0.000000 0.170362 0.370483
O O18 0.812792 0.363899 0.244687
O O19 0.000000 0.455031 0.162902
O O20 0.000000 0.279207 0.131074
#
# Coordination Sequence:
#
# PCOD8170030 Si02
#       8
#     4   4   4   4   4   4   4   4
#     4  10  20  35  55  77 103 135 168 204 251 304
#     4  10  20  34  51  73 104 138 169 206 255 305
#     4  10  20  35  55  77 101 131 170 212 252 298
#     4  10  21  36  55  79 105 134 169 210 253 297
#     4   9  19  34  50  73 105 135 167 211 257 300
#     4   9  18  33  54  78 101 128 166 213 257 295
#     4   9  18  32  51  74  99 132 172 210 251 302
#     4   9  17  33  55  75  98 131 173 214 250 297
#
# _framework density 18.383690000000001
#
# number of rings (size 3 to 8) (size 9 to 14) (size 15 to 20)
#    0.000    2.500    0.000    1.875    0.000    6.000 
#    0.000    4.375    0.000    0.000    0.000    0.000 
#    0.000    0.000    0.000    0.000    0.000    0.000 
#
# Total GULP energy -396806.088984 kJ/mol
# GULP energy per Si atom -12400.190281 kJ/mol
# Density = 1.834185 g / cm^3
# Si number density = 18.383690 Si / 1000 Ang^3
#
#
#
# Elastic Constant Matrix: (Units=GPa)
#
#
# Indices 1 2 3 4 5 6 
#
# 1 45.5496 28.7371 23.6168 0.0000 0.0000 0.0000
# 2 28.7371 79.4714 27.1157 0.0000 0.0000 0.0000
# 3 23.6168 27.1157 76.7671 0.0000 0.0000 0.0000
# 4 0.0000 0.0000 0.0000 43.0920 0.0000 0.0000
# 5 0.0000 0.0000 0.0000 0.0000 23.7832 0.0000
# 6 0.0000 0.0000 0.0000 0.0000 0.0000 28.0159
#
#
#
# Elastic Compliance Matrix: (Units=1/GPa)
#
#
# Indices 1 2 3 4 5 6 
#
# 1 0.030928 -0.009025 -0.006327 0.000000 0.000000 0.000000
# 2 -0.009025 0.016941 -0.003207 0.000000 0.000000 0.000000
# 3 -0.006327 -0.003207 0.016106 0.000000 0.000000 0.000000
# 4 0.000000 0.000000 0.000000 0.023206 0.000000 0.000000
# 5 0.000000 0.000000 0.000000 0.000000 0.042047 0.000000
# 6 0.000000 0.000000 0.000000 0.000000 0.000000 0.035694
#
#
# Mechanical properties :
#
#
# Convention : Reuss Voigt Hill
#
# Bulk Modulus (GPa) = 37.23534 40.08081 38.65807
# Shear Modulus (GPa) = 23.69745 27.13276 25.41511
#
# Velocity S-wave (km/s) = 3.59423 3.84593 3.72221
# Velocity P-wave (km/s) = 6.12561 6.44758 6.28866
#
# Compressibility (1/GPa) = 0.02685621
#
# Stress axis : x y z
#
# Youngs Moduli (GPa) = 32.33273 59.02846 62.08932
#
# Poissons Ratio (x) = 0.53273 0.39284
# Poissons Ratio (y) = 0.29180 0.19915
# Poissons Ratio (z) = 0.20457 0.18933
#
# Static dielectric constant tensor:
#      x y z
#    x 3.239920 0.000000 0.000000 
#    y 0.000000 3.611720 0.000000 
#    z 0.000000 0.000000 3.431100 
# 
# 
# High freq. dielectric constant tensor:
#      x y z
#    x 1.695060 0.000000 0.000000 
#    y 0.000000 1.725190 0.000000 
#    z 0.000000 0.000000 1.712340 
# 
# From -- ./inp_files/1868.got.cif
#   From: 2010.03.12/outbox.cif.g09.slc.cpg/sg31_1_cif.got.tgz:1868.got - 2010.04.14 01:42:59.
