data_PCOD8170519
_publ_section_title
;
Structure prediction by ZEFSAII (Michael W. Deem and Ramdas Pophale) SiO2 
 PCOD8170519
Probable space group: P B A 2
;
_chemical_formula_sum "Si O2"
_cell_formula_units_Z 30
_cell_length_a 8.211145
_cell_length_b 14.709002
_cell_length_c 10.799019
_cell_angle_alpha 90.000000
_cell_angle_beta 90.000000
_cell_angle_gamma 90.000000
_cell_volume 1304.281198
_symmetry_space_group_name_H-M "P B A 2"
_symmetry_group_IT_number 32
_symmetry_cell_setting 'orthorhombic'
loop_
_space_group_symop_operation_xyz
x,y,z
-x,-y,z
1/2-x,1/2+y,z
1/2+x,1/2-y,z
loop_
_atom_site_type_symbol
_atom_site_label
_atom_site_fract_x
_atom_site_fract_y
_atom_site_fract_z
Si Si1 0.265283 0.557499 0.280230
Si Si2 0.129625 0.621606 0.035844
Si Si3 0.000000 0.500000 0.823848
Si Si4 0.220323 0.305465 0.042301
Si Si5 0.539247 0.282361 0.638694
Si Si6 0.818557 0.308046 0.463915
Si Si7 0.744198 0.143079 0.773199
Si Si8 0.114720 0.861432 0.290299
O O1 0.186849 0.552327 0.143430
O O2 0.139340 0.607400 0.373975
O O3 0.301680 0.456794 0.326763
O O4 0.420710 0.625066 0.284523
O O5 0.267127 0.697764 0.016125
O O6 0.964185 0.671318 0.077571
O O7 0.105521 0.568015 0.908651
O O8 0.869814 0.555827 0.739871
O O9 0.336981 0.332374 0.153398
O O10 0.278423 0.359985 0.919924
O O11 0.643681 0.327777 0.528760
O O12 0.445503 0.197480 0.575888
O O13 0.649259 0.237362 0.745264
O O14 0.413738 0.356846 0.696296
O O15 0.824518 0.212320 0.389535
#
# Coordination Sequence:
#
# PCOD8170519 Si02
#       8
#     4   4   2   4   4   4   4   4
#     4  11  23  40  64  97 142 168 221 273 336 402
#     4  11  22  38  64 101 136 171 211 276 333 420
#     4  10  22  40  64 100 140 162 224 288 344 398
#     4  11  22  38  68  96 132 171 220 263 354 400
#     4  10  23  42  68  88 126 178 237 263 332 393
#     4  11  22  44  64  94 130 179 223 283 328 397
#     4  10  21  43  66  94 129 173 223 283 327 404
#     4  11  24  41  65 104 134 177 219 277 344 406
#
# _framework density 23.001173999999999
#
# number of rings (size 3 to 8) (size 9 to 14) (size 15 to 20)
#    0.000    1.333    2.667    4.000    1.867    0.000 
#    4.800    0.000    2.933    9.600    0.000    0.000 
#    0.000    0.000    0.000    0.000    0.000    0.000 
#
# Total GULP energy -371947.910979 kJ/mol
# GULP energy per Si atom -12398.263699 kJ/mol
# Density = 2.294882 g / cm^3
# Si number density = 23.001174 Si / 1000 Ang^3
#
#
#
# Elastic Constant Matrix: (Units=GPa)
#
#
# Indices 1 2 3 4 5 6 
#
# 1 60.2158 7.2072 27.4987 0.0000 0.0000 0.0000
# 2 7.2072 84.8876 11.4266 0.0000 0.0000 0.0000
# 3 27.4987 11.4266 90.1009 0.0000 0.0000 0.0000
# 4 0.0000 0.0000 0.0000 28.5103 0.0000 0.0000
# 5 0.0000 0.0000 0.0000 0.0000 33.5092 0.0000
# 6 0.0000 0.0000 0.0000 0.0000 0.0000 30.2744
#
#
#
# Elastic Compliance Matrix: (Units=1/GPa)
#
#
# Indices 1 2 3 4 5 6 
#
# 1 0.019358 -0.000863 -0.005799 0.000000 0.000000 0.000000
# 2 -0.000863 0.012023 -0.001261 0.000000 0.000000 0.000000
# 3 -0.005799 -0.001261 0.013028 0.000000 0.000000 0.000000
# 4 0.000000 0.000000 0.000000 0.035075 0.000000 0.000000
# 5 0.000000 0.000000 0.000000 0.000000 0.029843 0.000000
# 6 0.000000 0.000000 0.000000 0.000000 0.000000 0.033031
#
#
# Mechanical properties :
#
#
# Convention : Reuss Voigt Hill
#
# Bulk Modulus (GPa) = 35.00934 36.38550 35.69742
# Shear Modulus (GPa) = 29.81046 31.06357 30.43702
#
# Velocity S-wave (km/s) = 3.60396 3.67893 3.64164
# Velocity P-wave (km/s) = 5.70717 5.82232 5.76503
#
# Compressibility (1/GPa) = 0.02856380
#
# Stress axis : x y z
#
# Youngs Moduli (GPa) = 51.65736 83.17150 76.75540
#
# Poissons Ratio (x) = 0.07178 0.44508
# Poissons Ratio (y) = 0.04458 0.09682
# Poissons Ratio (z) = 0.29955 0.10491
#
# Static dielectric constant tensor:
#      x y z
#    x 4.237760 0.000000 0.000000 
#    y 0.000000 4.010300 0.000000 
#    z 0.000000 0.000000 4.072660 
# 
# 
# High freq. dielectric constant tensor:
#      x y z
#    x 1.907850 0.000000 0.000000 
#    y 0.000000 1.892250 0.000000 
#    z 0.000000 0.000000 1.911520 
# 
# From -- ./inp_files/3731.got.cif
#   From: 2010.03.12/outbox.cif.g09.slc.cpg/sg32_2_cif.got.tgz:3731.got - 2010.04.14 01:46:39.
