data_PCOD8170159
_publ_section_title
;
Structure prediction by ZEFSAII (Michael W. Deem and Ramdas Pophale) SiO2 
 PCOD8170159
Probable space group: P M N 21
;
_chemical_formula_sum "Si O2"
_cell_formula_units_Z 24
_cell_length_a 9.199912
_cell_length_b 9.737947
_cell_length_c 13.867149
_cell_angle_alpha 90.000000
_cell_angle_beta 90.000000
_cell_angle_gamma 90.000000
_cell_volume 1242.333687
_symmetry_space_group_name_H-M "P M N 21"
_symmetry_group_IT_number 31
_symmetry_cell_setting 'orthorhombic'
loop_
_space_group_symop_operation_xyz
x,y,z
1/2-x,-y,1/2+z
-x,y,z
1/2+x,-y,1/2+z
loop_
_atom_site_type_symbol
_atom_site_label
_atom_site_fract_x
_atom_site_fract_y
_atom_site_fract_z
Si Si1 0.329657 0.325397 0.816930
Si Si2 0.664669 0.162601 0.318516
Si Si3 0.332982 0.897567 0.437060
Si Si4 0.670878 0.709308 0.125914
Si Si5 0.832224 0.393636 0.419286
Si Si6 0.670394 0.028943 0.120197
O O1 0.500000 0.295197 0.805112
O O2 0.249805 0.193168 0.858866
O O3 0.261279 0.359246 0.712653
O O4 0.301067 0.450123 0.890347
O O5 0.500000 0.210547 0.304160
O O6 0.755560 0.297007 0.341725
O O7 0.721811 0.091450 0.221332
O O8 0.678740 0.055323 0.405409
O O9 0.500000 0.848926 0.442573
O O10 0.257440 0.885041 0.540438
O O11 0.500000 0.689272 0.146135
O O12 0.711613 0.869167 0.117552
O O13 0.722165 0.632352 0.028408
O O14 0.000000 0.355040 0.413314
O O15 0.500000 0.049189 0.101281
#
# Coordination Sequence:
#
# PCOD8170159 Si02
#       6
#     4   4   4   4   4   4
#     4  11  24  40  60  89 123 159 201 245 295 359
#     4  10  21  37  59  88 118 149 197 247 294 353
#     4  11  22  38  60  90 120 153 200 245 293 353
#     4  10  20  39  63  85 117 160 200 246 303 356
#     4  10  23  41  61  87 120 158 201 245 299 359
#     4  10  20  37  61  89 120 157 199 246 298 352
#
# _framework density 19.318480000000001
#
# number of rings (size 3 to 8) (size 9 to 14) (size 15 to 20)
#    0.000    1.667    3.333    1.000    0.000    5.333 
#    0.000    5.000    0.000    0.000    0.000    0.000 
#    0.000    0.000    0.000    0.000    0.000    0.000 
#
# Total GULP energy -297704.513049 kJ/mol
# GULP energy per Si atom -12404.354710 kJ/mol
# Density = 1.927451 g / cm^3
# Si number density = 19.318480 Si / 1000 Ang^3
#
#
#
# Elastic Constant Matrix: (Units=GPa)
#
#
# Indices 1 2 3 4 5 6 
#
# 1 75.3989 32.1438 47.3253 0.0000 0.0000 0.0000
# 2 32.1438 50.3128 19.7727 0.0000 0.0000 0.0000
# 3 47.3253 19.7727 124.1928 0.0000 0.0000 0.0000
# 4 0.0000 0.0000 0.0000 34.6947 0.0000 0.0000
# 5 0.0000 0.0000 0.0000 0.0000 38.2103 0.0000
# 6 0.0000 0.0000 0.0000 0.0000 0.0000 25.7988
#
#
#
# Elastic Compliance Matrix: (Units=1/GPa)
#
#
# Indices 1 2 3 4 5 6 
#
# 1 0.022459 -0.011719 -0.006693 0.000000 0.000000 0.000000
# 2 -0.011719 0.027317 0.000116 0.000000 0.000000 0.000000
# 3 -0.006693 0.000116 0.010584 0.000000 0.000000 0.000000
# 4 0.000000 0.000000 0.000000 0.028823 0.000000 0.000000
# 5 0.000000 0.000000 0.000000 0.000000 0.026171 0.000000
# 6 0.000000 0.000000 0.000000 0.000000 0.000000 0.038761
#
#
# Mechanical properties :
#
#
# Convention : Reuss Voigt Hill
#
# Bulk Modulus (GPa) = 42.06966 49.82089 45.94528
# Shear Modulus (GPa) = 25.17264 29.78495 27.47879
#
# Velocity S-wave (km/s) = 3.61367 3.93082 3.77558
# Velocity P-wave (km/s) = 6.26384 6.81520 6.54533
#
# Compressibility (1/GPa) = 0.02377010
#
# Stress axis : x y z
#
# Youngs Moduli (GPa) = 44.52476 36.60766 94.48394
#
# Poissons Ratio (x) = 0.42899 0.63236
# Poissons Ratio (y) = 0.52177 -0.01100
# Poissons Ratio (z) = 0.29799 -0.00426
#
# Static dielectric constant tensor:
#      x y z
#    x 3.478840 0.000000 0.000000 
#    y 0.000000 3.333630 0.000000 
#    z 0.000000 0.000000 3.670830 
# 
# 
# High freq. dielectric constant tensor:
#      x y z
#    x 1.749400 0.000000 0.000000 
#    y 0.000000 1.740470 0.000000 
#    z 0.000000 0.000000 1.765250 
# 
# From -- ./inp_files/3448.got.cif
#   From: 2010.03.12/outbox.cif.g09.slc.cpg/sg31_2_cif.got.tgz:3448.got - 2010.04.14 01:42:59.
