data_PCOD8170599
_publ_section_title
;
Structure prediction by ZEFSAII (Michael W. Deem and Ramdas Pophale) SiO2 
 PCOD8170599
Probable space group: P B A 2
;
_chemical_formula_sum "Si O2"
_cell_formula_units_Z 24
_cell_length_a 9.588561
_cell_length_b 13.994838
_cell_length_c 7.451790
_cell_angle_alpha 90.000000
_cell_angle_beta 90.000000
_cell_angle_gamma 90.000000
_cell_volume 999.958367
_symmetry_space_group_name_H-M "P B A 2"
_symmetry_group_IT_number 32
_symmetry_cell_setting 'orthorhombic'
loop_
_space_group_symop_operation_xyz
x,y,z
-x,-y,z
1/2-x,1/2+y,z
1/2+x,1/2-y,z
loop_
_atom_site_type_symbol
_atom_site_label
_atom_site_fract_x
_atom_site_fract_y
_atom_site_fract_z
Si Si1 0.148978 0.224173 0.814170
Si Si2 0.604254 0.722290 0.052511
Si Si3 0.080499 0.415860 0.628298
Si Si4 0.154612 0.978645 0.140704
Si Si5 0.085491 0.582089 0.256850
Si Si6 0.843846 0.979051 0.721085
O O1 0.073931 0.312573 0.717506
O O2 0.180079 0.134297 0.683856
O O3 0.297078 0.256796 0.885629
O O4 0.045315 0.188252 0.973193
O O5 0.673461 0.636318 0.167454
O O6 0.581266 0.815250 0.169510
O O7 0.239794 0.453877 0.604976
O O8 0.000000 0.500000 0.742183
O O9 0.993659 0.407193 0.445011
O O10 0.256597 0.041348 0.266893
O O11 0.000000 0.000000 0.207201
O O12 0.181423 0.001020 0.931606
O O13 0.000000 0.500000 0.145302
O O14 0.000000 0.000000 0.658053
#
# Coordination Sequence:
#
# PCOD8170599 Si02
#       6
#     4   4   4   4   4   4
#     4  12  22  39  74 110 134 189 251 301 350 433
#     4  12  22  39  74 110 134 189 251 301 350 433
#     4  11  26  46  67 107 157 194 231 299 379 436
#     4  11  21  43  72 105 141 186 251 301 355 427
#     4  11  26  46  67 107 157 194 231 299 379 436
#     4  11  21  43  72 105 141 186 251 301 355 427
#
# _framework density 24.000999
#
# number of rings (size 3 to 8) (size 9 to 14) (size 15 to 20)
#    0.000    0.667    6.667    2.000    0.000    0.000 
#    0.000   30.000    0.000    0.000    0.000    0.000 
#    0.000    0.000    0.000    0.000    0.000    0.000 
#
# Total GULP energy -297449.162912 kJ/mol
# GULP energy per Si atom -12393.715121 kJ/mol
# Density = 2.394637 g / cm^3
# Si number density = 24.000999 Si / 1000 Ang^3
#
#
#
# Elastic Constant Matrix: (Units=GPa)
#
#
# Indices 1 2 3 4 5 6 
#
# 1 151.6609 19.9671 39.6348 0.0000 0.0000 0.0000
# 2 19.9671 183.9084 39.0033 0.0000 0.0000 0.0000
# 3 39.6348 39.0033 69.8474 0.0000 0.0000 0.0000
# 4 0.0000 0.0000 0.0000 28.3648 0.0000 0.0000
# 5 0.0000 0.0000 0.0000 0.0000 35.8839 0.0000
# 6 0.0000 0.0000 0.0000 0.0000 0.0000 43.6039
#
#
#
# Elastic Compliance Matrix: (Units=1/GPa)
#
#
# Indices 1 2 3 4 5 6 
#
# 1 0.007743 0.000103 -0.004452 0.000000 0.000000 0.000000
# 2 0.000103 0.006169 -0.003504 0.000000 0.000000 0.000000
# 3 -0.004452 -0.003504 0.018800 0.000000 0.000000 0.000000
# 4 0.000000 0.000000 0.000000 0.035255 0.000000 0.000000
# 5 0.000000 0.000000 0.000000 0.000000 0.027868 0.000000
# 6 0.000000 0.000000 0.000000 0.000000 0.000000 0.022934
#
#
# Mechanical properties :
#
#
# Convention : Reuss Voigt Hill
#
# Bulk Modulus (GPa) = 58.79490 66.95857 62.87673
# Shear Modulus (GPa) = 35.67807 42.02462 38.85134
#
# Velocity S-wave (km/s) = 3.85973 4.18898 4.02772
# Velocity P-wave (km/s) = 6.66434 7.16628 6.91986
#
# Compressibility (1/GPa) = 0.01700828
#
# Stress axis : x y z
#
# Youngs Moduli (GPa) = 129.14127 162.09233 53.19280
#
# Poissons Ratio (x) = -0.01676 0.23680
# Poissons Ratio (y) = -0.01336 0.18637
# Poissons Ratio (z) = 0.57491 0.56792
#
# Static dielectric constant tensor:
#      x y z
#    x 4.656310 0.000000 0.000000 
#    y 0.000000 5.561390 0.000000 
#    z 0.000000 0.000000 3.768050 
# 
# 
# High freq. dielectric constant tensor:
#      x y z
#    x 1.971960 0.000000 0.000000 
#    y 0.000000 1.983360 0.000000 
#    z 0.000000 0.000000 1.901020 
# 
# From -- ./inp_files/2321.got.cif
#   From: 2010.03.12/outbox.cif.g09.slc.cpg/sg32_2_cif.got.tgz:2321.got - 2010.04.14 01:46:39.
