data_PCOD8170216
_publ_section_title
;
Structure prediction by ZEFSAII (Michael W. Deem and Ramdas Pophale) SiO2 
 PCOD8170216
Probable space group: P M N 21
;
_chemical_formula_sum "Si O2"
_cell_formula_units_Z 24
_cell_length_a 13.647459
_cell_length_b 15.005463
_cell_length_c 5.419889
_cell_angle_alpha 90.000000
_cell_angle_beta 90.000000
_cell_angle_gamma 90.000000
_cell_volume 1109.919779
_symmetry_space_group_name_H-M "P M N 21"
_symmetry_group_IT_number 31
_symmetry_cell_setting 'orthorhombic'
loop_
_space_group_symop_operation_xyz
x,y,z
1/2-x,-y,1/2+z
-x,y,z
1/2+x,-y,1/2+z
loop_
_atom_site_type_symbol
_atom_site_label
_atom_site_fract_x
_atom_site_fract_y
_atom_site_fract_z
Si Si1 0.707290 0.536731 0.552270
Si Si2 0.893980 0.985761 0.357335
Si Si3 0.000000 0.540359 0.142263
Si Si4 0.306841 0.282993 0.946937
Si Si5 0.000000 0.654222 0.650221
Si Si6 0.891213 0.810265 0.030167
Si Si7 0.248130 0.113620 0.148357
O O1 0.730743 0.481564 0.302222
O O2 0.594587 0.523605 0.625802
O O3 0.730527 0.637691 0.473186
O O4 0.857592 0.072375 0.205365
O O5 0.000000 0.010638 0.468467
O O6 0.903641 0.896117 0.203770
O O7 0.817202 0.970418 0.578423
O O8 0.000000 0.588565 0.410603
O O9 0.000000 0.604369 0.908261
O O10 0.397810 0.288051 0.145031
O O11 0.242226 0.191424 0.944345
O O12 0.363326 0.279597 0.683607
O O13 0.000000 0.793649 0.906413
O O14 0.799121 0.830491 0.862118
#
# Coordination Sequence:
#
# PCOD8170216 Si02
#       7
#     4   4   2   4   2   4   4
#     4  12  25  45  70  99 135 180 224 276 345 411
#     4  10  21  40  61  89 122 168 219 258 330 404
#     4  12  24  46  72  98 132 184 224 278 342 420
#     4  11  25  38  62 101 129 165 221 280 337 399
#     4  12  24  42  72 104 132 170 230 284 350 400
#     4  10  21  36  63  92 121 160 210 275 329 384
#     4  11  22  39  62  92 131 168 215 278 333 396
#
# _framework density 21.623183999999998
#
# number of rings (size 3 to 8) (size 9 to 14) (size 15 to 20)
#    0.000    1.000    5.833    0.500    7.000    0.000 
#    1.500    0.000    1.833    0.000    0.000    0.000 
#    0.000    0.000    0.000    0.000    0.000    0.000 
#
# Total GULP energy -297351.879113 kJ/mol
# GULP energy per Si atom -12389.661630 kJ/mol
# Density = 2.157397 g / cm^3
# Si number density = 21.623184 Si / 1000 Ang^3
#
#
#
# Elastic Constant Matrix: (Units=GPa)
#
#
# Indices 1 2 3 4 5 6 
#
# 1 107.2441 52.2584 14.0081 0.0000 0.0000 0.0000
# 2 52.2584 102.2253 12.9814 0.0000 0.0000 0.0000
# 3 14.0081 12.9814 74.8590 0.0000 0.0000 0.0000
# 4 0.0000 0.0000 0.0000 34.1901 0.0000 0.0000
# 5 0.0000 0.0000 0.0000 0.0000 26.3160 0.0000
# 6 0.0000 0.0000 0.0000 0.0000 0.0000 0.9822
#
#
#
# Elastic Compliance Matrix: (Units=1/GPa)
#
#
# Indices 1 2 3 4 5 6 
#
# 1 0.012533 -0.006247 -0.001262 0.000000 0.000000 0.000000
# 2 -0.006247 0.013116 -0.001106 0.000000 0.000000 0.000000
# 3 -0.001262 -0.001106 0.013786 0.000000 0.000000 0.000000
# 4 0.000000 0.000000 0.000000 0.029248 0.000000 0.000000
# 5 0.000000 0.000000 0.000000 0.000000 0.038000 0.000000
# 6 0.000000 0.000000 0.000000 0.000000 0.000000 1.018143
#
#
# Mechanical properties :
#
#
# Convention : Reuss Voigt Hill
#
# Bulk Modulus (GPa) = 45.03098 49.20266 47.11682
# Shear Modulus (GPa) = 4.34988 25.96968 15.15978
#
# Velocity S-wave (km/s) = 1.41987 3.46932 2.65068
# Velocity P-wave (km/s) = 4.85372 6.23316 5.58618
#
# Compressibility (1/GPa) = 0.02220693
#
# Stress axis : x y z
#
# Youngs Moduli (GPa) = 79.78687 76.24180 72.53565
#
# Poissons Ratio (x) = 0.47627 0.09154
# Poissons Ratio (y) = 0.49842 0.08019
# Poissons Ratio (z) = 0.10069 0.08429
#
# Static dielectric constant tensor:
#      x y z
#    x 4.054610 0.000000 0.000000 
#    y 0.000000 4.001570 0.000000 
#    z 0.000000 0.000000 4.220790 
# 
# 
# High freq. dielectric constant tensor:
#      x y z
#    x 1.837990 0.000000 0.000000 
#    y 0.000000 1.845980 0.000000 
#    z 0.000000 0.000000 1.863450 
# 
# From -- ./inp_files/627.got.cif
#   From: 2010.03.12/outbox.cif.g09.slc.cpg/sg31_1_cif.got.tgz:627.got - 2010.04.14 01:42:59.
