data_PCOD8170872
_publ_section_title
;
Structure prediction by ZEFSAII (Michael W. Deem and Ramdas Pophale) SiO2 
 PCOD8170872
Probable space group: P N A 21
;
_chemical_formula_sum "Si O2"
_cell_formula_units_Z 24
_cell_length_a 20.003672
_cell_length_b 11.571873
_cell_length_c 5.104631
_cell_angle_alpha 90.000000
_cell_angle_beta 90.000000
_cell_angle_gamma 90.000000
_cell_volume 1181.619738
_symmetry_space_group_name_H-M "P N A 21"
_symmetry_group_IT_number 33
_symmetry_cell_setting 'orthorhombic'
loop_
_space_group_symop_operation_xyz
x,y,z
-x,-y,1/2+z
1/2-x,1/2+y,1/2+z
1/2+x,1/2-y,z
loop_
_atom_site_type_symbol
_atom_site_label
_atom_site_fract_x
_atom_site_fract_y
_atom_site_fract_z
Si Si1 0.736514 0.012586 0.191220
Si Si2 0.811361 0.193189 0.441002
Si Si3 0.681272 0.317536 0.510488
Si Si4 0.865308 0.710093 0.523375
Si Si5 0.499717 0.074151 0.993289
Si Si6 0.358488 0.181243 0.926022
O O1 0.801476 0.060208 0.354557
O O2 0.776435 0.935940 0.976642
O O3 0.689335 0.927914 0.363124
O O4 0.691859 0.109988 0.045141
O O5 0.733543 0.215205 0.482683
O O6 0.850451 0.216207 0.711376
O O7 0.842893 0.271933 0.213329
O O8 0.647912 0.300828 0.792292
O O9 0.628703 0.293071 0.277990
O O10 0.936238 0.654120 0.469868
O O11 0.434996 0.145425 0.911237
O O12 0.508534 0.969491 0.789672
#
# Coordination Sequence:
#
# PCOD8170872 Si02
#       6
#     4   4   4   4   4   4
#     4  10  20  38  60  88 122 152 192 248 298 358
#     4  10  22  36  57  88 120 157 191 246 297 351
#     4  10  22  36  57  88 120 157 191 246 297 351
#     4  11  23  38  58  90 121 152 200 240 300 355
#     4  12  24  40  62  86 122 164 194 250 304 360
#     4  11  23  38  58  90 121 152 200 240 300 355
#
# _framework density 20.311104
#
# number of rings (size 3 to 8) (size 9 to 14) (size 15 to 20)
#    0.000    1.333    1.667    6.000    4.667    6.667 
#    0.000    0.000    0.000    4.000    0.000    0.000 
#    0.000    0.000    0.000    0.000    0.000    0.000 
#
# Total GULP energy -297337.740759 kJ/mol
# GULP energy per Si atom -12389.072532 kJ/mol
# Density = 2.026487 g / cm^3
# Si number density = 20.311104 Si / 1000 Ang^3
#
#
#
# Elastic Constant Matrix: (Units=GPa)
#
#
# Indices 1 2 3 4 5 6 
#
# 1 109.1723 38.7449 22.1801 0.0000 0.0000 0.0000
# 2 38.7449 60.0477 15.3487 0.0000 0.0000 0.0000
# 3 22.1801 15.3487 104.8306 0.0000 0.0000 0.0000
# 4 0.0000 0.0000 0.0000 25.7342 0.0000 0.0000
# 5 0.0000 0.0000 0.0000 0.0000 24.7552 0.0000
# 6 0.0000 0.0000 0.0000 0.0000 0.0000 23.4018
#
#
#
# Elastic Compliance Matrix: (Units=1/GPa)
#
#
# Indices 1 2 3 4 5 6 
#
# 1 0.012095 -0.007428 -0.001471 0.000000 0.000000 0.000000
# 2 -0.007428 0.021863 -0.001629 0.000000 0.000000 0.000000
# 3 -0.001471 -0.001629 0.010089 0.000000 0.000000 0.000000
# 4 0.000000 0.000000 0.000000 0.038859 0.000000 0.000000
# 5 0.000000 0.000000 0.000000 0.000000 0.040396 0.000000
# 6 0.000000 0.000000 0.000000 0.000000 0.000000 0.042732
#
#
# Mechanical properties :
#
#
# Convention : Reuss Voigt Hill
#
# Bulk Modulus (GPa) = 43.49898 47.39978 45.44938
# Shear Modulus (GPa) = 25.67346 27.96336 26.81841
#
# Velocity S-wave (km/s) = 3.55915 3.71449 3.63765
# Velocity P-wave (km/s) = 6.19297 6.46406 6.32997
#
# Compressibility (1/GPa) = 0.02298904
#
# Stress axis : x y z
#
# Youngs Moduli (GPa) = 82.67909 45.73997 99.11680
#
# Poissons Ratio (x) = 0.33976 0.14585
# Poissons Ratio (y) = 0.61414 0.16150
# Poissons Ratio (z) = 0.12166 0.07453
#
# Static dielectric constant tensor:
#      x y z
#    x 3.587960 0.000000 0.000000 
#    y 0.000000 3.783130 0.000000 
#    z 0.000000 0.000000 4.426910 
# 
# 
# High freq. dielectric constant tensor:
#      x y z
#    x 1.772790 0.000000 0.000000 
#    y 0.000000 1.783670 0.000000 
#    z 0.000000 0.000000 1.810090 
# 
# From -- ./inp_files/1692.got.cif
#   From: 2010.03.12/outbox.cif.g09.slc.cpg/sg33_1_cif.got.tgz:1692.got - 2010.04.14 01:49:19.
