data_PCOD8170521
_publ_section_title
;
Structure prediction by ZEFSAII (Michael W. Deem and Ramdas Pophale) SiO2 
 PCOD8170521
Probable space group: P B A 2
;
_chemical_formula_sum "Si O2"
_cell_formula_units_Z 28
_cell_length_a 26.836340
_cell_length_b 8.977998
_cell_length_c 5.259493
_cell_angle_alpha 90.000000
_cell_angle_beta 90.000000
_cell_angle_gamma 90.000000
_cell_volume 1267.204397
_symmetry_space_group_name_H-M "P B A 2"
_symmetry_group_IT_number 32
_symmetry_cell_setting 'orthorhombic'
loop_
_space_group_symop_operation_xyz
x,y,z
-x,-y,z
1/2-x,1/2+y,z
1/2+x,1/2-y,z
loop_
_atom_site_type_symbol
_atom_site_label
_atom_site_fract_x
_atom_site_fract_y
_atom_site_fract_z
Si Si1 0.127394 0.294198 0.309670
Si Si2 0.000000 0.000000 0.926136
Si Si3 0.214168 0.589446 0.818153
Si Si4 0.967934 0.750096 0.594864
Si Si5 0.052658 0.750416 0.235135
Si Si6 0.314874 0.749907 0.809719
Si Si7 0.656279 0.866513 0.314727
Si Si8 0.500000 0.000000 0.923780
O O1 0.069198 0.252106 0.352136
O O2 0.156193 0.223490 0.548091
O O3 0.132699 0.470522 0.312057
O O4 0.147134 0.226421 0.045385
O O5 0.962144 0.899323 0.759995
O O6 0.037198 0.900784 0.092878
O O7 0.272417 0.625754 0.818379
O O8 0.210038 0.411870 0.819610
O O9 0.187122 0.661160 0.572917
O O10 0.191658 0.659660 0.073749
O O11 0.961038 0.600696 0.762094
O O12 0.025104 0.747429 0.504641
O O13 0.111459 0.751922 0.292539
O O14 0.036898 0.602355 0.084648
#
# Coordination Sequence:
#
# PCOD8170521 Si02
#       8
#     4   2   4   4   4   4   4   2
#     4  10  22  38  69  94 125 166 215 267 320 380
#     4  10  26  42  60  84 146 178 210 270 326 394
#     4  10  22  42  64  94 126 162 210 268 325 385
#     4  11  23  41  62  94 132 171 218 266 326 387
#     4  11  23  41  62  94 132 171 218 266 326 387
#     4  10  22  42  64  94 126 162 210 268 325 385
#     4  10  22  38  69  94 125 166 215 267 320 380
#     4  10  22  34  68  92 130 166 222 266 322 382
#
# _framework density 22.095882
#
# number of rings (size 3 to 8) (size 9 to 14) (size 15 to 20)
#    0.000    1.714    0.000    3.429   14.000    0.000 
#    2.571    0.000    0.000    0.000    0.000    0.000 
#    0.000    0.000    0.000    0.000    0.000    0.000 
#
# Total GULP energy -347295.080918 kJ/mol
# GULP energy per Si atom -12403.395747 kJ/mol
# Density = 2.204559 g / cm^3
# Si number density = 22.095882 Si / 1000 Ang^3
#
#
#
# Elastic Constant Matrix: (Units=GPa)
#
#
# Indices 1 2 3 4 5 6 
#
# 1 60.7456 6.6523 10.4780 0.0000 0.0000 0.0000
# 2 6.6523 73.8997 22.6314 0.0000 0.0000 0.0000
# 3 10.4780 22.6314 121.3356 0.0000 0.0000 0.0000
# 4 0.0000 0.0000 0.0000 3.7346 0.0000 0.0000
# 5 0.0000 0.0000 0.0000 0.0000 42.2312 0.0000
# 6 0.0000 0.0000 0.0000 0.0000 0.0000 25.7738
#
#
#
# Elastic Compliance Matrix: (Units=1/GPa)
#
#
# Indices 1 2 3 4 5 6 
#
# 1 0.016800 -0.001133 -0.001240 0.000000 0.000000 0.000000
# 2 -0.001133 0.014428 -0.002593 0.000000 0.000000 0.000000
# 3 -0.001240 -0.002593 0.008832 0.000000 0.000000 0.000000
# 4 0.000000 0.000000 0.000000 0.267770 0.000000 0.000000
# 5 0.000000 0.000000 0.000000 0.000000 0.023679 0.000000
# 6 0.000000 0.000000 0.000000 0.000000 0.000000 0.038799
#
#
# Mechanical properties :
#
#
# Convention : Reuss Voigt Hill
#
# Bulk Modulus (GPa) = 33.19027 37.27826 35.23427
# Shear Modulus (GPa) = 12.81125 28.76253 20.78689
#
# Velocity S-wave (km/s) = 2.41052 3.61184 3.07051
# Velocity P-wave (km/s) = 4.77505 5.85676 5.34335
#
# Compressibility (1/GPa) = 0.03012931
#
# Stress axis : x y z
#
# Youngs Moduli (GPa) = 59.52403 69.30974 113.22037
#
# Poissons Ratio (x) = 0.07851 0.14034
# Poissons Ratio (y) = 0.06742 0.29361
# Poissons Ratio (z) = 0.07378 0.17974
#
# Static dielectric constant tensor:
#      x y z
#    x 3.816910 0.000000 0.000000 
#    y 0.000000 3.866770 0.000000 
#    z 0.000000 0.000000 4.287080 
# 
# 
# High freq. dielectric constant tensor:
#      x y z
#    x 1.861420 0.000000 0.000000 
#    y 0.000000 1.853460 0.000000 
#    z 0.000000 0.000000 1.889100 
# 
# From -- ./inp_files/582.got.cif
#   From: 2010.03.12/outbox.cif.g09.slc.cpg/sg32_1_cif.got.tgz:582.got - 2010.04.14 01:46:39.
