data_PCOD8170010
_publ_section_title
;
Structure prediction by ZEFSAII (Michael W. Deem and Ramdas Pophale) SiO2 
 PCOD8170010
Probable space group: P M N 21
;
_chemical_formula_sum "Si O2"
_cell_formula_units_Z 32
_cell_length_a 8.962672
_cell_length_b 24.450522
_cell_length_c 7.652691
_cell_angle_alpha 90.000000
_cell_angle_beta 90.000000
_cell_angle_gamma 90.000000
_cell_volume 1677.026079
_symmetry_space_group_name_H-M "P M N 21"
_symmetry_group_IT_number 31
_symmetry_cell_setting 'orthorhombic'
loop_
_space_group_symop_operation_xyz
x,y,z
1/2-x,-y,1/2+z
-x,y,z
1/2+x,-y,1/2+z
loop_
_atom_site_type_symbol
_atom_site_label
_atom_site_fract_x
_atom_site_fract_y
_atom_site_fract_z
Si Si1 0.823401 0.563015 0.564550
Si Si2 0.822540 0.246054 0.734464
Si Si3 0.829592 0.173803 0.426873
Si Si4 0.675348 0.556338 0.933948
Si Si5 0.327967 0.060008 0.051417
Si Si6 0.823669 0.370152 0.761886
Si Si7 0.170408 0.054558 0.399903
Si Si8 0.323179 0.832952 0.534798
O O1 0.759701 0.573209 0.757809
O O2 0.774267 0.503734 0.494462
O O3 0.757573 0.607513 0.433171
O O4 0.000000 0.568756 0.573187
O O5 0.752628 0.215365 0.564449
O O6 0.767681 0.308268 0.736240
O O7 0.000000 0.242935 0.726779
O O8 0.767257 0.215937 0.910530
O O9 0.819776 0.111811 0.506818
O O10 0.759859 0.178278 0.231188
O O11 0.000000 0.191979 0.407847
O O12 0.500000 0.559424 0.897006
O O13 0.723742 0.597262 0.088249
O O14 0.500000 0.069096 0.011708
O O15 0.292297 0.063472 0.253246
O O16 0.239046 0.109368 0.957655
O O17 0.276068 0.998920 0.001561
O O18 0.000000 0.374388 0.793632
O O19 0.000000 0.047526 0.328953
O O20 0.500000 0.838696 0.537753
#
# Coordination Sequence:
#
# PCOD8170010 Si02
#       8
#     4   4   4   4   4   4   4   4
#     4  11  22  36  58  86 118 157 190 228 286 340
#     4   9  18  32  57  82 103 141 189 229 271 319
#     4   8  15  30  49  73 102 131 174 225 265 316
#     4  10  21  36  57  84 117 154 190 236 283 329
#     4  10  20  32  50  77 106 138 173 218 273 327
#     4  10  21  38  58  88 119 147 192 241 279 328
#     4   9  19  33  49  73 105 137 174 220 271 327
#     4   9  18  33  54  77 104 141 178 223 276 324
#
# _framework density 19.081398
#
# number of rings (size 3 to 8) (size 9 to 14) (size 15 to 20)
#    0.000    2.500    1.250    1.500    1.750    3.000 
#    0.000    4.375    0.000    3.000    0.000    0.000 
#    0.000    0.000    0.000    0.000    0.000    0.000 
#
# Total GULP energy -396572.234723 kJ/mol
# GULP energy per Si atom -12392.882335 kJ/mol
# Density = 1.903797 g / cm^3
# Si number density = 19.081398 Si / 1000 Ang^3
#
#
#
# Elastic Constant Matrix: (Units=GPa)
#
#
# Indices 1 2 3 4 5 6 
#
# 1 30.4951 23.9468 25.2300 0.0000 0.0000 0.0000
# 2 23.9468 152.5297 67.8872 0.0000 0.0000 0.0000
# 3 25.2300 67.8872 121.0527 0.0000 0.0000 0.0000
# 4 0.0000 0.0000 0.0000 36.6780 0.0000 0.0000
# 5 0.0000 0.0000 0.0000 0.0000 22.3650 0.0000
# 6 0.0000 0.0000 0.0000 0.0000 0.0000 24.3993
#
#
#
# Elastic Compliance Matrix: (Units=1/GPa)
#
#
# Indices 1 2 3 4 5 6 
#
# 1 0.040987 -0.003509 -0.006575 0.000000 0.000000 0.000000
# 2 -0.003509 0.009037 -0.004337 0.000000 0.000000 0.000000
# 3 -0.006575 -0.004337 0.012063 0.000000 0.000000 0.000000
# 4 0.000000 0.000000 0.000000 0.027264 0.000000 0.000000
# 5 0.000000 0.000000 0.000000 0.000000 0.044713 0.000000
# 6 0.000000 0.000000 0.000000 0.000000 0.000000 0.040985
#
#
# Mechanical properties :
#
#
# Convention : Reuss Voigt Hill
#
# Bulk Modulus (GPa) = 30.07799 59.80060 44.93929
# Shear Modulus (GPa) = 23.25880 29.15603 26.20742
#
# Velocity S-wave (km/s) = 3.49510 3.91318 3.71003
# Velocity P-wave (km/s) = 5.66435 7.19896 6.47726
#
# Compressibility (1/GPa) = 0.03324690
#
# Stress axis : x y z
#
# Youngs Moduli (GPa) = 24.39794 110.65432 82.89557
#
# Poissons Ratio (x) = 0.38823 0.54504
# Poissons Ratio (y) = 0.08560 0.35951
# Poissons Ratio (z) = 0.16042 0.47989
#
# Static dielectric constant tensor:
#      x y z
#    x 3.176230 0.000000 0.000000 
#    y 0.000000 3.855650 0.000000 
#    z 0.000000 0.000000 3.576750 
# 
# 
# High freq. dielectric constant tensor:
#      x y z
#    x 1.705570 0.000000 0.000000 
#    y 0.000000 1.750560 0.000000 
#    z 0.000000 0.000000 1.740640 
# 
# From -- ./inp_files/1893.got.cif
#   From: 2010.03.12/outbox.cif.g09.slc.cpg/sg31_1_cif.got.tgz:1893.got - 2010.04.14 01:42:59.
