data_PCOD8170271
_publ_section_title
;
Structure prediction by ZEFSAII (Michael W. Deem and Ramdas Pophale) SiO2 
 PCOD8170271
Probable space group: P M N 21
;
_chemical_formula_sum "Si O2"
_cell_formula_units_Z 32
_cell_length_a 12.727414
_cell_length_b 10.201330
_cell_length_c 12.573520
_cell_angle_alpha 90.000000
_cell_angle_beta 90.000000
_cell_angle_gamma 90.000000
_cell_volume 1632.502461
_symmetry_space_group_name_H-M "P M N 21"
_symmetry_group_IT_number 31
_symmetry_cell_setting 'orthorhombic'
loop_
_space_group_symop_operation_xyz
x,y,z
1/2-x,-y,1/2+z
-x,y,z
1/2+x,-y,1/2+z
loop_
_atom_site_type_symbol
_atom_site_label
_atom_site_fract_x
_atom_site_fract_y
_atom_site_fract_z
Si Si1 0.258195 0.613485 0.867190
Si Si2 0.709699 0.029117 0.105084
Si Si3 0.216315 0.201970 0.748671
Si Si4 0.123800 0.696693 0.676420
Si Si5 0.880399 0.581255 0.235481
Si Si6 0.799760 0.435743 0.047766
Si Si7 0.881180 0.170553 0.976587
Si Si8 0.618674 0.779365 0.035026
O O1 0.167032 0.678879 0.796164
O O2 0.349737 0.554172 0.793815
O O3 0.304901 0.720066 0.946814
O O4 0.211584 0.489476 0.929187
O O5 0.643793 0.154344 0.141449
O O6 0.749307 0.943912 0.207409
O O7 0.809510 0.062487 0.032822
O O8 0.632809 0.937369 0.033993
O O9 0.317284 0.290820 0.774487
O O10 0.147175 0.188654 0.853542
O O11 0.149708 0.273029 0.653654
O O12 0.184766 0.597171 0.597522
O O13 0.000000 0.665156 0.671964
O O14 0.859819 0.550029 0.111796
O O15 0.000000 0.615771 0.258521
O O16 0.869653 0.305418 0.041896
O O17 0.000000 0.120706 0.984419
O O18 0.500000 0.739564 0.008555
#
# Coordination Sequence:
#
# PCOD8170271 Si02
#       8
#     4   4   4   4   4   4   4   4
#     4  11  22  40  59  93 125 157 210 252 295 380
#     4   9  23  41  60  91 127 152 212 256 292 375
#     4  10  22  40  62  94 121 154 208 250 295 374
#     4  10  23  40  65  90 123 166 202 257 311 355
#     4  11  22  40  61  87 128 162 193 251 311 363
#     4  10  21  42  58  91 129 152 209 248 293 375
#     4  11  22  40  67  89 121 166 201 252 310 354
#     4  10  21  39  62  87 122 163 197 250 307 354
#
# _framework density 19.601807999999998
#
# number of rings (size 3 to 8) (size 9 to 14) (size 15 to 20)
#    0.750    1.000    2.500    1.500    1.750    2.500 
#    0.000    1.250    0.000    0.000    0.000    0.000 
#    0.000    0.000    0.000    0.000    0.000    0.000 
#
# Total GULP energy -396710.234923 kJ/mol
# GULP energy per Si atom -12397.194841 kJ/mol
# Density = 1.955719 g / cm^3
# Si number density = 19.601808 Si / 1000 Ang^3
#
#
#
# Elastic Constant Matrix: (Units=GPa)
#
#
# Indices 1 2 3 4 5 6 
#
# 1 125.1069 19.2069 34.6525 0.0000 0.0000 0.0000
# 2 19.2069 56.6857 7.6305 0.0000 0.0000 0.0000
# 3 34.6525 7.6305 85.2643 0.0000 0.0000 0.0000
# 4 0.0000 0.0000 0.0000 42.1107 0.0000 0.0000
# 5 0.0000 0.0000 0.0000 0.0000 21.8864 0.0000
# 6 0.0000 0.0000 0.0000 0.0000 0.0000 23.7922
#
#
#
# Elastic Compliance Matrix: (Units=1/GPa)
#
#
# Indices 1 2 3 4 5 6 
#
# 1 0.009399 -0.002703 -0.003578 0.000000 0.000000 0.000000
# 2 -0.002703 0.018634 -0.000569 0.000000 0.000000 0.000000
# 3 -0.003578 -0.000569 0.013233 0.000000 0.000000 0.000000
# 4 0.000000 0.000000 0.000000 0.023747 0.000000 0.000000
# 5 0.000000 0.000000 0.000000 0.000000 0.045690 0.000000
# 6 0.000000 0.000000 0.000000 0.000000 0.000000 0.042031
#
#
# Mechanical properties :
#
#
# Convention : Reuss Voigt Hill
#
# Bulk Modulus (GPa) = 36.27676 43.33742 39.80709
# Shear Modulus (GPa) = 28.47007 31.26232 29.86619
#
# Velocity S-wave (km/s) = 3.81520 3.99791 3.90762
# Velocity P-wave (km/s) = 6.16074 6.59302 6.38054
#
# Compressibility (1/GPa) = 0.02756586
#
# Stress axis : x y z
#
# Youngs Moduli (GPa) = 106.39182 53.66638 75.56680
#
# Poissons Ratio (x) = 0.14507 0.27038
# Poissons Ratio (y) = 0.28759 0.04300
# Poissons Ratio (z) = 0.38068 0.03054
#
# Static dielectric constant tensor:
#      x y z
#    x 3.340610 0.000000 0.000000 
#    y 0.000000 3.482510 0.000000 
#    z 0.000000 0.000000 3.627420 
# 
# 
# High freq. dielectric constant tensor:
#      x y z
#    x 1.749130 0.000000 0.000000 
#    y 0.000000 1.764250 0.000000 
#    z 0.000000 0.000000 1.769380 
# 
# From -- ./inp_files/4083.got.cif
#   From: 2010.03.12/outbox.cif.g09.slc.cpg/sg31_3_cif.got.tgz:4083.got - 2010.04.14 01:42:59.
