data_PCOD8170334
_publ_section_title
;
Structure prediction by ZEFSAII (Michael W. Deem and Ramdas Pophale) SiO2 
 PCOD8170334
Probable space group: P M N 21
;
_chemical_formula_sum "Si O2"
_cell_formula_units_Z 32
_cell_length_a 18.328613
_cell_length_b 12.844704
_cell_length_c 6.821610
_cell_angle_alpha 90.000000
_cell_angle_beta 90.000000
_cell_angle_gamma 90.000000
_cell_volume 1605.981687
_symmetry_space_group_name_H-M "P M N 21"
_symmetry_group_IT_number 31
_symmetry_cell_setting 'orthorhombic'
loop_
_space_group_symop_operation_xyz
x,y,z
1/2-x,-y,1/2+z
-x,y,z
1/2+x,-y,1/2+z
loop_
_atom_site_type_symbol
_atom_site_label
_atom_site_fract_x
_atom_site_fract_y
_atom_site_fract_z
Si Si1 0.701706 0.632422 0.838570
Si Si2 0.835014 0.501806 0.990444
Si Si3 0.416503 0.136363 0.893721
Si Si4 0.083609 0.456792 0.599348
Si Si5 0.164986 0.998194 0.703581
Si Si6 0.416503 0.363637 0.800303
Si Si7 0.083609 0.043208 0.094676
Si Si8 0.701706 0.867578 0.855455
O O1 0.680670 0.601937 0.616627
O O2 0.732213 0.750000 0.847012
O O3 0.760507 0.547942 0.906939
O O4 0.631181 0.627349 0.980196
O O5 0.871605 0.590222 0.121443
O O6 0.889462 0.466892 0.820605
O O7 0.500000 0.143925 0.962600
O O8 0.384384 0.250000 0.847012
O O9 0.408052 0.068645 0.697888
O O10 0.371605 0.090222 0.072582
O O11 0.091948 0.568645 0.496136
O O12 0.000000 0.418400 0.598505
O O13 0.180670 0.101937 0.577397
O O14 0.239493 0.952058 0.787085
O O15 0.110538 0.033108 0.873420
O O16 0.500000 0.356075 0.731424
O O17 0.131181 0.127349 0.213828
O O18 0.000000 0.081600 0.095519
#
# Coordination Sequence:
#
# PCOD8170334 Si02
#       8
#     4   4   4   4   4   4   4   4
#     4  11  25  41  63  91 125 164 209 256 310 364
#     4  11  22  40  61  90 123 161 205 256 309 369
#     4   9  20  36  59  92 125 158 200 252 311 369
#     4  10  22  42  63  89 125 164 209 256 304 367
#     4  11  22  40  61  90 123 161 205 256 309 369
#     4   9  20  36  59  92 125 158 200 252 311 369
#     4  10  22  42  63  89 125 164 209 256 304 367
#     4  11  25  41  63  91 125 164 209 256 310 364
#
# _framework density 19.925508000000001
#
# number of rings (size 3 to 8) (size 9 to 14) (size 15 to 20)
#    0.000    1.750    2.500    0.750    3.500    2.500 
#    0.000    5.000    0.000    0.000    0.000    0.000 
#    0.000    0.000    0.000    0.000    0.000    0.000 
#
# Total GULP energy -396945.882797 kJ/mol
# GULP energy per Si atom -12404.558837 kJ/mol
# Density = 1.988016 g / cm^3
# Si number density = 19.925508 Si / 1000 Ang^3
#
#
#
# Elastic Constant Matrix: (Units=GPa)
#
#
# Indices 1 2 3 4 5 6 
#
# 1 87.5944 -2.5318 32.3640 0.0000 0.0000 0.0000
# 2 -2.5318 64.3277 8.5202 0.0000 0.0000 0.0000
# 3 32.3640 8.5202 117.4347 0.0000 0.0000 0.0000
# 4 0.0000 0.0000 0.0000 13.6597 0.0000 0.0000
# 5 0.0000 0.0000 0.0000 0.0000 43.4243 0.0000
# 6 0.0000 0.0000 0.0000 0.0000 0.0000 18.7770
#
#
#
# Elastic Compliance Matrix: (Units=1/GPa)
#
#
# Indices 1 2 3 4 5 6 
#
# 1 0.012771 0.000978 -0.003591 0.000000 0.000000 0.000000
# 2 0.000978 0.015771 -0.001414 0.000000 0.000000 0.000000
# 3 -0.003591 -0.001414 0.009607 0.000000 0.000000 0.000000
# 4 0.000000 0.000000 0.000000 0.073208 0.000000 0.000000
# 5 0.000000 0.000000 0.000000 0.000000 0.023029 0.000000
# 6 0.000000 0.000000 0.000000 0.000000 0.000000 0.053257
#
#
# Mechanical properties :
#
#
# Convention : Reuss Voigt Hill
#
# Bulk Modulus (GPa) = 33.22548 38.45132 35.83840
# Shear Modulus (GPa) = 24.30396 30.57249 27.43823
#
# Velocity S-wave (km/s) = 3.49627 3.92131 3.71488
# Velocity P-wave (km/s) = 5.74540 6.31203 6.03537
#
# Compressibility (1/GPa) = 0.03009738
#
# Stress axis : x y z
#
# Youngs Moduli (GPa) = 78.30136 63.40689 104.08546
#
# Poissons Ratio (x) = -0.06203 0.37373
# Poissons Ratio (y) = -0.07660 0.14716
# Poissons Ratio (z) = 0.28115 0.08965
#
# Static dielectric constant tensor:
#      x y z
#    x 3.760670 0.000000 0.000000 
#    y 0.000000 3.452890 0.000000 
#    z 0.000000 0.000000 3.723930 
# 
# 
# High freq. dielectric constant tensor:
#      x y z
#    x 1.788040 0.000000 0.000000 
#    y 0.000000 1.761990 0.000000 
#    z 0.000000 0.000000 1.786790 
# 
# From -- ./inp_files/880.got.cif
#   From: 2010.03.12/outbox.cif.g09.slc.cpg/sg31_1_cif.got.tgz:880.got - 2010.04.14 01:42:59.
