data_PCOD8170825
_publ_section_title
;
Structure prediction by ZEFSAII (Michael W. Deem and Ramdas Pophale) SiO2 
 PCOD8170825
Probable space group: P N A 21
;
_chemical_formula_sum "Si O2"
_cell_formula_units_Z 28
_cell_length_a 13.509873
_cell_length_b 8.653260
_cell_length_c 12.327783
_cell_angle_alpha 90.000000
_cell_angle_beta 90.000000
_cell_angle_gamma 90.000000
_cell_volume 1441.172613
_symmetry_space_group_name_H-M "P N A 21"
_symmetry_group_IT_number 33
_symmetry_cell_setting 'orthorhombic'
loop_
_space_group_symop_operation_xyz
x,y,z
-x,-y,1/2+z
1/2-x,1/2+y,1/2+z
1/2+x,1/2-y,z
loop_
_atom_site_type_symbol
_atom_site_label
_atom_site_fract_x
_atom_site_fract_y
_atom_site_fract_z
Si Si1 0.638725 0.670502 0.773460
Si Si2 0.138725 0.329498 0.273460
Si Si3 0.500000 0.250000 0.870386
Si Si4 0.636134 0.486550 0.984883
Si Si5 0.050499 0.011600 0.213251
Si Si6 0.636134 0.986550 0.484883
Si Si7 0.449501 0.011600 0.213251
O O1 0.750000 0.632398 0.734575
O O2 0.623840 0.625755 0.899545
O O3 0.563484 0.568644 0.701338
O O4 0.617669 0.851306 0.761302
O O5 0.117669 0.148694 0.261302
O O6 0.123840 0.374245 0.399545
O O7 0.063484 0.431356 0.201338
O O8 0.580393 0.332628 0.945906
O O9 0.440209 0.369340 0.795181
O O10 0.419607 0.167372 0.945906
O O11 0.559791 0.130660 0.795181
O O12 0.750000 0.441170 0.002476
O O13 0.589136 0.544607 0.097102
O O14 0.589136 0.044607 0.597102
#
# Coordination Sequence:
#
# PCOD8170825 Si02
#       7
#     4   4   4   4   4   4   4
#     4   9  19  36  56  79 110 145 181 222 268 321
#     4   9  19  36  56  79 110 145 181 222 268 321
#     4  10  22  36  56  84 110 140 182 226 268 320
#     4  10  21  37  56  81 112 144 181 224 268 318
#     4  10  20  35  58  81 109 144 180 223 272 318
#     4  10  21  37  56  81 112 144 181 224 268 318
#     4  10  20  35  58  81 109 144 180 223 272 318
#
# _framework density 19.428623999999999
#
# number of rings (size 3 to 8) (size 9 to 14) (size 15 to 20)
#    0.000    2.286    0.000    2.571    0.000    6.857 
#    0.000    0.000    0.000   15.429    0.000    0.000 
#    0.000    0.000    0.000    0.000    0.000    0.000 
#
# Total GULP energy -347250.269292 kJ/mol
# GULP energy per Si atom -12401.795332 kJ/mol
# Density = 1.938440 g / cm^3
# Si number density = 19.428624 Si / 1000 Ang^3
#
#
#
# Elastic Constant Matrix: (Units=GPa)
#
#
# Indices 1 2 3 4 5 6 
#
# 1 127.8589 2.0924 43.9760 0.0000 0.0000 0.0000
# 2 2.0924 41.6745 9.0345 0.0000 0.0000 0.0000
# 3 43.9760 9.0345 91.3402 0.0000 0.0000 0.0000
# 4 0.0000 0.0000 0.0000 25.8179 0.0000 0.0000
# 5 0.0000 0.0000 0.0000 0.0000 34.7043 0.0000
# 6 0.0000 0.0000 0.0000 0.0000 0.0000 18.2142
#
#
#
# Elastic Compliance Matrix: (Units=1/GPa)
#
#
# Indices 1 2 3 4 5 6 
#
# 1 0.009384 0.000519 -0.004569 0.000000 0.000000 0.000000
# 2 0.000519 0.024550 -0.002678 0.000000 0.000000 0.000000
# 3 -0.004569 -0.002678 0.013413 0.000000 0.000000 0.000000
# 4 0.000000 0.000000 0.000000 0.038733 0.000000 0.000000
# 5 0.000000 0.000000 0.000000 0.000000 0.028815 0.000000
# 6 0.000000 0.000000 0.000000 0.000000 0.000000 0.054902
#
#
# Mechanical properties :
#
#
# Convention : Reuss Voigt Hill
#
# Bulk Modulus (GPa) = 29.50675 41.23103 35.36889
# Shear Modulus (GPa) = 25.70024 29.46533 27.58279
#
# Velocity S-wave (km/s) = 3.64098 3.89857 3.77198
# Velocity P-wave (km/s) = 5.73549 6.44461 6.10037
#
# Compressibility (1/GPa) = 0.03389055
#
# Stress axis : x y z
#
# Youngs Moduli (GPa) = 106.56167 40.73319 74.55477
#
# Poissons Ratio (x) = -0.02116 0.34067
# Poissons Ratio (y) = -0.05535 0.19968
# Poissons Ratio (z) = 0.48693 0.10910
#
# Static dielectric constant tensor:
#      x y z
#    x 3.768230 0.000000 0.000000 
#    y 0.000000 3.477530 0.000000 
#    z 0.000000 0.000000 3.536770 
# 
# 
# High freq. dielectric constant tensor:
#      x y z
#    x 1.765700 0.000000 0.000000 
#    y 0.000000 1.748080 0.000000 
#    z 0.000000 0.000000 1.754650 
# 
# From -- ./inp_files/6733.got.cif
#   From: 2010.03.12/outbox.cif.g09.slc.cpg/sg33_4_cif.got.tgz:6733.got - 2010.04.14 01:49:19.
