data_PCOD8170301
_publ_section_title
;
Structure prediction by ZEFSAII (Michael W. Deem and Ramdas Pophale) SiO2 
 PCOD8170301
Probable space group: P M N 21
;
_chemical_formula_sum "Si O2"
_cell_formula_units_Z 20
_cell_length_a 14.096595
_cell_length_b 10.933014
_cell_length_c 5.177945
_cell_angle_alpha 90.000000
_cell_angle_beta 90.000000
_cell_angle_gamma 90.000000
_cell_volume 798.015928
_symmetry_space_group_name_H-M "P M N 21"
_symmetry_group_IT_number 31
_symmetry_cell_setting 'orthorhombic'
loop_
_space_group_symop_operation_xyz
x,y,z
1/2-x,-y,1/2+z
-x,y,z
1/2+x,-y,1/2+z
loop_
_atom_site_type_symbol
_atom_site_label
_atom_site_fract_x
_atom_site_fract_y
_atom_site_fract_z
Si Si1 0.000000 0.679784 0.552390
Si Si2 0.841168 0.433590 0.354640
Si Si3 0.000000 0.290618 0.583685
Si Si4 0.000000 0.522549 0.045889
Si Si5 0.204014 0.699039 0.548877
Si Si6 0.500000 0.871308 0.576464
Si Si7 0.793481 0.057639 0.976704
O O1 0.097693 0.754107 0.598113
O O2 0.000000 0.630633 0.260079
O O3 0.000000 0.568165 0.754247
O O4 0.907534 0.378183 0.577996
O O5 0.906197 0.440411 0.095093
O O6 0.800603 0.569889 0.398274
O O7 0.755657 0.336687 0.317210
O O8 0.000000 0.232556 0.862836
O O9 0.000000 0.187691 0.360954
O O10 0.265321 0.802434 0.404375
O O11 0.594419 0.954448 0.540288
O O12 0.767404 0.975570 0.731176
#
# Coordination Sequence:
#
# PCOD8170301 Si02
#       7
#     2   4   2   2   4   2   4
#     4  10  22  39  61  94 143 190 233 295 372 445
#     4  10  22  38  70 113 149 193 244 314 399 467
#     4  11  24  44  77 116 156 198 248 321 404 480
#     4   9  20  38  57  98 143 187 228 285 374 463
#     4  11  24  42  70 110 152 199 247 320 382 465
#     4  12  26  53  81 112 152 201 265 329 384 470
#     4  12  30  53  80 111 153 213 271 320 384 458
#
# _framework density 25.062154
#
# number of rings (size 3 to 8) (size 9 to 14) (size 15 to 20)
#    0.000    1.200    2.000    3.000    2.800   11.200 
#    0.000    0.000    0.000    0.000    0.000    0.000 
#    0.000    0.000    0.000    0.000    0.000    0.000 
#
# Total GULP energy -247793.686909 kJ/mol
# GULP energy per Si atom -12389.684345 kJ/mol
# Density = 2.500511 g / cm^3
# Si number density = 25.062154 Si / 1000 Ang^3
#
#
#
# Elastic Constant Matrix: (Units=GPa)
#
#
# Indices 1 2 3 4 5 6 
#
# 1 172.6581 34.8089 10.4452 0.0000 0.0000 0.0000
# 2 34.8089 80.1612 21.3713 0.0000 0.0000 0.0000
# 3 10.4452 21.3713 84.3611 0.0000 0.0000 0.0000
# 4 0.0000 0.0000 0.0000 42.1139 0.0000 0.0000
# 5 0.0000 0.0000 0.0000 0.0000 14.2945 0.0000
# 6 0.0000 0.0000 0.0000 0.0000 0.0000 21.0232
#
#
#
# Elastic Compliance Matrix: (Units=1/GPa)
#
#
# Indices 1 2 3 4 5 6 
#
# 1 0.006348 -0.002732 -0.000094 0.000000 0.000000 0.000000
# 2 -0.002732 0.014554 -0.003349 0.000000 0.000000 0.000000
# 3 -0.000094 -0.003349 0.012714 0.000000 0.000000 0.000000
# 4 0.000000 0.000000 0.000000 0.023745 0.000000 0.000000
# 5 0.000000 0.000000 0.000000 0.000000 0.069957 0.000000
# 6 0.000000 0.000000 0.000000 0.000000 0.000000 0.047567
#
#
# Mechanical properties :
#
#
# Convention : Reuss Voigt Hill
#
# Bulk Modulus (GPa) = 47.02083 52.27015 49.64549
# Shear Modulus (GPa) = 25.73046 33.52331 29.62689
#
# Velocity S-wave (km/s) = 3.20764 3.66130 3.44195
# Velocity P-wave (km/s) = 5.70272 6.22695 5.97059
#
# Compressibility (1/GPa) = 0.02126717
#
# Stress axis : x y z
#
# Youngs Moduli (GPa) = 157.52563 68.71069 78.65480
#
# Poissons Ratio (x) = 0.18769 0.00740
# Poissons Ratio (y) = 0.43029 0.26339
# Poissons Ratio (z) = 0.01481 0.23009
#
# Static dielectric constant tensor:
#      x y z
#    x 5.492780 0.000000 0.000000 
#    y 0.000000 4.146530 0.000000 
#    z 0.000000 0.000000 4.152970 
# 
# 
# High freq. dielectric constant tensor:
#      x y z
#    x 2.030560 0.000000 0.000000 
#    y 0.000000 1.968840 0.000000 
#    z 0.000000 0.000000 1.989330 
# 
# From -- ./inp_files/553.got.cif
#   From: 2010.03.12/outbox.cif.g09.slc.cpg/sg31_1_cif.got.tgz:553.got - 2010.04.14 01:42:59.
