data_PCOD8170808
_publ_section_title
;
Structure prediction by ZEFSAII (Michael W. Deem and Ramdas Pophale) SiO2 
 PCOD8170808
Probable space group: P N A 21
;
_chemical_formula_sum "Si O2"
_cell_formula_units_Z 32
_cell_length_a 18.122977
_cell_length_b 17.117676
_cell_length_c 5.978679
_cell_angle_alpha 90.000000
_cell_angle_beta 90.000000
_cell_angle_gamma 90.000000
_cell_volume 1854.725221
_symmetry_space_group_name_H-M "P N A 21"
_symmetry_group_IT_number 33
_symmetry_cell_setting 'orthorhombic'
loop_
_space_group_symop_operation_xyz
x,y,z
-x,-y,1/2+z
1/2-x,1/2+y,1/2+z
1/2+x,1/2-y,z
loop_
_atom_site_type_symbol
_atom_site_label
_atom_site_fract_x
_atom_site_fract_y
_atom_site_fract_z
Si Si1 0.705873 0.563250 0.348460
Si Si2 0.257405 0.812619 0.629850
Si Si3 0.705866 0.436745 0.024123
Si Si4 0.351113 0.303127 0.525315
Si Si5 0.242602 0.687388 0.242733
Si Si6 0.412037 0.499999 0.186287
Si Si7 0.000002 0.872491 0.936290
Si Si8 0.851121 0.803120 0.847269
O O1 0.764677 0.599700 0.526041
O O2 0.744938 0.499995 0.186293
O O3 0.679157 0.635037 0.201197
O O4 0.637530 0.520591 0.470829
O O5 0.250002 0.750002 0.436297
O O6 0.328206 0.785748 0.775890
O O7 0.183256 0.817191 0.780104
O O8 0.679144 0.364960 0.171389
O O9 0.764668 0.400294 0.846537
O O10 0.637526 0.479409 0.901757
O O11 0.328198 0.214259 0.596687
O O12 0.438743 0.312815 0.528233
O O13 0.316751 0.682819 0.092481
O O14 0.464379 0.426817 0.244430
O O15 0.464379 0.573181 0.128139
O O16 0.938752 0.812806 0.844363
#
# Coordination Sequence:
#
# PCOD8170808 Si02
#       8
#     4   4   4   4   4   4   4   4
#     4  11  18  33  49  72 103 146 179 224 263 323
#     4   9  19  35  50  66  98 148 183 219 262 317
#     4  11  18  33  49  72 103 146 179 224 263 323
#     4  10  20  33  49  71 103 150 176 220 266 327
#     4   9  19  35  50  66  98 148 183 219 262 317
#     4  12  22  32  46  82 114 146 176 210 264 334
#     4  12  20  32  48  74 114 146 174 218 274 332
#     4  10  20  33  49  71 103 150 176 220 266 327
#
# _framework density 17.253231
#
# number of rings (size 3 to 8) (size 9 to 14) (size 15 to 20)
#    0.000    1.500    5.000    1.500    0.000    0.000 
#    0.000    0.000    0.000    0.000    0.000    0.000 
#    0.000    0.000  578.000    0.000    0.000    0.000 
#
# Total GULP energy -396425.168510 kJ/mol
# GULP energy per Si atom -12388.286516 kJ/mol
# Density = 1.721396 g / cm^3
# Si number density = 17.253231 Si / 1000 Ang^3
#
#
#
# Elastic Constant Matrix: (Units=GPa)
#
#
# Indices 1 2 3 4 5 6 
#
# 1 76.8804 63.0238 28.0377 0.0000 0.0000 0.0000
# 2 63.0238 96.4267 43.9436 0.0000 0.0000 0.0000
# 3 28.0377 43.9436 88.5401 0.0000 0.0000 0.0000
# 4 0.0000 0.0000 0.0000 51.2030 0.0000 0.0000
# 5 0.0000 0.0000 0.0000 0.0000 12.7794 0.0000
# 6 0.0000 0.0000 0.0000 0.0000 0.0000 34.1622
#
#
#
# Elastic Compliance Matrix: (Units=1/GPa)
#
#
# Indices 1 2 3 4 5 6 
#
# 1 0.028026 -0.018445 0.000280 0.000000 0.000000 0.000000
# 2 -0.018445 0.025541 -0.006835 0.000000 0.000000 0.000000
# 3 0.000280 -0.006835 0.014598 0.000000 0.000000 0.000000
# 4 0.000000 0.000000 0.000000 0.019530 0.000000 0.000000
# 5 0.000000 0.000000 0.000000 0.000000 0.078251 0.000000
# 6 0.000000 0.000000 0.000000 0.000000 0.000000 0.029272
#
#
# Mechanical properties :
#
#
# Convention : Reuss Voigt Hill
#
# Bulk Modulus (GPa) = 55.05511 59.09529 57.07520
# Shear Modulus (GPa) = 19.89861 28.08505 23.99183
#
# Velocity S-wave (km/s) = 3.39975 4.03899 3.73308
# Velocity P-wave (km/s) = 6.88407 7.48848 7.19263
#
# Compressibility (1/GPa) = 0.01816362
#
# Stress axis : x y z
#
# Youngs Moduli (GPa) = 35.68165 39.15269 68.50101
#
# Poissons Ratio (x) = 0.72216 -0.01915
# Poissons Ratio (y) = 0.65814 0.46824
# Poissons Ratio (z) = -0.00998 0.26763
#
# Static dielectric constant tensor:
#      x y z
#    x 3.171760 0.000000 0.000000 
#    y 0.000000 3.745230 0.000000 
#    z 0.000000 0.000000 3.731150 
# 
# 
# High freq. dielectric constant tensor:
#      x y z
#    x 1.615780 0.000000 0.000000 
#    y 0.000000 1.660460 0.000000 
#    z 0.000000 0.000000 1.693950 
# 
# From -- ./inp_files/1526.got.cif
#   From: 2010.03.12/outbox.cif.g09.slc.cpg/sg33_1_cif.got.tgz:1526.got - 2010.04.14 01:49:19.
