data_PCOD8170177
_publ_section_title
;
Structure prediction by ZEFSAII (Michael W. Deem and Ramdas Pophale) SiO2 
 PCOD8170177
Probable space group: P M N 21
;
_chemical_formula_sum "Si O2"
_cell_formula_units_Z 32
_cell_length_a 8.608719
_cell_length_b 11.779483
_cell_length_c 15.273571
_cell_angle_alpha 90.000000
_cell_angle_beta 90.000000
_cell_angle_gamma 90.000000
_cell_volume 1548.835698
_symmetry_space_group_name_H-M "P M N 21"
_symmetry_group_IT_number 31
_symmetry_cell_setting 'orthorhombic'
loop_
_space_group_symop_operation_xyz
x,y,z
1/2-x,-y,1/2+z
-x,y,z
1/2+x,-y,1/2+z
loop_
_atom_site_type_symbol
_atom_site_label
_atom_site_fract_x
_atom_site_fract_y
_atom_site_fract_z
Si Si1 0.319794 0.099453 0.696710
Si Si2 0.320492 0.493598 0.097423
Si Si3 0.819176 0.742351 0.359709
Si Si4 0.178738 0.502706 0.282833
Si Si5 0.679992 0.730340 0.540463
Si Si6 0.677415 0.734176 0.865834
Si Si7 0.679559 0.142892 0.202500
Si Si8 0.179576 0.728124 0.044886
O O1 0.500000 0.063962 0.693974
O O2 0.280195 0.168901 0.783942
O O3 0.274970 0.173930 0.612623
O O4 0.212851 0.989811 0.694284
O O5 0.500000 0.468372 0.079477
O O6 0.285954 0.479183 0.199754
O O7 0.220681 0.402964 0.042794
O O8 0.282302 0.618743 0.064714
O O9 0.766112 0.617567 0.329126
O O10 0.721692 0.778601 0.444743
O O11 0.000000 0.742324 0.383921
O O12 0.200871 0.399948 0.350231
O O13 0.000000 0.513288 0.251058
O O14 0.500000 0.750447 0.560325
O O15 0.779116 0.796707 0.612048
O O16 0.500000 0.761577 0.889168
O O17 0.720560 0.805150 0.780641
O O18 0.783764 0.772204 0.947270
O O19 0.500000 0.163182 0.223083
O O20 0.000000 0.695534 0.055259
#
# Coordination Sequence:
#
# PCOD8170177 Si02
#       8
#     4   4   4   4   4   4   4   4
#     4  10  23  44  68  92 124 168 212 263 317 370
#     4  12  23  37  63  96 131 168 209 256 316 383
#     4  10  21  41  67  96 129 164 207 256 315 380
#     4  10  20  38  64  93 128 168 203 251 316 381
#     4  12  25  42  65  94 129 167 212 263 318 378
#     4  11  23  40  66  97 131 167 207 258 317 379
#     4  12  26  44  66  92 124 166 216 267 316 375
#     4  11  23  42  67  96 130 168 212 260 315 376
#
# _framework density 20.660682000000001
#
# number of rings (size 3 to 8) (size 9 to 14) (size 15 to 20)
#    0.000    1.000    2.500    4.875    0.000    4.500 
#    0.000    0.000    0.000    0.000    0.000    0.000 
#    0.000    0.000    0.000    0.000    0.000    0.000 
#
# Total GULP energy -397058.053015 kJ/mol
# GULP energy per Si atom -12408.064157 kJ/mol
# Density = 2.061366 g / cm^3
# Si number density = 20.660682 Si / 1000 Ang^3
#
#
#
# Elastic Constant Matrix: (Units=GPa)
#
#
# Indices 1 2 3 4 5 6 
#
# 1 68.6782 23.8559 17.7091 0.0000 0.0000 0.0000
# 2 23.8559 90.2531 18.6624 0.0000 0.0000 0.0000
# 3 17.7091 18.6624 101.6627 0.0000 0.0000 0.0000
# 4 0.0000 0.0000 0.0000 1.8609 0.0000 0.0000
# 5 0.0000 0.0000 0.0000 0.0000 35.8401 0.0000
# 6 0.0000 0.0000 0.0000 0.0000 0.0000 29.7289
#
#
#
# Elastic Compliance Matrix: (Units=1/GPa)
#
#
# Indices 1 2 3 4 5 6 
#
# 1 0.016473 -0.003909 -0.002152 0.000000 0.000000 0.000000
# 2 -0.003909 0.012445 -0.001604 0.000000 0.000000 0.000000
# 3 -0.002152 -0.001604 0.010506 0.000000 0.000000 0.000000
# 4 0.000000 0.000000 0.000000 0.537384 0.000000 0.000000
# 5 0.000000 0.000000 0.000000 0.000000 0.027902 0.000000
# 6 0.000000 0.000000 0.000000 0.000000 0.000000 0.033637
#
#
# Mechanical properties :
#
#
# Convention : Reuss Voigt Hill
#
# Bulk Modulus (GPa) = 41.50347 42.33875 41.92111
# Shear Modulus (GPa) = 7.55620 26.84376 17.19998
#
# Velocity S-wave (km/s) = 1.91448 3.60845 2.88843
# Velocity P-wave (km/s) = 5.00187 6.15614 5.60878
#
# Compressibility (1/GPa) = 0.02409437
#
# Stress axis : x y z
#
# Youngs Moduli (GPa) = 60.70362 80.35452 95.18676
#
# Poissons Ratio (x) = 0.31413 0.20484
# Poissons Ratio (y) = 0.23731 0.15264
# Poissons Ratio (z) = 0.13063 0.12885
#
# Static dielectric constant tensor:
#      x y z
#    x 3.690530 0.000000 0.000000 
#    y 0.000000 3.709270 0.000000 
#    z 0.000000 0.000000 3.819110 
# 
# 
# High freq. dielectric constant tensor:
#      x y z
#    x 1.806610 0.000000 0.000000 
#    y 0.000000 1.805730 0.000000 
#    z 0.000000 0.000000 1.821700 
# 
# From -- ./inp_files/4965.got.cif
#   From: 2010.03.12/outbox.cif.g09.slc.cpg/sg31_3_cif.got.tgz:4965.got - 2010.04.14 01:42:59.
