data_PCOD8170661
_publ_section_title
;
Structure prediction by ZEFSAII (Michael W. Deem and Ramdas Pophale) SiO2 
 PCOD8170661
Probable space group: P N A 21
;
_chemical_formula_sum "Si O2"
_cell_formula_units_Z 24
_cell_length_a 5.476139
_cell_length_b 17.747402
_cell_length_c 8.341470
_cell_angle_alpha 90.000000
_cell_angle_beta 90.000000
_cell_angle_gamma 90.000000
_cell_volume 810.684449
_symmetry_space_group_name_H-M "P N A 21"
_symmetry_group_IT_number 33
_symmetry_cell_setting 'orthorhombic'
loop_
_space_group_symop_operation_xyz
x,y,z
-x,-y,1/2+z
1/2-x,1/2+y,1/2+z
1/2+x,1/2-y,z
loop_
_atom_site_type_symbol
_atom_site_label
_atom_site_fract_x
_atom_site_fract_y
_atom_site_fract_z
Si Si1 0.660502 0.576220 0.469110
Si Si2 0.057891 0.787889 0.979039
Si Si3 0.802923 0.043946 0.512657
Si Si4 0.696271 0.217412 0.840519
Si Si5 0.950655 0.436977 0.236005
Si Si6 0.864104 0.806565 0.647137
O O1 0.520898 0.499715 0.415633
O O2 0.814044 0.625351 0.334995
O O3 0.818739 0.558830 0.622666
O O4 0.443251 0.633010 0.515024
O O5 0.802145 0.753834 0.044382
O O6 0.066070 0.782601 0.782476
O O7 0.091367 0.872951 0.041263
O O8 0.548745 0.041724 0.412615
O O9 0.746330 0.001076 0.681358
O O10 0.449568 0.251771 0.758905
O O11 0.737594 0.238479 0.032862
O O12 0.846503 0.351803 0.246061
#
# Coordination Sequence:
#
# PCOD8170661 Si02
#       6
#     4   4   4   4   4   4
#     4  10  21  36  61  95 141 181 226 288 363 425
#     4  12  25  41  69 107 146 188 243 313 372 432
#     4  11  27  42  71 105 144 199 241 306 369 449
#     4  10  18  32  57  95 134 169 220 287 359 404
#     4  11  23  45  69 103 150 193 242 298 373 440
#     4  10  20  36  63 105 137 178 232 312 366 410
#
# _framework density 29.604611999999999
#
# number of rings (size 3 to 8) (size 9 to 14) (size 15 to 20)
#    0.000    1.333    3.333    3.000    4.667    0.000 
#    0.000    0.000    0.000    6.000    0.000    0.000 
#    0.000    0.000    0.000    0.000    0.000    0.000 
#
# Total GULP energy -297585.971956 kJ/mol
# GULP energy per Si atom -12399.415498 kJ/mol
# Density = 2.953723 g / cm^3
# Si number density = 29.604612 Si / 1000 Ang^3
#
#
#
# Elastic Constant Matrix: (Units=GPa)
#
#
# Indices 1 2 3 4 5 6 
#
# 1 155.9930 72.5151 64.9952 0.0000 0.0000 0.0000
# 2 72.5151 215.5931 25.5349 0.0000 0.0000 0.0000
# 3 64.9952 25.5349 81.6271 0.0000 0.0000 0.0000
# 4 0.0000 0.0000 0.0000 29.8864 0.0000 0.0000
# 5 0.0000 0.0000 0.0000 0.0000 75.0215 0.0000
# 6 0.0000 0.0000 0.0000 0.0000 0.0000 232.3345
#
#
#
# Elastic Compliance Matrix: (Units=1/GPa)
#
#
# Indices 1 2 3 4 5 6 
#
# 1 0.010974 -0.002758 -0.007875 0.000000 0.000000 0.000000
# 2 -0.002758 0.005510 0.000473 0.000000 0.000000 0.000000
# 3 -0.007875 0.000473 0.018374 0.000000 0.000000 0.000000
# 4 0.000000 0.000000 0.000000 0.033460 0.000000 0.000000
# 5 0.000000 0.000000 0.000000 0.000000 0.013330 0.000000
# 6 0.000000 0.000000 0.000000 0.000000 0.000000 0.004304
#
#
# Mechanical properties :
#
#
# Convention : Reuss Voigt Hill
#
# Bulk Modulus (GPa) = 68.79490 86.58931 77.69210
# Shear Modulus (GPa) = 44.99701 86.79302 65.89502
#
# Velocity S-wave (km/s) = 3.90286 5.42043 4.72300
# Velocity P-wave (km/s) = 6.60289 8.27568 7.48615
#
# Compressibility (1/GPa) = 0.01453596
#
# Stress axis : x y z
#
# Youngs Moduli (GPa) = 91.12424 181.48230 54.42615
#
# Poissons Ratio (x) = 0.50060 0.42861
# Poissons Ratio (y) = 0.25136 -0.02572
# Poissons Ratio (z) = 0.71762 -0.08578
#
# Static dielectric constant tensor:
#      x y z
#    x 5.611480 0.000000 0.000000 
#    y 0.000000 6.024600 0.000000 
#    z 0.000000 0.000000 5.415840 
# 
# 
# High freq. dielectric constant tensor:
#      x y z
#    x 2.228560 0.000000 0.000000 
#    y 0.000000 2.220960 0.000000 
#    z 0.000000 0.000000 2.229740 
# 
# From -- ./inp_files/5463.got.cif
#   From: 2010.03.12/outbox.cif.g09.slc.cpg/sg33_3_cif.got.tgz:5463.got - 2010.04.14 01:49:19.
