data_PCOD8170180
_publ_section_title
;
Structure prediction by ZEFSAII (Michael W. Deem and Ramdas Pophale) SiO2 
 PCOD8170180
Probable space group: P M N 21
;
_chemical_formula_sum "Si O2"
_cell_formula_units_Z 28
_cell_length_a 18.940773
_cell_length_b 5.583330
_cell_length_c 13.357916
_cell_angle_alpha 90.000000
_cell_angle_beta 90.000000
_cell_angle_gamma 90.000000
_cell_volume 1412.634162
_symmetry_space_group_name_H-M "P M N 21"
_symmetry_group_IT_number 31
_symmetry_cell_setting 'orthorhombic'
loop_
_space_group_symop_operation_xyz
x,y,z
1/2-x,-y,1/2+z
-x,y,z
1/2+x,-y,1/2+z
loop_
_atom_site_type_symbol
_atom_site_label
_atom_site_fract_x
_atom_site_fract_y
_atom_site_fract_z
Si Si1 0.805156 0.818688 0.014600
Si Si2 0.195781 0.801486 0.562146
Si Si3 0.580972 0.826630 0.050979
Si Si4 0.231982 0.551811 0.203571
Si Si5 0.081368 0.828394 0.856196
Si Si6 0.821157 0.422817 0.406711
Si Si7 0.623399 0.674009 0.252344
O O1 0.815555 0.672576 0.118105
O O2 0.769465 0.068268 0.041120
O O3 0.879891 0.858681 0.962930
O O4 0.754053 0.681526 0.938416
O O5 0.213220 0.637261 0.656294
O O6 0.171068 0.677870 0.459441
O O7 0.128924 0.959038 0.593900
O O8 0.500000 0.901739 0.033586
O O9 0.590186 0.632888 0.140145
O O10 0.613455 0.739342 0.944869
O O11 0.178110 0.446697 0.286322
O O12 0.291202 0.726390 0.252942
O O13 0.106300 0.575535 0.808230
O O14 0.000000 0.798970 0.880739
O O15 0.091314 0.078885 0.796531
#
# Coordination Sequence:
#
# PCOD8170180 Si02
#       7
#     4   4   4   4   4   4   4
#     4  10  22  36  61  90 122 165 212 262 310 379
#     4  10  20  39  60  90 120 168 206 262 322 363
#     4  11  23  38  57  93 128 163 208 257 324 393
#     4  11  21  38  64  93 120 164 218 265 314 376
#     4  12  26  42  63  96 133 171 208 262 327 386
#     4  10  21  38  59  87 123 164 210 261 315 375
#     4  12  23  41  65  95 131 167 208 265 326 384
#
# _framework density 19.821126
#
# number of rings (size 3 to 8) (size 9 to 14) (size 15 to 20)
#    0.000    1.143    5.714    3.000    2.000    2.857 
#    0.000    0.714    0.000    2.571    0.000    0.000 
#    0.000    0.000    0.000    0.000    0.000    0.000 
#
# Total GULP energy -346951.585927 kJ/mol
# GULP energy per Si atom -12391.128069 kJ/mol
# Density = 1.977601 g / cm^3
# Si number density = 19.821126 Si / 1000 Ang^3
#
#
#
# Elastic Constant Matrix: (Units=GPa)
#
#
# Indices 1 2 3 4 5 6 
#
# 1 115.9296 20.8082 52.2807 0.0000 0.0000 0.0000
# 2 20.8082 86.2156 27.2054 0.0000 0.0000 0.0000
# 3 52.2807 27.2054 102.2082 0.0000 0.0000 0.0000
# 4 0.0000 0.0000 0.0000 14.2828 0.0000 0.0000
# 5 0.0000 0.0000 0.0000 0.0000 23.4255 0.0000
# 6 0.0000 0.0000 0.0000 0.0000 0.0000 10.8491
#
#
#
# Elastic Compliance Matrix: (Units=1/GPa)
#
#
# Indices 1 2 3 4 5 6 
#
# 1 0.011288 -0.000985 -0.005512 0.000000 0.000000 0.000000
# 2 -0.000985 0.012748 -0.002889 0.000000 0.000000 0.000000
# 3 -0.005512 -0.002889 0.013372 0.000000 0.000000 0.000000
# 4 0.000000 0.000000 0.000000 0.070014 0.000000 0.000000
# 5 0.000000 0.000000 0.000000 0.000000 0.042689 0.000000
# 6 0.000000 0.000000 0.000000 0.000000 0.000000 0.092174
#
#
# Mechanical properties :
#
#
# Convention : Reuss Voigt Hill
#
# Bulk Modulus (GPa) = 53.65884 56.10468 54.88176
# Shear Modulus (GPa) = 18.70761 23.31540 21.01150
#
# Velocity S-wave (km/s) = 3.07550 3.43343 3.25938
# Velocity P-wave (km/s) = 6.30412 6.63964 6.47406
#
# Compressibility (1/GPa) = 0.01863626
#
# Stress axis : x y z
#
# Youngs Moduli (GPa) = 88.58588 78.44153 74.78049
#
# Poissons Ratio (x) = 0.07728 0.41219
# Poissons Ratio (y) = 0.08727 0.21607
# Poissons Ratio (z) = 0.48828 0.22665
#
# Static dielectric constant tensor:
#      x y z
#    x 3.432840 0.000000 0.000000 
#    y 0.000000 3.803320 0.000000 
#    z 0.000000 0.000000 3.578630 
# 
# 
# High freq. dielectric constant tensor:
#      x y z
#    x 1.746930 0.000000 0.000000 
#    y 0.000000 1.782270 0.000000 
#    z 0.000000 0.000000 1.766220 
# 
# From -- ./inp_files/4465.got.cif
#   From: 2010.03.12/outbox.cif.g09.slc.cpg/sg31_3_cif.got.tgz:4465.got - 2010.04.14 01:42:59.
