data_PCOD8170843
_publ_section_title
;
Structure prediction by ZEFSAII (Michael W. Deem and Ramdas Pophale) SiO2 
 PCOD8170843
Probable space group: P N A 21
;
_chemical_formula_sum "Si O2"
_cell_formula_units_Z 24
_cell_length_a 9.028374
_cell_length_b 13.972793
_cell_length_c 8.902639
_cell_angle_alpha 90.000000
_cell_angle_beta 90.000000
_cell_angle_gamma 90.000000
_cell_volume 1123.082163
_symmetry_space_group_name_H-M "P N A 21"
_symmetry_group_IT_number 33
_symmetry_cell_setting 'orthorhombic'
loop_
_space_group_symop_operation_xyz
x,y,z
-x,-y,1/2+z
1/2-x,1/2+y,1/2+z
1/2+x,1/2-y,z
loop_
_atom_site_type_symbol
_atom_site_label
_atom_site_fract_x
_atom_site_fract_y
_atom_site_fract_z
Si Si1 0.682460 0.373400 0.750000
Si Si2 0.319045 0.964754 0.912893
Si Si3 0.612183 0.709307 0.917427
Si Si4 0.019180 0.713093 0.232610
Si Si5 0.812329 0.874348 0.890349
Si Si6 0.395003 0.990788 0.237736
O O1 0.686875 0.474645 0.834012
O O2 0.826026 0.314572 0.805912
O O3 0.544755 0.309946 0.807713
O O4 0.685247 0.386554 0.570434
O O5 0.243772 0.864609 0.958222
O O6 0.458256 0.954986 0.799566
O O7 0.380437 0.016317 0.061945
O O8 0.695562 0.794436 0.828887
O O9 0.477081 0.655371 0.831391
O O10 0.538674 0.762738 0.057921
O O11 0.907038 0.624010 0.254081
O O12 0.755584 0.974384 0.820483
#
# Coordination Sequence:
#
# PCOD8170843 Si02
#       6
#     4   4   4   4   4   4
#     4   9  19  36  56  82 109 149 193 241 290 350
#     4  11  22  36  59  85 118 155 201 243 297 353
#     4  10  20  38  62  87 116 160 200 239 294 373
#     4   9  18  34  58  79 109 149 192 230 288 354
#     4  10  20  36  60  86 114 150 199 243 297 355
#     4  11  21  38  59  85 116 159 199 248 298 353
#
# _framework density 21.369761
#
# number of rings (size 3 to 8) (size 9 to 14) (size 15 to 20)
#    0.000    2.000    0.000    7.000    0.000    4.000 
#    0.000    8.333    0.000    0.000    0.000    0.000 
#    0.000    0.000    0.000    0.000    0.000    0.000 
#
# Total GULP energy -297357.342098 kJ/mol
# GULP energy per Si atom -12389.889254 kJ/mol
# Density = 2.132112 g / cm^3
# Si number density = 21.369761 Si / 1000 Ang^3
#
#
#
# Elastic Constant Matrix: (Units=GPa)
#
#
# Indices 1 2 3 4 5 6 
#
# 1 78.2821 27.7619 26.8805 0.0000 0.0000 0.0000
# 2 27.7619 74.6424 29.8025 0.0000 0.0000 0.0000
# 3 26.8805 29.8025 61.8425 0.0000 0.0000 0.0000
# 4 0.0000 0.0000 0.0000 28.7023 0.0000 0.0000
# 5 0.0000 0.0000 0.0000 0.0000 18.5566 0.0000
# 6 0.0000 0.0000 0.0000 0.0000 0.0000 48.1870
#
#
#
# Elastic Compliance Matrix: (Units=1/GPa)
#
#
# Indices 1 2 3 4 5 6 
#
# 1 0.015883 -0.003902 -0.005023 0.000000 0.000000 0.000000
# 2 -0.003902 0.017548 -0.006760 0.000000 0.000000 0.000000
# 3 -0.005023 -0.006760 0.021612 0.000000 0.000000 0.000000
# 4 0.000000 0.000000 0.000000 0.034840 0.000000 0.000000
# 5 0.000000 0.000000 0.000000 0.000000 0.053889 0.000000
# 6 0.000000 0.000000 0.000000 0.000000 0.000000 0.020752
#
#
# Mechanical properties :
#
#
# Convention : Reuss Voigt Hill
#
# Bulk Modulus (GPa) = 42.24587 42.62854 42.43721
# Shear Modulus (GPa) = 24.53560 27.77732 26.15646
#
# Velocity S-wave (km/s) = 3.39211 3.60924 3.50236
# Velocity P-wave (km/s) = 5.92906 6.11230 6.02138
#
# Compressibility (1/GPa) = 0.02367095
#
# Stress axis : x y z
#
# Youngs Moduli (GPa) = 62.96062 56.98774 46.27159
#
# Poissons Ratio (x) = 0.22235 0.23244
# Poissons Ratio (y) = 0.24565 0.31282
# Poissons Ratio (z) = 0.31628 0.38526
#
# Static dielectric constant tensor:
#      x y z
#    x 4.259980 0.000000 0.000000 
#    y 0.000000 4.042040 0.000000 
#    z 0.000000 0.000000 3.405440 
# 
# 
# High freq. dielectric constant tensor:
#      x y z
#    x 1.852390 0.000000 0.000000 
#    y 0.000000 1.843930 0.000000 
#    z 0.000000 0.000000 1.782550 
# 
# From -- ./inp_files/3164.got.cif
#   From: 2010.03.12/outbox.cif.g09.slc.cpg/sg33_2_cif.got.tgz:3164.got - 2010.04.14 01:49:19.
