data_PCOD8170364
_publ_section_title
;
Structure prediction by ZEFSAII (Michael W. Deem and Ramdas Pophale) SiO2 
 PCOD8170364
Probable space group: P M N 21
;
_chemical_formula_sum "Si O2"
_cell_formula_units_Z 16
_cell_length_a 22.562885
_cell_length_b 5.095279
_cell_length_c 4.892866
_cell_angle_alpha 90.000000
_cell_angle_beta 90.000000
_cell_angle_gamma 90.000000
_cell_volume 562.504397
_symmetry_space_group_name_H-M "P M N 21"
_symmetry_group_IT_number 31
_symmetry_cell_setting 'orthorhombic'
loop_
_space_group_symop_operation_xyz
x,y,z
1/2-x,-y,1/2+z
-x,y,z
1/2+x,-y,1/2+z
loop_
_atom_site_type_symbol
_atom_site_label
_atom_site_fract_x
_atom_site_fract_y
_atom_site_fract_z
Si Si1 0.822791 0.386502 0.736720
Si Si2 0.000000 0.276010 0.469120
Si Si3 0.500000 0.219387 0.333974
Si Si4 0.193943 0.731302 0.236855
Si Si5 0.903286 0.088855 0.105707
O O1 0.828628 0.492585 0.429004
O O2 0.763604 0.206567 0.783660
O O3 0.881013 0.225165 0.824676
O O4 0.815976 0.642850 0.926036
O O5 0.000000 0.487907 0.712283
O O6 0.000000 0.984290 0.586828
O O7 0.058160 0.300001 0.276694
O O8 0.557823 0.165894 0.520644
O O9 0.153538 0.990800 0.285714
#
# Coordination Sequence:
#
# PCOD8170364 Si02
#       5
#     4   2   2   4   4
#     4  10  25  47  77 119 163 210 268 334 413 501
#     4  11  30  53  81 118 162 218 286 344 410 482
#     4  11  30  53  81 118 162 218 286 344 410 482
#     4  10  25  47  77 119 163 210 268 334 413 501
#     4  11  28  48  82 112 166 213 278 336 420 487
#
# _framework density 28.444220999999999
#
# number of rings (size 3 to 8) (size 9 to 14) (size 15 to 20)
#    0.000    1.500    0.000    0.000   14.000    8.000 
#    0.000    3.750    0.000    0.000    0.000    0.000 
#    0.000    0.000    0.000    0.000    0.000    0.000 
#
# Total GULP energy -198473.868878 kJ/mol
# GULP energy per Si atom -12404.616805 kJ/mol
# Density = 2.837948 g / cm^3
# Si number density = 28.444221 Si / 1000 Ang^3
#
#
#
# Elastic Constant Matrix: (Units=GPa)
#
#
# Indices 1 2 3 4 5 6 
#
# 1 135.2137 14.2425 8.1427 0.0000 0.0000 0.0000
# 2 14.2425 59.7183 -0.4258 0.0000 0.0000 0.0000
# 3 8.1427 -0.4258 75.9375 0.0000 0.0000 0.0000
# 4 0.0000 0.0000 0.0000 42.5956 0.0000 0.0000
# 5 0.0000 0.0000 0.0000 0.0000 47.3015 0.0000
# 6 0.0000 0.0000 0.0000 0.0000 0.0000 27.5347
#
#
#
# Elastic Compliance Matrix: (Units=1/GPa)
#
#
# Indices 1 2 3 4 5 6 
#
# 1 0.007638 -0.001828 -0.000829 0.000000 0.000000 0.000000
# 2 -0.001828 0.017183 0.000292 0.000000 0.000000 0.000000
# 3 -0.000829 0.000292 0.013259 0.000000 0.000000 0.000000
# 4 0.000000 0.000000 0.000000 0.023477 0.000000 0.000000
# 5 0.000000 0.000000 0.000000 0.000000 0.021141 0.000000
# 6 0.000000 0.000000 0.000000 0.000000 0.000000 0.036318
#
#
# Mechanical properties :
#
#
# Convention : Reuss Voigt Hill
#
# Bulk Modulus (GPa) = 29.98356 34.97648 32.48002
# Shear Modulus (GPa) = 37.07483 40.08035 38.57759
#
# Velocity S-wave (km/s) = 3.61421 3.75785 3.68673
# Velocity P-wave (km/s) = 5.28968 5.58138 5.43749
#
# Compressibility (1/GPa) = 0.03335161
#
# Stress axis : x y z
#
# Youngs Moduli (GPa) = 130.92180 58.19627 75.41883
#
# Poissons Ratio (x) = 0.10636 0.06254
# Poissons Ratio (y) = 0.23927 -0.02205
# Poissons Ratio (z) = 0.10857 -0.01701
#
# Static dielectric constant tensor:
#      x y z
#    x 5.559250 0.000000 0.000000 
#    y 0.000000 4.481270 0.000000 
#    z 0.000000 0.000000 5.075020 
# 
# 
# High freq. dielectric constant tensor:
#      x y z
#    x 2.174080 0.000000 0.000000 
#    y 0.000000 2.128920 0.000000 
#    z 0.000000 0.000000 2.157780 
# 
# From -- ./inp_files/1060.got.cif
#   From: 2010.03.12/outbox.cif.g09.slc.cpg/sg31_1_cif.got.tgz:1060.got - 2010.04.14 01:42:59.
