data_PCOD8170440
_publ_section_title
;
Structure prediction by ZEFSAII (Michael W. Deem and Ramdas Pophale) SiO2 
 PCOD8170440
Probable space group: P B A 2
;
_chemical_formula_sum "Si O2"
_cell_formula_units_Z 32
_cell_length_a 8.301328
_cell_length_b 22.636812
_cell_length_c 8.754248
_cell_angle_alpha 90.000000
_cell_angle_beta 90.000000
_cell_angle_gamma 90.000000
_cell_volume 1645.059777
_symmetry_space_group_name_H-M "P B A 2"
_symmetry_group_IT_number 32
_symmetry_cell_setting 'orthorhombic'
loop_
_space_group_symop_operation_xyz
x,y,z
-x,-y,z
1/2-x,1/2+y,z
1/2+x,1/2-y,z
loop_
_atom_site_type_symbol
_atom_site_label
_atom_site_fract_x
_atom_site_fract_y
_atom_site_fract_z
Si Si1 0.524910 0.179649 0.326940
Si Si2 0.013376 0.855125 0.937062
Si Si3 0.554520 0.938560 0.179270
Si Si4 0.334594 0.277212 0.157420
Si Si5 0.271001 0.730461 0.831515
Si Si6 0.835654 0.577742 0.883304
Si Si7 0.462698 0.828307 0.684553
Si Si8 0.837717 0.968584 0.985442
O O1 0.449057 0.115564 0.294603
O O2 0.403199 0.231591 0.280885
O O3 0.689290 0.187444 0.234346
O O4 0.553318 0.180040 0.505676
O O5 0.030317 0.825918 0.107508
O O6 0.884244 0.906804 0.910391
O O7 0.190905 0.876151 0.897440
O O8 0.942448 0.804549 0.826377
O O9 0.737732 0.951600 0.134111
O O10 0.500000 0.000000 0.258438
O O11 0.448377 0.921912 0.031393
O O12 0.282215 0.240954 0.006492
O O13 0.311659 0.792187 0.752768
O O14 0.135373 0.693868 0.742790
O O15 0.938222 0.602753 0.739032
O O16 0.763534 0.510861 0.867514
O O17 0.000000 0.000000 0.043780
#
# Coordination Sequence:
#
# PCOD8170440 Si02
#       8
#     4   4   4   4   4   4   4   4
#     4  12  25  38  58  95 129 166 206 262 337 390
#     4  11  19  34  62  92 112 149 209 266 293 364
#     4  10  20  39  63  87 118 162 215 266 305 380
#     4  12  21  37  62  87 120 161 211 255 306 379
#     4  12  21  38  61  86 121 165 208 257 304 376
#     4  10  19  38  61  88 115 159 207 260 307 372
#     4  12  23  38  57  90 132 164 201 260 333 387
#     4   9  20  34  61  95 112 143 208 274 307 352
#
# _framework density 19.452182000000001
#
# number of rings (size 3 to 8) (size 9 to 14) (size 15 to 20)
#    0.000    1.000    5.000    3.000    0.000    0.000 
#    0.000    3.125    0.000    0.000    6.500    0.000 
#    0.000    0.000    0.000    0.000    0.000    0.000 
#
# Total GULP energy -396474.334588 kJ/mol
# GULP energy per Si atom -12389.822956 kJ/mol
# Density = 1.940791 g / cm^3
# Si number density = 19.452182 Si / 1000 Ang^3
#
#
#
# Elastic Constant Matrix: (Units=GPa)
#
#
# Indices 1 2 3 4 5 6 
#
# 1 75.9996 27.7310 11.6038 0.0000 0.0000 0.0000
# 2 27.7310 118.5957 23.7927 0.0000 0.0000 0.0000
# 3 11.6038 23.7927 60.8599 0.0000 0.0000 0.0000
# 4 0.0000 0.0000 0.0000 21.3087 0.0000 0.0000
# 5 0.0000 0.0000 0.0000 0.0000 22.4479 0.0000
# 6 0.0000 0.0000 0.0000 0.0000 0.0000 35.4651
#
#
#
# Elastic Compliance Matrix: (Units=1/GPa)
#
#
# Indices 1 2 3 4 5 6 
#
# 1 0.014521 -0.003082 -0.001564 0.000000 0.000000 0.000000
# 2 -0.003082 0.009804 -0.003245 0.000000 0.000000 0.000000
# 3 -0.001564 -0.003245 0.017998 0.000000 0.000000 0.000000
# 4 0.000000 0.000000 0.000000 0.046929 0.000000 0.000000
# 5 0.000000 0.000000 0.000000 0.000000 0.044548 0.000000
# 6 0.000000 0.000000 0.000000 0.000000 0.000000 0.028197
#
#
# Mechanical properties :
#
#
# Convention : Reuss Voigt Hill
#
# Bulk Modulus (GPa) = 37.67693 42.41226 40.04459
# Shear Modulus (GPa) = 26.79173 28.66620 27.72896
#
# Velocity S-wave (km/s) = 3.71524 3.84301 3.77967
# Velocity P-wave (km/s) = 6.14940 6.44533 6.29910
#
# Compressibility (1/GPa) = 0.02654144
#
# Stress axis : x y z
#
# Youngs Moduli (GPa) = 68.86479 102.00297 55.56168
#
# Poissons Ratio (x) = 0.31434 0.08689
# Poissons Ratio (y) = 0.21222 0.18030
# Poissons Ratio (z) = 0.10770 0.33101
#
# Static dielectric constant tensor:
#      x y z
#    x 3.861450 0.000000 0.000000 
#    y 0.000000 4.031580 0.000000 
#    z 0.000000 0.000000 3.164980 
# 
# 
# High freq. dielectric constant tensor:
#      x y z
#    x 1.778710 0.000000 0.000000 
#    y 0.000000 1.781260 0.000000 
#    z 0.000000 0.000000 1.702090 
# 
# From -- ./inp_files/2623.got.cif
#   From: 2010.03.12/outbox.cif.g09.slc.cpg/sg32_2_cif.got.tgz:2623.got - 2010.04.14 01:46:39.
