data_PCOD8170809
_publ_section_title
;
Structure prediction by ZEFSAII (Michael W. Deem and Ramdas Pophale) SiO2 
 PCOD8170809
Probable space group: P N A 21
;
_chemical_formula_sum "Si O2"
_cell_formula_units_Z 32
_cell_length_a 12.737264
_cell_length_b 22.185799
_cell_length_c 6.605936
_cell_angle_alpha 90.000000
_cell_angle_beta 90.000000
_cell_angle_gamma 90.000000
_cell_volume 1866.747534
_symmetry_space_group_name_H-M "P N A 21"
_symmetry_group_IT_number 33
_symmetry_cell_setting 'orthorhombic'
loop_
_space_group_symop_operation_xyz
x,y,z
-x,-y,1/2+z
1/2-x,1/2+y,1/2+z
1/2+x,1/2-y,z
loop_
_atom_site_type_symbol
_atom_site_label
_atom_site_fract_x
_atom_site_fract_y
_atom_site_fract_z
Si Si1 0.546814 0.130944 0.948980
Si Si2 0.106883 0.780517 0.663233
Si Si3 0.199705 0.351005 0.289799
Si Si4 0.412892 0.062556 0.266140
Si Si5 0.307316 0.175845 0.425293
Si Si6 0.559720 0.762134 0.259664
Si Si7 0.912973 0.770810 0.911278
Si Si8 0.898774 0.556938 0.064445
O O1 0.511852 0.199004 0.910422
O O2 0.557540 0.101372 0.732037
O O3 0.656471 0.130996 0.069442
O O4 0.458050 0.098645 0.078029
O O5 0.179783 0.831614 0.765805
O O6 0.143965 0.715276 0.744468
O O7 0.119001 0.782606 0.418027
O O8 0.985944 0.792043 0.724969
O O9 0.128191 0.297444 0.382308
O O10 0.192726 0.408696 0.439378
O O11 0.332092 0.105362 0.387306
O O12 0.505082 0.040291 0.415536
O O13 0.355022 0.003521 0.173356
O O14 0.356046 0.197683 0.638256
O O15 0.182029 0.182504 0.433354
O O16 0.485197 0.724944 0.110373
#
# Coordination Sequence:
#
# PCOD8170809 Si02
#       8
#     4   4   4   4   4   4   4   4
#     4  11  18  31  49  75 108 135 169 209 261 315
#     4  10  20  34  51  75 108 142 174 209 263 319
#     4  10  21  32  50  78 105 138 177 214 258 319
#     4  11  20  33  50  80 105 136 172 214 266 317
#     4  10  21  32  50  80 108 133 174 220 258 315
#     4  11  18  31  52  74 107 143 168 208 264 321
#     4  10  20  33  50  76 108 137 172 216 260 313
#     4  11  20  32  52  76 109 136 170 218 264 319
#
# _framework density 17.142115
#
# number of rings (size 3 to 8) (size 9 to 14) (size 15 to 20)
#    0.000    1.500    6.250    1.500    1.750    1.000 
#    0.000    0.000    0.000    0.000    3.250    0.000 
#    0.000    0.000    0.000    0.000    0.000    0.000 
#
# Total GULP energy -396734.441000 kJ/mol
# GULP energy per Si atom -12397.951281 kJ/mol
# Density = 1.710310 g / cm^3
# Si number density = 17.142115 Si / 1000 Ang^3
#
#
#
# Elastic Constant Matrix: (Units=GPa)
#
#
# Indices 1 2 3 4 5 6 
#
# 1 98.0117 44.8829 35.5552 0.0000 0.0000 0.0000
# 2 44.8829 81.2222 30.7795 0.0000 0.0000 0.0000
# 3 35.5552 30.7795 108.0285 0.0000 0.0000 0.0000
# 4 0.0000 0.0000 0.0000 27.2997 0.0000 0.0000
# 5 0.0000 0.0000 0.0000 0.0000 15.6097 0.0000
# 6 0.0000 0.0000 0.0000 0.0000 0.0000 19.6122
#
#
#
# Elastic Compliance Matrix: (Units=1/GPa)
#
#
# Indices 1 2 3 4 5 6 
#
# 1 0.014360 -0.006888 -0.002764 0.000000 0.000000 0.000000
# 2 -0.006888 0.017106 -0.002607 0.000000 0.000000 0.000000
# 3 -0.002764 -0.002607 0.010909 0.000000 0.000000 0.000000
# 4 0.000000 0.000000 0.000000 0.036630 0.000000 0.000000
# 5 0.000000 0.000000 0.000000 0.000000 0.064063 0.000000
# 6 0.000000 0.000000 0.000000 0.000000 0.000000 0.050989
#
#
# Mechanical properties :
#
#
# Convention : Reuss Voigt Hill
#
# Bulk Modulus (GPa) = 55.99703 56.63309 56.31506
# Shear Modulus (GPa) = 22.26917 24.24063 23.25490
#
# Velocity S-wave (km/s) = 3.60820 3.76453 3.68719
# Velocity P-wave (km/s) = 7.07786 7.21143 7.14496
#
# Compressibility (1/GPa) = 0.01785809
#
# Stress axis : x y z
#
# Youngs Moduli (GPa) = 69.64016 58.45941 91.66587
#
# Poissons Ratio (x) = 0.40265 0.25334
# Poissons Ratio (y) = 0.47966 0.23896
# Poissons Ratio (z) = 0.19246 0.15240
#
# Static dielectric constant tensor:
#      x y z
#    x 3.017010 0.000000 0.000000 
#    y 0.000000 3.067230 0.000000 
#    z 0.000000 0.000000 3.398890 
# 
# 
# High freq. dielectric constant tensor:
#      x y z
#    x 1.631160 0.000000 0.000000 
#    y 0.000000 1.631240 0.000000 
#    z 0.000000 0.000000 1.683680 
# 
# From -- ./inp_files/1127.got.cif
#   From: 2010.03.12/outbox.cif.g09.slc.cpg/sg33_1_cif.got.tgz:1127.got - 2010.04.14 01:49:19.
