data_PCOD8170649
_publ_section_title
;
Structure prediction by ZEFSAII (Michael W. Deem and Ramdas Pophale) SiO2 
 PCOD8170649
Probable space group: P N A 21
;
_chemical_formula_sum "Si O2"
_cell_formula_units_Z 28
_cell_length_a 8.945282
_cell_length_b 17.193715
_cell_length_c 9.595820
_cell_angle_alpha 90.000000
_cell_angle_beta 90.000000
_cell_angle_gamma 90.000000
_cell_volume 1475.862346
_symmetry_space_group_name_H-M "P N A 21"
_symmetry_group_IT_number 33
_symmetry_cell_setting 'orthorhombic'
loop_
_space_group_symop_operation_xyz
x,y,z
-x,-y,1/2+z
1/2-x,1/2+y,1/2+z
1/2+x,1/2-y,z
loop_
_atom_site_type_symbol
_atom_site_label
_atom_site_fract_x
_atom_site_fract_y
_atom_site_fract_z
Si Si1 0.723134 0.437461 0.286180
Si Si2 0.118742 0.880106 0.783802
Si Si3 0.893835 0.158884 0.727295
Si Si4 0.358751 0.432930 0.984473
Si Si5 0.375546 0.763449 0.085900
Si Si6 0.364170 0.206773 0.393030
Si Si7 0.140081 0.974853 0.040335
O O1 0.555516 0.402466 0.286270
O O2 0.743251 0.499298 0.414119
O O3 0.842313 0.367582 0.293868
O O4 0.760547 0.480673 0.138772
O O5 0.195310 0.907082 0.638496
O O6 0.138106 0.787702 0.806965
O O7 0.204855 0.925200 0.909960
O O8 0.865278 0.144831 0.890083
O O9 0.731302 0.175862 0.661648
O O10 0.951132 0.081942 0.646429
O O11 0.018852 0.224046 0.702519
O O12 0.528749 0.460882 0.982741
O O13 0.479210 0.805096 0.971383
O O14 0.270970 0.701976 0.004857
#
# Coordination Sequence:
#
# PCOD8170649 Si02
#       7
#     4   4   4   4   4   4   4
#     4   9  18  32  55  82 105 144 188 237 272 333
#     4  10  17  32  56  84 109 143 186 235 276 335
#     4  10  19  36  55  86 107 150 190 235 280 338
#     4   9  19  33  56  83 113 143 192 237 273 341
#     4  10  19  32  58  78 113 147 190 230 282 340
#     4  11  18  33  57  85 107 147 191 231 285 337
#     4   9  16  32  57  80 106 142 195 223 276 338
#
# _framework density 18.971958999999998
#
# number of rings (size 3 to 8) (size 9 to 14) (size 15 to 20)
#    0.000    2.286    4.286    1.714    0.000    0.000 
#    5.143    0.000    6.286    3.429    0.000    0.000 
#    0.000    0.000    0.000    0.000    0.000    0.000 
#
# Total GULP energy -346896.971127 kJ/mol
# GULP energy per Si atom -12389.177540 kJ/mol
# Density = 1.892878 g / cm^3
# Si number density = 18.971959 Si / 1000 Ang^3
#
#
#
# Elastic Constant Matrix: (Units=GPa)
#
#
# Indices 1 2 3 4 5 6 
#
# 1 64.1521 21.4531 19.7383 0.0000 0.0000 0.0000
# 2 21.4531 87.7379 50.0493 0.0000 0.0000 0.0000
# 3 19.7383 50.0493 139.7563 0.0000 0.0000 0.0000
# 4 0.0000 0.0000 0.0000 36.7420 0.0000 0.0000
# 5 0.0000 0.0000 0.0000 0.0000 14.0960 0.0000
# 6 0.0000 0.0000 0.0000 0.0000 0.0000 23.2408
#
#
#
# Elastic Compliance Matrix: (Units=1/GPa)
#
#
# Indices 1 2 3 4 5 6 
#
# 1 0.017123 -0.003528 -0.001155 0.000000 0.000000 0.000000
# 2 -0.003528 0.015051 -0.004892 0.000000 0.000000 0.000000
# 3 -0.001155 -0.004892 0.009070 0.000000 0.000000 0.000000
# 4 0.000000 0.000000 0.000000 0.027217 0.000000 0.000000
# 5 0.000000 0.000000 0.000000 0.000000 0.070942 0.000000
# 6 0.000000 0.000000 0.000000 0.000000 0.000000 0.043028
#
#
# Mechanical properties :
#
#
# Convention : Reuss Voigt Hill
#
# Bulk Modulus (GPa) = 45.25948 52.68083 48.97016
# Shear Modulus (GPa) = 23.92976 28.17613 26.05295
#
# Velocity S-wave (km/s) = 3.55536 3.85794 3.70974
# Velocity P-wave (km/s) = 6.38451 6.90456 6.64962
#
# Compressibility (1/GPa) = 0.02209482
#
# Stress axis : x y z
#
# Youngs Moduli (GPa) = 58.40059 66.44246 110.25113
#
# Poissons Ratio (x) = 0.23441 0.12733
# Poissons Ratio (y) = 0.20604 0.53931
# Poissons Ratio (z) = 0.06745 0.32501
#
# Static dielectric constant tensor:
#      x y z
#    x 3.082190 0.000000 0.000000 
#    y 0.000000 3.535900 0.000000 
#    z 0.000000 0.000000 3.726870 
# 
# 
# High freq. dielectric constant tensor:
#      x y z
#    x 1.687960 0.000000 0.000000 
#    y 0.000000 1.739450 0.000000 
#    z 0.000000 0.000000 1.739180 
# 
# From -- ./inp_files/3300.got.cif
#   From: 2010.03.12/outbox.cif.g09.slc.cpg/sg33_2_cif.got.tgz:3300.got - 2010.04.14 01:49:19.
