data_PCOD8170969
_publ_section_title
;
Structure prediction by ZEFSAII (Michael W. Deem and Ramdas Pophale) SiO2 
 PCOD8170969
Probable space group: P N A 21
;
_chemical_formula_sum "Si O2"
_cell_formula_units_Z 28
_cell_length_a 15.201815
_cell_length_b 10.716681
_cell_length_c 7.796656
_cell_angle_alpha 90.000000
_cell_angle_beta 90.000000
_cell_angle_gamma 90.000000
_cell_volume 1270.176634
_symmetry_space_group_name_H-M "P N A 21"
_symmetry_group_IT_number 33
_symmetry_cell_setting 'orthorhombic'
loop_
_space_group_symop_operation_xyz
x,y,z
-x,-y,1/2+z
1/2-x,1/2+y,1/2+z
1/2+x,1/2-y,z
loop_
_atom_site_type_symbol
_atom_site_label
_atom_site_fract_x
_atom_site_fract_y
_atom_site_fract_z
Si Si1 0.198708 0.250576 0.899240
Si Si2 0.974620 0.657767 0.277313
Si Si3 0.767767 0.013389 0.526216
Si Si4 0.648285 0.754528 0.141280
Si Si5 0.979542 0.376858 0.167396
Si Si6 0.330260 0.841987 0.753578
Si Si7 0.698124 0.869546 0.821689
O O1 0.293799 0.248267 0.812472
O O2 0.120828 0.276179 0.763152
O O3 0.182225 0.114923 0.984738
O O4 0.195350 0.355842 0.050622
O O5 0.045311 0.742371 0.179384
O O6 0.007076 0.652014 0.470678
O O7 0.968641 0.524037 0.191555
O O8 0.720671 0.997204 0.716168
O O9 0.835958 0.127270 0.534603
O O10 0.698375 0.040378 0.371820
O O11 0.673594 0.877552 0.024648
O O12 0.889600 0.310423 0.231564
O O13 0.064289 0.328005 0.273691
O O14 0.282842 0.718578 0.820538
#
# Coordination Sequence:
#
# PCOD8170969 Si02
#       7
#     4   4   4   4   4   4   4
#     4  10  22  40  60  89 122 156 205 255 307 369
#     4  11  23  38  62  90 115 155 203 250 300 363
#     4  10  21  41  60  84 124 162 197 255 310 359
#     4  11  23  38  59  89 123 159 204 250 306 377
#     4  11  20  36  62  88 118 151 198 254 302 354
#     4   9  20  38  63  89 116 155 200 250 303 358
#     4  10  21  37  60  89 120 156 197 246 304 366
#
# _framework density 22.044179
#
# number of rings (size 3 to 8) (size 9 to 14) (size 15 to 20)
#    0.000    1.714    0.000    5.143    0.000    6.857 
#    0.000   11.429    0.000    0.000    0.000    0.000 
#    0.000    0.000    0.000    0.000    0.000    0.000 
#
# Total GULP energy -346988.104288 kJ/mol
# GULP energy per Si atom -12392.432296 kJ/mol
# Density = 2.199401 g / cm^3
# Si number density = 22.044179 Si / 1000 Ang^3
#
#
#
# Elastic Constant Matrix: (Units=GPa)
#
#
# Indices 1 2 3 4 5 6 
#
# 1 91.2237 28.0360 7.9851 0.0000 0.0000 0.0000
# 2 28.0360 74.9728 16.6990 0.0000 0.0000 0.0000
# 3 7.9851 16.6990 74.0534 0.0000 0.0000 0.0000
# 4 0.0000 0.0000 0.0000 9.9161 0.0000 0.0000
# 5 0.0000 0.0000 0.0000 0.0000 46.8862 0.0000
# 6 0.0000 0.0000 0.0000 0.0000 0.0000 30.4240
#
#
#
# Elastic Compliance Matrix: (Units=1/GPa)
#
#
# Indices 1 2 3 4 5 6 
#
# 1 0.012392 -0.004566 -0.000307 0.000000 0.000000 0.000000
# 2 -0.004566 0.015726 -0.003054 0.000000 0.000000 0.000000
# 3 -0.000307 -0.003054 0.014225 0.000000 0.000000 0.000000
# 4 0.000000 0.000000 0.000000 0.100846 0.000000 0.000000
# 5 0.000000 0.000000 0.000000 0.000000 0.021328 0.000000
# 6 0.000000 0.000000 0.000000 0.000000 0.000000 0.032869
#
#
# Mechanical properties :
#
#
# Convention : Reuss Voigt Hill
#
# Bulk Modulus (GPa) = 37.74882 38.41001 38.07942
# Shear Modulus (GPa) = 22.51556 29.94725 26.23140
#
# Velocity S-wave (km/s) = 3.19938 3.68980 3.45330
# Velocity P-wave (km/s) = 5.55062 5.96781 5.76299
#
# Compressibility (1/GPa) = 0.02649089
#
# Stress axis : x y z
#
# Youngs Moduli (GPa) = 80.69662 63.59023 70.29643
#
# Poissons Ratio (x) = 0.29033 0.02156
# Poissons Ratio (y) = 0.36844 0.21467
# Poissons Ratio (z) = 0.02475 0.19419
#
# Static dielectric constant tensor:
#      x y z
#    x 4.086770 0.000000 0.000000 
#    y 0.000000 3.819020 0.000000 
#    z 0.000000 0.000000 4.404010 
# 
# 
# High freq. dielectric constant tensor:
#      x y z
#    x 1.869690 0.000000 0.000000 
#    y 0.000000 1.840950 0.000000 
#    z 0.000000 0.000000 1.884130 
# 
# From -- ./inp_files/4327.got.cif
#   From: 2010.03.12/outbox.cif.g09.slc.cpg/sg33_3_cif.got.tgz:4327.got - 2010.04.14 01:49:19.
