data_PCOD8170418
_publ_section_title
;
Structure prediction by ZEFSAII (Michael W. Deem and Ramdas Pophale) SiO2 
 PCOD8170418
Probable space group: P B A 2
;
_chemical_formula_sum "Si O2"
_cell_formula_units_Z 24
_cell_length_a 9.473870
_cell_length_b 13.478121
_cell_length_c 8.690041
_cell_angle_alpha 90.000000
_cell_angle_beta 90.000000
_cell_angle_gamma 90.000000
_cell_volume 1109.631042
_symmetry_space_group_name_H-M "P B A 2"
_symmetry_group_IT_number 32
_symmetry_cell_setting 'orthorhombic'
loop_
_space_group_symop_operation_xyz
x,y,z
-x,-y,z
1/2-x,1/2+y,z
1/2+x,1/2-y,z
loop_
_atom_site_type_symbol
_atom_site_label
_atom_site_fract_x
_atom_site_fract_y
_atom_site_fract_z
Si Si1 0.341425 0.015476 0.237980
Si Si2 0.500000 0.000000 0.525407
Si Si3 0.000000 0.000000 0.542615
Si Si4 0.880585 0.838100 0.315518
Si Si5 0.595837 0.206740 0.595545
Si Si6 0.624027 0.653166 0.741210
Si Si7 0.906608 0.096227 0.083483
O O1 0.266543 0.126284 0.230237
O O2 0.500000 0.000000 0.162030
O O3 0.358660 0.997730 0.420679
O O4 0.239983 0.932647 0.165501
O O5 0.487434 0.897764 0.620741
O O6 0.882184 0.046912 0.656251
O O7 0.080114 0.074815 0.432041
O O8 0.875721 0.735599 0.414225
O O9 0.005130 0.826969 0.189245
O O10 0.512891 0.289707 0.686126
O O11 0.741340 0.211068 0.683627
O O12 0.631009 0.648027 0.924352
O O13 0.000000 0.000000 0.051058
#
# Coordination Sequence:
#
# PCOD8170418 Si02
#       7
#     4   2   2   4   4   4   4
#     4   9  19  36  66  99 128 166 221 271 333 386
#     4  10  22  42  64  96 126 176 224 288 316 384
#     4  10  18  36  72  92 124 174 218 266 318 410
#     4  10  19  39  70  97 128 175 225 271 328 404
#     4  11  25  42  68  98 134 174 232 281 331 403
#     4  11  24  43  66 101 137 175 218 274 351 402
#     4  10  20  43  67  95 134 180 212 266 344 417
#
# _framework density 21.628810999999999
#
# number of rings (size 3 to 8) (size 9 to 14) (size 15 to 20)
#    0.500    1.333    3.333    2.000    2.333    1.333 
#    4.500    3.333    0.000    0.000    0.000    0.000 
#    0.000    0.000    0.000    0.000    0.000    0.000 
#
# Total GULP energy -297328.542746 kJ/mol
# GULP energy per Si atom -12388.689281 kJ/mol
# Density = 2.157958 g / cm^3
# Si number density = 21.628811 Si / 1000 Ang^3
#
#
#
# Elastic Constant Matrix: (Units=GPa)
#
#
# Indices 1 2 3 4 5 6 
#
# 1 139.4657 21.8723 46.4341 0.0000 0.0000 0.0000
# 2 21.8723 62.5844 20.3050 0.0000 0.0000 0.0000
# 3 46.4341 20.3050 112.1785 0.0000 0.0000 0.0000
# 4 0.0000 0.0000 0.0000 23.5460 0.0000 0.0000
# 5 0.0000 0.0000 0.0000 0.0000 -97.9022 0.0000
# 6 0.0000 0.0000 0.0000 0.0000 0.0000 26.3682
#
#
#
# Elastic Compliance Matrix: (Units=1/GPa)
#
#
# Indices 1 2 3 4 5 6 
#
# 1 0.008535 -0.001951 -0.003180 0.000000 0.000000 0.000000
# 2 -0.001951 0.017421 -0.002346 0.000000 0.000000 0.000000
# 3 -0.003180 -0.002346 0.010655 0.000000 0.000000 0.000000
# 4 0.000000 0.000000 0.000000 0.042470 0.000000 0.000000
# 5 0.000000 0.000000 0.000000 0.000000 -0.010214 0.000000
# 6 0.000000 0.000000 0.000000 0.000000 0.000000 0.037924
#
#
# Mechanical properties :
#
#
# Convention : Reuss Voigt Hill
#
# Bulk Modulus (GPa) = 46.17183 54.60568 50.38876
# Shear Modulus (GPa) = 38.77046 5.44355 22.10701
#
# Velocity S-wave (km/s) = 4.23843 1.58817 3.20051
# Velocity P-wave (km/s) = 6.73395 5.35393 6.08320
#
# Compressibility (1/GPa) = 0.02165823
#
# Stress axis : x y z
#
# Youngs Moduli (GPa) = 117.16636 57.40072 93.85162
#
# Poissons Ratio (x) = 0.11200 0.29842
# Poissons Ratio (y) = 0.22861 0.22015
# Poissons Ratio (z) = 0.37255 0.13465
#
# Static dielectric constant tensor:
#      x y z
#    x 3.942690 0.000000 0.000000 
#    y 0.000000 4.068230 0.000000 
#    z 0.000000 0.000000 3.824040 
# 
# 
# High freq. dielectric constant tensor:
#      x y z
#    x 1.859710 0.000000 0.000000 
#    y 0.000000 1.834750 0.000000 
#    z 0.000000 0.000000 1.826640 
# 
# From -- ./inp_files/2339.got.cif
#   From: 2010.03.12/outbox.cif.g09.slc.cpg/sg32_2_cif.got.tgz:2339.got - 2010.04.14 01:46:39.
