data_PCOD8170250
_publ_section_title
;
Structure prediction by ZEFSAII (Michael W. Deem and Ramdas Pophale) SiO2 
 PCOD8170250
Probable space group: P M N 21
;
_chemical_formula_sum "Si O2"
_cell_formula_units_Z 32
_cell_length_a 8.690733
_cell_length_b 14.523550
_cell_length_c 12.413447
_cell_angle_alpha 90.000000
_cell_angle_beta 90.000000
_cell_angle_gamma 90.000000
_cell_volume 1566.828946
_symmetry_space_group_name_H-M "P M N 21"
_symmetry_group_IT_number 31
_symmetry_cell_setting 'orthorhombic'
loop_
_space_group_symop_operation_xyz
x,y,z
1/2-x,-y,1/2+z
-x,y,z
1/2+x,-y,1/2+z
loop_
_atom_site_type_symbol
_atom_site_label
_atom_site_fract_x
_atom_site_fract_y
_atom_site_fract_z
Si Si1 0.676248 0.677828 0.317570
Si Si2 0.318900 0.353062 0.434152
Si Si3 0.181933 0.447742 0.999882
Si Si4 0.669575 0.158998 0.910919
Si Si5 0.325372 0.049164 0.701831
Si Si6 0.818220 0.330914 0.203645
Si Si7 0.683175 0.772162 0.106671
Si Si8 0.675446 0.137509 0.152268
O O1 0.500000 0.656258 0.296405
O O2 0.750570 0.594085 0.386854
O O3 0.696754 0.766686 0.393540
O O4 0.750055 0.703092 0.200771
O O5 0.500000 0.336487 0.432669
O O6 0.274831 0.444801 0.502031
O O7 0.260270 0.365318 0.313002
O O8 0.238459 0.266374 0.491836
O O9 0.246745 0.395196 0.105793
O O10 0.000000 0.431729 0.997219
O O11 0.500000 0.206404 0.901504
O O12 0.683275 0.078191 0.825464
O O13 0.691428 0.114463 0.026759
O O14 0.500000 0.035056 0.661891
O O15 0.247701 0.125231 0.624115
O O16 0.236038 0.953619 0.708489
O O17 0.776934 0.225098 0.183705
O O18 0.000000 0.341418 0.215527
O O19 0.500000 0.777488 0.110451
O O20 0.500000 0.157114 0.187289
#
# Coordination Sequence:
#
# PCOD8170250 Si02
#       8
#     4   4   4   4   4   4   4   4
#     4   9  17  34  60  85 111 149 195 247 299 354
#     4  11  24  41  61  88 127 168 205 252 310 372
#     4   9  20  38  61  88 119 156 199 250 305 364
#     4   9  19  35  55  82 114 148 193 248 301 354
#     4  10  21  38  60  87 120 163 209 256 310 367
#     4  11  23  42  64  90 123 160 206 256 310 370
#     4  10  21  38  61  89 122 159 205 256 308 367
#     4  11  22  38  60  89 122 159 204 257 311 368
#
# _framework density 20.423416
#
# number of rings (size 3 to 8) (size 9 to 14) (size 15 to 20)
#    0.000    2.000    1.250    1.875    1.750    2.500 
#    0.000    6.875    0.000    0.000    0.000    0.000 
#    0.000    0.000    0.000    0.000    0.000    0.000 
#
# Total GULP energy -396663.990534 kJ/mol
# GULP energy per Si atom -12395.749704 kJ/mol
# Density = 2.037693 g / cm^3
# Si number density = 20.423416 Si / 1000 Ang^3
#
#
#
# Elastic Constant Matrix: (Units=GPa)
#
#
# Indices 1 2 3 4 5 6 
#
# 1 51.3421 14.1100 18.3980 0.0000 0.0000 0.0000
# 2 14.1100 98.7249 34.5539 0.0000 0.0000 0.0000
# 3 18.3980 34.5539 84.9892 0.0000 0.0000 0.0000
# 4 0.0000 0.0000 0.0000 28.9690 0.0000 0.0000
# 5 0.0000 0.0000 0.0000 0.0000 28.4420 0.0000
# 6 0.0000 0.0000 0.0000 0.0000 0.0000 27.6788
#
#
#
# Elastic Compliance Matrix: (Units=1/GPa)
#
#
# Indices 1 2 3 4 5 6 
#
# 1 0.021349 -0.001672 -0.003942 0.000000 0.000000 0.000000
# 2 -0.001672 0.011941 -0.004493 0.000000 0.000000 0.000000
# 3 -0.003942 -0.004493 0.014446 0.000000 0.000000 0.000000
# 4 0.000000 0.000000 0.000000 0.034520 0.000000 0.000000
# 5 0.000000 0.000000 0.000000 0.000000 0.035159 0.000000
# 6 0.000000 0.000000 0.000000 0.000000 0.000000 0.036129
#
#
# Mechanical properties :
#
#
# Convention : Reuss Voigt Hill
#
# Bulk Modulus (GPa) = 36.33294 41.02000 38.67647
# Shear Modulus (GPa) = 27.33278 28.21758 27.77518
#
# Velocity S-wave (km/s) = 3.66226 3.72106 3.69177
# Velocity P-wave (km/s) = 5.97589 6.21209 6.09514
#
# Compressibility (1/GPa) = 0.02752323
#
# Stress axis : x y z
#
# Youngs Moduli (GPa) = 46.84023 83.74827 69.22260
#
# Poissons Ratio (x) = 0.13999 0.27287
# Poissons Ratio (y) = 0.07830 0.31100
# Poissons Ratio (z) = 0.18464 0.37626
#
# Static dielectric constant tensor:
#      x y z
#    x 3.627260 0.000000 0.000000 
#    y 0.000000 3.571890 0.000000 
#    z 0.000000 0.000000 3.859980 
# 
# 
# High freq. dielectric constant tensor:
#      x y z
#    x 1.787730 0.000000 0.000000 
#    y 0.000000 1.792840 0.000000 
#    z 0.000000 0.000000 1.804090 
# 
# From -- ./inp_files/3626.got.cif
#   From: 2010.03.12/outbox.cif.g09.slc.cpg/sg31_2_cif.got.tgz:3626.got - 2010.04.14 01:42:59.
