data_PCOD8170162
_publ_section_title
;
Structure prediction by ZEFSAII (Michael W. Deem and Ramdas Pophale) SiO2 
 PCOD8170162
Probable space group: P M N 21
;
_chemical_formula_sum "Si O2"
_cell_formula_units_Z 24
_cell_length_a 8.998309
_cell_length_b 10.906638
_cell_length_c 12.623924
_cell_angle_alpha 90.000000
_cell_angle_beta 90.000000
_cell_angle_gamma 90.000000
_cell_volume 1238.928298
_symmetry_space_group_name_H-M "P M N 21"
_symmetry_group_IT_number 31
_symmetry_cell_setting 'orthorhombic'
loop_
_space_group_symop_operation_xyz
x,y,z
1/2-x,-y,1/2+z
-x,y,z
1/2+x,-y,1/2+z
loop_
_atom_site_type_symbol
_atom_site_label
_atom_site_fract_x
_atom_site_fract_y
_atom_site_fract_z
Si Si1 0.175730 0.691517 0.021690
Si Si2 0.675524 0.883989 0.423641
Si Si3 0.827960 0.135066 0.364825
Si Si4 0.667638 0.730453 0.223760
Si Si5 0.329138 0.763161 0.640736
Si Si6 0.332037 0.486596 0.128017
O O1 0.227658 0.771737 0.124965
O O2 0.239475 0.552426 0.032791
O O3 0.000000 0.689165 0.013519
O O4 0.243076 0.750917 0.916755
O O5 0.500000 0.908909 0.423386
O O6 0.724949 0.787134 0.333490
O O7 0.729604 0.829785 0.535386
O O8 0.759345 0.009610 0.405106
O O9 0.806206 0.144441 0.238454
O O10 0.000000 0.140812 0.396906
O O11 0.500000 0.776586 0.200366
O O12 0.670737 0.580875 0.228813
O O13 0.500000 0.725190 0.627086
O O14 0.238525 0.640259 0.663157
O O15 0.500000 0.464157 0.088859
#
# Coordination Sequence:
#
# PCOD8170162 Si02
#       6
#     4   4   4   4   4   4
#     4  10  20  37  62  87 115 158 202 239 294 351
#     4  10  22  41  62  86 119 158 199 243 295 358
#     4  11  24  40  58  87 124 158 199 249 297 349
#     4   8  18  37  60  87 118 153 192 241 295 348
#     4  10  23  40  59  89 122 154 196 247 297 355
#     4   9  19  37  61  92 122 153 194 243 296 353
#
# _framework density 19.371580999999999
#
# number of rings (size 3 to 8) (size 9 to 14) (size 15 to 20)
#    1.000    1.333    0.000    2.000    2.333    4.000 
#    0.000    1.667    0.000    0.000    0.000    0.000 
#    0.000    0.000    0.000    0.000    0.000    0.000 
#
# Total GULP energy -297476.079711 kJ/mol
# GULP energy per Si atom -12394.836655 kJ/mol
# Density = 1.932749 g / cm^3
# Si number density = 19.371581 Si / 1000 Ang^3
#
#
#
# Elastic Constant Matrix: (Units=GPa)
#
#
# Indices 1 2 3 4 5 6 
#
# 1 96.0323 36.6624 31.8147 0.0000 0.0000 0.0000
# 2 36.6624 91.9585 25.9442 0.0000 0.0000 0.0000
# 3 31.8147 25.9442 94.2994 0.0000 0.0000 0.0000
# 4 0.0000 0.0000 0.0000 32.1785 0.0000 0.0000
# 5 0.0000 0.0000 0.0000 0.0000 23.0633 0.0000
# 6 0.0000 0.0000 0.0000 0.0000 0.0000 36.8821
#
#
#
# Elastic Compliance Matrix: (Units=1/GPa)
#
#
# Indices 1 2 3 4 5 6 
#
# 1 0.013138 -0.004323 -0.003243 0.000000 0.000000 0.000000
# 2 -0.004323 0.013212 -0.002177 0.000000 0.000000 0.000000
# 3 -0.003243 -0.002177 0.012298 0.000000 0.000000 0.000000
# 4 0.000000 0.000000 0.000000 0.031077 0.000000 0.000000
# 5 0.000000 0.000000 0.000000 0.000000 0.043359 0.000000
# 6 0.000000 0.000000 0.000000 0.000000 0.000000 0.027113
#
#
# Mechanical properties :
#
#
# Convention : Reuss Voigt Hill
#
# Bulk Modulus (GPa) = 52.18563 52.34809 52.26686
# Shear Modulus (GPa) = 30.10799 30.94939 30.52869
#
# Velocity S-wave (km/s) = 3.94666 4.00142 3.97413
# Velocity P-wave (km/s) = 6.91129 6.95919 6.93528
#
# Compressibility (1/GPa) = 0.01916236
#
# Stress axis : x y z
#
# Youngs Moduli (GPa) = 76.11539 75.68875 81.31734
#
# Poissons Ratio (x) = 0.32720 0.26372
# Poissons Ratio (y) = 0.32904 0.17699
# Poissons Ratio (z) = 0.24685 0.16474
#
# Static dielectric constant tensor:
#      x y z
#    x 3.485510 0.000000 0.000000 
#    y 0.000000 3.337050 0.000000 
#    z 0.000000 0.000000 3.499530 
# 
# 
# High freq. dielectric constant tensor:
#      x y z
#    x 1.756230 0.000000 0.000000 
#    y 0.000000 1.744220 0.000000 
#    z 0.000000 0.000000 1.745980 
# 
# From -- ./inp_files/3470.got.cif
#   From: 2010.03.12/outbox.cif.g09.slc.cpg/sg31_2_cif.got.tgz:3470.got - 2010.04.14 01:42:59.
