data_PCOD8170289
_publ_section_title
;
Structure prediction by ZEFSAII (Michael W. Deem and Ramdas Pophale) SiO2 
 PCOD8170289
Probable space group: P M N 21
;
_chemical_formula_sum "Si O2"
_cell_formula_units_Z 20
_cell_length_a 26.658513
_cell_length_b 6.455756
_cell_length_c 4.805306
_cell_angle_alpha 90.000000
_cell_angle_beta 90.000000
_cell_angle_gamma 90.000000
_cell_volume 826.997272
_symmetry_space_group_name_H-M "P M N 21"
_symmetry_group_IT_number 31
_symmetry_cell_setting 'orthorhombic'
loop_
_space_group_symop_operation_xyz
x,y,z
1/2-x,-y,1/2+z
-x,y,z
1/2+x,-y,1/2+z
loop_
_atom_site_type_symbol
_atom_site_label
_atom_site_fract_x
_atom_site_fract_y
_atom_site_fract_z
Si Si1 0.444209 0.655296 0.827670
Si Si2 0.154446 0.125273 0.221297
Si Si3 0.555746 0.374985 0.328884
Si Si4 0.281978 0.498980 0.534598
Si Si5 0.845953 0.851885 0.725983
O O1 0.500000 0.740454 0.754162
O O2 0.403741 0.834978 0.790693
O O3 0.431668 0.452870 0.639738
O O4 0.441458 0.582300 0.144768
O O5 0.172510 0.936513 0.424226
O O6 0.186450 0.336461 0.220781
O O7 0.160296 0.054760 0.907908
O O8 0.500000 0.274791 0.311693
O O9 0.595635 0.209080 0.221359
O O10 0.250677 0.391585 0.787968
O O11 0.314034 0.334715 0.356483
#
# Coordination Sequence:
#
# PCOD8170289 Si02
#       5
#     4   4   4   4   4
#     4  10  21  40  69 102 143 188 225 272 343 420
#     4  12  26  44  75 107 138 182 236 288 351 427
#     4  10  21  40  69 102 143 188 225 272 343 420
#     4  12  28  50  75  98 141 188 234 306 370 414
#     4  12  26  44  75 107 138 182 236 288 351 427
#
# _framework density 24.183878
#
# number of rings (size 3 to 8) (size 9 to 14) (size 15 to 20)
#    0.000    0.800    2.000    4.800    2.800    4.800 
#    0.000    0.000    0.000    0.000    0.000    0.000 
#    0.000    0.000    0.000    0.000    0.000    0.000 
#
# Total GULP energy -247876.054196 kJ/mol
# GULP energy per Si atom -12393.802710 kJ/mol
# Density = 2.412883 g / cm^3
# Si number density = 24.183878 Si / 1000 Ang^3
#
#
#
# Elastic Constant Matrix: (Units=GPa)
#
#
# Indices 1 2 3 4 5 6 
#
# 1 118.1127 50.5421 39.9724 0.0000 0.0000 0.0000
# 2 50.5421 88.7079 21.3218 0.0000 0.0000 0.0000
# 3 39.9724 21.3218 105.0304 0.0000 0.0000 0.0000
# 4 0.0000 0.0000 0.0000 48.9560 0.0000 0.0000
# 5 0.0000 0.0000 0.0000 0.0000 31.4060 0.0000
# 6 0.0000 0.0000 0.0000 0.0000 0.0000 20.0101
#
#
#
# Elastic Compliance Matrix: (Units=1/GPa)
#
#
# Indices 1 2 3 4 5 6 
#
# 1 0.012260 -0.006164 -0.003414 0.000000 0.000000 0.000000
# 2 -0.006164 0.014951 -0.000689 0.000000 0.000000 0.000000
# 3 -0.003414 -0.000689 0.010960 0.000000 0.000000 0.000000
# 4 0.000000 0.000000 0.000000 0.020426 0.000000 0.000000
# 5 0.000000 0.000000 0.000000 0.000000 0.031841 0.000000
# 6 0.000000 0.000000 0.000000 0.000000 0.000000 0.049975
#
#
# Mechanical properties :
#
#
# Convention : Reuss Voigt Hill
#
# Bulk Modulus (GPa) = 56.70471 59.50263 58.10367
# Shear Modulus (GPa) = 29.97100 33.40871 31.68986
#
# Velocity S-wave (km/s) = 3.52418 3.72081 3.62383
# Velocity P-wave (km/s) = 6.32914 6.56635 6.44884
#
# Compressibility (1/GPa) = 0.01763522
#
# Stress axis : x y z
#
# Youngs Moduli (GPa) = 81.56668 66.88584 91.23757
#
# Poissons Ratio (x) = 0.41232 0.31153
# Poissons Ratio (y) = 0.50282 0.06286
# Poissons Ratio (z) = 0.27850 0.04609
#
# Static dielectric constant tensor:
#      x y z
#    x 4.609010 0.000000 0.000000 
#    y 0.000000 3.753110 0.000000 
#    z 0.000000 0.000000 4.571880 
# 
# 
# High freq. dielectric constant tensor:
#      x y z
#    x 1.968800 0.000000 0.000000 
#    y 0.000000 1.928970 0.000000 
#    z 0.000000 0.000000 1.983370 
# 
# From -- ./inp_files/1297.got.cif
#   From: 2010.03.12/outbox.cif.g09.slc.cpg/sg31_1_cif.got.tgz:1297.got - 2010.04.14 01:42:59.
