data_PCOD8170638
_publ_section_title
;
Structure prediction by ZEFSAII (Michael W. Deem and Ramdas Pophale) SiO2 
 PCOD8170638
Probable space group: P N A 21
;
_chemical_formula_sum "Si O2"
_cell_formula_units_Z 24
_cell_length_a 5.172811
_cell_length_b 27.581109
_cell_length_c 8.417293
_cell_angle_alpha 90.000000
_cell_angle_beta 90.000000
_cell_angle_gamma 90.000000
_cell_volume 1200.910882
_symmetry_space_group_name_H-M "P N A 21"
_symmetry_group_IT_number 33
_symmetry_cell_setting 'orthorhombic'
loop_
_space_group_symop_operation_xyz
x,y,z
-x,-y,1/2+z
1/2-x,1/2+y,1/2+z
1/2+x,1/2-y,z
loop_
_atom_site_type_symbol
_atom_site_label
_atom_site_fract_x
_atom_site_fract_y
_atom_site_fract_z
Si Si1 0.019105 0.729041 0.066210
Si Si2 0.835208 0.022366 0.205576
Si Si3 0.835236 0.522324 0.068103
Si Si4 0.999202 0.377381 0.488512
Si Si5 0.981285 0.770926 0.707411
Si Si6 0.501140 0.377359 0.285297
O O1 0.755894 0.744141 0.154974
O O2 0.071790 0.671583 0.081393
O O3 0.000552 0.749932 0.886739
O O4 0.749969 0.015823 0.386829
O O5 0.926843 0.077671 0.170983
O O6 0.582554 0.011977 0.099126
O O7 0.082549 0.988076 0.174505
O O8 0.926931 0.577621 0.102812
O O9 0.250390 0.363695 0.387122
O O10 0.750365 0.393998 0.386702
O O11 0.744639 0.744073 0.618594
O O12 0.928216 0.828374 0.692443
#
# Coordination Sequence:
#
# PCOD8170638 Si02
#       6
#     4   4   4   4   4   4
#     4  10  15  24  40  68 106 138 159 207 283 350
#     4  11  23  39  57  81 112 152 194 239 280 332
#     4  11  23  39  57  81 112 152 194 239 280 332
#     4  11  18  29  48  73 106 148 171 219 282 339
#     4  10  15  24  40  68 106 138 159 207 283 350
#     4  11  18  29  48  73 106 148 171 219 282 339
#
# _framework density 19.984831
#
# number of rings (size 3 to 8) (size 9 to 14) (size 15 to 20)
#    0.000    1.333    6.667    5.000    0.000    0.000 
#    0.000    0.000    0.000    0.000    0.000    0.000 
#    0.000   26.667    0.000    0.000    0.000    0.000 
#
# Total GULP energy -297369.247831 kJ/mol
# GULP energy per Si atom -12390.385326 kJ/mol
# Density = 1.993934 g / cm^3
# Si number density = 19.984831 Si / 1000 Ang^3
#
#
#
# Elastic Constant Matrix: (Units=GPa)
#
#
# Indices 1 2 3 4 5 6 
#
# 1 187.0303 56.7360 19.1950 0.0000 0.0000 0.0000
# 2 56.7360 169.7478 35.5124 0.0000 0.0000 0.0000
# 3 19.1950 35.5124 24.9115 0.0000 0.0000 0.0000
# 4 0.0000 0.0000 0.0000 7.4055 0.0000 0.0000
# 5 0.0000 0.0000 0.0000 0.0000 23.6865 0.0000
# 6 0.0000 0.0000 0.0000 0.0000 0.0000 24.8548
#
#
#
# Elastic Compliance Matrix: (Units=1/GPa)
#
#
# Indices 1 2 3 4 5 6 
#
# 1 0.006061 -0.001494 -0.002540 0.000000 0.000000 0.000000
# 2 -0.001494 0.008763 -0.011341 0.000000 0.000000 0.000000
# 3 -0.002540 -0.011341 0.058266 0.000000 0.000000 0.000000
# 4 0.000000 0.000000 0.000000 0.135035 0.000000 0.000000
# 5 0.000000 0.000000 0.000000 0.000000 0.042218 0.000000
# 6 0.000000 0.000000 0.000000 0.000000 0.000000 0.040234
#
#
# Mechanical properties :
#
#
# Convention : Reuss Voigt Hill
#
# Bulk Modulus (GPa) = 23.61829 67.17514 45.39671
# Shear Modulus (GPa) = 14.90585 29.20578 22.05581
#
# Velocity S-wave (km/s) = 2.73400 3.82697 3.32569
# Velocity P-wave (km/s) = 4.67013 7.29477 6.12469
#
# Compressibility (1/GPa) = 0.04234007
#
# Stress axis : x y z
#
# Youngs Moduli (GPa) = 164.99747 114.11432 17.16274
#
# Poissons Ratio (x) = 0.17053 0.04359
# Poissons Ratio (y) = 0.24657 0.19464
# Poissons Ratio (z) = 0.41903 1.29414
#
# Static dielectric constant tensor:
#      x y z
#    x 7.052280 0.000000 0.000000 
#    y 0.000000 3.864170 0.000000 
#    z 0.000000 0.000000 2.863700 
# 
# 
# High freq. dielectric constant tensor:
#      x y z
#    x 1.827910 0.000000 0.000000 
#    y 0.000000 1.797590 0.000000 
#    z 0.000000 0.000000 1.675340 
# 
# From -- ./inp_files/2769.got.cif
#   From: 2010.03.12/outbox.cif.g09.slc.cpg/sg33_2_cif.got.tgz:2769.got - 2010.04.14 01:49:19.
