data_PCOD8170445
_publ_section_title
;
Structure prediction by ZEFSAII (Michael W. Deem and Ramdas Pophale) SiO2 
 PCOD8170445
Probable space group: P B A 2
;
_chemical_formula_sum "Si O2"
_cell_formula_units_Z 30
_cell_length_a 29.201846
_cell_length_b 4.947296
_cell_length_c 9.669505
_cell_angle_alpha 90.000000
_cell_angle_beta 90.000000
_cell_angle_gamma 90.000000
_cell_volume 1396.955088
_symmetry_space_group_name_H-M "P B A 2"
_symmetry_group_IT_number 32
_symmetry_cell_setting 'orthorhombic'
loop_
_space_group_symop_operation_xyz
x,y,z
-x,-y,z
1/2-x,1/2+y,z
1/2+x,1/2-y,z
loop_
_atom_site_type_symbol
_atom_site_label
_atom_site_fract_x
_atom_site_fract_y
_atom_site_fract_z
Si Si1 0.780503 0.356154 0.396500
Si Si2 0.862234 0.410474 0.205133
Si Si3 0.919434 0.929268 0.274376
Si Si4 0.500000 0.500000 0.071332
Si Si5 0.084294 0.125321 0.576963
Si Si6 0.880047 0.249046 0.906973
Si Si7 0.854411 0.375031 0.622480
Si Si8 0.059642 0.257156 0.864793
O O1 0.763324 0.049555 0.386786
O O2 0.812946 0.458036 0.272104
O O3 0.806938 0.360659 0.541916
O O4 0.883634 0.170250 0.297271
O O5 0.854531 0.313947 0.048923
O O6 0.894800 0.672497 0.205402
O O7 0.939327 0.840815 0.425200
O O8 0.957426 0.060481 0.172378
O O9 0.484760 0.736581 0.964859
O O10 0.104746 0.825281 0.578733
O O11 0.048447 0.184655 0.702740
O O12 0.127244 0.324190 0.596123
O O13 0.843890 0.307967 0.783908
O O14 0.899197 0.943713 0.912498
O O15 0.924364 0.436238 0.880226
#
# Coordination Sequence:
#
# PCOD8170445 Si02
#       8
#     4   4   4   2   4   4   4   4
#     4  12  24  39  63  97 124 155 204 263 311 366
#     4  12  22  42  62  90 126 165 205 245 322 380
#     4  12  23  37  63  89 126 167 207 260 302 365
#     4  12  24  38  58  98 126 166 212 268 300 346
#     4  10  19  39  59  86 115 163 208 241 303 368
#     4  10  20  40  61  87 111 169 201 240 301 382
#     4  10  20  38  65  85 117 155 205 245 302 375
#     4  10  22  35  60  84 122 156 208 257 299 342
#
# _framework density 21.475280000000001
#
# number of rings (size 3 to 8) (size 9 to 14) (size 15 to 20)
#    0.000    1.067    5.333    1.600    0.000    2.667 
#    0.000    1.333    0.000    4.800    0.000    0.000 
#    0.000    0.000    0.000    0.000    0.000    0.000 
#
# Total GULP energy -371805.226527 kJ/mol
# GULP energy per Si atom -12393.507551 kJ/mol
# Density = 2.142640 g / cm^3
# Si number density = 21.475280 Si / 1000 Ang^3
#
#
#
# Elastic Constant Matrix: (Units=GPa)
#
#
# Indices 1 2 3 4 5 6 
#
# 1 62.6633 7.4159 43.1077 0.0000 0.0000 0.0000
# 2 7.4159 76.4066 1.8916 0.0000 0.0000 0.0000
# 3 43.1077 1.8916 163.4051 0.0000 0.0000 0.0000
# 4 0.0000 0.0000 0.0000 21.9803 0.0000 0.0000
# 5 0.0000 0.0000 0.0000 0.0000 36.2754 0.0000
# 6 0.0000 0.0000 0.0000 0.0000 0.0000 17.5920
#
#
#
# Elastic Compliance Matrix: (Units=1/GPa)
#
#
# Indices 1 2 3 4 5 6 
#
# 1 0.019738 -0.001787 -0.005186 0.000000 0.000000 0.000000
# 2 -0.001787 0.013253 0.000318 0.000000 0.000000 0.000000
# 3 -0.005186 0.000318 0.007484 0.000000 0.000000 0.000000
# 4 0.000000 0.000000 0.000000 0.045495 0.000000 0.000000
# 5 0.000000 0.000000 0.000000 0.000000 0.027567 0.000000
# 6 0.000000 0.000000 0.000000 0.000000 0.000000 0.056844
#
#
# Mechanical properties :
#
#
# Convention : Reuss Voigt Hill
#
# Bulk Modulus (GPa) = 36.81294 45.25616 41.03455
# Shear Modulus (GPa) = 25.94071 31.84019 28.89045
#
# Velocity S-wave (km/s) = 3.47930 3.85469 3.67180
# Velocity P-wave (km/s) = 5.77234 6.39772 6.09306
#
# Compressibility (1/GPa) = 0.02716436
#
# Stress axis : x y z
#
# Youngs Moduli (GPa) = 50.66474 75.45187 133.61382
#
# Poissons Ratio (x) = 0.13486 0.69296
# Poissons Ratio (y) = 0.09055 -0.04250
# Poissons Ratio (z) = 0.26276 -0.02400
#
# Static dielectric constant tensor:
#      x y z
#    x 3.370960 0.000000 0.000000 
#    y 0.000000 3.904220 0.000000 
#    z 0.000000 0.000000 4.391550 
# 
# 
# High freq. dielectric constant tensor:
#      x y z
#    x 1.788910 0.000000 0.000000 
#    y 0.000000 1.856760 0.000000 
#    z 0.000000 0.000000 1.871430 
# 
# From -- ./inp_files/3416.got.cif
#   From: 2010.03.12/outbox.cif.g09.slc.cpg/sg32_2_cif.got.tgz:3416.got - 2010.04.14 01:46:39.
