data_PCOD8170942
_publ_section_title
;
Structure prediction by ZEFSAII (Michael W. Deem and Ramdas Pophale) SiO2 
 PCOD8170942
Probable space group: P N A 21
;
_chemical_formula_sum "Si O2"
_cell_formula_units_Z 28
_cell_length_a 13.303520
_cell_length_b 7.931343
_cell_length_c 11.921640
_cell_angle_alpha 90.000000
_cell_angle_beta 90.000000
_cell_angle_gamma 90.000000
_cell_volume 1257.909225
_symmetry_space_group_name_H-M "P N A 21"
_symmetry_group_IT_number 33
_symmetry_cell_setting 'orthorhombic'
loop_
_space_group_symop_operation_xyz
x,y,z
-x,-y,1/2+z
1/2-x,1/2+y,1/2+z
1/2+x,1/2-y,z
loop_
_atom_site_type_symbol
_atom_site_label
_atom_site_fract_x
_atom_site_fract_y
_atom_site_fract_z
Si Si1 0.182474 0.472938 0.475330
Si Si2 0.744292 0.367829 0.380034
Si Si3 0.817526 0.472938 0.616817
Si Si4 0.632557 0.347406 0.864013
Si Si5 0.367443 0.347406 0.228134
Si Si6 0.500000 0.827902 0.546073
Si Si7 0.255708 0.367829 0.712113
O O1 0.173718 0.287675 0.418447
O O2 0.259817 0.589478 0.409476
O O3 0.072801 0.556080 0.470921
O O4 0.218109 0.467179 0.603613
O O5 0.781891 0.467179 0.488534
O O6 0.843778 0.303710 0.314233
O O7 0.687369 0.500000 0.296073
O O8 0.740183 0.589478 0.682671
O O9 0.826282 0.287675 0.673700
O O10 0.927199 0.556080 0.621226
O O11 0.579437 0.500000 0.796073
O O12 0.656222 0.196290 0.777914
O O13 0.561265 0.293429 0.964241
O O14 0.438735 0.293428 0.127906
#
# Coordination Sequence:
#
# PCOD8170942 Si02
#       7
#     4   4   4   4   4   4   4
#     4  10  23  43  68  97 139 184 223 285 345 408
#     4  10  20  43  69  91 135 184 225 275 348 404
#     4  10  23  43  68  97 139 184 223 285 345 408
#     4  10  23  46  67  99 139 182 225 287 350 404
#     4  10  23  46  67  99 139 182 225 287 350 404
#     4  12  22  42  70 104 138 176 244 284 332 428
#     4  10  20  43  69  91 135 184 225 275 348 404
#
# _framework density 22.259157999999999
#
# number of rings (size 3 to 8) (size 9 to 14) (size 15 to 20)
#    0.000    1.714    2.857    0.857    0.000    0.000 
#   20.571   10.000    0.000    0.000    0.000    0.000 
#    0.000    0.000    0.000    0.000    0.000    0.000 
#
# Total GULP energy -347192.820162 kJ/mol
# GULP energy per Si atom -12399.743577 kJ/mol
# Density = 2.220850 g / cm^3
# Si number density = 22.259158 Si / 1000 Ang^3
#
#
#
# Elastic Constant Matrix: (Units=GPa)
#
#
# Indices 1 2 3 4 5 6 
#
# 1 90.8109 39.0985 20.9799 0.0000 0.0000 0.0000
# 2 39.0985 104.0507 42.8358 0.0000 0.0000 0.0000
# 3 20.9799 42.8358 119.9595 0.0000 0.0000 0.0000
# 4 0.0000 0.0000 0.0000 58.7703 0.0000 0.0000
# 5 0.0000 0.0000 0.0000 0.0000 31.7932 0.0000
# 6 0.0000 0.0000 0.0000 0.0000 0.0000 5.6832
#
#
#
# Elastic Compliance Matrix: (Units=1/GPa)
#
#
# Indices 1 2 3 4 5 6 
#
# 1 0.013178 -0.004693 -0.000629 0.000000 0.000000 0.000000
# 2 -0.004693 0.012938 -0.003799 0.000000 0.000000 0.000000
# 3 -0.000629 -0.003799 0.009803 0.000000 0.000000 0.000000
# 4 0.000000 0.000000 0.000000 0.017015 0.000000 0.000000
# 5 0.000000 0.000000 0.000000 0.000000 0.031453 0.000000
# 6 0.000000 0.000000 0.000000 0.000000 0.000000 0.175956
#
#
# Mechanical properties :
#
#
# Convention : Reuss Voigt Hill
#
# Bulk Modulus (GPa) = 56.57189 57.84993 57.21091
# Shear Modulus (GPa) = 17.57606 33.37647 25.47627
#
# Velocity S-wave (km/s) = 2.81305 3.87647 3.38676
# Velocity P-wave (km/s) = 6.00177 6.78835 6.40715
#
# Compressibility (1/GPa) = 0.01767662
#
# Stress axis : x y z
#
# Youngs Moduli (GPa) = 75.88606 77.29067 102.01148
#
# Poissons Ratio (x) = 0.36271 0.06416
# Poissons Ratio (y) = 0.35611 0.38757
# Poissons Ratio (z) = 0.04773 0.29365
#
# Static dielectric constant tensor:
#      x y z
#    x 3.553290 0.000000 0.000000 
#    y 0.000000 4.355640 0.000000 
#    z 0.000000 0.000000 4.419680 
# 
# 
# High freq. dielectric constant tensor:
#      x y z
#    x 1.826090 0.000000 0.000000 
#    y 0.000000 1.897630 0.000000 
#    z 0.000000 0.000000 1.904820 
# 
# From -- ./inp_files/6328.got.cif
#   From: 2010.03.12/outbox.cif.g09.slc.cpg/sg33_4_cif.got.tgz:6328.got - 2010.04.14 01:49:19.
