data_PCOD8170068
_publ_section_title
;
Structure prediction by ZEFSAII (Michael W. Deem and Ramdas Pophale) SiO2 
 PCOD8170068
Probable space group: P M N 21
;
_chemical_formula_sum "Si O2"
_cell_formula_units_Z 32
_cell_length_a 8.589464
_cell_length_b 10.148507
_cell_length_c 19.146827
_cell_angle_alpha 90.000000
_cell_angle_beta 90.000000
_cell_angle_gamma 90.000000
_cell_volume 1669.033419
_symmetry_space_group_name_H-M "P M N 21"
_symmetry_group_IT_number 31
_symmetry_cell_setting 'orthorhombic'
loop_
_space_group_symop_operation_xyz
x,y,z
1/2-x,-y,1/2+z
-x,y,z
1/2+x,-y,1/2+z
loop_
_atom_site_type_symbol
_atom_site_label
_atom_site_fract_x
_atom_site_fract_y
_atom_site_fract_z
Si Si1 0.821150 0.373062 0.568500
Si Si2 0.680544 0.974219 0.866313
Si Si3 0.678670 0.628330 0.507881
Si Si4 0.319369 0.975464 0.708559
Si Si5 0.179480 0.876850 0.575072
Si Si6 0.679090 0.745319 0.210005
Si Si7 0.821676 0.252311 0.865197
Si Si8 0.820203 0.877788 0.999954
O O1 0.713890 0.481163 0.532342
O O2 0.785242 0.366154 0.651918
O O3 0.786238 0.231137 0.535997
O O4 0.000000 0.409643 0.554734
O O5 0.500000 0.948037 0.880692
O O6 0.781096 0.882915 0.917645
O O7 0.727991 0.937083 0.787375
O O8 0.712731 0.127915 0.880598
O O9 0.500000 0.661438 0.524275
O O10 0.785755 0.729591 0.549878
O O11 0.711852 0.638245 0.424409
O O12 0.500000 0.949411 0.694437
O O13 0.286389 0.129085 0.694409
O O14 0.218493 0.884627 0.657251
O O15 0.000000 0.910256 0.561800
O O16 0.284902 0.980072 0.533084
O O17 0.500000 0.791588 0.203321
O O18 0.713585 0.688365 0.287865
O O19 0.000000 0.203116 0.869052
O O20 0.000000 0.842138 0.010759
#
# Coordination Sequence:
#
# PCOD8170068 Si02
#       8
#     4   4   4   4   4   4   4   4
#     4  11  23  39  59  85 118 156 196 244 294 351
#     4  10  20  34  56  87 119 150 190 241 294 347
#     4  11  23  39  59  85 118 156 196 244 294 351
#     4  10  20  34  56  87 119 150 190 241 294 347
#     4  12  23  37  59  86 117 153 194 242 291 345
#     4   9  18  34  57  83 111 147 192 239 289 347
#     4   9  18  34  57  83 111 147 192 239 289 347
#     4  12  23  37  59  86 117 153 194 242 291 345
#
# _framework density 19.172775000000001
#
# number of rings (size 3 to 8) (size 9 to 14) (size 15 to 20)
#    0.000    1.500    2.500    3.750    0.000    2.500 
#    0.000    1.250    0.000    4.500    0.000    0.000 
#    0.000    0.000    0.000    0.000    0.000    0.000 
#
# Total GULP energy -396880.883653 kJ/mol
# GULP energy per Si atom -12402.527614 kJ/mol
# Density = 1.912914 g / cm^3
# Si number density = 19.172775 Si / 1000 Ang^3
#
#
#
# Elastic Constant Matrix: (Units=GPa)
#
#
# Indices 1 2 3 4 5 6 
#
# 1 64.9282 10.0427 35.1028 0.0000 0.0000 0.0000
# 2 10.0427 59.5074 41.8480 0.0000 0.0000 0.0000
# 3 35.1028 41.8480 141.8602 0.0000 0.0000 0.0000
# 4 0.0000 0.0000 0.0000 29.0432 0.0000 0.0000
# 5 0.0000 0.0000 0.0000 0.0000 27.8943 0.0000
# 6 0.0000 0.0000 0.0000 0.0000 0.0000 29.9373
#
#
#
# Elastic Compliance Matrix: (Units=1/GPa)
#
#
# Indices 1 2 3 4 5 6 
#
# 1 0.017781 0.000118 -0.004435 0.000000 0.000000 0.000000
# 2 0.000118 0.021204 -0.006284 0.000000 0.000000 0.000000
# 3 -0.004435 -0.006284 0.010000 0.000000 0.000000 0.000000
# 4 0.000000 0.000000 0.000000 0.034432 0.000000 0.000000
# 5 0.000000 0.000000 0.000000 0.000000 0.035850 0.000000
# 6 0.000000 0.000000 0.000000 0.000000 0.000000 0.033403
#
#
# Mechanical properties :
#
#
# Convention : Reuss Voigt Hill
#
# Bulk Modulus (GPa) = 35.99288 48.92032 42.45660
# Shear Modulus (GPa) = 27.30260 29.32843 28.31552
#
# Velocity S-wave (km/s) = 3.77773 3.91537 3.84716
# Velocity P-wave (km/s) = 6.15158 6.78315 6.47507
#
# Compressibility (1/GPa) = 0.02778328
#
# Stress axis : x y z
#
# Youngs Moduli (GPa) = 56.24003 47.16078 99.99673
#
# Poissons Ratio (x) = -0.00555 0.44344
# Poissons Ratio (y) = -0.00662 0.62840
# Poissons Ratio (z) = 0.24940 0.29637
#
# Static dielectric constant tensor:
#      x y z
#    x 3.496990 0.000000 0.000000 
#    y 0.000000 3.040130 0.000000 
#    z 0.000000 0.000000 3.965610 
# 
# 
# High freq. dielectric constant tensor:
#      x y z
#    x 1.753450 0.000000 0.000000 
#    y 0.000000 1.700410 0.000000 
#    z 0.000000 0.000000 1.767710 
# 
# From -- ./inp_files/6279.got.cif
#   From: 2010.03.12/outbox.cif.g09.slc.cpg/sg31_4_cif.got.tgz:6279.got - 2010.04.14 01:42:59.
