data_PCOD8170015
_publ_section_title
;
Structure prediction by ZEFSAII (Michael W. Deem and Ramdas Pophale) SiO2 
 PCOD8170015
Probable space group: P M N 21
;
_chemical_formula_sum "Si O2"
_cell_formula_units_Z 32
_cell_length_a 9.339018
_cell_length_b 20.699317
_cell_length_c 9.139480
_cell_angle_alpha 90.000000
_cell_angle_beta 90.000000
_cell_angle_gamma 90.000000
_cell_volume 1766.764706
_symmetry_space_group_name_H-M "P M N 21"
_symmetry_group_IT_number 31
_symmetry_cell_setting 'orthorhombic'
loop_
_space_group_symop_operation_xyz
x,y,z
1/2-x,-y,1/2+z
-x,y,z
1/2+x,-y,1/2+z
loop_
_atom_site_type_symbol
_atom_site_label
_atom_site_fract_x
_atom_site_fract_y
_atom_site_fract_z
Si Si1 0.159877 0.446317 0.100590
Si Si2 0.164196 0.167948 0.162954
Si Si3 0.833931 0.935003 0.158689
Si Si4 0.338761 0.690350 0.661139
Si Si5 0.335628 0.553584 0.947318
Si Si6 0.165828 0.817827 0.960528
Si Si7 0.832422 0.055163 0.956876
Si Si8 0.834388 0.675099 0.945214
O O1 0.178499 0.370746 0.051062
O O2 0.187371 0.449733 0.274058
O O3 0.000000 0.470974 0.062944
O O4 0.274265 0.488365 0.015641
O O5 0.177593 0.239174 0.086775
O O6 0.244993 0.165458 0.316489
O O7 0.000000 0.150627 0.197477
O O8 0.227895 0.115641 0.050825
O O9 0.744447 0.947426 0.302738
O O10 0.000000 0.937285 0.201279
O O11 0.790213 0.866072 0.090161
O O12 0.795768 0.989624 0.041093
O O13 0.500000 0.685013 0.732591
O O14 0.214141 0.684454 0.779058
O O15 0.500000 0.558598 0.992544
O O16 0.255783 0.616337 0.016396
O O17 0.193923 0.744842 0.021129
O O18 0.000000 0.826641 0.917480
O O19 0.000000 0.063104 0.927377
O O20 0.000000 0.655409 0.951062
#
# Coordination Sequence:
#
# PCOD8170015 Si02
#       8
#     4   4   4   4   4   4   4   4
#     4   9  18  32  49  70  97 129 163 201 245 291
#     4   9  17  31  52  76 100 127 162 204 247 291
#     4  10  21  36  52  73 103 135 166 203 246 290
#     4   8  15  29  48  70  98 128 160 201 245 290
#     4  10  20  33  50  73  99 128 164 204 246 293
#     4   9  18  32  51  75 100 128 164 203 244 293
#     4  10  21  35  52  76 103 132 168 206 244 290
#     4   9  16  28  48  71  96 127 163 202 243 290
#
# _framework density 18.112202
#
# number of rings (size 3 to 8) (size 9 to 14) (size 15 to 20)
#    0.000    2.750    0.000    2.250    0.000    4.500 
#    0.000    1.250    0.000    3.000    0.000    0.000 
#    0.000    0.000    0.000    0.000    0.000    0.000 
#
# Total GULP energy -396597.821390 kJ/mol
# GULP energy per Si atom -12393.681918 kJ/mol
# Density = 1.807098 g / cm^3
# Si number density = 18.112202 Si / 1000 Ang^3
#
#
#
# Elastic Constant Matrix: (Units=GPa)
#
#
# Indices 1 2 3 4 5 6 
#
# 1 68.3832 26.6025 22.1902 0.0000 0.0000 0.0000
# 2 26.6025 83.6453 6.2033 0.0000 0.0000 0.0000
# 3 22.1902 6.2033 43.1609 0.0000 0.0000 0.0000
# 4 0.0000 0.0000 0.0000 27.9007 0.0000 0.0000
# 5 0.0000 0.0000 0.0000 0.0000 27.8685 0.0000
# 6 0.0000 0.0000 0.0000 0.0000 0.0000 32.4510
#
#
#
# Elastic Compliance Matrix: (Units=1/GPa)
#
#
# Indices 1 2 3 4 5 6 
#
# 1 0.019861 -0.005619 -0.009403 0.000000 0.000000 0.000000
# 2 -0.005619 0.013674 0.000924 0.000000 0.000000 0.000000
# 3 -0.009403 0.000924 0.027871 0.000000 0.000000 0.000000
# 4 0.000000 0.000000 0.000000 0.035841 0.000000 0.000000
# 5 0.000000 0.000000 0.000000 0.000000 0.035883 0.000000
# 6 0.000000 0.000000 0.000000 0.000000 0.000000 0.030816
#
#
# Mechanical properties :
#
#
# Convention : Reuss Voigt Hill
#
# Bulk Modulus (GPa) = 30.11333 33.90903 32.01118
# Shear Modulus (GPa) = 24.60481 26.99028 25.79755
#
# Velocity S-wave (km/s) = 3.68974 3.86446 3.77811
# Velocity P-wave (km/s) = 5.90036 6.21887 6.06171
#
# Compressibility (1/GPa) = 0.03320789
#
# Stress axis : x y z
#
# Youngs Moduli (GPa) = 50.35043 73.13225 35.87976
#
# Poissons Ratio (x) = 0.41094 0.33739
# Poissons Ratio (y) = 0.28293 -0.03314
# Poissons Ratio (z) = 0.47346 -0.06755
#
# Static dielectric constant tensor:
#      x y z
#    x 3.361170 0.000000 0.000000 
#    y 0.000000 3.931260 0.000000 
#    z 0.000000 0.000000 2.880290 
# 
# 
# High freq. dielectric constant tensor:
#      x y z
#    x 1.704680 0.000000 0.000000 
#    y 0.000000 1.729790 0.000000 
#    z 0.000000 0.000000 1.651600 
# 
# From -- ./inp_files/1859.got.cif
#   From: 2010.03.12/outbox.cif.g09.slc.cpg/sg31_1_cif.got.tgz:1859.got - 2010.04.14 01:42:59.
