data_PCOD8170688
_publ_section_title
;
Structure prediction by ZEFSAII (Michael W. Deem and Ramdas Pophale) SiO2 
 PCOD8170688
Probable space group: P N A 21
;
_chemical_formula_sum "Si O2"
_cell_formula_units_Z 32
_cell_length_a 13.350018
_cell_length_b 8.845551
_cell_length_c 12.985789
_cell_angle_alpha 90.000000
_cell_angle_beta 90.000000
_cell_angle_gamma 90.000000
_cell_volume 1533.469294
_symmetry_space_group_name_H-M "P N A 21"
_symmetry_group_IT_number 33
_symmetry_cell_setting 'orthorhombic'
loop_
_space_group_symop_operation_xyz
x,y,z
-x,-y,1/2+z
1/2-x,1/2+y,1/2+z
1/2+x,1/2-y,z
loop_
_atom_site_type_symbol
_atom_site_label
_atom_site_fract_x
_atom_site_fract_y
_atom_site_fract_z
Si Si1 0.916019 0.822208 0.823880
Si Si2 0.983344 0.000102 0.494256
Si Si3 0.145766 0.505452 0.616394
Si Si4 0.649018 0.406226 0.804300
Si Si5 0.645281 0.005541 0.375574
Si Si6 0.500321 0.157627 0.745456
Si Si7 0.588155 0.675652 0.665298
Si Si8 0.648321 0.591460 0.184768
O O1 0.842043 0.678630 0.835234
O O2 0.003055 0.772805 0.745411
O O3 0.863297 0.967588 0.774346
O O4 0.951641 0.866754 0.940245
O O5 0.917372 0.933416 0.403950
O O6 0.050691 0.872380 0.550581
O O7 0.908547 0.059574 0.579607
O O8 0.150363 0.492907 0.496076
O O9 0.035474 0.451122 0.652631
O O10 0.161547 0.681052 0.650025
O O11 0.233623 0.399784 0.663238
O O12 0.765639 0.398168 0.833102
O O13 0.602136 0.250797 0.764282
O O14 0.642387 0.531718 0.715107
O O15 0.536107 0.943023 0.341920
O O16 0.400680 0.252423 0.720492
#
# Coordination Sequence:
#
# PCOD8170688 Si02
#       8
#     4   4   4   4   4   4   4   4
#     4  10  21  41  68  91 127 169 206 266 315 375
#     4  10  18  40  70  90 122 168 210 248 332 368
#     4  12  25  41  66  97 127 165 217 264 315 377
#     4  11  22  42  67  90 128 171 212 258 319 376
#     4  12  25  41  66  97 127 165 217 264 315 377
#     4  12  24  44  62  94 134 170 204 268 318 372
#     4  10  21  41  68  91 127 169 206 266 315 375
#     4  11  22  42  67  90 128 171 212 258 319 376
#
# _framework density 20.867712999999998
#
# number of rings (size 3 to 8) (size 9 to 14) (size 15 to 20)
#    0.000    1.000    6.250    3.000    0.000    0.000 
#    0.000    0.000    0.000    0.000    0.000    0.000 
#    0.000    0.000    0.000    0.000    0.000    0.000 
#
# Total GULP energy -396507.138655 kJ/mol
# GULP energy per Si atom -12390.848083 kJ/mol
# Density = 2.082022 g / cm^3
# Si number density = 20.867713 Si / 1000 Ang^3
#
#
#
# Elastic Constant Matrix: (Units=GPa)
#
#
# Indices 1 2 3 4 5 6 
#
# 1 106.3035 40.4745 33.0507 0.0000 0.0000 0.0000
# 2 40.4745 82.4113 29.2241 0.0000 0.0000 0.0000
# 3 33.0507 29.2241 83.6775 0.0000 0.0000 0.0000
# 4 0.0000 0.0000 0.0000 20.0013 0.0000 0.0000
# 5 0.0000 0.0000 0.0000 0.0000 22.5924 0.0000
# 6 0.0000 0.0000 0.0000 0.0000 0.0000 68.4521
#
#
#
# Elastic Compliance Matrix: (Units=1/GPa)
#
#
# Indices 1 2 3 4 5 6 
#
# 1 0.012246 -0.004907 -0.003123 0.000000 0.000000 0.000000
# 2 -0.004907 0.015816 -0.003585 0.000000 0.000000 0.000000
# 3 -0.003123 -0.003585 0.014436 0.000000 0.000000 0.000000
# 4 0.000000 0.000000 0.000000 0.049997 0.000000 0.000000
# 5 0.000000 0.000000 0.000000 0.000000 0.044263 0.000000
# 6 0.000000 0.000000 0.000000 0.000000 0.000000 0.014609
#
#
# Mechanical properties :
#
#
# Convention : Reuss Voigt Hill
#
# Bulk Modulus (GPa) = 51.90192 53.09900 52.50046
# Shear Modulus (GPa) = 27.62120 33.51870 30.56995
#
# Velocity S-wave (km/s) = 3.64212 4.01215 3.83161
# Velocity P-wave (km/s) = 6.52783 6.85302 6.69240
#
# Compressibility (1/GPa) = 0.01926711
#
# Stress axis : x y z
#
# Youngs Moduli (GPa) = 81.65669 63.22851 69.26907
#
# Poissons Ratio (x) = 0.31026 0.21635
# Poissons Ratio (y) = 0.40069 0.24836
# Poissons Ratio (z) = 0.25504 0.22670
#
# Static dielectric constant tensor:
#      x y z
#    x 3.782070 0.000000 0.000000 
#    y 0.000000 3.401550 0.000000 
#    z 0.000000 0.000000 6.057890 
# 
# 
# High freq. dielectric constant tensor:
#      x y z
#    x 1.805480 0.000000 0.000000 
#    y 0.000000 1.819430 0.000000 
#    z 0.000000 0.000000 1.828900 
# 
# From -- ./inp_files/6793.got.cif
#   From: 2010.03.12/outbox.cif.g09.slc.cpg/sg33_4_cif.got.tgz:6793.got - 2010.04.14 01:49:19.
