data_PCOD8170986
_publ_section_title
;
Structure prediction by ZEFSAII (Michael W. Deem and Ramdas Pophale) SiO2 
 PCOD8170986
Probable space group: P N A 21
;
_chemical_formula_sum "Si O2"
_cell_formula_units_Z 28
_cell_length_a 14.048215
_cell_length_b 11.949209
_cell_length_c 8.133741
_cell_angle_alpha 90.000000
_cell_angle_beta 90.000000
_cell_angle_gamma 90.000000
_cell_volume 1365.370897
_symmetry_space_group_name_H-M "P N A 21"
_symmetry_group_IT_number 33
_symmetry_cell_setting 'orthorhombic'
loop_
_space_group_symop_operation_xyz
x,y,z
-x,-y,1/2+z
1/2-x,1/2+y,1/2+z
1/2+x,1/2-y,z
loop_
_atom_site_type_symbol
_atom_site_label
_atom_site_fract_x
_atom_site_fract_y
_atom_site_fract_z
Si Si1 0.971570 0.730539 0.629470
Si Si2 0.078152 0.506627 0.267242
Si Si3 0.282749 0.565739 0.167247
Si Si4 0.334740 0.707891 0.877855
Si Si5 0.821084 0.713209 0.370377
Si Si6 0.320445 0.324357 0.165073
Si Si7 0.092241 0.399491 0.595154
O O1 0.964384 0.613466 0.723699
O O2 0.904344 0.821397 0.725305
O O3 0.927129 0.720310 0.448147
O O4 0.081014 0.763996 0.627705
O O5 0.173633 0.528321 0.169099
O O6 0.096899 0.505730 0.467587
O O7 0.004338 0.598986 0.202883
O O8 0.299607 0.665219 0.294406
O O9 0.342335 0.453889 0.212051
O O10 0.306342 0.598656 0.979535
O O11 0.237925 0.768349 0.814767
O O12 0.399986 0.785840 0.993050
O O13 0.740784 0.680584 0.499065
O O14 0.823058 0.613901 0.231427
#
# Coordination Sequence:
#
# PCOD8170986 Si02
#       7
#     4   4   4   4   4   4   4
#     4  10  22  42  63  95 131 163 220 269 319 400
#     4  11  22  38  69  97 124 169 223 274 332 377
#     4  11  23  42  64  91 133 172 212 261 339 392
#     4   9  22  42  61  96 132 166 213 270 323 393
#     4  10  23  42  60  95 134 163 220 272 320 394
#     4  11  23  42  66  94 132 172 213 272 328 387
#     4  10  21  38  59  96 130 159 213 278 321 383
#
# _framework density 20.507248000000001
#
# number of rings (size 3 to 8) (size 9 to 14) (size 15 to 20)
#    0.000    1.714    4.286    0.857    8.000    1.143 
#    2.571    0.000    0.000    0.000    0.000    0.000 
#    0.000    0.000    0.000    0.000    0.000    0.000 
#
# Total GULP energy -346879.405073 kJ/mol
# GULP energy per Si atom -12388.550181 kJ/mol
# Density = 2.046057 g / cm^3
# Si number density = 20.507248 Si / 1000 Ang^3
#
#
#
# Elastic Constant Matrix: (Units=GPa)
#
#
# Indices 1 2 3 4 5 6 
#
# 1 127.3553 41.6943 48.7497 0.0000 0.0000 0.0000
# 2 41.6943 53.5461 39.7225 0.0000 0.0000 0.0000
# 3 48.7497 39.7225 87.4414 0.0000 0.0000 0.0000
# 4 0.0000 0.0000 0.0000 29.1116 0.0000 0.0000
# 5 0.0000 0.0000 0.0000 0.0000 29.1761 0.0000
# 6 0.0000 0.0000 0.0000 0.0000 0.0000 28.7810
#
#
#
# Elastic Compliance Matrix: (Units=1/GPa)
#
#
# Indices 1 2 3 4 5 6 
#
# 1 0.011184 -0.006158 -0.003438 0.000000 0.000000 0.000000
# 2 -0.006158 0.031559 -0.010903 0.000000 0.000000 0.000000
# 3 -0.003438 -0.010903 0.018306 0.000000 0.000000 0.000000
# 4 0.000000 0.000000 0.000000 0.034351 0.000000 0.000000
# 5 0.000000 0.000000 0.000000 0.000000 0.034275 0.000000
# 6 0.000000 0.000000 0.000000 0.000000 0.000000 0.034745
#
#
# Mechanical properties :
#
#
# Convention : Reuss Voigt Hill
#
# Bulk Modulus (GPa) = 49.87384 58.74174 54.30779
# Shear Modulus (GPa) = 23.57361 26.62549 25.09955
#
# Velocity S-wave (km/s) = 3.39414 3.60716 3.50227
# Velocity P-wave (km/s) = 6.30343 6.78641 6.54937
#
# Compressibility (1/GPa) = 0.02005059
#
# Stress axis : x y z
#
# Youngs Moduli (GPa) = 89.41250 31.68650 54.62748
#
# Poissons Ratio (x) = 0.19514 0.18779
# Poissons Ratio (y) = 0.55064 0.59561
# Poissons Ratio (z) = 0.30737 0.34548
#
# Static dielectric constant tensor:
#      x y z
#    x 3.830610 0.000000 0.000000 
#    y 0.000000 3.808790 0.000000 
#    z 0.000000 0.000000 4.532470 
# 
# 
# High freq. dielectric constant tensor:
#      x y z
#    x 1.790230 0.000000 0.000000 
#    y 0.000000 1.782860 0.000000 
#    z 0.000000 0.000000 1.822630 
# 
# From -- ./inp_files/4342.got.cif
#   From: 2010.03.12/outbox.cif.g09.slc.cpg/sg33_3_cif.got.tgz:4342.got - 2010.04.14 01:49:19.
