data_PCOD8170172
_publ_section_title
;
Structure prediction by ZEFSAII (Michael W. Deem and Ramdas Pophale) SiO2 
 PCOD8170172
Probable space group: P M N 21
;
_chemical_formula_sum "Si O2"
_cell_formula_units_Z 32
_cell_length_a 9.550496
_cell_length_b 12.438928
_cell_length_c 14.170198
_cell_angle_alpha 90.000000
_cell_angle_beta 90.000000
_cell_angle_gamma 90.000000
_cell_volume 1683.390220
_symmetry_space_group_name_H-M "P M N 21"
_symmetry_group_IT_number 31
_symmetry_cell_setting 'orthorhombic'
loop_
_space_group_symop_operation_xyz
x,y,z
1/2-x,-y,1/2+z
-x,y,z
1/2+x,-y,1/2+z
loop_
_atom_site_type_symbol
_atom_site_label
_atom_site_fract_x
_atom_site_fract_y
_atom_site_fract_z
Si Si1 0.333097 0.431550 0.491640
Si Si2 0.162889 0.760512 0.114717
Si Si3 0.338705 0.388981 0.090728
Si Si4 0.840885 0.841710 0.503092
Si Si5 0.342463 0.078750 0.303203
Si Si6 0.665551 0.322975 0.296052
Si Si7 0.337644 0.119836 0.792834
Si Si8 0.656118 0.030523 0.521985
O O1 0.500000 0.449958 0.493124
O O2 0.276285 0.349096 0.571907
O O3 0.257512 0.540930 0.521639
O O4 0.282145 0.388848 0.388576
O O5 0.192123 0.776689 0.225725
O O6 0.000000 0.758485 0.088566
O O7 0.229623 0.863374 0.063222
O O8 0.500000 0.426422 0.081806
O O9 0.318294 0.269354 0.054374
O O10 0.290694 0.388427 0.201166
O O11 0.791912 0.836097 0.394433
O O12 0.000000 0.880558 0.509681
O O13 0.746830 0.929200 0.556249
O O14 0.500000 0.074896 0.259726
O O15 0.277521 0.199485 0.292904
O O16 0.347617 0.044651 0.411044
O O17 0.245060 0.986577 0.256109
O O18 0.500000 0.312132 0.302786
O O19 0.500000 0.087450 0.789182
O O20 0.500000 0.014365 0.563155
#
# Coordination Sequence:
#
# PCOD8170172 Si02
#       8
#     4   4   4   4   4   4   4   4
#     4  10  20  38  60  79 102 140 189 228 262 315
#     4   9  17  31  52  76 102 135 171 213 263 308
#     4  10  22  38  55  78 109 144 179 222 276 321
#     4   9  19  34  49  71 107 142 168 203 262 323
#     4   9  16  30  52  76 102 136 176 212 253 312
#     4   9  18  35  57  77 103 141 178 218 271 323
#     4   9  18  31  48  75 110 142 168 207 266 320
#     4   9  16  29  51  76 101 130 169 215 255 300
#
# _framework density 19.009257999999999
#
# number of rings (size 3 to 8) (size 9 to 14) (size 15 to 20)
#    0.000    2.750    1.250    0.000    1.750    1.500 
#    0.000    4.375    0.000    0.000    0.000    0.000 
#    0.000    0.000    0.000    0.000    0.000    0.000 
#
# Total GULP energy -396521.764168 kJ/mol
# GULP energy per Si atom -12391.305130 kJ/mol
# Density = 1.896599 g / cm^3
# Si number density = 19.009258 Si / 1000 Ang^3
#
#
#
# Elastic Constant Matrix: (Units=GPa)
#
#
# Indices 1 2 3 4 5 6 
#
# 1 42.1648 27.7088 15.9812 0.0000 0.0000 0.0000
# 2 27.7088 53.0079 23.2910 0.0000 0.0000 0.0000
# 3 15.9812 23.2910 75.1877 0.0000 0.0000 0.0000
# 4 0.0000 0.0000 0.0000 27.5173 0.0000 0.0000
# 5 0.0000 0.0000 0.0000 0.0000 13.9146 0.0000
# 6 0.0000 0.0000 0.0000 0.0000 0.0000 27.0156
#
#
#
# Elastic Compliance Matrix: (Units=1/GPa)
#
#
# Indices 1 2 3 4 5 6 
#
# 1 0.036420 -0.018100 -0.002134 0.000000 0.000000 0.000000
# 2 -0.018100 0.030833 -0.005704 0.000000 0.000000 0.000000
# 3 -0.002134 -0.005704 0.015521 0.000000 0.000000 0.000000
# 4 0.000000 0.000000 0.000000 0.036341 0.000000 0.000000
# 5 0.000000 0.000000 0.000000 0.000000 0.071867 0.000000
# 6 0.000000 0.000000 0.000000 0.000000 0.000000 0.037016
#
#
# Mechanical properties :
#
#
# Convention : Reuss Voigt Hill
#
# Bulk Modulus (GPa) = 32.36569 33.81361 33.08965
# Shear Modulus (GPa) = 17.23117 20.58146 18.90631
#
# Velocity S-wave (km/s) = 3.01402 3.29402 3.15712
# Velocity P-wave (km/s) = 5.40145 5.68278 5.54390
#
# Compressibility (1/GPa) = 0.03089692
#
# Stress axis : x y z
#
# Youngs Moduli (GPa) = 27.45757 32.43310 64.43057
#
# Poissons Ratio (x) = 0.58704 0.13751
# Poissons Ratio (y) = 0.49698 0.36751
# Poissons Ratio (z) = 0.05860 0.18500
#
# Static dielectric constant tensor:
#      x y z
#    x 3.381880 0.000000 0.000000 
#    y 0.000000 3.434850 0.000000 
#    z 0.000000 0.000000 3.672940 
# 
# 
# High freq. dielectric constant tensor:
#      x y z
#    x 1.700520 0.000000 0.000000 
#    y 0.000000 1.732470 0.000000 
#    z 0.000000 0.000000 1.752070 
# 
# From -- ./inp_files/5009.got.cif
#   From: 2010.03.12/outbox.cif.g09.slc.cpg/sg31_3_cif.got.tgz:5009.got - 2010.04.14 01:42:59.
