data_PCOD8170299
_publ_section_title
;
Structure prediction by ZEFSAII (Michael W. Deem and Ramdas Pophale) SiO2 
 PCOD8170299
Probable space group: P M N 21
;
_chemical_formula_sum "Si O2"
_cell_formula_units_Z 32
_cell_length_a 8.874275
_cell_length_b 20.622862
_cell_length_c 9.160696
_cell_angle_alpha 90.000000
_cell_angle_beta 90.000000
_cell_angle_gamma 90.000000
_cell_volume 1676.525987
_symmetry_space_group_name_H-M "P M N 21"
_symmetry_group_IT_number 31
_symmetry_cell_setting 'orthorhombic'
loop_
_space_group_symop_operation_xyz
x,y,z
1/2-x,-y,1/2+z
-x,y,z
1/2+x,-y,1/2+z
loop_
_atom_site_type_symbol
_atom_site_label
_atom_site_fract_x
_atom_site_fract_y
_atom_site_fract_z
Si Si1 0.179509 0.431846 0.100590
Si Si2 0.179923 0.159699 0.206436
Si Si3 0.677527 0.924804 0.181629
Si Si4 0.335114 0.705063 0.636100
Si Si5 0.322271 0.545262 0.926083
Si Si6 0.177750 0.815347 0.013242
Si Si7 0.822870 0.038660 0.009617
Si Si8 0.666043 0.685337 0.979250
O O1 0.244180 0.358532 0.064240
O O2 0.234351 0.452319 0.260302
O O3 0.000000 0.428754 0.094386
O O4 0.240346 0.482761 0.987086
O O5 0.245021 0.224432 0.122769
O O6 0.253021 0.154511 0.365574
O O7 0.000000 0.165591 0.226700
O O8 0.226901 0.098668 0.110318
O O9 0.500000 0.914986 0.168435
O O10 0.724164 0.947187 0.343488
O O11 0.758497 0.856637 0.148655
O O12 0.731048 0.976696 0.062395
O O13 0.500000 0.712118 0.564755
O O14 0.350072 0.689882 0.806609
O O15 0.500000 0.535623 0.937540
O O16 0.275789 0.611823 0.012033
O O17 0.221273 0.740089 0.039944
O O18 0.000000 0.821702 0.005457
O O19 0.000000 0.024665 0.023565
O O20 0.500000 0.696357 0.049205
#
# Coordination Sequence:
#
# PCOD8170299 Si02
#       8
#     4   4   4   4   4   4   4   4
#     4   9  17  30  48  71 101 134 171 214 256 300
#     4   9  17  34  58  79 103 135 170 209 254 301
#     4  11  23  38  55  76 106 140 171 207 252 301
#     4   7  12  26  49  72  94 128 169 205 245 296
#     4   9  18  32  50  73 101 134 173 214 255 305
#     4  11  21  33  53  81 107 131 167 211 255 306
#     4  10  22  38  57  81 104 133 175 214 248 294
#     4   8  15  31  52  71  96 133 174 212 253 301
#
# _framework density 19.087088000000001
#
# number of rings (size 3 to 8) (size 9 to 14) (size 15 to 20)
#    0.000    2.750    0.000    4.500    0.000    4.500 
#    0.000    6.250    0.000    3.000    0.000    0.000 
#    0.000    0.000    0.000    0.000    0.000    0.000 
#
# Total GULP energy -396514.646364 kJ/mol
# GULP energy per Si atom -12391.082699 kJ/mol
# Density = 1.904364 g / cm^3
# Si number density = 19.087088 Si / 1000 Ang^3
#
#
#
# Elastic Constant Matrix: (Units=GPa)
#
#
# Indices 1 2 3 4 5 6 
#
# 1 44.6451 4.1517 6.4264 0.0000 0.0000 0.0000
# 2 4.1517 54.2531 -14.3320 0.0000 0.0000 0.0000
# 3 6.4264 -14.3320 29.0454 0.0000 0.0000 0.0000
# 4 0.0000 0.0000 0.0000 30.9909 0.0000 0.0000
# 5 0.0000 0.0000 0.0000 0.0000 22.9539 0.0000
# 6 0.0000 0.0000 0.0000 0.0000 0.0000 21.1586
#
#
#
# Elastic Compliance Matrix: (Units=1/GPa)
#
#
# Indices 1 2 3 4 5 6 
#
# 1 0.023760 -0.003688 -0.007077 0.000000 0.000000 0.000000
# 2 -0.003688 0.021767 0.011557 0.000000 0.000000 0.000000
# 3 -0.007077 0.011557 0.041697 0.000000 0.000000 0.000000
# 4 0.000000 0.000000 0.000000 0.032268 0.000000 0.000000
# 5 0.000000 0.000000 0.000000 0.000000 0.043566 0.000000
# 6 0.000000 0.000000 0.000000 0.000000 0.000000 0.047262
#
#
# Mechanical properties :
#
#
# Convention : Reuss Voigt Hill
#
# Bulk Modulus (GPa) = 11.26009 13.38175 12.32092
# Shear Modulus (GPa) = 20.97853 23.80051 22.38952
#
# Velocity S-wave (km/s) = 3.31886 3.53504 3.42865
# Velocity P-wave (km/s) = 4.53856 4.86704 4.70567
#
# Compressibility (1/GPa) = 0.08880921
#
# Stress axis : x y z
#
# Youngs Moduli (GPa) = 42.08668 45.94060 23.98244
#
# Poissons Ratio (x) = 0.16942 0.16972
# Poissons Ratio (y) = 0.15520 -0.27716
# Poissons Ratio (z) = 0.29784 -0.53092
#
# Static dielectric constant tensor:
#      x y z
#    x 3.208790 0.000000 0.000000 
#    y 0.000000 4.054470 0.000000 
#    z 0.000000 0.000000 3.232110 
# 
# 
# High freq. dielectric constant tensor:
#      x y z
#    x 1.714680 0.000000 0.000000 
#    y 0.000000 1.769340 0.000000 
#    z 0.000000 0.000000 1.707690 
# 
# From -- ./inp_files/1858.got.cif
#   From: 2010.03.12/outbox.cif.g09.slc.cpg/sg31_1_cif.got.tgz:1858.got - 2010.04.14 01:42:59.
