data_PCOD8170325
_publ_section_title
;
Structure prediction by ZEFSAII (Michael W. Deem and Ramdas Pophale) SiO2 
 PCOD8170325
Probable space group: P M N 21
;
_chemical_formula_sum "Si O2"
_cell_formula_units_Z 32
_cell_length_a 8.744370
_cell_length_b 15.232547
_cell_length_c 11.998880
_cell_angle_alpha 90.000000
_cell_angle_beta 90.000000
_cell_angle_gamma 90.000000
_cell_volume 1598.239141
_symmetry_space_group_name_H-M "P M N 21"
_symmetry_group_IT_number 31
_symmetry_cell_setting 'orthorhombic'
loop_
_space_group_symop_operation_xyz
x,y,z
1/2-x,-y,1/2+z
-x,y,z
1/2+x,-y,1/2+z
loop_
_atom_site_type_symbol
_atom_site_label
_atom_site_fract_x
_atom_site_fract_y
_atom_site_fract_z
Si Si1 0.680803 0.107879 0.563280
Si Si2 0.680202 0.747848 0.651855
Si Si3 0.177584 0.392624 0.556180
Si Si4 0.176998 0.591939 0.511305
Si Si5 0.319063 0.255964 0.396372
Si Si6 0.820506 0.346795 0.801179
Si Si7 0.319331 0.914264 0.505245
Si Si8 0.180474 0.833478 0.302920
O O1 0.500000 0.112379 0.563220
O O2 0.743800 0.171665 0.465775
O O3 0.743174 0.140978 0.681583
O O4 0.735495 0.007944 0.551679
O O5 0.500000 0.743904 0.664778
O O6 0.732020 0.662934 0.583283
O O7 0.752231 0.746995 0.773551
O O8 0.730932 0.837682 0.590541
O O9 0.207157 0.496135 0.560536
O O10 0.270761 0.345539 0.458232
O O11 0.238110 0.358178 0.675192
O O12 0.000000 0.370646 0.538077
O O13 0.236262 0.586301 0.384113
O O14 0.000000 0.617926 0.514230
O O15 0.500000 0.254503 0.387263
O O16 0.773411 0.251099 0.844343
O O17 0.000000 0.362574 0.810589
O O18 0.500000 0.911373 0.482025
O O19 0.226238 0.908254 0.390079
O O20 0.000000 0.815530 0.303705
#
# Coordination Sequence:
#
# PCOD8170325 Si02
#       8
#     4   4   4   4   4   4   4   4
#     4   9  21  40  61  89 123 159 200 250 306 357
#     4  11  24  41  62  89 125 165 203 248 306 365
#     4  10  24  43  63  91 124 159 202 251 307 364
#     4  11  24  42  64  92 123 159 204 254 303 363
#     4  11  23  41  64  89 123 164 205 251 304 361
#     4  11  22  40  64  90 122 160 201 252 307 364
#     4  10  22  41  62  87 123 162 201 249 303 363
#     4  11  21  38  64  91 119 156 204 255 302 357
#
# _framework density 20.022034000000001
#
# number of rings (size 3 to 8) (size 9 to 14) (size 15 to 20)
#    0.000    1.500    2.500    1.875    3.500    2.000 
#    0.000    1.875    0.000    0.000    0.000    0.000 
#    0.000    0.000    0.000    0.000    0.000    0.000 
#
# Total GULP energy -396890.230832 kJ/mol
# GULP energy per Si atom -12402.819714 kJ/mol
# Density = 1.997646 g / cm^3
# Si number density = 20.022034 Si / 1000 Ang^3
#
#
#
# Elastic Constant Matrix: (Units=GPa)
#
#
# Indices 1 2 3 4 5 6 
#
# 1 52.6443 36.3848 37.3858 0.0000 0.0000 0.0000
# 2 36.3848 106.0700 45.9224 0.0000 0.0000 0.0000
# 3 37.3858 45.9224 141.6226 0.0000 0.0000 0.0000
# 4 0.0000 0.0000 0.0000 30.0747 0.0000 0.0000
# 5 0.0000 0.0000 0.0000 0.0000 37.2890 0.0000
# 6 0.0000 0.0000 0.0000 0.0000 0.0000 26.2668
#
#
#
# Elastic Compliance Matrix: (Units=1/GPa)
#
#
# Indices 1 2 3 4 5 6 
#
# 1 0.027534 -0.007326 -0.004893 0.000000 0.000000 0.000000
# 2 -0.007326 0.012917 -0.002254 0.000000 0.000000 0.000000
# 3 -0.004893 -0.002254 0.009084 0.000000 0.000000 0.000000
# 4 0.000000 0.000000 0.000000 0.033251 0.000000 0.000000
# 5 0.000000 0.000000 0.000000 0.000000 0.026818 0.000000
# 6 0.000000 0.000000 0.000000 0.000000 0.000000 0.038071
#
#
# Mechanical properties :
#
#
# Convention : Reuss Voigt Hill
#
# Bulk Modulus (GPa) = 48.57422 59.96921 54.27172
# Shear Modulus (GPa) = 27.25055 30.76904 29.00980
#
# Velocity S-wave (km/s) = 3.69321 3.92440 3.81056
# Velocity P-wave (km/s) = 6.51916 7.10994 6.82095
#
# Compressibility (1/GPa) = 0.02058705
#
# Stress axis : x y z
#
# Youngs Moduli (GPa) = 36.31922 77.41779 110.08842
#
# Poissons Ratio (x) = 0.56720 0.53863
# Poissons Ratio (y) = 0.26609 0.24818
# Poissons Ratio (z) = 0.17770 0.17453
#
# Static dielectric constant tensor:
#      x y z
#    x 3.507650 0.000000 0.000000 
#    y 0.000000 3.725520 0.000000 
#    z 0.000000 0.000000 3.813580 
# 
# 
# High freq. dielectric constant tensor:
#      x y z
#    x 1.772690 0.000000 0.000000 
#    y 0.000000 1.787910 0.000000 
#    z 0.000000 0.000000 1.796280 
# 
# From -- ./inp_files/3597.got.cif
#   From: 2010.03.12/outbox.cif.g09.slc.cpg/sg31_2_cif.got.tgz:3597.got - 2010.04.14 01:42:59.
