data_PCOD8170684
_publ_section_title
;
Structure prediction by ZEFSAII (Michael W. Deem and Ramdas Pophale) SiO2 
 PCOD8170684
Probable space group: P N A 21
;
_chemical_formula_sum "Si O2"
_cell_formula_units_Z 28
_cell_length_a 9.964639
_cell_length_b 8.302170
_cell_length_c 16.106101
_cell_angle_alpha 90.000000
_cell_angle_beta 90.000000
_cell_angle_gamma 90.000000
_cell_volume 1332.427568
_symmetry_space_group_name_H-M "P N A 21"
_symmetry_group_IT_number 33
_symmetry_cell_setting 'orthorhombic'
loop_
_space_group_symop_operation_xyz
x,y,z
-x,-y,1/2+z
1/2-x,1/2+y,1/2+z
1/2+x,1/2-y,z
loop_
_atom_site_type_symbol
_atom_site_label
_atom_site_fract_x
_atom_site_fract_y
_atom_site_fract_z
Si Si1 0.263568 0.438204 0.028980
Si Si2 0.830502 0.906233 0.852470
Si Si3 0.499911 0.901779 0.017422
Si Si4 0.260044 0.565164 0.524830
Si Si5 0.399514 0.651989 0.146643
Si Si6 0.311970 0.391454 0.697631
Si Si7 0.386843 0.332955 0.392990
O O1 0.132035 0.532066 0.061993
O O2 0.217696 0.254931 0.021572
O O3 0.368818 0.477544 0.103528
O O4 0.314683 0.504870 0.940828
O O5 0.750563 0.733401 0.850547
O O6 0.991573 0.890560 0.832810
O O7 0.766756 0.012017 0.779202
O O8 0.422314 0.770624 0.070298
O O9 0.395025 0.043688 0.999002
O O10 0.544706 0.823867 0.932011
O O11 0.288791 0.499682 0.616542
O O12 0.355072 0.472940 0.459486
O O13 0.529761 0.647224 0.204695
O O14 0.274229 0.726016 0.197843
#
# Coordination Sequence:
#
# PCOD8170684 Si02
#       7
#     4   4   4   4   4   4   4
#     4  11  23  38  69  98 126 169 225 268 312 396
#     4  11  24  42  65  94 130 171 214 269 333 382
#     4  10  18  38  68  90 118 172 218 254 314 380
#     4  11  23  38  69  98 126 169 225 268 312 396
#     4  11  20  45  66  89 127 178 218 257 324 396
#     4  11  24  42  65  94 130 171 214 269 333 382
#     4  11  20  45  66  89 127 178 218 257 324 396
#
# _framework density 21.014275999999999
#
# number of rings (size 3 to 8) (size 9 to 14) (size 15 to 20)
#    0.000    1.143    5.714    1.714    4.000    2.286 
#    5.143    1.429    0.000    0.000    0.000    0.000 
#    0.000    0.000    0.000    0.000    0.000    0.000 
#
# Total GULP energy -346977.087718 kJ/mol
# GULP energy per Si atom -12392.038847 kJ/mol
# Density = 2.096645 g / cm^3
# Si number density = 21.014276 Si / 1000 Ang^3
#
#
#
# Elastic Constant Matrix: (Units=GPa)
#
#
# Indices 1 2 3 4 5 6 
#
# 1 125.5674 29.9710 30.4645 0.0000 0.0000 0.0000
# 2 29.9710 97.3979 36.2028 0.0000 0.0000 0.0000
# 3 30.4645 36.2028 63.8916 0.0000 0.0000 0.0000
# 4 0.0000 0.0000 0.0000 28.5780 0.0000 0.0000
# 5 0.0000 0.0000 0.0000 0.0000 17.1767 0.0000
# 6 0.0000 0.0000 0.0000 0.0000 0.0000 24.1890
#
#
#
# Elastic Compliance Matrix: (Units=1/GPa)
#
#
# Indices 1 2 3 4 5 6 
#
# 1 0.009179 -0.001517 -0.003517 0.000000 0.000000 0.000000
# 2 -0.001517 0.013257 -0.006788 0.000000 0.000000 0.000000
# 3 -0.003517 -0.006788 0.021175 0.000000 0.000000 0.000000
# 4 0.000000 0.000000 0.000000 0.034992 0.000000 0.000000
# 5 0.000000 0.000000 0.000000 0.000000 0.058218 0.000000
# 6 0.000000 0.000000 0.000000 0.000000 0.000000 0.041341
#
#
# Mechanical properties :
#
#
# Convention : Reuss Voigt Hill
#
# Bulk Modulus (GPa) = 50.08539 53.34817 51.71678
# Shear Modulus (GPa) = 23.98493 26.66998 25.32745
#
# Velocity S-wave (km/s) = 3.38207 3.56636 3.47544
# Velocity P-wave (km/s) = 6.25595 6.51155 6.38503
#
# Compressibility (1/GPa) = 0.01996590
#
# Stress axis : x y z
#
# Youngs Moduli (GPa) = 108.94064 75.42989 47.22539
#
# Poissons Ratio (x) = 0.11445 0.16610
# Poissons Ratio (y) = 0.16530 0.32059
# Poissons Ratio (z) = 0.38315 0.51206
#
# Static dielectric constant tensor:
#      x y z
#    x 4.437230 0.000000 0.000000 
#    y 0.000000 3.800660 0.000000 
#    z 0.000000 0.000000 3.450430 
# 
# 
# High freq. dielectric constant tensor:
#      x y z
#    x 1.848430 0.000000 0.000000 
#    y 0.000000 1.813220 0.000000 
#    z 0.000000 0.000000 1.788990 
# 
# From -- ./inp_files/8475.got.cif
#   From: 2010.03.12/outbox.cif.g09.slc.cpg/sg33_5_cif.got.tgz:8475.got - 2010.04.14 01:49:19.
