data_PCOD8170463
_publ_section_title
;
Structure prediction by ZEFSAII (Michael W. Deem and Ramdas Pophale) SiO2 
 PCOD8170463
Probable space group: P B A 2
;
_chemical_formula_sum "Si O2"
_cell_formula_units_Z 26
_cell_length_a 14.917133
_cell_length_b 9.566754
_cell_length_c 8.812369
_cell_angle_alpha 90.000000
_cell_angle_beta 90.000000
_cell_angle_gamma 90.000000
_cell_volume 1257.600330
_symmetry_space_group_name_H-M "P B A 2"
_symmetry_group_IT_number 32
_symmetry_cell_setting 'orthorhombic'
loop_
_space_group_symop_operation_xyz
x,y,z
-x,-y,z
1/2-x,1/2+y,z
1/2+x,1/2-y,z
loop_
_atom_site_type_symbol
_atom_site_label
_atom_site_fract_x
_atom_site_fract_y
_atom_site_fract_z
Si Si1 0.315971 0.893218 0.263300
Si Si2 0.255838 0.688934 0.730312
Si Si3 0.000000 0.500000 0.366724
Si Si4 0.500000 0.500000 0.491120
Si Si5 0.500000 0.000000 0.849915
Si Si6 0.682555 0.401204 0.414581
Si Si7 0.692466 0.053218 0.927521
Si Si8 0.943695 0.286144 0.616099
O O1 0.303819 0.733212 0.310156
O O2 0.420469 0.936270 0.264646
O O3 0.260289 0.987755 0.380337
O O4 0.273438 0.907219 0.095140
O O5 0.318347 0.637633 0.592945
O O6 0.299591 0.823946 0.805593
O O7 0.250551 0.574218 0.862989
O O8 0.160314 0.723028 0.657010
O O9 0.042931 0.625464 0.463163
O O10 0.585422 0.470292 0.382490
O O11 0.518820 0.631213 0.599330
O O12 0.589085 0.008038 0.950016
O O13 0.499214 0.139442 0.748323
#
# Coordination Sequence:
#
# PCOD8170463 Si02
#       8
#     4   4   2   2   2   4   4   4
#     4  12  25  42  66  96 135 175 216 275 336 398
#     4  11  22  41  65  94 126 172 220 271 318 394
#     4  11  21  42  64  96 132 176 220 272 330 394
#     4  12  22  38  58 100 126 156 212 282 322 370
#     4   9  21  38  62  90 126 170 218 260 330 402
#     4  12  25  41  66  96 126 172 222 275 321 394
#     4  11  23  41  63  94 131 171 216 266 338 391
#     4  10  20  37  64  95 126 165 220 276 315 382
#
# _framework density 20.674296999999999
#
# number of rings (size 3 to 8) (size 9 to 14) (size 15 to 20)
#    0.000    0.923    3.077    5.077    2.154    0.000 
#    0.000    1.538    0.000    1.846    0.000    0.000 
#    0.000    0.000    0.000    0.000    0.000    0.000 
#
# Total GULP energy -322485.526784 kJ/mol
# GULP energy per Si atom -12403.289492 kJ/mol
# Density = 2.062724 g / cm^3
# Si number density = 20.674297 Si / 1000 Ang^3
#
#
#
# Elastic Constant Matrix: (Units=GPa)
#
#
# Indices 1 2 3 4 5 6 
#
# 1 90.3235 31.3898 15.5633 0.0000 0.0000 0.0000
# 2 31.3898 129.6577 22.3170 0.0000 0.0000 0.0000
# 3 15.5633 22.3170 84.9847 0.0000 0.0000 0.0000
# 4 0.0000 0.0000 0.0000 24.7109 0.0000 0.0000
# 5 0.0000 0.0000 0.0000 0.0000 17.3015 0.0000
# 6 0.0000 0.0000 0.0000 0.0000 0.0000 34.8343
#
#
#
# Elastic Compliance Matrix: (Units=1/GPa)
#
#
# Indices 1 2 3 4 5 6 
#
# 1 0.012277 -0.002708 -0.001537 0.000000 0.000000 0.000000
# 2 -0.002708 0.008675 -0.001782 0.000000 0.000000 0.000000
# 3 -0.001537 -0.001782 0.012516 0.000000 0.000000 0.000000
# 4 0.000000 0.000000 0.000000 0.040468 0.000000 0.000000
# 5 0.000000 0.000000 0.000000 0.000000 0.057799 0.000000
# 6 0.000000 0.000000 0.000000 0.000000 0.000000 0.028707
#
#
# Mechanical properties :
#
#
# Convention : Reuss Voigt Hill
#
# Bulk Modulus (GPa) = 46.69811 49.27847 47.98829
# Shear Modulus (GPa) = 27.83430 31.08240 29.45835
#
# Velocity S-wave (km/s) = 3.67321 3.88162 3.77885
# Velocity P-wave (km/s) = 6.37389 6.63149 6.50397
#
# Compressibility (1/GPa) = 0.02141414
#
# Stress axis : x y z
#
# Youngs Moduli (GPa) = 81.45188 115.27521 79.89555
#
# Poissons Ratio (x) = 0.31213 0.12282
# Poissons Ratio (y) = 0.22055 0.14239
# Poissons Ratio (z) = 0.12522 0.20544
#
# Static dielectric constant tensor:
#      x y z
#    x 3.828770 0.000000 0.000000 
#    y 0.000000 3.910630 0.000000 
#    z 0.000000 0.000000 3.517360 
# 
# 
# High freq. dielectric constant tensor:
#      x y z
#    x 1.817980 0.000000 0.000000 
#    y 0.000000 1.820430 0.000000 
#    z 0.000000 0.000000 1.791390 
# 
# From -- ./inp_files/2427.got.cif
#   From: 2010.03.12/outbox.cif.g09.slc.cpg/sg32_2_cif.got.tgz:2427.got - 2010.04.14 01:46:39.
