data_PCOD8170756
_publ_section_title
;
Structure prediction by ZEFSAII (Michael W. Deem and Ramdas Pophale) SiO2 
 PCOD8170756
Probable space group: P N A 21
;
_chemical_formula_sum "Si O2"
_cell_formula_units_Z 24
_cell_length_a 12.598853
_cell_length_b 8.696970
_cell_length_c 11.592101
_cell_angle_alpha 90.000000
_cell_angle_beta 90.000000
_cell_angle_gamma 90.000000
_cell_volume 1270.167912
_symmetry_space_group_name_H-M "P N A 21"
_symmetry_group_IT_number 33
_symmetry_cell_setting 'orthorhombic'
loop_
_space_group_symop_operation_xyz
x,y,z
-x,-y,1/2+z
1/2-x,1/2+y,1/2+z
1/2+x,1/2-y,z
loop_
_atom_site_type_symbol
_atom_site_label
_atom_site_fract_x
_atom_site_fract_y
_atom_site_fract_z
Si Si1 0.008616 0.168730 0.645200
Si Si2 0.727849 0.771470 0.555485
Si Si3 0.838162 0.571506 0.144091
Si Si4 0.659137 0.555282 0.981461
Si Si5 0.182304 0.787918 0.304832
Si Si6 0.208773 0.988025 0.728917
O O1 0.952834 0.119811 0.526072
O O2 0.927582 0.151303 0.751690
O O3 0.048602 0.344919 0.634953
O O4 0.108783 0.060171 0.664056
O O5 0.670318 0.702393 0.442726
O O6 0.761391 0.638072 0.644286
O O7 0.647020 0.888693 0.622214
O O8 0.830369 0.871032 0.511705
O O9 0.781562 0.604175 0.267474
O O10 0.756467 0.641234 0.047371
O O11 0.667225 0.590561 0.846315
O O12 0.202469 0.613730 0.260593
#
# Coordination Sequence:
#
# PCOD8170756 Si02
#       6
#     4   4   4   4   4   4
#     4  10  19  37  57  81 112 158 187 225 285 335
#     4   9  19  39  55  82 112 146 184 237 278 328
#     4   8  18  39  55  78 117 142 183 235 277 329
#     4   8  19  39  53  83 118 138 190 239 266 343
#     4   9  19  39  57  77 118 147 181 237 279 336
#     4  10  20  37  61  81 113 151 187 233 291 323
#
# _framework density 18.895140000000001
#
# number of rings (size 3 to 8) (size 9 to 14) (size 15 to 20)
#    1.000    2.000    0.000    0.000    2.333    0.000 
#   18.000    0.000    0.000    0.000    0.000    0.000 
#    0.000    0.000    0.000    0.000    0.000    0.000 
#
# Total GULP energy -297403.105318 kJ/mol
# GULP energy per Si atom -12391.796055 kJ/mol
# Density = 1.885213 g / cm^3
# Si number density = 18.895140 Si / 1000 Ang^3
#
#
#
# Elastic Constant Matrix: (Units=GPa)
#
#
# Indices 1 2 3 4 5 6 
#
# 1 46.9191 3.6191 3.1189 0.0000 0.0000 0.0000
# 2 3.6191 56.2218 44.2340 0.0000 0.0000 0.0000
# 3 3.1189 44.2340 105.9164 0.0000 0.0000 0.0000
# 4 0.0000 0.0000 0.0000 36.6199 0.0000 0.0000
# 5 0.0000 0.0000 0.0000 0.0000 15.6603 0.0000
# 6 0.0000 0.0000 0.0000 0.0000 0.0000 15.4084
#
#
#
# Elastic Compliance Matrix: (Units=1/GPa)
#
#
# Indices 1 2 3 4 5 6 
#
# 1 0.021420 -0.001315 -0.000082 0.000000 0.000000 0.000000
# 2 -0.001315 0.026572 -0.011059 0.000000 0.000000 0.000000
# 3 -0.000082 -0.011059 0.014062 0.000000 0.000000 0.000000
# 4 0.000000 0.000000 0.000000 0.027308 0.000000 0.000000
# 5 0.000000 0.000000 0.000000 0.000000 0.063856 0.000000
# 6 0.000000 0.000000 0.000000 0.000000 0.000000 0.064900
#
#
# Mechanical properties :
#
#
# Convention : Reuss Voigt Hill
#
# Bulk Modulus (GPa) = 26.92185 34.55571 30.73878
# Shear Modulus (GPa) = 19.57648 24.07673 21.82660
#
# Velocity S-wave (km/s) = 3.22228 3.57351 3.40243
# Velocity P-wave (km/s) = 5.30312 5.94596 5.63372
#
# Compressibility (1/GPa) = 0.03714456
#
# Stress axis : x y z
#
# Youngs Moduli (GPa) = 46.68507 37.63365 71.11252
#
# Poissons Ratio (x) = 0.04947 0.00581
# Poissons Ratio (y) = 0.06137 0.78640
# Poissons Ratio (z) = 0.00382 0.41617
#
# Static dielectric constant tensor:
#      x y z
#    x 3.110640 0.000000 0.000000 
#    y 0.000000 3.326980 0.000000 
#    z 0.000000 0.000000 3.434880 
# 
# 
# High freq. dielectric constant tensor:
#      x y z
#    x 1.705370 0.000000 0.000000 
#    y 0.000000 1.716480 0.000000 
#    z 0.000000 0.000000 1.736650 
# 
# From -- ./inp_files/6680.got.cif
#   From: 2010.03.12/outbox.cif.g09.slc.cpg/sg33_4_cif.got.tgz:6680.got - 2010.04.14 01:49:19.
