data_PCOD8170706
_publ_section_title
;
Structure prediction by ZEFSAII (Michael W. Deem and Ramdas Pophale) SiO2 
 PCOD8170706
Probable space group: P N A 21
;
_chemical_formula_sum "Si O2"
_cell_formula_units_Z 32
_cell_length_a 7.646548
_cell_length_b 18.100811
_cell_length_c 11.958931
_cell_angle_alpha 90.000000
_cell_angle_beta 90.000000
_cell_angle_gamma 90.000000
_cell_volume 1655.220334
_symmetry_space_group_name_H-M "P N A 21"
_symmetry_group_IT_number 33
_symmetry_cell_setting 'orthorhombic'
loop_
_space_group_symop_operation_xyz
x,y,z
-x,-y,1/2+z
1/2-x,1/2+y,1/2+z
1/2+x,1/2-y,z
loop_
_atom_site_type_symbol
_atom_site_label
_atom_site_fract_x
_atom_site_fract_y
_atom_site_fract_z
Si Si1 0.851520 0.931663 0.745130
Si Si2 0.351521 0.568337 0.004582
Si Si3 0.669405 0.689433 0.374856
Si Si4 0.649368 0.600042 0.580773
Si Si5 0.532431 0.914950 0.607651
Si Si6 0.967568 0.414950 0.642061
Si Si7 0.850631 0.100042 0.668938
Si Si8 0.569140 0.853990 0.374856
O O1 0.677267 0.890439 0.698615
O O2 0.021087 0.897033 0.685839
O O3 0.841726 0.019062 0.723885
O O4 0.867825 0.914187 0.874856
O O5 0.341727 0.480938 0.025827
O O6 0.177268 0.609561 0.051098
O O7 0.521089 0.602967 0.063872
O O8 0.577721 0.657169 0.486743
O O9 0.577721 0.657169 0.262969
O O10 0.673877 0.777464 0.374855
O O11 0.864437 0.659685 0.374856
O O12 0.844281 0.625375 0.621775
O O13 0.617119 0.900825 0.485063
O O14 0.500000 0.000000 0.624854
O O15 0.882881 0.400826 0.764650
O O16 0.155718 0.374625 0.627937
#
# Coordination Sequence:
#
# PCOD8170706 Si02
#       8
#     4   4   4   4   4   4   4   4
#     4  10  19  33  56  82 112 146 190 224 283 332
#     4  10  19  33  56  82 112 146 190 224 283 332
#     4  10  20  36  58  82 124 137 191 233 281 345
#     4   9  19  35  51  83 115 148 178 237 279 327
#     4   9  20  35  54  80 114 144 188 233 278 334
#     4   9  20  35  54  80 114 144 188 233 278 334
#     4   9  19  35  51  83 115 148 178 237 279 327
#     4  10  22  36  58  92 110 153 183 235 297 327
#
# _framework density 19.332773
#
# number of rings (size 3 to 8) (size 9 to 14) (size 15 to 20)
#    0.000    2.500    1.250    0.000    8.750    1.000 
#   11.250    0.000    0.000    1.500    0.000    0.000 
#    0.000    0.000    0.000    0.000    0.000    0.000 
#
# Total GULP energy -396648.846004 kJ/mol
# GULP energy per Si atom -12395.276438 kJ/mol
# Density = 1.928877 g / cm^3
# Si number density = 19.332773 Si / 1000 Ang^3
#
#
#
# Elastic Constant Matrix: (Units=GPa)
#
#
# Indices 1 2 3 4 5 6 
#
# 1 103.4517 9.4497 77.7895 0.0000 0.0000 0.0000
# 2 9.4497 66.1116 47.4329 0.0000 0.0000 0.0000
# 3 77.7895 47.4329 193.7952 0.0000 0.0000 0.0000
# 4 0.0000 0.0000 0.0000 25.6357 0.0000 0.0000
# 5 0.0000 0.0000 0.0000 0.0000 32.4926 0.0000
# 6 0.0000 0.0000 0.0000 0.0000 0.0000 14.3135
#
#
#
# Elastic Compliance Matrix: (Units=1/GPa)
#
#
# Indices 1 2 3 4 5 6 
#
# 1 0.014176 0.002494 -0.006301 0.000000 0.000000 0.000000
# 2 0.002494 0.018787 -0.005599 0.000000 0.000000 0.000000
# 3 -0.006301 -0.005599 0.009060 0.000000 0.000000 0.000000
# 4 0.000000 0.000000 0.000000 0.039008 0.000000 0.000000
# 5 0.000000 0.000000 0.000000 0.000000 0.030776 0.000000
# 6 0.000000 0.000000 0.000000 0.000000 0.000000 0.069864
#
#
# Mechanical properties :
#
#
# Convention : Reuss Voigt Hill
#
# Bulk Modulus (GPa) = 43.08299 70.30031 56.69165
# Shear Modulus (GPa) = 24.01299 29.73413 26.87356
#
# Velocity S-wave (km/s) = 3.52815 3.92601 3.73238
# Velocity P-wave (km/s) = 6.23943 7.54941 6.92546
#
# Compressibility (1/GPa) = 0.02321102
#
# Stress axis : x y z
#
# Youngs Moduli (GPa) = 70.53958 53.22877 110.37755
#
# Poissons Ratio (x) = -0.13277 0.69548
# Poissons Ratio (y) = -0.17595 0.61806
# Poissons Ratio (z) = 0.44447 0.29805
#
# Static dielectric constant tensor:
#      x y z
#    x 4.027900 0.000000 0.000000 
#    y 0.000000 3.431580 0.000000 
#    z 0.000000 0.000000 3.700190 
# 
# 
# High freq. dielectric constant tensor:
#      x y z
#    x 1.765970 0.000000 0.000000 
#    y 0.000000 1.706910 0.000000 
#    z 0.000000 0.000000 1.750070 
# 
# From -- ./inp_files/3476.got.cif
#   From: 2010.03.12/outbox.cif.g09.slc.cpg/sg33_2_cif.got.tgz:3476.got - 2010.04.14 01:49:19.
