data_PCOD8170319
_publ_section_title
;
Structure prediction by ZEFSAII (Michael W. Deem and Ramdas Pophale) SiO2 
 PCOD8170319
Probable space group: P M N 21
;
_chemical_formula_sum "Si O2"
_cell_formula_units_Z 24
_cell_length_a 19.022054
_cell_length_b 10.208204
_cell_length_c 5.454063
_cell_angle_alpha 90.000000
_cell_angle_beta 90.000000
_cell_angle_gamma 90.000000
_cell_volume 1059.075450
_symmetry_space_group_name_H-M "P M N 21"
_symmetry_group_IT_number 31
_symmetry_cell_setting 'orthorhombic'
loop_
_space_group_symop_operation_xyz
x,y,z
1/2-x,-y,1/2+z
-x,y,z
1/2+x,-y,1/2+z
loop_
_atom_site_type_symbol
_atom_site_label
_atom_site_fract_x
_atom_site_fract_y
_atom_site_fract_z
Si Si1 0.660636 0.473801 0.544370
Si Si2 0.077143 0.744412 0.836220
Si Si3 0.921588 0.013460 0.108135
Si Si4 0.178981 0.390656 0.542780
Si Si5 0.827059 0.877650 0.500493
Si Si6 0.684413 0.868579 0.273354
O O1 0.608105 0.349282 0.547675
O O2 0.739310 0.422642 0.539819
O O3 0.644037 0.551910 0.291789
O O4 0.644115 0.558004 0.789768
O O5 0.132027 0.751223 0.609429
O O6 0.000000 0.694640 0.752425
O O7 0.070646 0.892100 0.926284
O O8 0.880412 0.965091 0.344758
O O9 0.000000 0.064079 0.179835
O O10 0.878222 0.129650 0.974187
O O11 0.165706 0.233080 0.555160
O O12 0.758708 0.813730 0.377026
O O13 0.798628 0.981907 0.699353
#
# Coordination Sequence:
#
# PCOD8170319 Si02
#       6
#     4   4   4   4   4   4
#     4  10  23  41  64  96 125 178 223 280 343 399
#     4  10  23  41  65  95 131 172 227 289 349 413
#     4  10  22  40  62  94 132 171 215 282 359 413
#     4  10  24  40  65  93 133 170 224 285 337 398
#     4  11  22  37  66 100 127 175 226 289 353 413
#     4  11  23  37  64  98 131 172 231 283 344 420
#
# _framework density 22.661272
#
# number of rings (size 3 to 8) (size 9 to 14) (size 15 to 20)
#    0.000    1.667    1.667    1.500   14.000    0.667 
#    0.000    1.667    0.000    0.000    0.000    0.000 
#    0.000    0.000    0.000    0.000    0.000    0.000 
#
# Total GULP energy -297504.038359 kJ/mol
# GULP energy per Si atom -12396.001598 kJ/mol
# Density = 2.260969 g / cm^3
# Si number density = 22.661272 Si / 1000 Ang^3
#
#
#
# Elastic Constant Matrix: (Units=GPa)
#
#
# Indices 1 2 3 4 5 6 
#
# 1 140.7039 26.8416 55.5597 0.0000 0.0000 0.0000
# 2 26.8416 83.3665 46.3832 0.0000 0.0000 0.0000
# 3 55.5597 46.3832 121.8619 0.0000 0.0000 0.0000
# 4 0.0000 0.0000 0.0000 45.6477 0.0000 0.0000
# 5 0.0000 0.0000 0.0000 0.0000 26.0684 0.0000
# 6 0.0000 0.0000 0.0000 0.0000 0.0000 9.5129
#
#
#
# Elastic Compliance Matrix: (Units=1/GPa)
#
#
# Indices 1 2 3 4 5 6 
#
# 1 0.008705 -0.000754 -0.003682 0.000000 0.000000 0.000000
# 2 -0.000754 0.015283 -0.005473 0.000000 0.000000 0.000000
# 3 -0.003682 -0.005473 0.011968 0.000000 0.000000 0.000000
# 4 0.000000 0.000000 0.000000 0.021907 0.000000 0.000000
# 5 0.000000 0.000000 0.000000 0.000000 0.038361 0.000000
# 6 0.000000 0.000000 0.000000 0.000000 0.000000 0.105121
#
#
# Mechanical properties :
#
#
# Convention : Reuss Voigt Hill
#
# Bulk Modulus (GPa) = 61.96742 67.05570 64.51156
# Shear Modulus (GPa) = 22.07100 30.72232 26.39666
#
# Velocity S-wave (km/s) = 3.12421 3.68600 3.41667
# Velocity P-wave (km/s) = 6.35757 6.91160 6.64036
#
# Compressibility (1/GPa) = 0.01613751
#
# Stress axis : x y z
#
# Youngs Moduli (GPa) = 114.87940 65.43104 83.55774
#
# Poissons Ratio (x) = 0.04936 0.30763
# Poissons Ratio (y) = 0.08666 0.45733
# Poissons Ratio (z) = 0.42294 0.35812
#
# Static dielectric constant tensor:
#      x y z
#    x 4.203210 0.000000 0.000000 
#    y 0.000000 3.969330 0.000000 
#    z 0.000000 0.000000 4.211250 
# 
# 
# High freq. dielectric constant tensor:
#      x y z
#    x 1.878110 0.000000 0.000000 
#    y 0.000000 1.880580 0.000000 
#    z 0.000000 0.000000 1.892880 
# 
# From -- ./inp_files/810.got.cif
#   From: 2010.03.12/outbox.cif.g09.slc.cpg/sg31_1_cif.got.tgz:810.got - 2010.04.14 01:42:59.
