data_PCOD8170323
_publ_section_title
;
Structure prediction by ZEFSAII (Michael W. Deem and Ramdas Pophale) SiO2 
 PCOD8170323
Probable space group: P M N 21
;
_chemical_formula_sum "Si O2"
_cell_formula_units_Z 14
_cell_length_a 10.224934
_cell_length_b 8.690401
_cell_length_c 8.246515
_cell_angle_alpha 90.000000
_cell_angle_beta 90.000000
_cell_angle_gamma 90.000000
_cell_volume 732.775235
_symmetry_space_group_name_H-M "P M N 21"
_symmetry_group_IT_number 31
_symmetry_cell_setting 'orthorhombic'
loop_
_space_group_symop_operation_xyz
x,y,z
1/2-x,-y,1/2+z
-x,y,z
1/2+x,-y,1/2+z
loop_
_atom_site_type_symbol
_atom_site_label
_atom_site_fract_x
_atom_site_fract_y
_atom_site_fract_z
Si Si1 0.743482 0.723360 0.216590
Si Si2 0.644654 0.466317 0.434261
Si Si3 0.500000 0.159022 0.863675
Si Si4 0.000000 0.731717 0.703832
Si Si5 0.500000 0.933992 0.135242
O O1 0.706767 0.626191 0.375724
O O2 0.873415 0.821844 0.250568
O O3 0.628363 0.837767 0.171307
O O4 0.762237 0.607691 0.067480
O O5 0.500000 0.499167 0.509510
O O6 0.628785 0.349077 0.281041
O O7 0.500000 0.287502 0.008108
O O8 0.500000 0.989175 0.946102
O O9 0.000000 0.913682 0.749219
#
# Coordination Sequence:
#
# PCOD8170323 Si02
#       5
#     4   4   2   2   2
#     4  12  22  44  66  96 129 171 216 262 335 372
#     4  10  22  40  65  96 123 172 212 268 308 391
#     4  10  23  38  67  92 129 171 208 272 313 391
#     4   8  20  40  59  97 126 164 210 267 307 388
#     4  10  25  38  66  91 133 165 208 271 322 385
#
# _framework density 19.105449
#
# number of rings (size 3 to 8) (size 9 to 14) (size 15 to 20)
#    1.714    0.000    2.857    1.714    4.000    1.143 
#    0.000    0.000    0.000    0.000    0.000    0.000 
#    0.000    0.000    0.000    0.000    0.000    0.000 
#
# Total GULP energy -173508.585355 kJ/mol
# GULP energy per Si atom -12393.470382 kJ/mol
# Density = 1.906196 g / cm^3
# Si number density = 19.105449 Si / 1000 Ang^3
#
#
#
# Elastic Constant Matrix: (Units=GPa)
#
#
# Indices 1 2 3 4 5 6 
#
# 1 140.8907 62.9888 27.7726 0.0000 0.0000 0.0000
# 2 62.9888 106.8748 25.7972 0.0000 0.0000 0.0000
# 3 27.7726 25.7972 56.9730 0.0000 0.0000 0.0000
# 4 0.0000 0.0000 0.0000 43.2940 0.0000 0.0000
# 5 0.0000 0.0000 0.0000 0.0000 28.8224 0.0000
# 6 0.0000 0.0000 0.0000 0.0000 0.0000 15.6191
#
#
#
# Elastic Compliance Matrix: (Units=1/GPa)
#
#
# Indices 1 2 3 4 5 6 
#
# 1 0.009935 -0.005261 -0.002461 0.000000 0.000000 0.000000
# 2 -0.005261 0.013291 -0.003453 0.000000 0.000000 0.000000
# 3 -0.002461 -0.003453 0.020315 0.000000 0.000000 0.000000
# 4 0.000000 0.000000 0.000000 0.023098 0.000000 0.000000
# 5 0.000000 0.000000 0.000000 0.000000 0.034695 0.000000
# 6 0.000000 0.000000 0.000000 0.000000 0.000000 0.064024
#
#
# Mechanical properties :
#
#
# Convention : Reuss Voigt Hill
#
# Bulk Modulus (GPa) = 47.19081 59.76176 53.47629
# Shear Modulus (GPa) = 25.67083 30.09242 27.88162
#
# Velocity S-wave (km/s) = 3.66954 3.97302 3.82429
# Velocity P-wave (km/s) = 6.53513 7.23840 6.89573
#
# Compressibility (1/GPa) = 0.02119056
#
# Stress axis : x y z
#
# Youngs Moduli (GPa) = 100.65411 75.23734 49.22375
#
# Poissons Ratio (x) = 0.39586 0.12112
# Poissons Ratio (y) = 0.52959 0.16999
# Poissons Ratio (z) = 0.24767 0.25983
#
# Static dielectric constant tensor:
#      x y z
#    x 3.349130 0.000000 0.000000 
#    y 0.000000 3.343020 0.000000 
#    z 0.000000 0.000000 3.263180 
# 
# 
# High freq. dielectric constant tensor:
#      x y z
#    x 1.744530 0.000000 0.000000 
#    y 0.000000 1.734770 0.000000 
#    z 0.000000 0.000000 1.730340 
# 
# From -- ./inp_files/1492.got.cif
#   From: 2010.03.12/outbox.cif.g09.slc.cpg/sg31_1_cif.got.tgz:1492.got - 2010.04.14 01:42:59.
