data_PCOD8170562
_publ_section_title
;
Structure prediction by ZEFSAII (Michael W. Deem and Ramdas Pophale) SiO2 
 PCOD8170562
Probable space group: P B A 2
;
_chemical_formula_sum "Si O2"
_cell_formula_units_Z 30
_cell_length_a 5.147788
_cell_length_b 32.866639
_cell_length_c 8.149332
_cell_angle_alpha 90.000000
_cell_angle_beta 90.000000
_cell_angle_gamma 90.000000
_cell_volume 1378.789473
_symmetry_space_group_name_H-M "P B A 2"
_symmetry_group_IT_number 32
_symmetry_cell_setting 'orthorhombic'
loop_
_space_group_symop_operation_xyz
x,y,z
-x,-y,z
1/2-x,1/2+y,z
1/2+x,1/2-y,z
loop_
_atom_site_type_symbol
_atom_site_label
_atom_site_fract_x
_atom_site_fract_y
_atom_site_fract_z
Si Si1 0.247229 0.480056 0.650330
Si Si2 0.920063 0.770685 0.639649
Si Si3 0.996830 0.413255 0.129417
Si Si4 0.419089 0.638768 0.625778
Si Si5 0.997555 0.132682 0.008798
Si Si6 0.970771 0.772793 0.026961
Si Si7 0.500000 0.000000 0.967111
Si Si8 0.902393 0.600510 0.501626
O O1 0.500000 0.500000 0.569205
O O2 0.233713 0.432336 0.621101
O O3 0.000000 0.500000 0.558537
O O4 0.243806 0.490823 0.845530
O O5 0.699666 0.741089 0.564961
O O6 0.828192 0.815535 0.592541
O O7 0.954124 0.766341 0.833541
O O8 0.086362 0.414573 0.316785
O O9 0.219370 0.388933 0.031771
O O10 0.723494 0.390194 0.108790
O O11 0.954891 0.459952 0.075644
O O12 0.446088 0.629805 0.817082
O O13 0.691969 0.636233 0.526245
O O14 0.193045 0.609753 0.559281
O O15 0.991311 0.179506 0.070543
O O16 0.707463 0.753722 0.102807
#
# Coordination Sequence:
#
# PCOD8170562 Si02
#       8
#     4   4   4   4   4   4   2   4
#     4  10  23  41  67  92 119 158 204 269 300 380
#     4   9  17  31  56  93 123 153 206 269 308 350
#     4  12  27  42  64  94 135 168 209 266 321 378
#     4  11  22  40  68  92 126 171 215 257 314 379
#     4  11  23  42  66  97 128 169 216 267 314 375
#     4   9  17  32  60  93 124 156 207 265 316 362
#     4  10  26  42  70  92 126 160 222 260 324 364
#     4  12  25  43  63  94 129 169 207 258 322 382
#
# _framework density 21.758215
#
# number of rings (size 3 to 8) (size 9 to 14) (size 15 to 20)
#    0.400    1.067    0.000    5.600    4.667    4.267 
#    0.000    0.000    0.000   16.000    0.000    0.000 
#    0.000    0.000    0.000    0.000    0.000    0.000 
#
# Total GULP energy -371845.029170 kJ/mol
# GULP energy per Si atom -12394.834306 kJ/mol
# Density = 2.170869 g / cm^3
# Si number density = 21.758215 Si / 1000 Ang^3
#
#
#
# Elastic Constant Matrix: (Units=GPa)
#
#
# Indices 1 2 3 4 5 6 
#
# 1 129.6242 37.6915 18.6319 0.0000 0.0000 0.0000
# 2 37.6915 128.4398 37.6687 0.0000 0.0000 0.0000
# 3 18.6319 37.6687 70.4324 0.0000 0.0000 0.0000
# 4 0.0000 0.0000 0.0000 6.1633 0.0000 0.0000
# 5 0.0000 0.0000 0.0000 0.0000 22.7300 0.0000
# 6 0.0000 0.0000 0.0000 0.0000 0.0000 36.6183
#
#
#
# Elastic Compliance Matrix: (Units=1/GPa)
#
#
# Indices 1 2 3 4 5 6 
#
# 1 0.008504 -0.002177 -0.001085 0.000000 0.000000 0.000000
# 2 -0.002177 0.009792 -0.004661 0.000000 0.000000 0.000000
# 3 -0.001085 -0.004661 0.016978 0.000000 0.000000 0.000000
# 4 0.000000 0.000000 0.000000 0.162250 0.000000 0.000000
# 5 0.000000 0.000000 0.000000 0.000000 0.043995 0.000000
# 6 0.000000 0.000000 0.000000 0.000000 0.000000 0.027309
#
#
# Mechanical properties :
#
#
# Convention : Reuss Voigt Hill
#
# Bulk Modulus (GPa) = 51.47535 57.38674 54.43104
# Shear Modulus (GPa) = 17.17335 28.73594 22.95464
#
# Velocity S-wave (km/s) = 2.81246 3.63808 3.25158
# Velocity P-wave (km/s) = 5.85285 6.63924 6.25841
#
# Compressibility (1/GPa) = 0.01942677
#
# Stress axis : x y z
#
# Youngs Moduli (GPa) = 117.59642 102.12860 58.90058
#
# Poissons Ratio (x) = 0.22236 0.06391
# Poissons Ratio (y) = 0.25603 0.27452
# Poissons Ratio (z) = 0.12760 0.47600
#
# Static dielectric constant tensor:
#      x y z
#    x 4.173500 0.000000 0.000000 
#    y 0.000000 4.020370 0.000000 
#    z 0.000000 0.000000 3.536860 
# 
# 
# High freq. dielectric constant tensor:
#      x y z
#    x 1.871190 0.000000 0.000000 
#    y 0.000000 1.866260 0.000000 
#    z 0.000000 0.000000 1.820150 
# 
# From -- ./inp_files/2056.got.cif
#   From: 2010.03.12/outbox.cif.g09.slc.cpg/sg32_2_cif.got.tgz:2056.got - 2010.04.14 01:46:39.
