data_PCOD8170609
_publ_section_title
;
Structure prediction by ZEFSAII (Michael W. Deem and Ramdas Pophale) SiO2 
 PCOD8170609
Probable space group: P B A 2
;
_chemical_formula_sum "Si O2"
_cell_formula_units_Z 26
_cell_length_a 11.379649
_cell_length_b 9.002735
_cell_length_c 10.121079
_cell_angle_alpha 90.000000
_cell_angle_beta 90.000000
_cell_angle_gamma 90.000000
_cell_volume 1036.883940
_symmetry_space_group_name_H-M "P B A 2"
_symmetry_group_IT_number 32
_symmetry_cell_setting 'orthorhombic'
loop_
_space_group_symop_operation_xyz
x,y,z
-x,-y,z
1/2-x,1/2+y,z
1/2+x,1/2-y,z
loop_
_atom_site_type_symbol
_atom_site_label
_atom_site_fract_x
_atom_site_fract_y
_atom_site_fract_z
Si Si1 0.793230 0.683461 0.458400
Si Si2 0.703603 0.034649 0.887670
Si Si3 0.381279 0.417309 0.669170
Si Si4 0.034738 0.341306 0.682997
Si Si5 0.647153 0.750989 0.041996
Si Si6 0.249827 0.064378 0.277501
Si Si7 0.000000 0.000000 0.144269
O O1 0.694049 0.594066 0.537681
O O2 0.898418 0.727207 0.557103
O O3 0.749782 0.841950 0.411470
O O4 0.818498 0.585246 0.325268
O O5 0.811862 0.000719 0.787719
O O6 0.612047 0.142000 0.814943
O O7 0.642070 0.878507 0.928221
O O8 0.750867 0.127587 0.013965
O O9 0.500000 0.500000 0.634928
O O10 0.419190 0.253098 0.719241
O O11 0.000000 0.500000 0.628201
O O12 0.674344 0.843442 0.172939
O O13 0.527919 0.650478 0.057383
O O14 0.116503 0.030315 0.230303
#
# Coordination Sequence:
#
# PCOD8170609 Si02
#       7
#     4   4   4   4   4   4   2
#     4  11  25  43  72 106 150 188 243 309 360 437
#     4  11  25  46  73 107 149 188 247 318 365 445
#     4  11  24  43  74 109 147 199 241 299 377 441
#     4  11  24  43  69 107 143 191 242 294 373 443
#     4  12  25  49  74 106 148 192 255 312 372 444
#     4  12  25  47  71 106 148 193 249 309 361 438
#     4  12  28  46  78 106 142 208 248 292 396 438
#
# _framework density 25.075132
#
# number of rings (size 3 to 8) (size 9 to 14) (size 15 to 20)
#    0.000    0.615    3.077    3.692    4.308    8.615 
#    0.000    3.077    0.000    0.000    0.000    0.000 
#    0.000    0.000    0.000    0.000    0.000    0.000 
#
# Total GULP energy -322221.605619 kJ/mol
# GULP energy per Si atom -12393.138678 kJ/mol
# Density = 2.501806 g / cm^3
# Si number density = 25.075132 Si / 1000 Ang^3
#
#
#
# Elastic Constant Matrix: (Units=GPa)
#
#
# Indices 1 2 3 4 5 6 
#
# 1 65.9745 14.6138 36.4592 0.0000 0.0000 0.0000
# 2 14.6138 118.3127 33.4301 0.0000 0.0000 0.0000
# 3 36.4592 33.4301 98.2124 0.0000 0.0000 0.0000
# 4 0.0000 0.0000 0.0000 46.9510 0.0000 0.0000
# 5 0.0000 0.0000 0.0000 0.0000 31.6149 0.0000
# 6 0.0000 0.0000 0.0000 0.0000 0.0000 55.1479
#
#
#
# Elastic Compliance Matrix: (Units=1/GPa)
#
#
# Indices 1 2 3 4 5 6 
#
# 1 0.019086 -0.000393 -0.006951 0.000000 0.000000 0.000000
# 2 -0.000393 0.009360 -0.003040 0.000000 0.000000 0.000000
# 3 -0.006951 -0.003040 0.013797 0.000000 0.000000 0.000000
# 4 0.000000 0.000000 0.000000 0.021299 0.000000 0.000000
# 5 0.000000 0.000000 0.000000 0.000000 0.031631 0.000000
# 6 0.000000 0.000000 0.000000 0.000000 0.000000 0.018133
#
#
# Mechanical properties :
#
#
# Convention : Reuss Voigt Hill
#
# Bulk Modulus (GPa) = 46.56835 50.16734 48.36784
# Shear Modulus (GPa) = 35.40256 39.94252 37.67254
#
# Velocity S-wave (km/s) = 3.76155 3.99546 3.88027
# Velocity P-wave (km/s) = 6.12189 6.42925 6.27745
#
# Compressibility (1/GPa) = 0.02147381
#
# Stress axis : x y z
#
# Youngs Moduli (GPa) = 52.39438 106.84098 72.47790
#
# Poissons Ratio (x) = 0.04202 0.50382
# Poissons Ratio (y) = 0.02061 0.22033
# Poissons Ratio (z) = 0.36421 0.32479
#
# Static dielectric constant tensor:
#      x y z
#    x 4.015570 0.000000 0.000000 
#    y 0.000000 4.419010 0.000000 
#    z 0.000000 0.000000 4.477960 
# 
# 
# High freq. dielectric constant tensor:
#      x y z
#    x 1.976920 0.000000 0.000000 
#    y 0.000000 2.025150 0.000000 
#    z 0.000000 0.000000 2.010010 
# 
# From -- ./inp_files/3837.got.cif
#   From: 2010.03.12/outbox.cif.g09.slc.cpg/sg32_2_cif.got.tgz:3837.got - 2010.04.14 01:46:39.
