data_PCOD8170309
_publ_section_title
;
Structure prediction by ZEFSAII (Michael W. Deem and Ramdas Pophale) SiO2 
 PCOD8170309
Probable space group: P M N 21
;
_chemical_formula_sum "Si O2"
_cell_formula_units_Z 24
_cell_length_a 18.532789
_cell_length_b 9.310833
_cell_length_c 7.263170
_cell_angle_alpha 90.000000
_cell_angle_beta 90.000000
_cell_angle_gamma 90.000000
_cell_volume 1253.301408
_symmetry_space_group_name_H-M "P M N 21"
_symmetry_group_IT_number 31
_symmetry_cell_setting 'orthorhombic'
loop_
_space_group_symop_operation_xyz
x,y,z
1/2-x,-y,1/2+z
-x,y,z
1/2+x,-y,1/2+z
loop_
_atom_site_type_symbol
_atom_site_label
_atom_site_fract_x
_atom_site_fract_y
_atom_site_fract_z
Si Si1 0.079847 0.631124 0.225410
Si Si2 0.810700 0.866444 0.210345
Si Si3 0.281108 0.836821 0.556300
Si Si4 0.774148 0.317835 0.426427
Si Si5 0.581768 0.563293 0.053184
Si Si6 0.341113 0.551338 0.430557
O O1 0.112422 0.789414 0.208762
O O2 0.080132 0.584287 0.438443
O O3 0.000000 0.640420 0.143783
O O4 0.122616 0.511555 0.111766
O O5 0.783453 0.883479 0.420355
O O6 0.823632 0.019300 0.113021
O O7 0.753641 0.768059 0.102712
O O8 0.250802 0.765670 0.742515
O O9 0.332941 0.722524 0.455428
O O10 0.860684 0.330041 0.454622
O O11 0.737509 0.475979 0.409281
O O12 0.500000 0.629966 0.057289
O O13 0.608131 0.522175 0.256487
#
# Coordination Sequence:
#
# PCOD8170309 Si02
#       6
#     4   4   4   4   4   4
#     4  10  22  40  59  87 123 162 203 251 310 369
#     4  11  23  38  61  89 123 161 206 251 304 369
#     4  12  22  37  62  91 121 155 207 256 302 359
#     4  11  21  38  60  91 118 159 207 254 301 364
#     4  11  22  37  60  92 122 153 203 262 312 358
#     4  11  21  36  65  90 119 158 208 260 304 361
#
# _framework density 19.149425999999998
#
# number of rings (size 3 to 8) (size 9 to 14) (size 15 to 20)
#    0.000    1.000    5.000    3.500    0.000    0.000 
#    0.000    2.500    0.000    0.000    0.000    0.000 
#    0.000    0.000    0.000    0.000    0.000    0.000 
#
# Total GULP energy -297562.208933 kJ/mol
# GULP energy per Si atom -12398.425372 kJ/mol
# Density = 1.910584 g / cm^3
# Si number density = 19.149426 Si / 1000 Ang^3
#
#
#
# Elastic Constant Matrix: (Units=GPa)
#
#
# Indices 1 2 3 4 5 6 
#
# 1 117.2743 41.7774 26.8653 0.0000 0.0000 0.0000
# 2 41.7774 125.1907 26.1504 0.0000 0.0000 0.0000
# 3 26.8653 26.1504 107.5195 0.0000 0.0000 0.0000
# 4 0.0000 0.0000 0.0000 31.8584 0.0000 0.0000
# 5 0.0000 0.0000 0.0000 0.0000 24.5654 0.0000
# 6 0.0000 0.0000 0.0000 0.0000 0.0000 15.1843
#
#
#
# Elastic Compliance Matrix: (Units=1/GPa)
#
#
# Indices 1 2 3 4 5 6 
#
# 1 0.009989 -0.002963 -0.001775 0.000000 0.000000 0.000000
# 2 -0.002963 0.009294 -0.001520 0.000000 0.000000 0.000000
# 3 -0.001775 -0.001520 0.010114 0.000000 0.000000 0.000000
# 4 0.000000 0.000000 0.000000 0.031389 0.000000 0.000000
# 5 0.000000 0.000000 0.000000 0.000000 0.040708 0.000000
# 6 0.000000 0.000000 0.000000 0.000000 0.000000 0.065858
#
#
# Mechanical properties :
#
#
# Convention : Reuss Voigt Hill
#
# Bulk Modulus (GPa) = 59.23914 59.95231 59.59572
# Shear Modulus (GPa) = 26.95497 31.33437 29.14467
#
# Velocity S-wave (km/s) = 3.75589 4.04952 3.90546
# Velocity P-wave (km/s) = 7.05771 7.29660 7.17815
#
# Compressibility (1/GPa) = 0.01688073
#
# Stress axis : x y z
#
# Youngs Moduli (GPa) = 100.10892 107.59607 98.87309
#
# Poissons Ratio (x) = 0.31877 0.17554
# Poissons Ratio (y) = 0.29659 0.15031
# Poissons Ratio (z) = 0.17773 0.16357
#
# Static dielectric constant tensor:
#      x y z
#    x 3.428380 0.000000 0.000000 
#    y 0.000000 3.431850 0.000000 
#    z 0.000000 0.000000 3.756650 
# 
# 
# High freq. dielectric constant tensor:
#      x y z
#    x 1.724830 0.000000 0.000000 
#    y 0.000000 1.730650 0.000000 
#    z 0.000000 0.000000 1.770260 
# 
# From -- ./inp_files/2772.got.cif
#   From: 2010.03.12/outbox.cif.g09.slc.cpg/sg31_2_cif.got.tgz:2772.got - 2010.04.14 01:42:59.
