data_PCOD8170530
_publ_section_title
;
Structure prediction by ZEFSAII (Michael W. Deem and Ramdas Pophale) SiO2 
 PCOD8170530
Probable space group: P B A 2
;
_chemical_formula_sum "Si O2"
_cell_formula_units_Z 28
_cell_length_a 15.334562
_cell_length_b 14.848878
_cell_length_c 5.265092
_cell_angle_alpha 90.000000
_cell_angle_beta 90.000000
_cell_angle_gamma 90.000000
_cell_volume 1198.866926
_symmetry_space_group_name_H-M "P B A 2"
_symmetry_group_IT_number 32
_symmetry_cell_setting 'orthorhombic'
loop_
_space_group_symop_operation_xyz
x,y,z
-x,-y,z
1/2-x,1/2+y,z
1/2+x,1/2-y,z
loop_
_atom_site_type_symbol
_atom_site_label
_atom_site_fract_x
_atom_site_fract_y
_atom_site_fract_z
Si Si1 0.500000 0.500000 0.369720
Si Si2 0.845384 0.033497 0.742374
Si Si3 0.500000 0.000000 0.504783
Si Si4 0.915304 0.869504 0.030628
Si Si5 0.575236 0.719777 0.816913
Si Si6 0.945310 0.321053 0.304185
Si Si7 0.645584 0.202015 0.220123
Si Si8 0.334134 0.902505 0.707202
O O1 0.589666 0.512967 0.515723
O O2 0.509476 0.406325 0.218532
O O3 0.860136 0.135026 0.840973
O O4 0.743020 0.024346 0.672092
O O5 0.864784 0.958685 0.950162
O O6 0.555878 0.930189 0.332806
O O7 0.430429 0.945287 0.675618
O O8 0.973155 0.814806 0.820253
O O9 0.837818 0.806947 0.148604
O O10 0.592324 0.773940 0.556865
O O11 0.603439 0.786294 0.049785
O O12 0.043020 0.292436 0.256230
O O13 0.686611 0.171486 0.487162
O O14 0.672767 0.137448 0.989384
#
# Coordination Sequence:
#
# PCOD8170530 Si02
#       8
#     2   4   2   4   4   4   4   4
#     4  12  22  40  72 106 150 178 226 292 354 436
#     4  12  25  41  68 108 145 182 232 294 359 418
#     4  10  22  50  70 100 132 192 244 282 348 396
#     4  11  22  39  72  99 138 189 219 278 354 432
#     4  11  21  40  64 106 133 174 224 276 363 411
#     4  10  22  38  74  93 132 179 231 287 332 422
#     4  10  23  44  67  97 132 186 232 279 356 402
#     4  11  27  45  71  96 144 185 237 301 335 418
#
# _framework density 23.355385999999999
#
# number of rings (size 3 to 8) (size 9 to 14) (size 15 to 20)
#    0.000    1.143    2.857    5.143    4.000    5.143 
#    2.571    1.429    6.286    0.000    0.000    0.000 
#    0.000    0.000    0.000    0.000    0.000    0.000 
#
# Total GULP energy -346939.739282 kJ/mol
# GULP energy per Si atom -12390.704974 kJ/mol
# Density = 2.330223 g / cm^3
# Si number density = 23.355386 Si / 1000 Ang^3
#
#
#
# Elastic Constant Matrix: (Units=GPa)
#
#
# Indices 1 2 3 4 5 6 
#
# 1 77.9024 13.3069 15.4177 0.0000 0.0000 0.0000
# 2 13.3069 135.4214 40.1061 0.0000 0.0000 0.0000
# 3 15.4177 40.1061 131.6146 0.0000 0.0000 0.0000
# 4 0.0000 0.0000 0.0000 -11.1377 0.0000 0.0000
# 5 0.0000 0.0000 0.0000 0.0000 200.1723 0.0000
# 6 0.0000 0.0000 0.0000 0.0000 0.0000 20.2067
#
#
#
# Elastic Compliance Matrix: (Units=1/GPa)
#
#
# Indices 1 2 3 4 5 6 
#
# 1 0.013246 -0.000926 -0.001270 0.000000 0.000000 0.000000
# 2 -0.000926 0.008182 -0.002385 0.000000 0.000000 0.000000
# 3 -0.001270 -0.002385 0.008473 0.000000 0.000000 0.000000
# 4 0.000000 0.000000 0.000000 -0.089786 0.000000 0.000000
# 5 0.000000 0.000000 0.000000 0.000000 0.004996 0.000000
# 6 0.000000 0.000000 0.000000 0.000000 0.000000 0.049489
#
#
# Mechanical properties :
#
#
# Convention : Reuss Voigt Hill
#
# Bulk Modulus (GPa) = 48.21355 53.62221 50.91788
# Shear Modulus (GPa) = 468.46610 60.25544 264.36077
#
# Velocity S-wave (km/s) = 14.17805 5.08482 10.65064
# Velocity P-wave (km/s) = 16.99150 7.58175 13.15663
#
# Compressibility (1/GPa) = 0.02074106
#
# Stress axis : x y z
#
# Youngs Moduli (GPa) = 75.49477 122.22622 118.01728
#
# Poissons Ratio (x) = 0.11313 0.14984
# Poissons Ratio (y) = 0.06988 0.28143
# Poissons Ratio (z) = 0.09585 0.29147
#
# Static dielectric constant tensor:
#      x y z
#    x 3.808170 0.000000 0.000000 
#    y 0.000000 5.222630 0.000000 
#    z 0.000000 0.000000 4.505750 
# 
# 
# High freq. dielectric constant tensor:
#      x y z
#    x 1.888780 0.000000 0.000000 
#    y 0.000000 1.936820 0.000000 
#    z 0.000000 0.000000 1.925820 
# 
# From -- ./inp_files/1458.got.cif
#   From: 2010.03.12/outbox.cif.g09.slc.cpg/sg32_1_cif.got.tgz:1458.got - 2010.04.14 01:46:39.
