data_PCOD8170535
_publ_section_title
;
Structure prediction by ZEFSAII (Michael W. Deem and Ramdas Pophale) SiO2 
 PCOD8170535
Probable space group: P B A 2
;
_chemical_formula_sum "Si O2"
_cell_formula_units_Z 28
_cell_length_a 15.380557
_cell_length_b 15.468337
_cell_length_c 5.223600
_cell_angle_alpha 90.000000
_cell_angle_beta 90.000000
_cell_angle_gamma 90.000000
_cell_volume 1242.755237
_symmetry_space_group_name_H-M "P B A 2"
_symmetry_group_IT_number 32
_symmetry_cell_setting 'orthorhombic'
loop_
_space_group_symop_operation_xyz
x,y,z
-x,-y,z
1/2-x,1/2+y,z
1/2+x,1/2-y,z
loop_
_atom_site_type_symbol
_atom_site_label
_atom_site_fract_x
_atom_site_fract_y
_atom_site_fract_z
Si Si1 0.318156 0.496747 0.216060
Si Si2 0.515074 0.785349 0.287888
Si Si3 0.500000 0.000000 0.905999
Si Si4 0.894520 0.596022 0.544888
Si Si5 0.144788 0.571961 0.269514
Si Si6 0.542160 0.683352 0.775837
Si Si7 0.000000 0.000000 0.982713
Si Si8 0.714450 0.610752 0.719175
O O1 0.248386 0.576553 0.205728
O O2 0.416761 0.525198 0.157224
O O3 0.318814 0.452762 0.494163
O O4 0.282878 0.432231 0.998582
O O5 0.436320 0.855882 0.297520
O O6 0.608449 0.832558 0.331380
O O7 0.496806 0.719417 0.520987
O O8 0.510226 0.735705 0.021989
O O9 0.473230 0.914032 0.745757
O O10 0.585049 0.968694 0.050886
O O11 0.863811 0.497159 0.498874
O O12 0.810534 0.647320 0.652313
O O13 0.646694 0.690448 0.739311
O O14 0.519691 0.582105 0.804454
#
# Coordination Sequence:
#
# PCOD8170535 Si02
#       8
#     4   4   2   4   4   4   2   4
#     4  10  22  39  72  94 124 172 236 284 317 413
#     4  12  24  41  64 103 142 166 222 283 353 389
#     4  12  16  36  66  98 134 176 212 250 326 410
#     4  11  22  37  68  97 139 180 213 263 340 437
#     4  11  22  37  64 104 137 178 213 266 343 424
#     4  11  26  44  67  92 131 182 225 300 327 394
#     4  10  24  52  70  92 126 186 252 274 344 392
#     4  10  22  42  64  96 125 179 225 267 347 396
#
# _framework density 22.530584000000001
#
# number of rings (size 3 to 8) (size 9 to 14) (size 15 to 20)
#    0.000    1.143    4.286    2.571    0.000    5.143 
#    5.143    0.000    0.000    0.000    0.000    0.000 
#    0.000    0.000    0.000    0.000    0.000    0.000 
#
# Total GULP energy -346970.010396 kJ/mol
# GULP energy per Si atom -12391.786086 kJ/mol
# Density = 2.247930 g / cm^3
# Si number density = 22.530584 Si / 1000 Ang^3
#
#
#
# Elastic Constant Matrix: (Units=GPa)
#
#
# Indices 1 2 3 4 5 6 
#
# 1 153.9146 19.5136 11.9863 0.0000 0.0000 0.0000
# 2 19.5136 78.5900 24.5460 0.0000 0.0000 0.0000
# 3 11.9863 24.5460 85.0165 0.0000 0.0000 0.0000
# 4 0.0000 0.0000 0.0000 27.6070 0.0000 0.0000
# 5 0.0000 0.0000 0.0000 0.0000 30.7683 0.0000
# 6 0.0000 0.0000 0.0000 0.0000 0.0000 26.8835
#
#
#
# Elastic Compliance Matrix: (Units=1/GPa)
#
#
# Indices 1 2 3 4 5 6 
#
# 1 0.006729 -0.001511 -0.000513 0.000000 0.000000 0.000000
# 2 -0.001511 0.014325 -0.003923 0.000000 0.000000 0.000000
# 3 -0.000513 -0.003923 0.012967 0.000000 0.000000 0.000000
# 4 0.000000 0.000000 0.000000 0.036223 0.000000 0.000000
# 5 0.000000 0.000000 0.000000 0.000000 0.032501 0.000000
# 6 0.000000 0.000000 0.000000 0.000000 0.000000 0.037198
#
#
# Mechanical properties :
#
#
# Convention : Reuss Voigt Hill
#
# Bulk Modulus (GPa) = 45.19053 47.73478 46.46266
# Shear Modulus (GPa) = 31.40513 34.48343 32.94428
#
# Velocity S-wave (km/s) = 3.73753 3.91643 3.82802
# Velocity P-wave (km/s) = 6.22306 6.45630 6.34075
#
# Compressibility (1/GPa) = 0.02212853
#
# Stress axis : x y z
#
# Youngs Moduli (GPa) = 148.62074 69.81018 77.11722
#
# Poissons Ratio (x) = 0.10546 0.03952
# Poissons Ratio (y) = 0.22451 0.30252
# Poissons Ratio (z) = 0.07617 0.27385
#
# Static dielectric constant tensor:
#      x y z
#    x 4.480790 0.000000 0.000000 
#    y 0.000000 4.023000 0.000000 
#    z 0.000000 0.000000 4.055110 
# 
# 
# High freq. dielectric constant tensor:
#      x y z
#    x 1.898770 0.000000 0.000000 
#    y 0.000000 1.849130 0.000000 
#    z 0.000000 0.000000 1.899370 
# 
# From -- ./inp_files/1265.got.cif
#   From: 2010.03.12/outbox.cif.g09.slc.cpg/sg32_1_cif.got.tgz:1265.got - 2010.04.14 01:46:39.
