data_PCOD8170067
_publ_section_title
;
Structure prediction by ZEFSAII (Michael W. Deem and Ramdas Pophale) SiO2 
 PCOD8170067
Probable space group: P M N 21
;
_chemical_formula_sum "Si O2"
_cell_formula_units_Z 32
_cell_length_a 8.833160
_cell_length_b 12.424316
_cell_length_c 14.330619
_cell_angle_alpha 90.000000
_cell_angle_beta 90.000000
_cell_angle_gamma 90.000000
_cell_volume 1572.727699
_symmetry_space_group_name_H-M "P M N 21"
_symmetry_group_IT_number 31
_symmetry_cell_setting 'orthorhombic'
loop_
_space_group_symop_operation_xyz
x,y,z
1/2-x,-y,1/2+z
-x,y,z
1/2+x,-y,1/2+z
loop_
_atom_site_type_symbol
_atom_site_label
_atom_site_fract_x
_atom_site_fract_y
_atom_site_fract_z
Si Si1 0.824221 0.272288 0.048890
Si Si2 0.173949 0.666421 0.174053
Si Si3 0.826718 0.591501 0.866856
Si Si4 0.829126 0.545344 0.650360
Si Si5 0.319832 0.821368 0.889911
Si Si6 0.820349 0.094123 0.189768
Si Si7 0.177974 0.887469 0.077183
Si Si8 0.825739 0.629498 0.386826
O O1 0.793421 0.387195 0.094607
O O2 0.755849 0.181796 0.117025
O O3 0.000000 0.253576 0.031028
O O4 0.739237 0.273303 0.949818
O O5 0.285008 0.577801 0.131211
O O6 0.220929 0.777702 0.128081
O O7 0.203701 0.672261 0.283764
O O8 0.000000 0.636490 0.152993
O O9 0.812261 0.579108 0.756841
O O10 0.742883 0.699981 0.898921
O O11 0.754106 0.484332 0.911516
O O12 0.000000 0.599922 0.900243
O O13 0.000000 0.565140 0.614593
O O14 0.500000 0.816146 0.891095
O O15 0.260136 0.879300 0.794381
O O16 0.261603 0.892540 0.977175
O O17 0.000000 0.100304 0.192950
O O18 0.765027 0.979810 0.148818
O O19 0.000000 0.899498 0.058295
O O20 0.000000 0.610930 0.408375
#
# Coordination Sequence:
#
# PCOD8170067 Si02
#       8
#     4   4   4   4   4   4   4   4
#     4  11  21  36  58  85 118 162 203 242 301 362
#     4   9  20  38  59  82 117 158 195 242 304 362
#     4  10  20  36  58  86 119 159 200 246 301 359
#     4  10  20  34  56  85 118 153 195 247 297 351
#     4  11  22  39  62  90 119 155 199 250 302 357
#     4   9  21  41  63  85 118 161 203 246 298 359
#     4  10  22  42  64  88 117 158 206 249 300 361
#     4  10  21  36  56  87 122 160 201 250 301 359
#
# _framework density 20.346813999999998
#
# number of rings (size 3 to 8) (size 9 to 14) (size 15 to 20)
#    0.000    2.000    1.250    1.875    1.750    3.000 
#    0.000    3.750    0.000    0.000    0.000    0.000 
#    0.000    0.000    0.000    0.000    0.000    0.000 
#
# Total GULP energy -396758.586475 kJ/mol
# GULP energy per Si atom -12398.705827 kJ/mol
# Density = 2.030050 g / cm^3
# Si number density = 20.346814 Si / 1000 Ang^3
#
#
#
# Elastic Constant Matrix: (Units=GPa)
#
#
# Indices 1 2 3 4 5 6 
#
# 1 64.4263 31.4190 24.1929 0.0000 0.0000 0.0000
# 2 31.4190 94.0869 59.0900 0.0000 0.0000 0.0000
# 3 24.1929 59.0900 94.6537 0.0000 0.0000 0.0000
# 4 0.0000 0.0000 0.0000 31.7202 0.0000 0.0000
# 5 0.0000 0.0000 0.0000 0.0000 32.7541 0.0000
# 6 0.0000 0.0000 0.0000 0.0000 0.0000 22.8128
#
#
#
# Elastic Compliance Matrix: (Units=1/GPa)
#
#
# Indices 1 2 3 4 5 6 
#
# 1 0.018661 -0.005323 -0.001447 0.000000 0.000000 0.000000
# 2 -0.005323 0.019001 -0.010502 0.000000 0.000000 0.000000
# 3 -0.001447 -0.010502 0.017490 0.000000 0.000000 0.000000
# 4 0.000000 0.000000 0.000000 0.031526 0.000000 0.000000
# 5 0.000000 0.000000 0.000000 0.000000 0.030531 0.000000
# 6 0.000000 0.000000 0.000000 0.000000 0.000000 0.043835
#
#
# Mechanical properties :
#
#
# Convention : Reuss Voigt Hill
#
# Bulk Modulus (GPa) = 48.51949 53.61898 51.06924
# Shear Modulus (GPa) = 24.69672 26.68842 25.69257
#
# Velocity S-wave (km/s) = 3.48773 3.62564 3.55735
# Velocity P-wave (km/s) = 6.33380 6.62848 6.48281
#
# Compressibility (1/GPa) = 0.02061027
#
# Stress axis : x y z
#
# Youngs Moduli (GPa) = 53.58858 52.62772 57.17409
#
# Poissons Ratio (x) = 0.28014 0.08271
# Poissons Ratio (y) = 0.28525 0.60042
# Poissons Ratio (z) = 0.07752 0.55267
#
# Static dielectric constant tensor:
#      x y z
#    x 3.568500 0.000000 0.000000 
#    y 0.000000 3.700940 0.000000 
#    z 0.000000 0.000000 3.969260 
# 
# 
# High freq. dielectric constant tensor:
#      x y z
#    x 1.782090 0.000000 0.000000 
#    y 0.000000 1.786310 0.000000 
#    z 0.000000 0.000000 1.810520 
# 
# From -- ./inp_files/5026.got.cif
#   From: 2010.03.12/outbox.cif.g09.slc.cpg/sg31_3_cif.got.tgz:5026.got - 2010.04.14 01:42:59.
