data_PCOD8170822
_publ_section_title
;
Structure prediction by ZEFSAII (Michael W. Deem and Ramdas Pophale) SiO2 
 PCOD8170822
Probable space group: P N A 21
;
_chemical_formula_sum "Si O2"
_cell_formula_units_Z 28
_cell_length_a 7.739539
_cell_length_b 20.925555
_cell_length_c 8.866807
_cell_angle_alpha 90.000000
_cell_angle_beta 90.000000
_cell_angle_gamma 90.000000
_cell_volume 1436.016182
_symmetry_space_group_name_H-M "P N A 21"
_symmetry_group_IT_number 33
_symmetry_cell_setting 'orthorhombic'
loop_
_space_group_symop_operation_xyz
x,y,z
-x,-y,1/2+z
1/2-x,1/2+y,1/2+z
1/2+x,1/2-y,z
loop_
_atom_site_type_symbol
_atom_site_label
_atom_site_fract_x
_atom_site_fract_y
_atom_site_fract_z
Si Si1 0.705401 0.947150 0.855640
Si Si2 0.764698 0.831876 0.069068
Si Si3 0.913672 0.139738 0.749853
Si Si4 0.180812 0.937520 0.514692
Si Si5 0.826476 0.583164 0.837683
Si Si6 0.636290 0.195834 0.550559
Si Si7 0.145389 0.990597 0.079740
O O1 0.524866 0.920956 0.796901
O O2 0.805423 0.954148 0.697935
O O3 0.794709 0.893273 0.961800
O O4 0.673632 0.016003 0.939864
O O5 0.559290 0.823139 0.103514
O O6 0.845980 0.768551 0.990464
O O7 0.885356 0.840034 0.220117
O O8 0.771170 0.190385 0.690329
O O9 0.883793 0.073292 0.669827
O O10 0.867266 0.127804 0.925889
O O11 0.216385 0.918907 0.685673
O O12 0.023125 0.986501 0.494059
O O13 0.792938 0.650936 0.917647
O O14 0.782936 0.523783 0.947728
#
# Coordination Sequence:
#
# PCOD8170822 Si02
#       7
#     4   4   4   4   4   4   4
#     4  10  21  35  58  91 115 158 194 246 299 359
#     4  11  20  38  65  86 115 154 209 241 299 358
#     4  10  21  38  58  87 117 152 197 246 289 358
#     4  11  21  36  59  85 125 150 193 246 307 355
#     4  10  21  37  57  87 121 156 196 245 298 360
#     4  10  22  37  66  83 113 161 203 248 291 357
#     4  10  20  35  57  87 118 155 190 236 303 355
#
# _framework density 19.498387000000001
#
# number of rings (size 3 to 8) (size 9 to 14) (size 15 to 20)
#    0.000    1.714    2.857    2.571    2.000    1.143 
#    2.571    0.000    9.429    0.000    0.000    0.000 
#    0.000    0.000    0.000    0.000    0.000    0.000 
#
# Total GULP energy -346922.758351 kJ/mol
# GULP energy per Si atom -12390.098513 kJ/mol
# Density = 1.945401 g / cm^3
# Si number density = 19.498387 Si / 1000 Ang^3
#
#
#
# Elastic Constant Matrix: (Units=GPa)
#
#
# Indices 1 2 3 4 5 6 
#
# 1 85.7969 25.2954 35.8758 0.0000 0.0000 0.0000
# 2 25.2954 92.1752 43.4726 0.0000 0.0000 0.0000
# 3 35.8758 43.4726 109.9174 0.0000 0.0000 0.0000
# 4 0.0000 0.0000 0.0000 15.2182 0.0000 0.0000
# 5 0.0000 0.0000 0.0000 0.0000 9.9093 0.0000
# 6 0.0000 0.0000 0.0000 0.0000 0.0000 27.9835
#
#
#
# Elastic Compliance Matrix: (Units=1/GPa)
#
#
# Indices 1 2 3 4 5 6 
#
# 1 0.013804 -0.002045 -0.003697 0.000000 0.000000 0.000000
# 2 -0.002045 0.013639 -0.004727 0.000000 0.000000 0.000000
# 3 -0.003697 -0.004727 0.012174 0.000000 0.000000 0.000000
# 4 0.000000 0.000000 0.000000 0.065711 0.000000 0.000000
# 5 0.000000 0.000000 0.000000 0.000000 0.100915 0.000000
# 6 0.000000 0.000000 0.000000 0.000000 0.000000 0.035735
#
#
# Mechanical properties :
#
#
# Convention : Reuss Voigt Hill
#
# Bulk Modulus (GPa) = 53.53235 55.24189 54.38712
# Shear Modulus (GPa) = 18.57752 22.83858 20.70805
#
# Velocity S-wave (km/s) = 3.09005 3.42615 3.26243
# Velocity P-wave (km/s) = 6.34394 6.63659 6.49191
#
# Compressibility (1/GPa) = 0.01868029
#
# Stress axis : x y z
#
# Youngs Moduli (GPa) = 72.44231 73.31667 82.14284
#
# Poissons Ratio (x) = 0.14991 0.30367
# Poissons Ratio (y) = 0.14812 0.38830
# Poissons Ratio (z) = 0.26781 0.34657
#
# Static dielectric constant tensor:
#      x y z
#    x 3.709360 0.000000 0.000000 
#    y 0.000000 3.706340 0.000000 
#    z 0.000000 0.000000 3.608720 
# 
# 
# High freq. dielectric constant tensor:
#      x y z
#    x 1.770420 0.000000 0.000000 
#    y 0.000000 1.752210 0.000000 
#    z 0.000000 0.000000 1.735170 
# 
# From -- ./inp_files/3305.got.cif
#   From: 2010.03.12/outbox.cif.g09.slc.cpg/sg33_2_cif.got.tgz:3305.got - 2010.04.14 01:49:19.
