data_PCOD8170133
_publ_section_title
;
Structure prediction by ZEFSAII (Michael W. Deem and Ramdas Pophale) SiO2 
 PCOD8170133
Probable space group: P M N 21
;
_chemical_formula_sum "Si O2"
_cell_formula_units_Z 32
_cell_length_a 9.334470
_cell_length_b 16.136377
_cell_length_c 10.413083
_cell_angle_alpha 90.000000
_cell_angle_beta 90.000000
_cell_angle_gamma 90.000000
_cell_volume 1568.465702
_symmetry_space_group_name_H-M "P M N 21"
_symmetry_group_IT_number 31
_symmetry_cell_setting 'orthorhombic'
loop_
_space_group_symop_operation_xyz
x,y,z
1/2-x,-y,1/2+z
-x,y,z
1/2+x,-y,1/2+z
loop_
_atom_site_type_symbol
_atom_site_label
_atom_site_fract_x
_atom_site_fract_y
_atom_site_fract_z
Si Si1 0.671014 0.077531 0.782310
Si Si2 0.655410 0.671244 0.999896
Si Si3 0.339257 0.201636 0.379525
Si Si4 0.167580 0.234708 0.858923
Si Si5 0.337932 0.021755 0.497219
Si Si6 0.835415 0.409944 0.752358
Si Si7 0.655937 0.568524 0.745610
Si Si8 0.167575 0.265776 0.144892
O O1 0.500000 0.084332 0.794650
O O2 0.739668 0.169294 0.777549
O O3 0.710779 0.030473 0.647671
O O4 0.732868 0.034552 0.911410
O O5 0.500000 0.708881 0.041192
O O6 0.699072 0.602002 0.102450
O O7 0.770808 0.744286 0.994101
O O8 0.641267 0.628412 0.865207
O O9 0.500000 0.233023 0.354826
O O10 0.336451 0.108970 0.427253
O O11 0.252383 0.210764 0.247596
O O12 0.219150 0.327684 0.824408
O O13 0.000000 0.223149 0.825759
O O14 0.198268 0.222569 0.009442
O O15 0.500000 0.984827 0.493315
O O16 0.755890 0.493966 0.789042
O O17 0.000000 0.426132 0.785208
O O18 0.500000 0.533014 0.705150
O O19 0.714031 0.635458 0.639804
O O20 0.000000 0.261741 0.180143
#
# Coordination Sequence:
#
# PCOD8170133 Si02
#       8
#     4   4   4   4   4   4   4   4
#     4  11  25  43  66  95 126 164 209 256 310 370
#     4   9  19  36  54  77 111 146 187 235 291 356
#     4  10  20  36  61  88 114 148 195 247 294 349
#     4  10  22  40  61  86 122 162 202 253 308 365
#     4  10  24  44  64  93 131 162 201 255 309 371
#     4  10  21  35  56  82 110 151 197 240 292 356
#     4   9  19  34  52  78 113 153 192 241 294 347
#     4   9  20  38  58  83 121 162 197 241 304 366
#
# _framework density 20.402104000000001
#
# number of rings (size 3 to 8) (size 9 to 14) (size 15 to 20)
#    0.000    2.250    0.000    2.250    3.500    5.500 
#    0.000    0.000    0.000    0.000    0.000    0.000 
#    0.000    0.000    0.000    0.000    0.000    0.000 
#
# Total GULP energy -396544.062702 kJ/mol
# GULP energy per Si atom -12392.001959 kJ/mol
# Density = 2.035567 g / cm^3
# Si number density = 20.402104 Si / 1000 Ang^3
#
#
#
# Elastic Constant Matrix: (Units=GPa)
#
#
# Indices 1 2 3 4 5 6 
#
# 1 88.8855 41.3708 40.2602 0.0000 0.0000 0.0000
# 2 41.3708 74.2767 26.1771 0.0000 0.0000 0.0000
# 3 40.2602 26.1771 88.5636 0.0000 0.0000 0.0000
# 4 0.0000 0.0000 0.0000 21.8842 0.0000 0.0000
# 5 0.0000 0.0000 0.0000 0.0000 9.6719 0.0000
# 6 0.0000 0.0000 0.0000 0.0000 0.0000 36.0686
#
#
#
# Elastic Compliance Matrix: (Units=1/GPa)
#
#
# Indices 1 2 3 4 5 6 
#
# 1 0.017382 -0.007699 -0.005626 0.000000 0.000000 0.000000
# 2 -0.007699 0.018438 -0.001950 0.000000 0.000000 0.000000
# 3 -0.005626 -0.001950 0.014425 0.000000 0.000000 0.000000
# 4 0.000000 0.000000 0.000000 0.045695 0.000000 0.000000
# 5 0.000000 0.000000 0.000000 0.000000 0.103392 0.000000
# 6 0.000000 0.000000 0.000000 0.000000 0.000000 0.027725
#
#
# Mechanical properties :
#
#
# Convention : Reuss Voigt Hill
#
# Bulk Modulus (GPa) = 50.77228 51.92689 51.34958
# Shear Modulus (GPa) = 18.92697 23.11946 21.02322
#
# Velocity S-wave (km/s) = 3.04912 3.36994 3.21353
# Velocity P-wave (km/s) = 6.11032 6.37566 6.24440
#
# Compressibility (1/GPa) = 0.01969579
#
# Stress axis : x y z
#
# Youngs Moduli (GPa) = 57.53070 54.23444 69.32228
#
# Poissons Ratio (x) = 0.41753 0.39002
# Poissons Ratio (y) = 0.44291 0.13519
# Poissons Ratio (z) = 0.32368 0.10577
#
# Static dielectric constant tensor:
#      x y z
#    x 3.873700 0.000000 0.000000 
#    y 0.000000 3.788370 0.000000 
#    z 0.000000 0.000000 3.884470 
# 
# 
# High freq. dielectric constant tensor:
#      x y z
#    x 1.786500 0.000000 0.000000 
#    y 0.000000 1.795060 0.000000 
#    z 0.000000 0.000000 1.806510 
# 
# From -- ./inp_files/3660.got.cif
#   From: 2010.03.12/outbox.cif.g09.slc.cpg/sg31_2_cif.got.tgz:3660.got - 2010.04.14 01:42:59.
