data_PCOD8170047
_publ_section_title
;
Structure prediction by ZEFSAII (Michael W. Deem and Ramdas Pophale) SiO2 
 PCOD8170047
Probable space group: P M N 21
;
_chemical_formula_sum "Si O2"
_cell_formula_units_Z 32
_cell_length_a 9.692071
_cell_length_b 18.454227
_cell_length_c 10.134600
_cell_angle_alpha 90.000000
_cell_angle_beta 90.000000
_cell_angle_gamma 90.000000
_cell_volume 1812.671296
_symmetry_space_group_name_H-M "P M N 21"
_symmetry_group_IT_number 31
_symmetry_cell_setting 'orthorhombic'
loop_
_space_group_symop_operation_xyz
x,y,z
1/2-x,-y,1/2+z
-x,y,z
1/2+x,-y,1/2+z
loop_
_atom_site_type_symbol
_atom_site_label
_atom_site_fract_x
_atom_site_fract_y
_atom_site_fract_z
Si Si1 0.341423 0.836684 0.936430
Si Si2 0.158266 0.714449 0.547042
Si Si3 0.341560 0.286857 0.350891
Si Si4 0.158679 0.162888 0.944128
Si Si5 0.339881 0.453408 0.348674
Si Si6 0.341250 0.934051 0.685474
Si Si7 0.840983 0.073124 0.686648
Si Si8 0.159825 0.547628 0.545336
O O1 0.500000 0.814719 0.958024
O O2 0.252913 0.763267 0.943101
O O3 0.316169 0.875258 0.798027
O O4 0.292002 0.891024 0.050438
O O5 0.195858 0.728004 0.699068
O O6 0.253138 0.764219 0.455712
O O7 0.186209 0.631290 0.510281
O O8 0.000000 0.734878 0.519959
O O9 0.500000 0.267287 0.378619
O O10 0.312005 0.370082 0.385879
O O11 0.183122 0.132241 0.799264
O O12 0.000000 0.183452 0.970608
O O13 0.206453 0.101932 0.048421
O O14 0.500000 0.472539 0.368812
O O15 0.250303 0.501210 0.446243
O O16 0.297154 0.468205 0.196812
O O17 0.500000 0.959162 0.680314
O O18 0.249318 0.003219 0.716494
O O19 0.000000 0.048425 0.680425
O O20 0.000000 0.527821 0.524778
#
# Coordination Sequence:
#
# PCOD8170047 Si02
#       8
#     4   4   4   4   4   4   4   4
#     4  10  20  35  53  76 105 135 172 214 257 308
#     4   9  18  34  56  79 103 135 176 217 255 303
#     4   9  18  34  56  79 103 135 176 217 255 303
#     4  10  20  35  53  76 105 135 172 214 257 308
#     4   9  19  36  56  81 111 141 178 220 263 316
#     4  10  20  34  54  76  99 132 177 218 251 306
#     4  10  22  36  50  74 107 138 167 210 265 310
#     4   9  19  36  56  81 111 141 178 220 263 316
#
# _framework density 17.653504999999999
#
# number of rings (size 3 to 8) (size 9 to 14) (size 15 to 20)
#    0.000    2.500    1.250    2.250    0.000    3.500 
#    2.250    2.500    0.000    0.000    0.000    0.000 
#    0.000    0.000    0.000    0.000    0.000    0.000 
#
# Total GULP energy -396868.734318 kJ/mol
# GULP energy per Si atom -12402.147947 kJ/mol
# Density = 1.761333 g / cm^3
# Si number density = 17.653505 Si / 1000 Ang^3
#
#
#
# Elastic Constant Matrix: (Units=GPa)
#
#
# Indices 1 2 3 4 5 6 
#
# 1 75.9500 62.0174 34.8125 0.0000 0.0000 0.0000
# 2 62.0174 90.5337 28.0356 0.0000 0.0000 0.0000
# 3 34.8125 28.0356 61.0500 0.0000 0.0000 0.0000
# 4 0.0000 0.0000 0.0000 23.2738 0.0000 0.0000
# 5 0.0000 0.0000 0.0000 0.0000 26.8380 0.0000
# 6 0.0000 0.0000 0.0000 0.0000 0.0000 42.7964
#
#
#
# Elastic Compliance Matrix: (Units=1/GPa)
#
#
# Indices 1 2 3 4 5 6 
#
# 1 0.034704 -0.020570 -0.010343 0.000000 0.000000 0.000000
# 2 -0.020570 0.025069 0.000217 0.000000 0.000000 0.000000
# 3 -0.010343 0.000217 0.022178 0.000000 0.000000 0.000000
# 4 0.000000 0.000000 0.000000 0.042967 0.000000 0.000000
# 5 0.000000 0.000000 0.000000 0.000000 0.037261 0.000000
# 6 0.000000 0.000000 0.000000 0.000000 0.000000 0.023366
#
#
# Mechanical properties :
#
#
# Convention : Reuss Voigt Hill
#
# Bulk Modulus (GPa) = 48.63857 53.02940 50.83398
# Shear Modulus (GPa) = 19.70135 25.42617 22.56376
#
# Velocity S-wave (km/s) = 3.34429 3.79923 3.57900
# Velocity P-wave (km/s) = 6.52104 7.02494 6.77767
#
# Compressibility (1/GPa) = 0.02055982
#
# Stress axis : x y z
#
# Youngs Moduli (GPa) = 28.81524 39.88967 45.08941
#
# Poissons Ratio (x) = 0.82053 0.46636
# Poissons Ratio (y) = 0.59273 -0.00979
# Poissons Ratio (z) = 0.29804 -0.00867
#
# Static dielectric constant tensor:
#      x y z
#    x 3.169400 0.000000 0.000000 
#    y 0.000000 3.138990 0.000000 
#    z 0.000000 0.000000 3.220350 
# 
# 
# High freq. dielectric constant tensor:
#      x y z
#    x 1.681210 0.000000 0.000000 
#    y 0.000000 1.682080 0.000000 
#    z 0.000000 0.000000 1.679480 
# 
# From -- ./inp_files/3775.got.cif
#   From: 2010.03.12/outbox.cif.g09.slc.cpg/sg31_2_cif.got.tgz:3775.got - 2010.04.14 01:42:59.
