data_PCOD8170700
_publ_section_title
;
Structure prediction by ZEFSAII (Michael W. Deem and Ramdas Pophale) SiO2 
 PCOD8170700
Probable space group: P N A 21
;
_chemical_formula_sum "Si O2"
_cell_formula_units_Z 24
_cell_length_a 5.180786
_cell_length_b 7.027501
_cell_length_c 29.838457
_cell_angle_alpha 90.000000
_cell_angle_beta 90.000000
_cell_angle_gamma 90.000000
_cell_volume 1086.357910
_symmetry_space_group_name_H-M "P N A 21"
_symmetry_group_IT_number 33
_symmetry_cell_setting 'orthorhombic'
loop_
_space_group_symop_operation_xyz
x,y,z
-x,-y,1/2+z
1/2-x,1/2+y,1/2+z
1/2+x,1/2-y,z
loop_
_atom_site_type_symbol
_atom_site_label
_atom_site_fract_x
_atom_site_fract_y
_atom_site_fract_z
Si Si1 0.716222 0.037555 0.417800
Si Si2 0.793865 0.122935 0.785791
Si Si3 0.286826 0.375331 0.594664
Si Si4 0.692769 0.131828 0.690758
Si Si5 0.215785 0.038745 0.378541
Si Si6 0.716343 0.371984 0.009853
O O1 0.455843 0.930714 0.401855
O O2 0.684389 0.249808 0.398363
O O3 0.956228 0.930379 0.394276
O O4 0.742235 0.032476 0.471592
O O5 0.577848 0.286941 0.790068
O O6 0.757546 0.018616 0.737047
O O7 0.759007 0.965103 0.824607
O O8 0.572272 0.289047 0.589118
O O9 0.253975 0.475978 0.643842
O O10 0.242649 0.535964 0.558090
O O11 0.390798 0.187847 0.691125
O O12 0.427798 0.292832 0.004483
#
# Coordination Sequence:
#
# PCOD8170700 Si02
#       6
#     4   4   4   4   4   4
#     4  10  23  38  56  77 116 152 200 240 290 353
#     4  10  19  32  57  87 120 151 191 242 291 335
#     4  10  21  38  67  89 118 160 201 238 294 361
#     4   8  16  32  54  88 114 147 193 236 283 351
#     4  10  21  37  57  80 113 155 202 236 284 352
#     4  12  26  41  61  89 123 155 199 254 306 342
#
# _framework density 22.092162999999999
#
# number of rings (size 3 to 8) (size 9 to 14) (size 15 to 20)
#    0.000    2.000    0.000    3.000    4.667    4.000 
#    0.000    0.000    7.333    0.000    0.000    0.000 
#    0.000    0.000    0.000    0.000    0.000    0.000 
#
# Total GULP energy -297321.905685 kJ/mol
# GULP energy per Si atom -12388.412737 kJ/mol
# Density = 2.204188 g / cm^3
# Si number density = 22.092163 Si / 1000 Ang^3
#
#
#
# Elastic Constant Matrix: (Units=GPa)
#
#
# Indices 1 2 3 4 5 6 
#
# 1 144.6056 -12.6328 2.8610 0.0000 0.0000 0.0000
# 2 -12.6328 36.6095 29.5299 0.0000 0.0000 0.0000
# 3 2.8610 29.5299 195.4392 0.0000 0.0000 0.0000
# 4 0.0000 0.0000 0.0000 23.5832 0.0000 0.0000
# 5 0.0000 0.0000 0.0000 0.0000 32.9008 0.0000
# 6 0.0000 0.0000 0.0000 0.0000 0.0000 5.0934
#
#
#
# Elastic Compliance Matrix: (Units=1/GPa)
#
#
# Indices 1 2 3 4 5 6 
#
# 1 0.007181 0.002918 -0.000546 0.000000 0.000000 0.000000
# 2 0.002918 0.032293 -0.004922 0.000000 0.000000 0.000000
# 3 -0.000546 -0.004922 0.005868 0.000000 0.000000 0.000000
# 4 0.000000 0.000000 0.000000 0.042403 0.000000 0.000000
# 5 0.000000 0.000000 0.000000 0.000000 0.030394 0.000000
# 6 0.000000 0.000000 0.000000 0.000000 0.000000 0.196333
#
#
# Mechanical properties :
#
#
# Convention : Reuss Voigt Hill
#
# Bulk Modulus (GPa) = 24.84915 46.24117 35.54516
# Shear Modulus (GPa) = 15.01566 36.10855 25.56211
#
# Velocity S-wave (km/s) = 2.60990 4.04722 3.40526
# Velocity P-wave (km/s) = 4.51159 6.54343 5.62009
#
# Compressibility (1/GPa) = 0.04024282
#
# Stress axis : x y z
#
# Youngs Moduli (GPa) = 139.25395 30.96693 170.40543
#
# Poissons Ratio (x) = -0.09038 0.09306
# Poissons Ratio (y) = -0.40641 0.83873
# Poissons Ratio (z) = 0.07604 0.15242
#
# Static dielectric constant tensor:
#      x y z
#    x 6.397250 0.000000 0.000000 
#    y 0.000000 3.371000 0.000000 
#    z 0.000000 0.000000 4.559390 
# 
# 
# High freq. dielectric constant tensor:
#      x y z
#    x 1.910170 0.000000 0.000000 
#    y 0.000000 1.794150 0.000000 
#    z 0.000000 0.000000 1.897290 
# 
# From -- ./inp_files/9183.got.cif
#   From: 2010.03.12/outbox.cif.g09.slc.cpg/sg33_5_cif.got.tgz:9183.got - 2010.04.14 01:49:19.
