data_PCOD8170390
_publ_section_title
;
Structure prediction by ZEFSAII (Michael W. Deem and Ramdas Pophale) SiO2 
 PCOD8170390
Probable space group: P M N 21
;
_chemical_formula_sum "Si O2"
_cell_formula_units_Z 12
_cell_length_a 17.562368
_cell_length_b 5.024444
_cell_length_c 5.024738
_cell_angle_alpha 90.000000
_cell_angle_beta 90.000000
_cell_angle_gamma 90.000000
_cell_volume 443.388582
_symmetry_space_group_name_H-M "P M N 21"
_symmetry_group_IT_number 31
_symmetry_cell_setting 'orthorhombic'
loop_
_space_group_symop_operation_xyz
x,y,z
1/2-x,-y,1/2+z
-x,y,z
1/2+x,-y,1/2+z
loop_
_atom_site_type_symbol
_atom_site_label
_atom_site_fract_x
_atom_site_fract_y
_atom_site_fract_z
Si Si1 0.000000 0.218263 0.768870
Si Si2 0.874432 0.479007 0.105225
Si Si3 0.000000 0.712065 0.411932
Si Si4 0.244556 0.175728 0.419918
O O1 0.074609 0.266299 0.946902
O O2 0.000000 0.412030 0.519382
O O3 0.000000 0.918995 0.653409
O O4 0.812547 0.608655 0.907960
O O5 0.924533 0.724057 0.227435
O O6 0.833830 0.319198 0.343246
O O7 0.235026 0.060354 0.715881
#
# Coordination Sequence:
#
# PCOD8170390 Si02
#       4
#     2   4   2   4
#     4  11  30  53  87 120 174 226 286 350 432 510
#     4  11  30  52  78 131 166 224 290 355 426 518
#     4  11  30  53  87 120 174 226 286 350 432 510
#     4  12  30  50  88 122 174 222 288 356 436 506
#
# _framework density 27.064295000000001
#
# number of rings (size 3 to 8) (size 9 to 14) (size 15 to 20)
#    0.000    0.667    0.000    2.000   23.333    2.667 
#    0.000    5.000    0.000    0.000    0.000    0.000 
#    0.000    0.000    0.000    0.000    0.000    0.000 
#
# Total GULP energy -148900.637094 kJ/mol
# GULP energy per Si atom -12408.386425 kJ/mol
# Density = 2.700270 g / cm^3
# Si number density = 27.064295 Si / 1000 Ang^3
#
#
#
# Elastic Constant Matrix: (Units=GPa)
#
#
# Indices 1 2 3 4 5 6 
#
# 1 151.7393 43.1746 20.6203 0.0000 0.0000 0.0000
# 2 43.1746 103.5195 17.0021 0.0000 0.0000 0.0000
# 3 20.6203 17.0021 72.4415 0.0000 0.0000 0.0000
# 4 0.0000 0.0000 0.0000 74.3573 0.0000 0.0000
# 5 0.0000 0.0000 0.0000 0.0000 54.0881 0.0000
# 6 0.0000 0.0000 0.0000 0.0000 0.0000 11.3567
#
#
#
# Elastic Compliance Matrix: (Units=1/GPa)
#
#
# Indices 1 2 3 4 5 6 
#
# 1 0.007628 -0.002938 -0.001482 0.000000 0.000000 0.000000
# 2 -0.002938 0.011179 -0.001787 0.000000 0.000000 0.000000
# 3 -0.001482 -0.001787 0.014646 0.000000 0.000000 0.000000
# 4 0.000000 0.000000 0.000000 0.013449 0.000000 0.000000
# 5 0.000000 0.000000 0.000000 0.000000 0.018488 0.000000
# 6 0.000000 0.000000 0.000000 0.000000 0.000000 0.088054
#
#
# Mechanical properties :
#
#
# Convention : Reuss Voigt Hill
#
# Bulk Modulus (GPa) = 47.53296 54.36603 50.94950
# Shear Modulus (GPa) = 28.92364 44.42063 36.67214
#
# Velocity S-wave (km/s) = 3.27265 4.05569 3.68503
# Velocity P-wave (km/s) = 5.64636 6.48559 6.08047
#
# Compressibility (1/GPa) = 0.02103803
#
# Stress axis : x y z
#
# Youngs Moduli (GPa) = 131.10449 89.45449 68.28032
#
# Poissons Ratio (x) = 0.26280 0.10117
# Poissons Ratio (y) = 0.38516 0.12205
# Poissons Ratio (z) = 0.19425 0.15990
#
# Static dielectric constant tensor:
#      x y z
#    x 5.139270 0.000000 0.000000 
#    y 0.000000 4.687720 0.000000 
#    z 0.000000 0.000000 4.869580 
# 
# 
# High freq. dielectric constant tensor:
#      x y z
#    x 2.107580 0.000000 0.000000 
#    y 0.000000 2.087620 0.000000 
#    z 0.000000 0.000000 2.098840 
# 
# From -- ./inp_files/703.got.cif
#   From: 2010.03.12/outbox.cif.g09.slc.cpg/sg31_1_cif.got.tgz:703.got - 2010.04.14 01:42:59.
