data_PCOD8170933
_publ_section_title
;
Structure prediction by ZEFSAII (Michael W. Deem and Ramdas Pophale) SiO2 
 PCOD8170933
Probable space group: P N A 21
;
_chemical_formula_sum "Si O2"
_cell_formula_units_Z 32
_cell_length_a 15.639435
_cell_length_b 9.741493
_cell_length_c 10.269125
_cell_angle_alpha 90.000000
_cell_angle_beta 90.000000
_cell_angle_gamma 90.000000
_cell_volume 1564.516049
_symmetry_space_group_name_H-M "P N A 21"
_symmetry_group_IT_number 33
_symmetry_cell_setting 'orthorhombic'
loop_
_space_group_symop_operation_xyz
x,y,z
-x,-y,1/2+z
1/2-x,1/2+y,1/2+z
1/2+x,1/2-y,z
loop_
_atom_site_type_symbol
_atom_site_label
_atom_site_fract_x
_atom_site_fract_y
_atom_site_fract_z
Si Si1 0.455419 0.175684 0.009400
Si Si2 0.442661 0.798889 0.260272
Si Si3 0.040170 0.600828 0.029330
Si Si4 0.164175 0.037830 0.756371
Si Si5 0.239879 0.644339 0.499304
Si Si6 0.780642 0.555684 0.522805
Si Si7 0.076049 0.765820 0.783003
Si Si8 0.301831 0.031824 0.256879
O O1 0.356007 0.200816 0.977203
O O2 0.479074 0.240265 0.150788
O O3 0.466782 0.011876 0.010177
O O4 0.517391 0.240036 0.900526
O O5 0.521431 0.816120 0.161232
O O6 0.382314 0.676540 0.213747
O O7 0.387221 0.938070 0.264018
O O8 0.131743 0.527558 0.042986
O O9 0.029215 0.706989 0.910221
O O10 0.212693 0.983626 0.630292
O O11 0.093892 0.926922 0.801254
O O12 0.230349 0.063614 0.872322
O O13 0.298336 0.780045 0.523616
O O14 0.247542 0.532977 0.618463
O O15 0.743009 0.512880 0.379194
O O16 0.167325 0.689239 0.769702
#
# Coordination Sequence:
#
# PCOD8170933 Si02
#       8
#     4   4   4   4   4   4   4   4
#     4  11  19  41  69  89 127 172 222 266 323 400
#     4  12  23  41  66  99 129 173 224 276 324 405
#     4  11  21  42  70  96 124 178 228 265 326 409
#     4  12  25  42  64  99 140 171 214 290 344 380
#     4  11  22  42  70  96 135 178 221 279 340 392
#     4  11  22  44  68  98 133 178 220 279 334 397
#     4  10  22  40  63  93 130 165 220 273 324 391
#     4  10  20  42  66  92 130 167 227 262 321 406
#
# _framework density 20.453609
#
# number of rings (size 3 to 8) (size 9 to 14) (size 15 to 20)
#    0.000    1.000    8.750    0.750    0.000    3.000 
#    2.250    1.250    0.000    0.000    0.000    0.000 
#    0.000    0.000    0.000    0.000    0.000    0.000 
#
# Total GULP energy -396709.715494 kJ/mol
# GULP energy per Si atom -12397.178609 kJ/mol
# Density = 2.040706 g / cm^3
# Si number density = 20.453609 Si / 1000 Ang^3
#
#
#
# Elastic Constant Matrix: (Units=GPa)
#
#
# Indices 1 2 3 4 5 6 
#
# 1 45.8262 23.3027 39.5312 0.0000 0.0000 0.0000
# 2 23.3027 68.4299 43.9179 0.0000 0.0000 0.0000
# 3 39.5312 43.9179 152.2528 0.0000 0.0000 0.0000
# 4 0.0000 0.0000 0.0000 28.7041 0.0000 0.0000
# 5 0.0000 0.0000 0.0000 0.0000 29.1965 0.0000
# 6 0.0000 0.0000 0.0000 0.0000 0.0000 30.7129
#
#
#
# Elastic Compliance Matrix: (Units=1/GPa)
#
#
# Indices 1 2 3 4 5 6 
#
# 1 0.030282 -0.006462 -0.005998 0.000000 0.000000 0.000000
# 2 -0.006462 0.019313 -0.003893 0.000000 0.000000 0.000000
# 3 -0.005998 -0.003893 0.009248 0.000000 0.000000 0.000000
# 4 0.000000 0.000000 0.000000 0.034838 0.000000 0.000000
# 5 0.000000 0.000000 0.000000 0.000000 0.034251 0.000000
# 6 0.000000 0.000000 0.000000 0.000000 0.000000 0.032560
#
#
# Mechanical properties :
#
#
# Convention : Reuss Voigt Hill
#
# Bulk Modulus (GPa) = 38.26172 53.33472 45.79822
# Shear Modulus (GPa) = 24.76342 28.37318 26.56830
#
# Velocity S-wave (km/s) = 3.48330 3.72855 3.60801
# Velocity P-wave (km/s) = 5.90974 6.68346 6.30848
#
# Compressibility (1/GPa) = 0.02613578
#
# Stress axis : x y z
#
# Youngs Moduli (GPa) = 33.02283 51.77978 108.12693
#
# Poissons Ratio (x) = 0.33462 0.64859
# Poissons Ratio (y) = 0.21340 0.42093
# Poissons Ratio (z) = 0.19809 0.20157
#
# Static dielectric constant tensor:
#      x y z
#    x 3.391530 0.000000 0.000000 
#    y 0.000000 3.639630 0.000000 
#    z 0.000000 0.000000 4.141940 
# 
# 
# High freq. dielectric constant tensor:
#      x y z
#    x 1.767330 0.000000 0.000000 
#    y 0.000000 1.793550 0.000000 
#    z 0.000000 0.000000 1.821420 
# 
# From -- ./inp_files/6799.got.cif
#   From: 2010.03.12/outbox.cif.g09.slc.cpg/sg33_4_cif.got.tgz:6799.got - 2010.04.14 01:49:19.
