data_PCOD8170914
_publ_section_title
;
Structure prediction by ZEFSAII (Michael W. Deem and Ramdas Pophale) SiO2 
 PCOD8170914
Probable space group: P N A 21
;
_chemical_formula_sum "Si O2"
_cell_formula_units_Z 20
_cell_length_a 9.545059
_cell_length_b 11.408309
_cell_length_c 8.806305
_cell_angle_alpha 90.000000
_cell_angle_beta 90.000000
_cell_angle_gamma 90.000000
_cell_volume 958.944816
_symmetry_space_group_name_H-M "P N A 21"
_symmetry_group_IT_number 33
_symmetry_cell_setting 'orthorhombic'
loop_
_space_group_symop_operation_xyz
x,y,z
-x,-y,1/2+z
1/2-x,1/2+y,1/2+z
1/2+x,1/2-y,z
loop_
_atom_site_type_symbol
_atom_site_label
_atom_site_fract_x
_atom_site_fract_y
_atom_site_fract_z
Si Si1 0.337753 0.054957 0.376230
Si Si2 0.370837 0.354487 0.865763
Si Si3 0.187002 0.145786 0.880725
Si Si4 0.753289 0.248612 0.586453
Si Si5 0.388080 0.985124 0.042510
O O1 0.311984 0.188108 0.435285
O O2 0.460673 0.990726 0.469991
O O3 0.194455 0.982187 0.394229
O O4 0.383931 0.054789 0.201058
O O5 0.272211 0.257599 0.949215
O O6 0.526112 0.351870 0.935646
O O7 0.371932 0.322619 0.684059
O O8 0.191539 0.149487 0.696656
O O9 0.261909 0.028129 0.935513
O O10 0.630005 0.155432 0.553003
#
# Coordination Sequence:
#
# PCOD8170914 Si02
#       5
#     4   4   4   4   4
#     4  11  22  42  65  94 128 167 211 257 317 374
#     4   9  21  39  68  87 123 169 207 255 322 366
#     4  10  20  41  64  91 125 166 206 261 318 370
#     4   9  22  41  65  90 125 168 204 263 310 376
#     4  11  23  41  66  94 129 168 210 260 315 374
#
# _framework density 20.856258
#
# number of rings (size 3 to 8) (size 9 to 14) (size 15 to 20)
#    1.200    0.800    0.000    3.600    0.000    4.800 
#   10.800    0.000    0.000    0.000    0.000    0.000 
#    0.000    0.000    0.000    0.000    0.000    0.000 
#
# Total GULP energy -247819.330033 kJ/mol
# GULP energy per Si atom -12390.966502 kJ/mol
# Density = 2.080879 g / cm^3
# Si number density = 20.856258 Si / 1000 Ang^3
#
#
#
# Elastic Constant Matrix: (Units=GPa)
#
#
# Indices 1 2 3 4 5 6 
#
# 1 130.2335 29.9196 41.9662 0.0000 0.0000 0.0000
# 2 29.9196 85.3976 56.6061 0.0000 0.0000 0.0000
# 3 41.9662 56.6061 95.3260 0.0000 0.0000 0.0000
# 4 0.0000 0.0000 0.0000 41.4684 0.0000 0.0000
# 5 0.0000 0.0000 0.0000 0.0000 18.6337 0.0000
# 6 0.0000 0.0000 0.0000 0.0000 0.0000 29.5033
#
#
#
# Elastic Compliance Matrix: (Units=1/GPa)
#
#
# Indices 1 2 3 4 5 6 
#
# 1 0.008987 -0.000868 -0.003441 0.000000 0.000000 0.000000
# 2 -0.000868 0.019395 -0.011135 0.000000 0.000000 0.000000
# 3 -0.003441 -0.011135 0.018617 0.000000 0.000000 0.000000
# 4 0.000000 0.000000 0.000000 0.024115 0.000000 0.000000
# 5 0.000000 0.000000 0.000000 0.000000 0.053666 0.000000
# 6 0.000000 0.000000 0.000000 0.000000 0.000000 0.033895
#
#
# Mechanical properties :
#
#
# Convention : Reuss Voigt Hill
#
# Bulk Modulus (GPa) = 62.06764 63.10458 62.58611
# Shear Modulus (GPa) = 25.64997 30.08542 27.86770
#
# Velocity S-wave (km/s) = 3.51072 3.80216 3.65934
# Velocity P-wave (km/s) = 6.80131 7.04257 6.92299
#
# Compressibility (1/GPa) = 0.01611146
#
# Stress axis : x y z
#
# Youngs Moduli (GPa) = 111.27570 51.56038 53.71338
#
# Poissons Ratio (x) = 0.04473 0.18483
# Poissons Ratio (y) = 0.09654 0.59810
# Poissons Ratio (z) = 0.38291 0.57412
#
# Static dielectric constant tensor:
#      x y z
#    x 3.561870 0.000000 0.000000 
#    y 0.000000 3.542790 0.000000 
#    z 0.000000 0.000000 3.552070 
# 
# 
# High freq. dielectric constant tensor:
#      x y z
#    x 1.816500 0.000000 0.000000 
#    y 0.000000 1.803860 0.000000 
#    z 0.000000 0.000000 1.789690 
# 
# From -- ./inp_files/2999.got.cif
#   From: 2010.03.12/outbox.cif.g09.slc.cpg/sg33_2_cif.got.tgz:2999.got - 2010.04.14 01:49:19.
