data_PCOD8170086
_publ_section_title
;
Structure prediction by ZEFSAII (Michael W. Deem and Ramdas Pophale) SiO2 
 PCOD8170086
Probable space group: P M N 21
;
_chemical_formula_sum "Si O2"
_cell_formula_units_Z 32
_cell_length_a 8.541714
_cell_length_b 11.403556
_cell_length_c 16.448752
_cell_angle_alpha 90.000000
_cell_angle_beta 90.000000
_cell_angle_gamma 90.000000
_cell_volume 1602.205722
_symmetry_space_group_name_H-M "P M N 21"
_symmetry_group_IT_number 31
_symmetry_cell_setting 'orthorhombic'
loop_
_space_group_symop_operation_xyz
x,y,z
1/2-x,-y,1/2+z
-x,y,z
1/2+x,-y,1/2+z
loop_
_atom_site_type_symbol
_atom_site_label
_atom_site_fract_x
_atom_site_fract_y
_atom_site_fract_z
Si Si1 0.318008 0.528285 0.542430
Si Si2 0.671957 0.081160 0.884228
Si Si3 0.822176 0.774123 0.544671
Si Si4 0.319121 0.819997 0.233959
Si Si5 0.678883 0.833753 0.836417
Si Si6 0.682754 0.062608 0.180718
Si Si7 0.186404 0.440345 0.714218
Si Si8 0.684550 0.572964 0.874512
O O1 0.500000 0.498581 0.549336
O O2 0.291697 0.665814 0.531909
O O3 0.235800 0.491133 0.626836
O O4 0.251691 0.471133 0.460188
O O5 0.500000 0.096275 0.843164
O O6 0.799430 0.143732 0.827734
O O7 0.700662 0.941663 0.899846
O O8 0.676518 0.145050 0.967797
O O9 0.741875 0.856874 0.611840
O O10 0.000000 0.732388 0.566410
O O11 0.500000 0.809394 0.213112
O O12 0.243976 0.692733 0.216579
O O13 0.245152 0.929686 0.182572
O O14 0.500000 0.823154 0.806014
O O15 0.790723 0.866104 0.762663
O O16 0.731340 0.710089 0.873898
O O17 0.500000 0.050421 0.163956
O O18 0.250400 0.510696 0.792833
O O19 0.000000 0.442866 0.721116
O O20 0.500000 0.551580 0.875619
#
# Coordination Sequence:
#
# PCOD8170086 Si02
#       8
#     4   4   4   4   4   4   4   4
#     4  12  26  41  58  84 118 155 199 244 287 344
#     4   9  18  33  55  81 108 139 178 226 279 338
#     4  10  20  35  56  80 106 139 181 230 285 340
#     4   9  19  35  55  80 109 143 182 225 278 336
#     4   9  19  35  55  80 109 143 182 225 278 336
#     4   9  18  33  55  81 108 139 178 226 279 338
#     4  11  23  40  62  87 119 157 196 240 290 343
#     4  11  23  40  62  87 119 157 196 240 290 343
#
# _framework density 19.972467999999999
#
# number of rings (size 3 to 8) (size 9 to 14) (size 15 to 20)
#    0.000    2.000    0.000    3.375    0.000    8.000 
#    0.000    3.750    0.000    1.500    0.000    0.000 
#    0.000    0.000    0.000    0.000    0.000    0.000 
#
# Total GULP energy -396461.879531 kJ/mol
# GULP energy per Si atom -12389.433735 kJ/mol
# Density = 1.992701 g / cm^3
# Si number density = 19.972468 Si / 1000 Ang^3
#
#
#
# Elastic Constant Matrix: (Units=GPa)
#
#
# Indices 1 2 3 4 5 6 
#
# 1 51.4821 34.6634 21.7435 0.0000 0.0000 0.0000
# 2 34.6634 172.2861 68.1187 0.0000 0.0000 0.0000
# 3 21.7435 68.1187 104.4771 0.0000 0.0000 0.0000
# 4 0.0000 0.0000 0.0000 33.8391 0.0000 0.0000
# 5 0.0000 0.0000 0.0000 0.0000 51.8400 0.0000
# 6 0.0000 0.0000 0.0000 0.0000 0.0000 23.8300
#
#
#
# Elastic Compliance Matrix: (Units=1/GPa)
#
#
# Indices 1 2 3 4 5 6 
#
# 1 0.022897 -0.003668 -0.002373 0.000000 0.000000 0.000000
# 2 -0.003668 0.008408 -0.004719 0.000000 0.000000 0.000000
# 3 -0.002373 -0.004719 0.013142 0.000000 0.000000 0.000000
# 4 0.000000 0.000000 0.000000 0.029552 0.000000 0.000000
# 5 0.000000 0.000000 0.000000 0.000000 0.019290 0.000000
# 6 0.000000 0.000000 0.000000 0.000000 0.000000 0.041964
#
#
# Mechanical properties :
#
#
# Convention : Reuss Voigt Hill
#
# Bulk Modulus (GPa) = 43.61890 64.14406 53.88148
# Shear Modulus (GPa) = 30.41092 35.48312 32.94702
#
# Velocity S-wave (km/s) = 3.90634 4.21955 4.06596
# Velocity P-wave (km/s) = 6.49868 7.47833 7.00565
#
# Compressibility (1/GPa) = 0.02292584
#
# Stress axis : x y z
#
# Youngs Moduli (GPa) = 43.67473 118.93483 76.09245
#
# Poissons Ratio (x) = 0.43629 0.18060
# Poissons Ratio (y) = 0.16021 0.35904
# Poissons Ratio (z) = 0.10366 0.56120
#
# Static dielectric constant tensor:
#      x y z
#    x 3.105630 0.000000 0.000000 
#    y 0.000000 4.100040 0.000000 
#    z 0.000000 0.000000 3.622980 
# 
# 
# High freq. dielectric constant tensor:
#      x y z
#    x 1.766740 0.000000 0.000000 
#    y 0.000000 1.803390 0.000000 
#    z 0.000000 0.000000 1.772480 
# 
# From -- ./inp_files/5105.got.cif
#   From: 2010.03.12/outbox.cif.g09.slc.cpg/sg31_3_cif.got.tgz:5105.got - 2010.04.14 01:42:59.
