data_PCOD8170198
_publ_section_title
;
Structure prediction by ZEFSAII (Michael W. Deem and Ramdas Pophale) SiO2 
 PCOD8170198
Probable space group: P M N 21
;
_chemical_formula_sum "Si O2"
_cell_formula_units_Z 24
_cell_length_a 14.291239
_cell_length_b 9.956921
_cell_length_c 8.556535
_cell_angle_alpha 90.000000
_cell_angle_beta 90.000000
_cell_angle_gamma 90.000000
_cell_volume 1217.567017
_symmetry_space_group_name_H-M "P M N 21"
_symmetry_group_IT_number 31
_symmetry_cell_setting 'orthorhombic'
loop_
_space_group_symop_operation_xyz
x,y,z
1/2-x,-y,1/2+z
-x,y,z
1/2+x,-y,1/2+z
loop_
_atom_site_type_symbol
_atom_site_label
_atom_site_fract_x
_atom_site_fract_y
_atom_site_fract_z
Si Si1 0.701923 0.369259 0.517720
Si Si2 0.310622 0.912504 0.516724
Si Si3 0.000000 0.184456 0.544764
Si Si4 0.203672 0.358469 0.855624
Si Si5 0.189485 0.136562 0.377422
Si Si6 0.500000 0.583531 0.257882
Si Si7 0.000000 0.001037 0.851141
Si Si8 0.000000 0.688349 0.904714
O O1 0.742453 0.351413 0.691092
O O2 0.734467 0.514764 0.458050
O O3 0.746964 0.267707 0.394209
O O4 0.590116 0.342198 0.514182
O O5 0.270548 0.774012 0.450016
O O6 0.319235 0.906932 0.700615
O O7 0.409016 0.955753 0.445232
O O8 0.231949 0.020508 0.482705
O O9 0.087208 0.163335 0.436759
O O10 0.000000 0.343361 0.590263
O O11 0.000000 0.077601 0.686340
O O12 0.091654 0.360634 0.843212
O O13 0.500000 0.419906 0.259455
O O14 0.000000 0.838186 0.832305
#
# Coordination Sequence:
#
# PCOD8170198 Si02
#       8
#     4   4   2   4   4   2   2   2
#     4  11  22  42  65  94 128 171 216 269 319 386
#     4  12  24  41  64  96 130 173 216 266 323 384
#     4  12  23  44  66  95 127 169 219 268 321 393
#     4  11  22  42  67  94 128 170 216 264 326 382
#     4  12  25  41  64  95 130 170 221 268 320 383
#     4  10  20  40  67  90 125 167 206 264 319 384
#     4  12  21  41  67  92 132 170 207 267 329 380
#     4  10  24  37  66  95 130 166 210 261 335 369
#
# _framework density 19.711441000000001
#
# number of rings (size 3 to 8) (size 9 to 14) (size 15 to 20)
#    0.000    0.667    5.000    3.500    0.000    0.000 
#    0.000    3.333    0.000    0.000    0.000    0.000 
#    0.000    0.000    0.000    0.000    0.000    0.000 
#
# Total GULP energy -297581.374455 kJ/mol
# GULP energy per Si atom -12399.223936 kJ/mol
# Density = 1.966658 g / cm^3
# Si number density = 19.711441 Si / 1000 Ang^3
#
#
#
# Elastic Constant Matrix: (Units=GPa)
#
#
# Indices 1 2 3 4 5 6 
#
# 1 116.6904 45.6638 42.8687 0.0000 0.0000 0.0000
# 2 45.6638 157.7794 50.5807 0.0000 0.0000 0.0000
# 3 42.8687 50.5807 130.0331 0.0000 0.0000 0.0000
# 4 0.0000 0.0000 0.0000 35.0989 0.0000 0.0000
# 5 0.0000 0.0000 0.0000 0.0000 34.9317 0.0000
# 6 0.0000 0.0000 0.0000 0.0000 0.0000 -66.4782
#
#
#
# Elastic Compliance Matrix: (Units=1/GPa)
#
#
# Indices 1 2 3 4 5 6 
#
# 1 0.010366 -0.002176 -0.002571 0.000000 0.000000 0.000000
# 2 -0.002176 0.007698 -0.002277 0.000000 0.000000 0.000000
# 3 -0.002571 -0.002277 0.009424 0.000000 0.000000 0.000000
# 4 0.000000 0.000000 0.000000 0.028491 0.000000 0.000000
# 5 0.000000 0.000000 0.000000 0.000000 0.028627 0.000000
# 6 0.000000 0.000000 0.000000 0.000000 0.000000 -0.015043
#
#
# Mechanical properties :
#
#
# Convention : Reuss Voigt Hill
#
# Bulk Modulus (GPa) = 74.40747 75.85881 75.13314
# Shear Modulus (GPa) = 56.76037 18.40315 37.58176
#
# Velocity S-wave (km/s) = 5.37198 3.05885 4.37120
# Velocity P-wave (km/s) = 8.73544 7.14448 7.97971
#
# Compressibility (1/GPa) = 0.01343951
#
# Stress axis : x y z
#
# Youngs Moduli (GPa) = 96.47283 129.91061 106.11640
#
# Poissons Ratio (x) = 0.28266 0.27282
# Poissons Ratio (y) = 0.20990 0.24162
# Poissons Ratio (z) = 0.24803 0.29580
#
# Static dielectric constant tensor:
#      x y z
#    x 3.784330 0.000000 0.000000 
#    y 0.000000 4.119960 0.000000 
#    z 0.000000 0.000000 3.443140 
# 
# 
# High freq. dielectric constant tensor:
#      x y z
#    x 1.783880 0.000000 0.000000 
#    y 0.000000 1.792380 0.000000 
#    z 0.000000 0.000000 1.757220 
# 
# From -- ./inp_files/2493.got.cif
#   From: 2010.03.12/outbox.cif.g09.slc.cpg/sg31_2_cif.got.tgz:2493.got - 2010.04.14 01:42:59.
