data_PCOD8170167
_publ_section_title
;
Structure prediction by ZEFSAII (Michael W. Deem and Ramdas Pophale) SiO2 
 PCOD8170167
Probable space group: P M N 21
;
_chemical_formula_sum "Si O2"
_cell_formula_units_Z 24
_cell_length_a 8.454801
_cell_length_b 9.926682
_cell_length_c 14.055536
_cell_angle_alpha 90.000000
_cell_angle_beta 90.000000
_cell_angle_gamma 90.000000
_cell_volume 1179.654725
_symmetry_space_group_name_H-M "P M N 21"
_symmetry_group_IT_number 31
_symmetry_cell_setting 'orthorhombic'
loop_
_space_group_symop_operation_xyz
x,y,z
1/2-x,-y,1/2+z
-x,y,z
1/2+x,-y,1/2+z
loop_
_atom_site_type_symbol
_atom_site_label
_atom_site_fract_x
_atom_site_fract_y
_atom_site_fract_z
Si Si1 0.313961 0.287107 0.164810
Si Si2 0.688570 0.978701 0.163417
Si Si3 0.181787 0.138864 0.857576
Si Si4 0.318429 0.120185 0.475533
Si Si5 0.182671 0.360706 0.364405
Si Si6 0.814196 0.388944 0.970624
O O1 0.500000 0.288380 0.182582
O O2 0.251956 0.133240 0.154977
O O3 0.233909 0.359883 0.254629
O O4 0.271710 0.373391 0.071821
O O5 0.500000 0.975931 0.158776
O O6 0.759525 0.915199 0.260395
O O7 0.760073 0.881136 0.083582
O O8 0.255964 0.277843 0.896733
O O9 0.000000 0.164130 0.834007
O O10 0.205806 0.030876 0.940025
O O11 0.500000 0.167319 0.468016
O O12 0.212073 0.215590 0.410655
O O13 0.282871 0.466089 0.426041
O O14 0.000000 0.399690 0.371186
O O15 0.000000 0.366822 0.987348
#
# Coordination Sequence:
#
# PCOD8170167 Si02
#       6
#     4   4   4   4   4   4
#     4  11  22  40  66  94 127 168 209 258 320 385
#     4  10  20  37  62  94 128 165 208 257 312 376
#     4   9  19  37  62  90 122 159 206 256 309 369
#     4  11  21  39  63  93 125 161 209 262 315 371
#     4  12  26  43  63  92 129 172 217 261 314 378
#     4  11  23  42  66  93 127 169 213 264 320 379
#
# _framework density 20.344937000000002
#
# number of rings (size 3 to 8) (size 9 to 14) (size 15 to 20)
#    0.000    1.333    3.333    3.000    0.000    2.000 
#    0.000    6.667    0.000    0.000    0.000    0.000 
#    0.000    0.000    0.000    0.000    0.000    0.000 
#
# Total GULP energy -297664.128696 kJ/mol
# GULP energy per Si atom -12402.672029 kJ/mol
# Density = 2.029863 g / cm^3
# Si number density = 20.344937 Si / 1000 Ang^3
#
#
#
# Elastic Constant Matrix: (Units=GPa)
#
#
# Indices 1 2 3 4 5 6 
#
# 1 51.4514 17.5275 20.6873 0.0000 0.0000 0.0000
# 2 17.5275 63.2054 27.2587 0.0000 0.0000 0.0000
# 3 20.6873 27.2587 143.5687 0.0000 0.0000 0.0000
# 4 0.0000 0.0000 0.0000 38.0596 0.0000 0.0000
# 5 0.0000 0.0000 0.0000 0.0000 29.9101 0.0000
# 6 0.0000 0.0000 0.0000 0.0000 0.0000 24.2336
#
#
#
# Elastic Compliance Matrix: (Units=1/GPa)
#
#
# Indices 1 2 3 4 5 6 
#
# 1 0.022083 -0.005175 -0.002199 0.000000 0.000000 0.000000
# 2 -0.005175 0.018445 -0.002756 0.000000 0.000000 0.000000
# 3 -0.002199 -0.002756 0.007806 0.000000 0.000000 0.000000
# 4 0.000000 0.000000 0.000000 0.026275 0.000000 0.000000
# 5 0.000000 0.000000 0.000000 0.000000 0.033434 0.000000
# 6 0.000000 0.000000 0.000000 0.000000 0.000000 0.041265
#
#
# Mechanical properties :
#
#
# Convention : Reuss Voigt Hill
#
# Bulk Modulus (GPa) = 35.62293 43.24137 39.43215
# Shear Modulus (GPa) = 27.94437 31.29077 29.61757
#
# Velocity S-wave (km/s) = 3.71014 3.92601 3.81960
# Velocity P-wave (km/s) = 5.99174 6.46928 6.23509
#
# Compressibility (1/GPa) = 0.02807181
#
# Stress axis : x y z
#
# Youngs Moduli (GPa) = 45.28334 54.21418 128.11356
#
# Poissons Ratio (x) = 0.28058 0.28178
# Poissons Ratio (y) = 0.23436 0.35313
# Poissons Ratio (z) = 0.09960 0.14944
#
# Static dielectric constant tensor:
#      x y z
#    x 3.471480 0.000000 0.000000 
#    y 0.000000 3.611480 0.000000 
#    z 0.000000 0.000000 3.833730 
# 
# 
# High freq. dielectric constant tensor:
#      x y z
#    x 1.780220 0.000000 0.000000 
#    y 0.000000 1.789920 0.000000 
#    z 0.000000 0.000000 1.811570 
# 
# From -- ./inp_files/4728.got.cif
#   From: 2010.03.12/outbox.cif.g09.slc.cpg/sg31_3_cif.got.tgz:4728.got - 2010.04.14 01:42:59.
