data_PCOD8170600
_publ_section_title
;
Structure prediction by ZEFSAII (Michael W. Deem and Ramdas Pophale) SiO2 
 PCOD8170600
Probable space group: P B A 2
;
_chemical_formula_sum "Si O2"
_cell_formula_units_Z 32
_cell_length_a 14.743157
_cell_length_b 8.471907
_cell_length_c 12.339822
_cell_angle_alpha 90.000000
_cell_angle_beta 90.000000
_cell_angle_gamma 90.000000
_cell_volume 1541.276530
_symmetry_space_group_name_H-M "P B A 2"
_symmetry_group_IT_number 32
_symmetry_cell_setting 'orthorhombic'
loop_
_space_group_symop_operation_xyz
x,y,z
-x,-y,z
1/2-x,1/2+y,z
1/2+x,1/2-y,z
loop_
_atom_site_type_symbol
_atom_site_label
_atom_site_fract_x
_atom_site_fract_y
_atom_site_fract_z
Si Si1 0.018940 0.815767 0.135750
Si Si2 0.127691 0.237107 0.534625
Si Si3 0.473949 0.317552 0.381580
Si Si4 0.823483 0.137128 0.769341
Si Si5 0.180998 0.878181 0.530561
Si Si6 0.668652 0.803584 0.982244
Si Si7 0.131264 0.329130 0.992181
Si Si8 0.130863 0.225289 0.772605
O O1 0.031081 0.757246 0.259146
O O2 0.112304 0.786832 0.073641
O O3 0.934626 0.716462 0.089877
O O4 0.000000 0.000000 0.130151
O O5 0.211749 0.353695 0.516114
O O6 0.082729 0.248922 0.656047
O O7 0.050665 0.279439 0.447461
O O8 0.168047 0.063882 0.520517
O O9 0.500000 0.500000 0.389030
O O10 0.376524 0.288913 0.438174
O O11 0.856095 0.183223 0.647993
O O12 0.716316 0.158332 0.772294
O O13 0.843321 0.955515 0.793747
O O14 0.866921 0.245627 0.863603
O O15 0.774864 0.767858 0.999875
O O16 0.651961 0.987342 0.996726
O O17 0.077043 0.282736 0.880106
#
# Coordination Sequence:
#
# PCOD8170600 Si02
#       8
#     4   4   4   4   4   4   4   4
#     4  11  23  40  59  80 110 149 194 237 278 327
#     4   9  18  34  56  82 111 143 178 220 271 326
#     4   9  20  38  57  78 106 143 186 227 270 325
#     4   9  16  29  53  83 113 143 178 220 272 333
#     4   9  18  34  56  82 111 143 178 220 271 326
#     4  11  22  38  59  84 115 148 186 231 281 334
#     4  11  22  38  59  84 115 148 186 231 281 334
#     4   9  16  29  53  83 113 143 178 220 272 333
#
# _framework density 20.76201
#
# number of rings (size 3 to 8) (size 9 to 14) (size 15 to 20)
#    0.000    2.250    0.000    4.875    0.000    3.000 
#    0.000    8.125    0.000    0.000    0.000    0.000 
#    0.000    0.000    0.000    0.000    0.000    0.000 
#
# Total GULP energy -396588.150288 kJ/mol
# GULP energy per Si atom -12393.379696 kJ/mol
# Density = 2.071475 g / cm^3
# Si number density = 20.762010 Si / 1000 Ang^3
#
#
#
# Elastic Constant Matrix: (Units=GPa)
#
#
# Indices 1 2 3 4 5 6 
#
# 1 48.7263 -4.3447 34.4313 0.0000 0.0000 0.0000
# 2 -4.3447 43.8924 21.7133 0.0000 0.0000 0.0000
# 3 34.4313 21.7133 163.5061 0.0000 0.0000 0.0000
# 4 0.0000 0.0000 0.0000 23.2226 0.0000 0.0000
# 5 0.0000 0.0000 0.0000 0.0000 94.6057 0.0000
# 6 0.0000 0.0000 0.0000 0.0000 0.0000 25.5360
#
#
#
# Elastic Compliance Matrix: (Units=1/GPa)
#
#
# Indices 1 2 3 4 5 6 
#
# 1 0.025293 0.005500 -0.006057 0.000000 0.000000 0.000000
# 2 0.005500 0.025581 -0.004555 0.000000 0.000000 0.000000
# 3 -0.006057 -0.004555 0.007996 0.000000 0.000000 0.000000
# 4 0.000000 0.000000 0.000000 0.043062 0.000000 0.000000
# 5 0.000000 0.000000 0.000000 0.000000 0.010570 0.000000
# 6 0.000000 0.000000 0.000000 0.000000 0.000000 0.039160
#
#
# Mechanical properties :
#
#
# Convention : Reuss Voigt Hill
#
# Bulk Modulus (GPa) = 20.55667 39.96938 30.26302
# Shear Modulus (GPa) = 28.07387 42.29452 35.18419
#
# Velocity S-wave (km/s) = 3.68118 4.51833 4.12107
# Velocity P-wave (km/s) = 5.29063 6.82008 6.10345
#
# Compressibility (1/GPa) = 0.04864601
#
# Stress axis : x y z
#
# Youngs Moduli (GPa) = 39.53674 39.09181 125.05781
#
# Poissons Ratio (x) = -0.21500 0.75742
# Poissons Ratio (y) = -0.21744 0.56967
# Poissons Ratio (z) = 0.23946 0.17807
#
# Static dielectric constant tensor:
#      x y z
#    x 3.685510 0.000000 0.000000 
#    y 0.000000 3.586260 0.000000 
#    z 0.000000 0.000000 4.307620 
# 
# 
# High freq. dielectric constant tensor:
#      x y z
#    x 1.793540 0.000000 0.000000 
#    y 0.000000 1.804190 0.000000 
#    z 0.000000 0.000000 1.822710 
# 
# From -- ./inp_files/3958.got.cif
#   From: 2010.03.12/outbox.cif.g09.slc.cpg/sg32_2_cif.got.tgz:3958.got - 2010.04.14 01:46:39.
