data_PCOD8170721
_publ_section_title
;
Structure prediction by ZEFSAII (Michael W. Deem and Ramdas Pophale) SiO2 
 PCOD8170721
Probable space group: P N A 21
;
_chemical_formula_sum "Si O2"
_cell_formula_units_Z 28
_cell_length_a 16.521003
_cell_length_b 8.351427
_cell_length_c 11.063577
_cell_angle_alpha 90.000000
_cell_angle_beta 90.000000
_cell_angle_gamma 90.000000
_cell_volume 1526.485426
_symmetry_space_group_name_H-M "P N A 21"
_symmetry_group_IT_number 33
_symmetry_cell_setting 'orthorhombic'
loop_
_space_group_symop_operation_xyz
x,y,z
-x,-y,1/2+z
1/2-x,1/2+y,1/2+z
1/2+x,1/2-y,z
loop_
_atom_site_type_symbol
_atom_site_label
_atom_site_fract_x
_atom_site_fract_y
_atom_site_fract_z
Si Si1 0.102630 0.414129 0.417120
Si Si2 0.356653 0.049717 0.318206
Si Si3 0.470903 0.837015 0.454275
Si Si4 0.003160 0.748737 0.720734
Si Si5 0.722975 0.656196 0.925892
Si Si6 0.594361 0.450918 0.803392
Si Si7 0.322476 0.784692 0.140834
O O1 0.061193 0.293856 0.323507
O O2 0.196733 0.435486 0.376143
O O3 0.103144 0.331223 0.550274
O O4 0.058739 0.586403 0.424566
O O5 0.420529 0.130988 0.227776
O O6 0.289837 0.177835 0.356002
O O7 0.403312 0.975196 0.434389
O O8 0.310327 0.911674 0.247444
O O9 0.463348 0.770806 0.589410
O O10 0.456611 0.693505 0.360380
O O11 0.031000 0.931100 0.739848
O O12 0.645477 0.541663 0.908271
O O13 0.737841 0.709549 0.065930
O O14 0.656231 0.386672 0.700256
#
# Coordination Sequence:
#
# PCOD8170721 Si02
#       7
#     4   4   4   4   4   4   4
#     4   9  20  37  59  80 112 156 192 227 296 338
#     4   9  18  37  59  79 112 152 184 235 292 335
#     4  10  20  36  58  85 113 154 187 236 289 343
#     4  10  19  35  57  84 114 141 196 239 278 344
#     4   9  20  37  56  83 111 154 193 230 285 344
#     4  10  22  36  59  86 117 151 190 241 290 328
#     4   9  19  38  58  77 117 146 186 232 292 336
#
# _framework density 18.342789
#
# number of rings (size 3 to 8) (size 9 to 14) (size 15 to 20)
#    0.857    1.714    1.429    0.000    2.000    2.286 
#    0.000   11.429    0.000    0.000    0.000    0.000 
#    0.000    0.000    0.000    0.000    0.000    0.000 
#
# Total GULP energy -346994.425576 kJ/mol
# GULP energy per Si atom -12392.658056 kJ/mol
# Density = 1.830104 g / cm^3
# Si number density = 18.342789 Si / 1000 Ang^3
#
#
#
# Elastic Constant Matrix: (Units=GPa)
#
#
# Indices 1 2 3 4 5 6 
#
# 1 63.7511 27.3457 32.4333 0.0000 0.0000 0.0000
# 2 27.3457 94.3908 39.7038 0.0000 0.0000 0.0000
# 3 32.4333 39.7038 99.4853 0.0000 0.0000 0.0000
# 4 0.0000 0.0000 0.0000 23.4720 0.0000 0.0000
# 5 0.0000 0.0000 0.0000 0.0000 28.7463 0.0000
# 6 0.0000 0.0000 0.0000 0.0000 0.0000 31.6676
#
#
#
# Elastic Compliance Matrix: (Units=1/GPa)
#
#
# Indices 1 2 3 4 5 6 
#
# 1 0.019788 -0.003628 -0.005003 0.000000 0.000000 0.000000
# 2 -0.003628 0.013397 -0.004164 0.000000 0.000000 0.000000
# 3 -0.005003 -0.004164 0.013344 0.000000 0.000000 0.000000
# 4 0.000000 0.000000 0.000000 0.042604 0.000000 0.000000
# 5 0.000000 0.000000 0.000000 0.000000 0.034787 0.000000
# 6 0.000000 0.000000 0.000000 0.000000 0.000000 0.031578
#
#
# Mechanical properties :
#
#
# Convention : Reuss Voigt Hill
#
# Bulk Modulus (GPa) = 47.75769 50.73251 49.24510
# Shear Modulus (GPa) = 26.58623 27.32013 26.95318
#
# Velocity S-wave (km/s) = 3.81124 3.86349 3.83745
# Velocity P-wave (km/s) = 6.74242 6.90073 6.82203
#
# Compressibility (1/GPa) = 0.02093904
#
# Stress axis : x y z
#
# Youngs Moduli (GPa) = 50.53682 74.64495 74.93740
#
# Poissons Ratio (x) = 0.27083 0.37491
# Poissons Ratio (y) = 0.18336 0.31202
# Poissons Ratio (z) = 0.25283 0.31080
#
# Static dielectric constant tensor:
#      x y z
#    x 3.185740 0.000000 0.000000 
#    y 0.000000 3.346840 0.000000 
#    z 0.000000 0.000000 3.310990 
# 
# 
# High freq. dielectric constant tensor:
#      x y z
#    x 1.691550 0.000000 0.000000 
#    y 0.000000 1.712590 0.000000 
#    z 0.000000 0.000000 1.707450 
# 
# From -- ./inp_files/7010.got.cif
#   From: 2010.03.12/outbox.cif.g09.slc.cpg/sg33_4_cif.got.tgz:7010.got - 2010.04.14 01:49:19.
