data_PCOD8170332
_publ_section_title
;
Structure prediction by ZEFSAII (Michael W. Deem and Ramdas Pophale) SiO2 
 PCOD8170332
Probable space group: P M N 21
;
_chemical_formula_sum "Si O2"
_cell_formula_units_Z 20
_cell_length_a 9.580939
_cell_length_b 8.553899
_cell_length_c 10.836949
_cell_angle_alpha 90.000000
_cell_angle_beta 90.000000
_cell_angle_gamma 90.000000
_cell_volume 888.135485
_symmetry_space_group_name_H-M "P M N 21"
_symmetry_group_IT_number 31
_symmetry_cell_setting 'orthorhombic'
loop_
_space_group_symop_operation_xyz
x,y,z
1/2-x,-y,1/2+z
-x,y,z
1/2+x,-y,1/2+z
loop_
_atom_site_type_symbol
_atom_site_label
_atom_site_fract_x
_atom_site_fract_y
_atom_site_fract_z
Si Si1 0.000000 0.096857 0.922820
Si Si2 0.222716 0.087078 0.437192
Si Si3 0.500000 0.275993 0.112639
Si Si4 0.000000 0.856499 0.350347
Si Si5 0.500000 0.921292 0.141736
Si Si6 0.000000 0.565341 0.199188
Si Si7 0.724258 0.399540 0.285154
Si Si8 0.500000 0.558428 0.440344
O O1 0.000000 0.151618 0.778064
O O2 0.132268 0.997584 0.967112
O O3 0.000000 0.263983 0.992044
O O4 0.135023 0.967345 0.352466
O O5 0.249982 0.244542 0.363916
O O6 0.138294 0.125182 0.563625
O O7 0.639491 0.362067 0.159768
O O8 0.500000 0.104430 0.171252
O O9 0.500000 0.265676 0.965150
O O10 0.000000 0.749926 0.229446
O O11 0.868178 0.477868 0.253519
O O12 0.000000 0.562334 0.052770
O O13 0.638516 0.525979 0.362548
#
# Coordination Sequence:
#
# PCOD8170332 Si02
#       8
#     2   4   2   2   2   2   4   2
#     4  12  22  42  69  98 136 184 231 276 335 410
#     4  10  22  41  72  98 130 177 238 272 341 394
#     4   9  20  43  69  90 134 178 216 274 339 386
#     4  10  24  45  65 103 129 180 223 276 337 408
#     4  10  22  41  67 102 130 177 221 289 334 384
#     4  12  27  42  71  99 140 177 223 277 338 411
#     4  11  23  46  64  98 138 174 223 285 328 403
#     4  11  29  43  63 104 137 182 220 268 359 401
#
# _framework density 22.519086999999999
#
# number of rings (size 3 to 8) (size 9 to 14) (size 15 to 20)
#    0.000    1.600    2.000    3.000    8.400    3.200 
#    3.600    4.000    0.000    0.000    0.000    0.000 
#    0.000    0.000    0.000    0.000    0.000    0.000 
#
# Total GULP energy -248042.159410 kJ/mol
# GULP energy per Si atom -12402.107970 kJ/mol
# Density = 2.246783 g / cm^3
# Si number density = 22.519087 Si / 1000 Ang^3
#
#
#
# Elastic Constant Matrix: (Units=GPa)
#
#
# Indices 1 2 3 4 5 6 
#
# 1 166.1346 21.9341 10.5266 0.0000 0.0000 0.0000
# 2 21.9341 62.1274 -15.4543 0.0000 0.0000 0.0000
# 3 10.5266 -15.4543 58.6831 0.0000 0.0000 0.0000
# 4 0.0000 0.0000 0.0000 37.3322 0.0000 0.0000
# 5 0.0000 0.0000 0.0000 0.0000 13.3270 0.0000
# 6 0.0000 0.0000 0.0000 0.0000 0.0000 39.6608
#
#
#
# Elastic Compliance Matrix: (Units=1/GPa)
#
#
# Indices 1 2 3 4 5 6 
#
# 1 0.006505 -0.002768 -0.001896 0.000000 0.000000 0.000000
# 2 -0.002768 0.018402 0.005343 0.000000 0.000000 0.000000
# 3 -0.001896 0.005343 0.018788 0.000000 0.000000 0.000000
# 4 0.000000 0.000000 0.000000 0.026787 0.000000 0.000000
# 5 0.000000 0.000000 0.000000 0.000000 0.075035 0.000000
# 6 0.000000 0.000000 0.000000 0.000000 0.000000 0.025214
#
#
# Mechanical properties :
#
#
# Convention : Reuss Voigt Hill
#
# Bulk Modulus (GPa) = 22.19627 35.66199 28.92913
# Shear Modulus (GPa) = 27.11639 36.05994 31.58816
#
# Velocity S-wave (km/s) = 3.47385 4.00597 3.74936
# Velocity P-wave (km/s) = 5.09591 6.10474 5.62299
#
# Compressibility (1/GPa) = 0.04505262
#
# Stress axis : x y z
#
# Youngs Moduli (GPa) = 153.73261 54.34115 53.22607
#
# Poissons Ratio (x) = 0.15042 0.10091
# Poissons Ratio (y) = 0.42555 -0.28438
# Poissons Ratio (z) = 0.29145 -0.29033
#
# Static dielectric constant tensor:
#      x y z
#    x 4.259060 0.000000 0.000000 
#    y 0.000000 3.963920 0.000000 
#    z 0.000000 0.000000 4.012090 
# 
# 
# High freq. dielectric constant tensor:
#      x y z
#    x 1.906600 0.000000 0.000000 
#    y 0.000000 1.891520 0.000000 
#    z 0.000000 0.000000 1.876670 
# 
# From -- ./inp_files/3424.got.cif
#   From: 2010.03.12/outbox.cif.g09.slc.cpg/sg31_2_cif.got.tgz:3424.got - 2010.04.14 01:42:59.
