data_PCOD8170738
_publ_section_title
;
Structure prediction by ZEFSAII (Michael W. Deem and Ramdas Pophale) SiO2 
 PCOD8170738
Probable space group: P N A 21
;
_chemical_formula_sum "Si O2"
_cell_formula_units_Z 32
_cell_length_a 9.482705
_cell_length_b 9.533097
_cell_length_c 18.833636
_cell_angle_alpha 90.000000
_cell_angle_beta 90.000000
_cell_angle_gamma 90.000000
_cell_volume 1702.552155
_symmetry_space_group_name_H-M "P N A 21"
_symmetry_group_IT_number 33
_symmetry_cell_setting 'orthorhombic'
loop_
_space_group_symop_operation_xyz
x,y,z
-x,-y,1/2+z
1/2-x,1/2+y,1/2+z
1/2+x,1/2-y,z
loop_
_atom_site_type_symbol
_atom_site_label
_atom_site_fract_x
_atom_site_fract_y
_atom_site_fract_z
Si Si1 0.524214 0.823886 0.555290
Si Si2 0.814897 0.123007 0.823254
Si Si3 0.975786 0.676113 0.389474
Si Si4 0.250711 0.676556 0.783072
Si Si5 0.558387 0.923370 0.147926
Si Si6 0.249290 0.823443 0.161692
Si Si7 0.441614 0.923370 0.796838
Si Si8 0.314897 0.623007 0.621510
O O1 0.500001 0.818177 0.472382
O O2 0.460147 0.685303 0.592184
O O3 0.689906 0.824473 0.570570
O O4 0.448572 0.962413 0.585910
O O5 0.960147 0.185304 0.852579
O O6 0.689906 0.175528 0.874194
O O7 0.785017 0.177604 0.744649
O O8 0.824482 0.954360 0.822681
O O9 0.051426 0.537586 0.358854
O O10 0.311827 0.820509 0.815388
O O11 0.285020 0.677604 0.700115
O O12 0.083155 0.669910 0.793526
O O13 0.416846 0.830090 0.151237
O O14 0.688174 0.820510 0.129376
O O15 0.581830 1.000000 0.222382
O O16 0.175519 0.954359 0.122083
#
# Coordination Sequence:
#
# PCOD8170738 Si02
#       8
#     4   4   4   4   4   4   4   4
#     4  11  22  37  57  84 117 152 183 226 285 338
#     4  10  19  36  56  81 113 141 188 237 271 331
#     4  11  22  37  57  84 117 152 183 226 285 338
#     4  10  19  36  58  84 109 141 191 238 275 315
#     4  11  20  38  57  84 116 145 188 235 275 331
#     4  10  19  36  58  84 109 141 191 238 275 315
#     4  11  20  38  57  84 116 145 188 235 275 331
#     4  10  19  36  56  81 113 141 188 237 271 331
#
# _framework density 18.795311999999999
#
# number of rings (size 3 to 8) (size 9 to 14) (size 15 to 20)
#    0.000    1.500    7.500    0.750    0.000    2.000 
#    4.500    6.250    0.000    0.000    0.000    0.000 
#    0.000    0.000    0.000    0.000    0.000    0.000 
#
# Total GULP energy -396864.231339 kJ/mol
# GULP energy per Si atom -12402.007229 kJ/mol
# Density = 1.875253 g / cm^3
# Si number density = 18.795312 Si / 1000 Ang^3
#
#
#
# Elastic Constant Matrix: (Units=GPa)
#
#
# Indices 1 2 3 4 5 6 
#
# 1 51.1048 46.9774 15.9248 0.0000 0.0000 0.0000
# 2 46.9774 89.4599 14.3086 0.0000 0.0000 0.0000
# 3 15.9248 14.3086 80.5318 0.0000 0.0000 0.0000
# 4 0.0000 0.0000 0.0000 -20.3772 0.0000 0.0000
# 5 0.0000 0.0000 0.0000 0.0000 11.2268 0.0000
# 6 0.0000 0.0000 0.0000 0.0000 0.0000 70.9353
#
#
#
# Elastic Compliance Matrix: (Units=1/GPa)
#
#
# Indices 1 2 3 4 5 6 
#
# 1 0.039167 -0.019894 -0.004210 0.000000 0.000000 0.000000
# 2 -0.019894 0.021610 0.000094 0.000000 0.000000 0.000000
# 3 -0.004210 0.000094 0.013233 0.000000 0.000000 0.000000
# 4 0.000000 0.000000 0.000000 -0.049074 0.000000 0.000000
# 5 0.000000 0.000000 0.000000 0.000000 0.089073 0.000000
# 6 0.000000 0.000000 0.000000 0.000000 0.000000 0.014097
#
#
# Mechanical properties :
#
#
# Convention : Reuss Voigt Hill
#
# Bulk Modulus (GPa) = 38.47623 41.72423 40.10023
# Shear Modulus (GPa) = 27.05778 21.94935 24.50356
#
# Velocity S-wave (km/s) = 3.79833 3.42103 3.61460
# Velocity P-wave (km/s) = 6.30492 6.15240 6.22913
#
# Compressibility (1/GPa) = 0.02599007
#
# Stress axis : x y z
#
# Youngs Moduli (GPa) = 25.53167 46.27500 75.56707
#
# Poissons Ratio (x) = 0.92060 0.31817
# Poissons Ratio (y) = 0.50793 -0.00713
# Poissons Ratio (z) = 0.10750 -0.00437
#
# Static dielectric constant tensor:
#      x y z
#    x 3.506280 0.000000 0.000000 
#    y 0.000000 4.302820 0.000000 
#    z 0.000000 0.000000 3.222720 
# 
# 
# High freq. dielectric constant tensor:
#      x y z
#    x 1.728110 0.000000 0.000000 
#    y 0.000000 1.734150 0.000000 
#    z 0.000000 0.000000 1.710070 
# 
# From -- ./inp_files/8708.got.cif
#   From: 2010.03.12/outbox.cif.g09.slc.cpg/sg33_5_cif.got.tgz:8708.got - 2010.04.14 01:49:19.
