data_PCOD8170749
_publ_section_title
;
Structure prediction by ZEFSAII (Michael W. Deem and Ramdas Pophale) SiO2 
 PCOD8170749
Probable space group: P N A 21
;
_chemical_formula_sum "Si O2"
_cell_formula_units_Z 32
_cell_length_a 13.831491
_cell_length_b 13.185154
_cell_length_c 9.301603
_cell_angle_alpha 90.000000
_cell_angle_beta 90.000000
_cell_angle_gamma 90.000000
_cell_volume 1696.336491
_symmetry_space_group_name_H-M "P N A 21"
_symmetry_group_IT_number 33
_symmetry_cell_setting 'orthorhombic'
loop_
_space_group_symop_operation_xyz
x,y,z
-x,-y,1/2+z
1/2-x,1/2+y,1/2+z
1/2+x,1/2-y,z
loop_
_atom_site_type_symbol
_atom_site_label
_atom_site_fract_x
_atom_site_fract_y
_atom_site_fract_z
Si Si1 0.503884 0.395300 0.628620
Si Si2 0.916969 0.628667 0.896218
Si Si3 0.543568 0.407804 0.949830
Si Si4 0.410030 0.187533 0.577152
Si Si5 0.432422 0.798135 0.576225
Si Si6 0.196341 0.218514 0.587814
Si Si7 0.776543 0.793590 0.409249
Si Si8 0.416489 0.103392 0.889824
O O1 0.487254 0.413613 0.798316
O O2 0.475916 0.495049 0.544107
O O3 0.432474 0.306946 0.577800
O O4 0.614192 0.367649 0.587525
O O5 0.838222 0.686137 0.993876
O O6 0.024499 0.631120 0.960709
O O7 0.883098 0.513036 0.882074
O O8 0.924586 0.682941 0.743549
O O9 0.511183 0.307495 0.040090
O O10 0.657747 0.395972 0.914723
O O11 0.297933 0.171657 0.531343
O O12 0.440447 0.140218 0.729820
O O13 0.321698 0.790938 0.516455
O O14 0.490647 0.886580 0.493426
O O15 0.218457 0.255255 0.750098
O O16 0.669436 0.826869 0.454032
#
# Coordination Sequence:
#
# PCOD8170749 Si02
#       8
#     4   4   4   4   4   4   4   4
#     4  10  19  36  63  83 117 151 193 240 294 348
#     4  11  23  35  62  91 116 158 195 243 286 357
#     4   9  20  36  58  86 112 151 189 242 291 338
#     4  10  21  40  60  83 122 159 190 240 296 344
#     4  10  21  39  55  88 124 144 192 249 292 340
#     4   9  20  38  59  84 118 156 194 238 289 351
#     4   8  20  39  60  79 118 152 193 237 293 343
#     4  11  20  41  63  82 119 163 194 235 297 353
#
# _framework density 18.864180999999999
#
# number of rings (size 3 to 8) (size 9 to 14) (size 15 to 20)
#    0.750    1.500    1.250    1.500    5.250    1.000 
#    0.000    5.000    5.500    0.000    0.000    0.000 
#    0.000    0.000    0.000    0.000    0.000    0.000 
#
# Total GULP energy -396605.308830 kJ/mol
# GULP energy per Si atom -12393.915901 kJ/mol
# Density = 1.882124 g / cm^3
# Si number density = 18.864181 Si / 1000 Ang^3
#
#
#
# Elastic Constant Matrix: (Units=GPa)
#
#
# Indices 1 2 3 4 5 6 
#
# 1 99.5477 14.7897 49.5835 0.0000 0.0000 0.0000
# 2 14.7897 83.5158 44.6971 0.0000 0.0000 0.0000
# 3 49.5835 44.6971 98.8031 0.0000 0.0000 0.0000
# 4 0.0000 0.0000 0.0000 32.2650 0.0000 0.0000
# 5 0.0000 0.0000 0.0000 0.0000 23.8455 0.0000
# 6 0.0000 0.0000 0.0000 0.0000 0.0000 17.2742
#
#
#
# Elastic Compliance Matrix: (Units=1/GPa)
#
#
# Indices 1 2 3 4 5 6 
#
# 1 0.013561 0.001637 -0.007546 0.000000 0.000000 0.000000
# 2 0.001637 0.015997 -0.008058 0.000000 0.000000 0.000000
# 3 -0.007546 -0.008058 0.017553 0.000000 0.000000 0.000000
# 4 0.000000 0.000000 0.000000 0.030993 0.000000 0.000000
# 5 0.000000 0.000000 0.000000 0.000000 0.041937 0.000000
# 6 0.000000 0.000000 0.000000 0.000000 0.000000 0.057890
#
#
# Mechanical properties :
#
#
# Convention : Reuss Voigt Hill
#
# Bulk Modulus (GPa) = 52.14671 55.55633 53.85152
# Shear Modulus (GPa) = 23.55638 26.19670 24.87654
#
# Velocity S-wave (km/s) = 3.53758 3.73057 3.63536
# Velocity P-wave (km/s) = 6.66252 6.93331 6.79927
#
# Compressibility (1/GPa) = 0.01917667
#
# Stress axis : x y z
#
# Youngs Moduli (GPa) = 73.74217 62.51352 56.96903
#
# Poissons Ratio (x) = -0.10234 0.42988
# Poissons Ratio (y) = -0.12072 0.45907
# Poissons Ratio (z) = 0.55645 0.50374
#
# Static dielectric constant tensor:
#      x y z
#    x 3.490540 0.000000 0.000000 
#    y 0.000000 3.229660 0.000000 
#    z 0.000000 0.000000 3.368270 
# 
# 
# High freq. dielectric constant tensor:
#      x y z
#    x 1.728520 0.000000 0.000000 
#    y 0.000000 1.718210 0.000000 
#    z 0.000000 0.000000 1.732240 
# 
# From -- ./inp_files/4514.got.cif
#   From: 2010.03.12/outbox.cif.g09.slc.cpg/sg33_3_cif.got.tgz:4514.got - 2010.04.14 01:49:19.
