data_PCOD8170888
_publ_section_title
;
Structure prediction by ZEFSAII (Michael W. Deem and Ramdas Pophale) SiO2 
 PCOD8170888
Probable space group: P N A 21
;
_chemical_formula_sum "Si O2"
_cell_formula_units_Z 20
_cell_length_a 8.851099
_cell_length_b 12.097086
_cell_length_c 7.692168
_cell_angle_alpha 90.000000
_cell_angle_beta 90.000000
_cell_angle_gamma 90.000000
_cell_volume 823.619703
_symmetry_space_group_name_H-M "P N A 21"
_symmetry_group_IT_number 33
_symmetry_cell_setting 'orthorhombic'
loop_
_space_group_symop_operation_xyz
x,y,z
-x,-y,1/2+z
1/2-x,1/2+y,1/2+z
1/2+x,1/2-y,z
loop_
_atom_site_type_symbol
_atom_site_label
_atom_site_fract_x
_atom_site_fract_y
_atom_site_fract_z
Si Si1 0.778930 0.915160 0.368490
Si Si2 0.273006 0.289591 0.098663
Si Si3 0.991795 0.976512 0.655057
Si Si4 0.287459 0.090443 0.322407
Si Si5 0.057590 0.485044 0.132439
O O1 0.745148 0.790834 0.430591
O O2 0.870748 0.994782 0.501467
O O3 0.619551 0.972008 0.320037
O O4 0.887346 0.925040 0.192806
O O5 0.425631 0.361314 0.103218
O O6 0.269113 0.219521 0.277058
O O7 0.127471 0.366886 0.085132
O O8 0.880883 0.963320 0.827908
O O9 0.378370 0.034051 0.156513
O O10 0.389323 0.076669 0.492782
#
# Coordination Sequence:
#
# PCOD8170888 Si02
#       5
#     4   4   4   4   4
#     4  10  21  40  63  90 124 164 209 257 313 374
#     4  10  22  42  63  88 126 167 203 259 320 372
#     4  10  20  38  65  90 122 165 208 255 312 375
#     4  11  21  39  63  90 124 164 208 257 311 374
#     4  11  24  41  62  92 128 164 208 262 316 375
#
# _framework density 24.283051
#
# number of rings (size 3 to 8) (size 9 to 14) (size 15 to 20)
#    0.000    1.600    0.000    7.200    0.000    0.000 
#    0.000   24.000    0.000    0.000    0.000    0.000 
#    0.000    0.000    0.000    0.000    0.000    0.000 
#
# Total GULP energy -247773.907944 kJ/mol
# GULP energy per Si atom -12388.695397 kJ/mol
# Density = 2.422778 g / cm^3
# Si number density = 24.283051 Si / 1000 Ang^3
#
#
#
# Elastic Constant Matrix: (Units=GPa)
#
#
# Indices 1 2 3 4 5 6 
#
# 1 139.9837 35.8950 -2.1733 0.0000 0.0000 0.0000
# 2 35.8950 119.9381 34.2303 0.0000 0.0000 0.0000
# 3 -2.1733 34.2303 39.0127 0.0000 0.0000 0.0000
# 4 0.0000 0.0000 0.0000 46.5515 0.0000 0.0000
# 5 0.0000 0.0000 0.0000 0.0000 39.3307 0.0000
# 6 0.0000 0.0000 0.0000 0.0000 0.0000 32.1021
#
#
#
# Elastic Compliance Matrix: (Units=1/GPa)
#
#
# Indices 1 2 3 4 5 6 
#
# 1 0.008067 -0.003392 0.003425 0.000000 0.000000 0.000000
# 2 -0.003392 0.012549 -0.011200 0.000000 0.000000 0.000000
# 3 0.003425 -0.011200 0.035650 0.000000 0.000000 0.000000
# 4 0.000000 0.000000 0.000000 0.021482 0.000000 0.000000
# 5 0.000000 0.000000 0.000000 0.000000 0.025425 0.000000
# 6 0.000000 0.000000 0.000000 0.000000 0.000000 0.031151
#
#
# Mechanical properties :
#
#
# Convention : Reuss Voigt Hill
#
# Bulk Modulus (GPa) = 29.46918 48.31538 38.89228
# Shear Modulus (GPa) = 29.76771 38.99568 34.38170
#
# Velocity S-wave (km/s) = 3.50503 4.01169 3.76689
# Velocity P-wave (km/s) = 5.34251 6.43414 5.91357
#
# Compressibility (1/GPa) = 0.03393376
#
# Stress axis : x y z
#
# Youngs Moduli (GPa) = 123.96808 79.68689 28.05023
#
# Poissons Ratio (x) = 0.27028 -0.09608
# Poissons Ratio (y) = 0.42047 0.31415
# Poissons Ratio (z) = -0.42463 0.89247
#
# Static dielectric constant tensor:
#      x y z
#    x 4.822710 0.000000 0.000000 
#    y 0.000000 3.874240 0.000000 
#    z 0.000000 0.000000 4.768480 
# 
# 
# High freq. dielectric constant tensor:
#      x y z
#    x 2.006370 0.000000 0.000000 
#    y 0.000000 1.918080 0.000000 
#    z 0.000000 0.000000 1.973170 
# 
# From -- ./inp_files/2996.got.cif
#   From: 2010.03.12/outbox.cif.g09.slc.cpg/sg33_2_cif.got.tgz:2996.got - 2010.04.14 01:49:19.
