data_PCOD8170450
_publ_section_title
;
Structure prediction by ZEFSAII (Michael W. Deem and Ramdas Pophale) SiO2 
 PCOD8170450
Probable space group: P B A 2
;
_chemical_formula_sum "Si O2"
_cell_formula_units_Z 28
_cell_length_a 4.956412
_cell_length_b 27.522423
_cell_length_c 9.842193
_cell_angle_alpha 90.000000
_cell_angle_beta 90.000000
_cell_angle_gamma 90.000000
_cell_volume 1342.597834
_symmetry_space_group_name_H-M "P B A 2"
_symmetry_group_IT_number 32
_symmetry_cell_setting 'orthorhombic'
loop_
_space_group_symop_operation_xyz
x,y,z
-x,-y,z
1/2-x,1/2+y,z
1/2+x,1/2-y,z
loop_
_atom_site_type_symbol
_atom_site_label
_atom_site_fract_x
_atom_site_fract_y
_atom_site_fract_z
Si Si1 0.839154 0.780923 0.927370
Si Si2 0.235062 0.902984 0.110894
Si Si3 0.739673 0.098303 0.790720
Si Si4 0.000000 0.500000 0.858564
Si Si5 0.756070 0.346907 0.173095
Si Si6 0.735814 0.347893 0.686988
Si Si7 0.265703 0.215641 0.433823
Si Si8 0.500000 0.500000 0.039119
O O1 0.646893 0.734664 0.953330
O O2 0.830755 0.800013 0.773826
O O3 0.740335 0.823612 0.024597
O O4 0.527223 0.890983 0.173160
O O5 0.036243 0.869602 0.198447
O O6 0.139027 0.958662 0.131971
O O7 0.219699 0.891628 0.950380
O O8 0.531986 0.135391 0.726850
O O9 0.021527 0.108400 0.712736
O O10 0.629966 0.043177 0.768443
O O11 0.250620 0.521717 0.948383
O O12 0.802941 0.304997 0.282411
O O13 0.748256 0.331390 0.530824
O O14 0.508879 0.251539 0.460521
#
# Coordination Sequence:
#
# PCOD8170450 Si02
#       8
#     4   4   4   2   4   4   4   2
#     4  12  22  36  56  86 116 154 200 260 314 342
#     4  11  20  38  61  96 126 157 203 253 315 368
#     4  11  20  38  61  96 126 157 203 253 315 368
#     4  10  20  34  60  96 134 162 192 254 318 384
#     4  12  23  39  63  88 125 162 208 259 303 375
#     4  12  23  39  63  88 125 162 208 259 303 375
#     4  12  26  46  62  86 124 172 220 252 310 380
#     4  10  20  34  60  96 134 162 192 254 318 384
#
# _framework density 20.855091000000002
#
# number of rings (size 3 to 8) (size 9 to 14) (size 15 to 20)
#    0.000    0.571    2.857    8.571    0.000    0.000 
#    0.000    0.000    0.000    3.429    0.000    2.000 
#    0.000    0.000    0.000    0.000    0.000    0.000 
#
# Total GULP energy -347167.488858 kJ/mol
# GULP energy per Si atom -12398.838888 kJ/mol
# Density = 2.080762 g / cm^3
# Si number density = 20.855091 Si / 1000 Ang^3
#
#
#
# Elastic Constant Matrix: (Units=GPa)
#
#
# Indices 1 2 3 4 5 6 
#
# 1 113.2270 30.2831 19.4304 0.0000 0.0000 0.0000
# 2 30.2831 98.3501 21.6686 0.0000 0.0000 0.0000
# 3 19.4304 21.6686 52.6077 0.0000 0.0000 0.0000
# 4 0.0000 0.0000 0.0000 26.4816 0.0000 0.0000
# 5 0.0000 0.0000 0.0000 0.0000 23.5035 0.0000
# 6 0.0000 0.0000 0.0000 0.0000 0.0000 50.9183
#
#
#
# Elastic Compliance Matrix: (Units=1/GPa)
#
#
# Indices 1 2 3 4 5 6 
#
# 1 0.009950 -0.002479 -0.002654 0.000000 0.000000 0.000000
# 2 -0.002479 0.011800 -0.003945 0.000000 0.000000 0.000000
# 3 -0.002654 -0.003945 0.021614 0.000000 0.000000 0.000000
# 4 0.000000 0.000000 0.000000 0.037762 0.000000 0.000000
# 5 0.000000 0.000000 0.000000 0.000000 0.042547 0.000000
# 6 0.000000 0.000000 0.000000 0.000000 0.000000 0.019639
#
#
# Mechanical properties :
#
#
# Convention : Reuss Voigt Hill
#
# Bulk Modulus (GPa) = 39.66914 45.21658 42.44286
# Shear Modulus (GPa) = 29.43413 33.03420 31.23416
#
# Velocity S-wave (km/s) = 3.76089 3.98425 3.87418
# Velocity P-wave (km/s) = 6.15806 6.54936 6.35672
#
# Compressibility (1/GPa) = 0.02520851
#
# Stress axis : x y z
#
# Youngs Moduli (GPa) = 100.49956 84.74429 46.26704
#
# Poissons Ratio (x) = 0.21009 0.12279
# Poissons Ratio (y) = 0.24915 0.18251
# Poissons Ratio (z) = 0.26672 0.33430
#
# Static dielectric constant tensor:
#      x y z
#    x 4.131060 0.000000 0.000000 
#    y 0.000000 3.771200 0.000000 
#    z 0.000000 0.000000 3.379050 
# 
# 
# High freq. dielectric constant tensor:
#      x y z
#    x 1.846150 0.000000 0.000000 
#    y 0.000000 1.820710 0.000000 
#    z 0.000000 0.000000 1.768140 
# 
# From -- ./inp_files/2030.got.cif
#   From: 2010.03.12/outbox.cif.g09.slc.cpg/sg32_2_cif.got.tgz:2030.got - 2010.04.14 01:46:39.
