data_PCOD8170759
_publ_section_title
;
Structure prediction by ZEFSAII (Michael W. Deem and Ramdas Pophale) SiO2 
 PCOD8170759
Probable space group: P N A 21
;
_chemical_formula_sum "Si O2"
_cell_formula_units_Z 28
_cell_length_a 5.144263
_cell_length_b 15.055441
_cell_length_c 16.150940
_cell_angle_alpha 90.000000
_cell_angle_beta 90.000000
_cell_angle_gamma 90.000000
_cell_volume 1250.876544
_symmetry_space_group_name_H-M "P N A 21"
_symmetry_group_IT_number 33
_symmetry_cell_setting 'orthorhombic'
loop_
_space_group_symop_operation_xyz
x,y,z
-x,-y,1/2+z
1/2-x,1/2+y,1/2+z
1/2+x,1/2-y,z
loop_
_atom_site_type_symbol
_atom_site_label
_atom_site_fract_x
_atom_site_fract_y
_atom_site_fract_z
Si Si1 0.965013 0.302843 0.531300
Si Si2 0.998024 0.848460 0.291341
Si Si3 0.737425 0.191748 0.284511
Si Si4 0.503653 0.156820 0.721267
Si Si5 0.341940 0.953918 0.920177
Si Si6 0.834557 0.062383 0.948278
Si Si7 0.238692 0.307354 0.092455
O O1 0.187205 0.234069 0.501912
O O2 0.944161 0.315632 0.628769
O O3 0.025355 0.396876 0.492346
O O4 0.221993 0.893408 0.233026
O O5 0.056458 0.861286 0.387666
O O6 0.732366 0.898899 0.262594
O O7 0.932976 0.745834 0.274302
O O8 0.502055 0.257527 0.307384
O O9 0.709425 0.101895 0.337041
O O10 0.742342 0.163577 0.188375
O O11 0.564714 0.028296 0.907175
O O12 0.064618 0.989411 0.953571
O O13 0.778468 0.104004 0.038234
O O14 0.462115 0.236291 0.071479
#
# Coordination Sequence:
#
# PCOD8170759 Si02
#       7
#     4   4   4   4   4   4   4
#     4  12  21  41  66  95 130 165 225 269 314 392
#     4  10  20  36  60  85 131 156 210 256 304 396
#     4  10  21  45  72  94 120 172 237 277 315 376
#     4  10  19  37  60  97 114 159 215 259 315 369
#     4  12  26  43  63  98 140 174 212 267 343 403
#     4  12  26  43  61 101 138 175 211 265 350 396
#     4  10  23  43  72  94 123 171 232 281 313 382
#
# _framework density 22.384305000000001
#
# number of rings (size 3 to 8) (size 9 to 14) (size 15 to 20)
#    0.000    1.143    2.857    4.286    4.000    0.000 
#    7.714    0.000    0.000    0.000    0.000    0.000 
#    0.000    0.000    0.000    0.000    0.000    0.000 
#
# Total GULP energy -347104.846531 kJ/mol
# GULP energy per Si atom -12396.601662 kJ/mol
# Density = 2.233336 g / cm^3
# Si number density = 22.384305 Si / 1000 Ang^3
#
#
#
# Elastic Constant Matrix: (Units=GPa)
#
#
# Indices 1 2 3 4 5 6 
#
# 1 164.2922 20.7230 40.2271 0.0000 0.0000 0.0000
# 2 20.7230 67.9848 61.7450 0.0000 0.0000 0.0000
# 3 40.2271 61.7450 94.6924 0.0000 0.0000 0.0000
# 4 0.0000 0.0000 0.0000 28.8518 0.0000 0.0000
# 5 0.0000 0.0000 0.0000 0.0000 32.7062 0.0000
# 6 0.0000 0.0000 0.0000 0.0000 0.0000 28.9982
#
#
#
# Elastic Compliance Matrix: (Units=1/GPa)
#
#
# Indices 1 2 3 4 5 6 
#
# 1 0.006844 0.001360 -0.003794 0.000000 0.000000 0.000000
# 2 0.001360 0.036341 -0.024274 0.000000 0.000000 0.000000
# 3 -0.003794 -0.024274 0.028000 0.000000 0.000000 0.000000
# 4 0.000000 0.000000 0.000000 0.034660 0.000000 0.000000
# 5 0.000000 0.000000 0.000000 0.000000 0.030575 0.000000
# 6 0.000000 0.000000 0.000000 0.000000 0.000000 0.034485
#
#
# Mechanical properties :
#
#
# Convention : Reuss Voigt Hill
#
# Bulk Modulus (GPa) = 56.27928 63.59551 59.93740
# Shear Modulus (GPa) = 21.71602 31.72952 26.72277
#
# Velocity S-wave (km/s) = 3.11809 3.76904 3.45891
# Velocity P-wave (km/s) = 6.17740 6.88573 6.54116
#
# Compressibility (1/GPa) = 0.01776853
#
# Stress axis : x y z
#
# Youngs Moduli (GPa) = 146.10878 27.51739 35.71386
#
# Poissons Ratio (x) = -0.03741 0.13550
# Poissons Ratio (y) = -0.19866 0.86691
# Poissons Ratio (z) = 0.55436 0.66795
#
# Static dielectric constant tensor:
#      x y z
#    x 4.848690 0.000000 0.000000 
#    y 0.000000 3.665900 0.000000 
#    z 0.000000 0.000000 4.011270 
# 
# 
# High freq. dielectric constant tensor:
#      x y z
#    x 1.922480 0.000000 0.000000 
#    y 0.000000 1.845090 0.000000 
#    z 0.000000 0.000000 1.885490 
# 
# From -- ./inp_files/7411.got.cif
#   From: 2010.03.12/outbox.cif.g09.slc.cpg/sg33_4_cif.got.tgz:7411.got - 2010.04.14 01:49:19.
