data_PCOD8170912
_publ_section_title
;
Structure prediction by ZEFSAII (Michael W. Deem and Ramdas Pophale) SiO2 
 PCOD8170912
Probable space group: P N A 21
;
_chemical_formula_sum "Si O2"
_cell_formula_units_Z 32
_cell_length_a 10.322860
_cell_length_b 16.145373
_cell_length_c 9.295863
_cell_angle_alpha 90.000000
_cell_angle_beta 90.000000
_cell_angle_gamma 90.000000
_cell_volume 1549.308255
_symmetry_space_group_name_H-M "P N A 21"
_symmetry_group_IT_number 33
_symmetry_cell_setting 'orthorhombic'
loop_
_space_group_symop_operation_xyz
x,y,z
-x,-y,1/2+z
1/2-x,1/2+y,1/2+z
1/2+x,1/2-y,z
loop_
_atom_site_type_symbol
_atom_site_label
_atom_site_fract_x
_atom_site_fract_y
_atom_site_fract_z
Si Si1 0.731198 0.878142 0.807560
Si Si2 0.194810 0.776270 0.610372
Si Si3 0.662574 0.867152 0.413765
Si Si4 0.984497 0.081752 0.220236
Si Si5 0.365552 0.500284 0.490032
Si Si6 0.839310 0.548487 0.189090
Si Si7 0.122178 0.405699 0.996714
Si Si8 0.878956 0.418234 0.601642
O O1 0.711732 0.790109 0.734723
O O2 0.882900 0.900532 0.805373
O O3 0.647829 0.950138 0.728475
O O4 0.676719 0.866356 0.968365
O O5 0.162135 0.728935 0.460975
O O6 0.328235 0.826867 0.586480
O O7 0.078066 0.835375 0.657215
O O8 0.784777 0.913833 0.483688
O O9 0.531616 0.909639 0.471960
O O10 0.677862 0.875159 0.243146
O O11 0.006344 0.021223 0.082987
O O12 0.891629 0.035971 0.333348
O O13 0.279491 0.434457 0.580258
O O14 0.811013 0.595785 0.339013
O O15 0.965489 0.583587 0.109356
O O16 0.167109 0.486367 0.086367
#
# Coordination Sequence:
#
# PCOD8170912 Si02
#       8
#     4   4   4   4   4   4   4   4
#     4  10  22  43  61  94 140 160 218 273 319 390
#     4  12  23  43  62  96 131 177 206 267 339 383
#     4  11  22  40  65  95 131 158 215 270 323 384
#     4  11  26  42  67  91 135 178 216 266 328 393
#     4  11  23  44  63 100 125 175 219 269 316 396
#     4   9  19  40  65  95 122 158 217 271 306 386
#     4  10  21  38  69  93 121 166 220 259 325 382
#     4  10  20  40  68  94 117 172 209 271 314 374
#
# _framework density 20.65438
#
# number of rings (size 3 to 8) (size 9 to 14) (size 15 to 20)
#    0.000    1.500    3.750    1.500    7.000    0.000 
#    6.750    1.250    0.000    0.000    0.000    0.000 
#    0.000    0.000    0.000    0.000    0.000    0.000 
#
# Total GULP energy -396745.266625 kJ/mol
# GULP energy per Si atom -12398.289582 kJ/mol
# Density = 2.060737 g / cm^3
# Si number density = 20.654380 Si / 1000 Ang^3
#
#
#
# Elastic Constant Matrix: (Units=GPa)
#
#
# Indices 1 2 3 4 5 6 
#
# 1 66.3126 26.1586 45.4343 0.0000 0.0000 0.0000
# 2 26.1586 95.8840 59.3172 0.0000 0.0000 0.0000
# 3 45.4343 59.3172 152.6258 0.0000 0.0000 0.0000
# 4 0.0000 0.0000 0.0000 38.3847 0.0000 0.0000
# 5 0.0000 0.0000 0.0000 0.0000 41.5154 0.0000
# 6 0.0000 0.0000 0.0000 0.0000 0.0000 30.0529
#
#
#
# Elastic Compliance Matrix: (Units=1/GPa)
#
#
# Indices 1 2 3 4 5 6 
#
# 1 0.019307 -0.002253 -0.004872 0.000000 0.000000 0.000000
# 2 -0.002253 0.013994 -0.004768 0.000000 0.000000 0.000000
# 3 -0.004872 -0.004768 0.009855 0.000000 0.000000 0.000000
# 4 0.000000 0.000000 0.000000 0.026052 0.000000 0.000000
# 5 0.000000 0.000000 0.000000 0.000000 0.024087 0.000000
# 6 0.000000 0.000000 0.000000 0.000000 0.000000 0.033275
#
#
# Mechanical properties :
#
#
# Convention : Reuss Voigt Hill
#
# Bulk Modulus (GPa) = 51.62622 64.07139 57.84880
# Shear Modulus (GPa) = 31.88542 34.25141 33.06841
#
# Velocity S-wave (km/s) = 3.93333 4.07666 4.00564
# Velocity P-wave (km/s) = 6.75853 7.29705 7.03294
#
# Compressibility (1/GPa) = 0.01937000
#
# Stress axis : x y z
#
# Youngs Moduli (GPa) = 51.79534 71.46174 101.47057
#
# Poissons Ratio (x) = 0.16104 0.49432
# Poissons Ratio (y) = 0.11672 0.48378
# Poissons Ratio (z) = 0.25232 0.34071
#
# Static dielectric constant tensor:
#      x y z
#    x 3.667510 0.000000 0.000000 
#    y 0.000000 3.501890 0.000000 
#    z 0.000000 0.000000 3.968520 
# 
# 
# High freq. dielectric constant tensor:
#      x y z
#    x 1.807510 0.000000 0.000000 
#    y 0.000000 1.780430 0.000000 
#    z 0.000000 0.000000 1.823480 
# 
# From -- ./inp_files/3925.got.cif
#   From: 2010.03.12/outbox.cif.g09.slc.cpg/sg33_2_cif.got.tgz:3925.got - 2010.04.14 01:49:19.
