data_PCOD8170651
_publ_section_title
;
Structure prediction by ZEFSAII (Michael W. Deem and Ramdas Pophale) SiO2 
 PCOD8170651
Probable space group: P N A 21
;
_chemical_formula_sum "Si O2"
_cell_formula_units_Z 32
_cell_length_a 7.812481
_cell_length_b 10.640399
_cell_length_c 20.310015
_cell_angle_alpha 90.000000
_cell_angle_beta 90.000000
_cell_angle_gamma 90.000000
_cell_volume 1688.329201
_symmetry_space_group_name_H-M "P N A 21"
_symmetry_group_IT_number 33
_symmetry_cell_setting 'orthorhombic'
loop_
_space_group_symop_operation_xyz
x,y,z
-x,-y,1/2+z
1/2-x,1/2+y,1/2+z
1/2+x,1/2-y,z
loop_
_atom_site_type_symbol
_atom_site_label
_atom_site_fract_x
_atom_site_fract_y
_atom_site_fract_z
Si Si1 0.938885 0.408724 0.602750
Si Si2 0.644458 0.483094 0.445214
Si Si3 0.926467 0.422133 0.207486
Si Si4 0.208938 0.253464 0.532086
Si Si5 0.828650 0.136344 0.404033
Si Si6 0.295838 0.371164 0.062815
Si Si7 0.552796 0.894746 0.857954
Si Si8 0.107739 0.186092 0.142883
O O1 0.803763 0.293013 0.599764
O O2 0.858000 0.531996 0.571090
O O3 0.007234 0.447264 0.674617
O O4 0.085525 0.365706 0.552546
O O5 0.627692 0.368688 0.497347
O O6 0.473040 0.473763 0.399598
O O7 0.642571 0.613964 0.486854
O O8 0.816638 0.476104 0.401950
O O9 0.940977 0.446972 0.284423
O O10 0.728190 0.400831 0.187786
O O11 0.042614 0.303408 0.186499
O O12 0.336052 0.312802 0.478650
O O13 0.640445 0.088375 0.384720
O O14 0.889749 0.249127 0.356315
O O15 0.218747 0.234054 0.079613
O O16 0.451464 0.396330 0.114371
#
# Coordination Sequence:
#
# PCOD8170651 Si02
#       8
#     4   4   4   4   4   4   4   4
#     4  10  20  31  54  80 113 146 177 230 282 339
#     4  10  20  33  54  86 109 140 178 232 286 337
#     4  10  21  35  52  78 112 152 182 220 270 342
#     4  10  17  33  51  82 113 133 177 231 289 330
#     4  11  18  30  53  80 110 144 166 237 288 322
#     4   9  19  35  52  82 108 137 190 225 287 327
#     4  11  20  33  50  81 116 144 181 219 279 341
#     4   9  19  36  54  75 109 148 183 230 269 328
#
# _framework density 18.953648000000001
#
# number of rings (size 3 to 8) (size 9 to 14) (size 15 to 20)
#    0.000    2.000    3.750    2.250    1.750    0.000 
#    2.250    0.000    0.000    1.500    0.000    0.000 
#    0.000    0.000    0.000    0.000    0.000    0.000 
#
# Total GULP energy -396440.266557 kJ/mol
# GULP energy per Si atom -12388.758330 kJ/mol
# Density = 1.891051 g / cm^3
# Si number density = 18.953648 Si / 1000 Ang^3
#
#
#
# Elastic Constant Matrix: (Units=GPa)
#
#
# Indices 1 2 3 4 5 6 
#
# 1 118.4520 24.2682 44.6708 0.0000 0.0000 0.0000
# 2 24.2682 28.8125 35.8724 0.0000 0.0000 0.0000
# 3 44.6708 35.8724 113.4328 0.0000 0.0000 0.0000
# 4 0.0000 0.0000 0.0000 29.0564 0.0000 0.0000
# 5 0.0000 0.0000 0.0000 0.0000 18.9601 0.0000
# 6 0.0000 0.0000 0.0000 0.0000 0.0000 26.4449
#
#
#
# Elastic Compliance Matrix: (Units=1/GPa)
#
#
# Indices 1 2 3 4 5 6 
#
# 1 0.010529 -0.006113 -0.002213 0.000000 0.000000 0.000000
# 2 -0.006113 0.060796 -0.016819 0.000000 0.000000 0.000000
# 3 -0.002213 -0.016819 0.015006 0.000000 0.000000 0.000000
# 4 0.000000 0.000000 0.000000 0.034416 0.000000 0.000000
# 5 0.000000 0.000000 0.000000 0.000000 0.052742 0.000000
# 6 0.000000 0.000000 0.000000 0.000000 0.000000 0.037815
#
#
# Mechanical properties :
#
#
# Convention : Reuss Voigt Hill
#
# Bulk Modulus (GPa) = 27.74604 52.25778 40.00191
# Shear Modulus (GPa) = 18.27423 25.28466 21.77944
#
# Velocity S-wave (km/s) = 3.10845 3.65639 3.39350
# Velocity P-wave (km/s) = 5.24919 6.74217 6.04197
#
# Compressibility (1/GPa) = 0.03604118
#
# Stress axis : x y z
#
# Youngs Moduli (GPa) = 94.97257 16.44836 66.63832
#
# Poissons Ratio (x) = 0.10055 0.14750
# Poissons Ratio (y) = 0.58056 1.12080
# Poissons Ratio (z) = 0.21021 0.27665
#
# Static dielectric constant tensor:
#      x y z
#    x 3.827790 0.000000 0.000000 
#    y 0.000000 3.247860 0.000000 
#    z 0.000000 0.000000 3.412060 
# 
# 
# High freq. dielectric constant tensor:
#      x y z
#    x 1.763480 0.000000 0.000000 
#    y 0.000000 1.683770 0.000000 
#    z 0.000000 0.000000 1.711220 
# 
# From -- ./inp_files/8540.got.cif
#   From: 2010.03.12/outbox.cif.g09.slc.cpg/sg33_5_cif.got.tgz:8540.got - 2010.04.14 01:49:19.
