data_PCOD8170117
_publ_section_title
;
Structure prediction by ZEFSAII (Michael W. Deem and Ramdas Pophale) SiO2 
 PCOD8170117
Probable space group: P M N 21
;
_chemical_formula_sum "Si O2"
_cell_formula_units_Z 32
_cell_length_a 9.016304
_cell_length_b 13.364644
_cell_length_c 12.961650
_cell_angle_alpha 90.000000
_cell_angle_beta 90.000000
_cell_angle_gamma 90.000000
_cell_volume 1561.874848
_symmetry_space_group_name_H-M "P M N 21"
_symmetry_group_IT_number 31
_symmetry_cell_setting 'orthorhombic'
loop_
_space_group_symop_operation_xyz
x,y,z
1/2-x,-y,1/2+z
-x,y,z
1/2+x,-y,1/2+z
loop_
_atom_site_type_symbol
_atom_site_label
_atom_site_fract_x
_atom_site_fract_y
_atom_site_fract_z
Si Si1 0.328748 0.952072 0.081890
Si Si2 0.336835 0.121230 0.940903
Si Si3 0.824305 0.400031 0.116550
Si Si4 0.674779 0.682668 0.398584
Si Si5 0.676110 0.746990 0.796040
Si Si6 0.324682 0.383573 0.688829
Si Si7 0.164992 0.028347 0.261889
Si Si8 0.324512 0.238618 0.504091
O O1 0.500000 0.920117 0.076788
O O2 0.235378 0.873706 0.014769
O O3 0.270013 0.953329 0.198306
O O4 0.301267 0.068731 0.049945
O O5 0.500000 0.173213 0.939244
O O6 0.213539 0.200152 0.907916
O O7 0.340818 0.021148 0.873056
O O8 0.765630 0.322366 0.202550
O O9 0.767889 0.510137 0.146012
O O10 0.000000 0.395535 0.113885
O O11 0.764989 0.371525 0.002414
O O12 0.500000 0.671253 0.386261
O O13 0.750372 0.635380 0.298845
O O14 0.500000 0.739377 0.810983
O O15 0.727923 0.859624 0.771238
O O16 0.753563 0.710983 0.902166
O O17 0.500000 0.382965 0.705843
O O18 0.276269 0.300580 0.605608
O O19 0.000000 0.031245 0.212188
O O20 0.500000 0.238296 0.491078
#
# Coordination Sequence:
#
# PCOD8170117 Si02
#       8
#     4   4   4   4   4   4   4   4
#     4  11  22  37  58  86 120 159 203 246 288 350
#     4  10  21  38  57  81 120 161 191 233 297 355
#     4   9  21  41  65  89 119 159 200 250 312 362
#     4  11  23  40  64  93 121 154 205 257 294 357
#     4  10  20  39  64  89 121 161 204 250 303 363
#     4  10  23  43  63  87 122 164 199 245 313 367
#     4  10  20  36  57  84 120 160 196 240 299 355
#     4  11  23  38  60  89 125 164 202 249 304 361
#
# _framework density 20.488197
#
# number of rings (size 3 to 8) (size 9 to 14) (size 15 to 20)
#    0.000    1.750    1.250    2.625    1.750    7.000 
#    0.000    2.500    0.000    0.000    0.000    0.000 
#    0.000    0.000    0.000    0.000    0.000    0.000 
#
# Total GULP energy -396782.379055 kJ/mol
# GULP energy per Si atom -12399.449345 kJ/mol
# Density = 2.044157 g / cm^3
# Si number density = 20.488197 Si / 1000 Ang^3
#
#
#
# Elastic Constant Matrix: (Units=GPa)
#
#
# Indices 1 2 3 4 5 6 
#
# 1 58.7375 33.8231 49.1429 0.0000 0.0000 0.0000
# 2 33.8231 113.4474 53.2937 0.0000 0.0000 0.0000
# 3 49.1429 53.2937 149.8540 0.0000 0.0000 0.0000
# 4 0.0000 0.0000 0.0000 30.5152 0.0000 0.0000
# 5 0.0000 0.0000 0.0000 0.0000 33.2936 0.0000
# 6 0.0000 0.0000 0.0000 0.0000 0.0000 23.3570
#
#
#
# Elastic Compliance Matrix: (Units=1/GPa)
#
#
# Indices 1 2 3 4 5 6 
#
# 1 0.025129 -0.004347 -0.006695 0.000000 0.000000 0.000000
# 2 -0.004347 0.011335 -0.002605 0.000000 0.000000 0.000000
# 3 -0.006695 -0.002605 0.009795 0.000000 0.000000 0.000000
# 4 0.000000 0.000000 0.000000 0.032771 0.000000 0.000000
# 5 0.000000 0.000000 0.000000 0.000000 0.030036 0.000000
# 6 0.000000 0.000000 0.000000 0.000000 0.000000 0.042814
#
#
# Mechanical properties :
#
#
# Convention : Reuss Voigt Hill
#
# Bulk Modulus (GPa) = 52.73011 66.06205 59.39608
# Shear Modulus (GPa) = 26.95478 29.81843 28.38661
#
# Velocity S-wave (km/s) = 3.63109 3.81910 3.72628
# Velocity P-wave (km/s) = 6.58578 7.19454 6.89688
#
# Compressibility (1/GPa) = 0.01896450
#
# Stress axis : x y z
#
# Youngs Moduli (GPa) = 39.79397 88.22520 102.08984
#
# Poissons Ratio (x) = 0.38352 0.68349
# Poissons Ratio (y) = 0.17298 0.26599
# Poissons Ratio (z) = 0.26642 0.22987
#
# Static dielectric constant tensor:
#      x y z
#    x 3.512830 0.000000 0.000000 
#    y 0.000000 3.681930 0.000000 
#    z 0.000000 0.000000 3.865760 
# 
# 
# High freq. dielectric constant tensor:
#      x y z
#    x 1.782200 0.000000 0.000000 
#    y 0.000000 1.798970 0.000000 
#    z 0.000000 0.000000 1.817310 
# 
# From -- ./inp_files/3741.got.cif
#   From: 2010.03.12/outbox.cif.g09.slc.cpg/sg31_2_cif.got.tgz:3741.got - 2010.04.14 01:42:59.
