data_PCOD8170902
_publ_section_title
;
Structure prediction by ZEFSAII (Michael W. Deem and Ramdas Pophale) SiO2 
 PCOD8170902
Probable space group: P N A 21
;
_chemical_formula_sum "Si O2"
_cell_formula_units_Z 32
_cell_length_a 19.841195
_cell_length_b 12.769011
_cell_length_c 6.200835
_cell_angle_alpha 90.000000
_cell_angle_beta 90.000000
_cell_angle_gamma 90.000000
_cell_volume 1570.996660
_symmetry_space_group_name_H-M "P N A 21"
_symmetry_group_IT_number 33
_symmetry_cell_setting 'orthorhombic'
loop_
_space_group_symop_operation_xyz
x,y,z
-x,-y,1/2+z
1/2-x,1/2+y,1/2+z
1/2+x,1/2-y,z
loop_
_atom_site_type_symbol
_atom_site_label
_atom_site_fract_x
_atom_site_fract_y
_atom_site_fract_z
Si Si1 0.846807 0.171150 0.547760
Si Si2 0.553760 0.388084 0.002548
Si Si3 0.387180 0.170200 0.201528
Si Si4 0.489086 0.838066 0.424109
Si Si5 0.913767 0.025808 0.868876
Si Si6 0.694492 0.863051 0.312896
Si Si7 0.431090 0.044618 0.584393
Si Si8 0.826730 0.990738 0.259050
O O1 0.885427 0.233559 0.362787
O O2 0.903710 0.115456 0.689314
O O3 0.803653 0.250521 0.693377
O O4 0.802621 0.084555 0.419160
O O5 0.556249 0.265859 0.933239
O O6 0.481119 0.443656 0.994593
O O7 0.603918 0.439455 0.833549
O O8 0.579478 0.412612 0.247210
O O9 0.413174 0.071057 0.337108
O O10 0.439871 0.199822 0.018243
O O11 0.316842 0.149356 0.072229
O O12 0.507595 0.885173 0.186472
O O13 0.453735 0.923893 0.578530
O O14 0.846337 0.027666 0.017541
O O15 0.636395 0.941030 0.225432
O O16 0.766729 0.908755 0.257301
#
# Coordination Sequence:
#
# PCOD8170902 Si02
#       8
#     4   4   4   4   4   4   4   4
#     4  10  22  40  69  90 123 178 211 261 327 395
#     4  11  23  37  65  93 130 164 214 275 332 375
#     4  10  20  39  67  87 129 166 215 261 317 400
#     4  11  21  38  60 101 125 170 211 271 327 381
#     4  11  22  42  64  97 128 169 214 273 331 390
#     4  10  23  43  61  93 125 178 216 261 324 401
#     4  10  21  39  63  91 134 169 214 261 320 391
#     4  11  24  44  61  94 132 168 219 277 322 395
#
# _framework density 20.369235
#
# number of rings (size 3 to 8) (size 9 to 14) (size 15 to 20)
#    0.000    1.500    2.500    3.750    1.750    5.000 
#    9.000    0.000    0.000    0.000    0.000    0.000 
#    0.000    0.000    0.000    0.000    0.000    0.000 
#
# Total GULP energy -396585.309641 kJ/mol
# GULP energy per Si atom -12393.290926 kJ/mol
# Density = 2.032287 g / cm^3
# Si number density = 20.369235 Si / 1000 Ang^3
#
#
#
# Elastic Constant Matrix: (Units=GPa)
#
#
# Indices 1 2 3 4 5 6 
#
# 1 85.3881 41.2509 38.4108 0.0000 0.0000 0.0000
# 2 41.2509 128.7762 46.8459 0.0000 0.0000 0.0000
# 3 38.4108 46.8459 118.3854 0.0000 0.0000 0.0000
# 4 0.0000 0.0000 0.0000 36.7335 0.0000 0.0000
# 5 0.0000 0.0000 0.0000 0.0000 23.4106 0.0000
# 6 0.0000 0.0000 0.0000 0.0000 0.0000 30.9527
#
#
#
# Elastic Compliance Matrix: (Units=1/GPa)
#
#
# Indices 1 2 3 4 5 6 
#
# 1 0.014977 -0.003539 -0.003459 0.000000 0.000000 0.000000
# 2 -0.003539 0.009908 -0.002772 0.000000 0.000000 0.000000
# 3 -0.003459 -0.002772 0.010666 0.000000 0.000000 0.000000
# 4 0.000000 0.000000 0.000000 0.027223 0.000000 0.000000
# 5 0.000000 0.000000 0.000000 0.000000 0.042716 0.000000
# 6 0.000000 0.000000 0.000000 0.000000 0.000000 0.032307
#
#
# Mechanical properties :
#
#
# Convention : Reuss Voigt Hill
#
# Bulk Modulus (GPa) = 62.46034 65.06275 63.76155
# Shear Modulus (GPa) = 30.73625 31.95550 31.34587
#
# Velocity S-wave (km/s) = 3.88874 3.96512 3.92712
# Velocity P-wave (km/s) = 7.13398 7.27832 7.20651
#
# Compressibility (1/GPa) = 0.01601016
#
# Stress axis : x y z
#
# Youngs Moduli (GPa) = 66.76906 100.93254 93.75428
#
# Poissons Ratio (x) = 0.35723 0.32428
# Poissons Ratio (y) = 0.23632 0.25990
# Poissons Ratio (z) = 0.23094 0.27980
#
# Static dielectric constant tensor:
#      x y z
#    x 3.359520 0.000000 0.000000 
#    y 0.000000 3.874250 0.000000 
#    z 0.000000 0.000000 4.007970 
# 
# 
# High freq. dielectric constant tensor:
#      x y z
#    x 1.762880 0.000000 0.000000 
#    y 0.000000 1.797360 0.000000 
#    z 0.000000 0.000000 1.811450 
# 
# From -- ./inp_files/2101.got.cif
#   From: 2010.03.12/outbox.cif.g09.slc.cpg/sg33_2_cif.got.tgz:2101.got - 2010.04.14 01:49:19.
