data_PCOD8170891
_publ_section_title
;
Structure prediction by ZEFSAII (Michael W. Deem and Ramdas Pophale) SiO2 
 PCOD8170891
Probable space group: P N A 21
;
_chemical_formula_sum "Si O2"
_cell_formula_units_Z 32
_cell_length_a 14.985865
_cell_length_b 18.776833
_cell_length_c 5.167369
_cell_angle_alpha 90.000000
_cell_angle_beta 90.000000
_cell_angle_gamma 90.000000
_cell_volume 1454.030897
_symmetry_space_group_name_H-M "P N A 21"
_symmetry_group_IT_number 33
_symmetry_cell_setting 'orthorhombic'
loop_
_space_group_symop_operation_xyz
x,y,z
-x,-y,1/2+z
1/2-x,1/2+y,1/2+z
1/2+x,1/2-y,z
loop_
_atom_site_type_symbol
_atom_site_label
_atom_site_fract_x
_atom_site_fract_y
_atom_site_fract_z
Si Si1 0.058398 0.232659 0.521630
Si Si2 0.620634 0.659868 0.042879
Si Si3 0.074218 0.316537 0.008182
Si Si4 0.736269 0.800205 0.967682
Si Si5 0.521092 0.959398 0.558204
Si Si6 0.790369 0.391353 0.960749
Si Si7 0.729381 0.539004 0.886079
Si Si8 0.741075 0.111862 0.885485
O O1 0.045235 0.284321 0.279916
O O2 0.159470 0.206832 0.537913
O O3 0.985092 0.169946 0.512348
O O4 0.028554 0.271618 0.782850
O O5 0.658015 0.643005 0.335770
O O6 0.680989 0.726640 0.939802
O O7 0.638806 0.586941 0.880106
O O8 0.044214 0.396610 0.980817
O O9 0.181159 0.319151 0.959345
O O10 0.734715 0.838780 0.691236
O O11 0.694302 0.848053 0.195483
O O12 0.621947 0.934808 0.529740
O O13 0.499451 0.021486 0.355006
O O14 0.715129 0.453995 0.925789
O O15 0.771413 0.551662 0.604019
O O16 0.790798 0.573640 0.116296
#
# Coordination Sequence:
#
# PCOD8170891 Si02
#       8
#     4   4   4   4   4   4   4   4
#     4  12  25  41  65  95 129 172 228 277 343 397
#     4  10  25  41  69  93 126 176 225 277 323 414
#     4  12  22  40  61  97 131 168 217 281 331 416
#     4  12  25  43  67  98 137 172 221 284 354 393
#     4  12  24  39  66 100 137 177 223 271 347 431
#     4  12  25  44  63  99 140 177 211 287 349 401
#     4  10  22  40  66  90 123 176 220 257 327 408
#     4  10  20  38  67  88 125 164 225 254 330 390
#
# _framework density 22.007785999999999
#
# number of rings (size 3 to 8) (size 9 to 14) (size 15 to 20)
#    0.750    0.000    1.250    7.500    3.500    0.000 
#    0.000    1.250    0.000    0.000    0.000    0.000 
#    0.000    0.000    0.000    0.000    0.000    0.000 
#
# Total GULP energy -396481.189250 kJ/mol
# GULP energy per Si atom -12390.037164 kJ/mol
# Density = 2.195770 g / cm^3
# Si number density = 22.007786 Si / 1000 Ang^3
#
#
#
# Elastic Constant Matrix: (Units=GPa)
#
#
# Indices 1 2 3 4 5 6 
#
# 1 88.0539 10.9913 -22.5879 0.0000 0.0000 0.0000
# 2 10.9913 74.0264 2.9631 0.0000 0.0000 0.0000
# 3 -22.5879 2.9631 183.5073 0.0000 0.0000 0.0000
# 4 0.0000 0.0000 0.0000 40.0434 0.0000 0.0000
# 5 0.0000 0.0000 0.0000 0.0000 22.8408 0.0000
# 6 0.0000 0.0000 0.0000 0.0000 0.0000 34.4718
#
#
#
# Elastic Compliance Matrix: (Units=1/GPa)
#
#
# Indices 1 2 3 4 5 6 
#
# 1 0.011972 -0.001838 0.001503 0.000000 0.000000 0.000000
# 2 -0.001838 0.013800 -0.000449 0.000000 0.000000 0.000000
# 3 0.001503 -0.000449 0.005642 0.000000 0.000000 0.000000
# 4 0.000000 0.000000 0.000000 0.024973 0.000000 0.000000
# 5 0.000000 0.000000 0.000000 0.000000 0.043781 0.000000
# 6 0.000000 0.000000 0.000000 0.000000 0.000000 0.029009
#
#
# Mechanical properties :
#
#
# Convention : Reuss Voigt Hill
#
# Bulk Modulus (GPa) = 33.50538 36.48008 34.99273
# Shear Modulus (GPa) = 35.53867 43.08595 39.31231
#
# Velocity S-wave (km/s) = 4.02285 4.42946 4.23104
# Velocity P-wave (km/s) = 6.06919 6.54004 6.30901
#
# Compressibility (1/GPa) = 0.02984596
#
# Stress axis : x y z
#
# Youngs Moduli (GPa) = 83.53033 72.46627 177.25276
#
# Poissons Ratio (x) = 0.13317 -0.26646
# Poissons Ratio (y) = 0.15350 0.07959
# Poissons Ratio (z) = -0.12557 0.03254
#
# Static dielectric constant tensor:
#      x y z
#    x 3.836550 0.000000 0.000000 
#    y 0.000000 4.090320 0.000000 
#    z 0.000000 0.000000 4.056280 
# 
# 
# High freq. dielectric constant tensor:
#      x y z
#    x 1.841690 0.000000 0.000000 
#    y 0.000000 1.864220 0.000000 
#    z 0.000000 0.000000 1.883680 
# 
# From -- ./inp_files/1490.got.cif
#   From: 2010.03.12/outbox.cif.g09.slc.cpg/sg33_1_cif.got.tgz:1490.got - 2010.04.14 01:49:19.
