data_PCOD8170389
_publ_section_title
;
Structure prediction by ZEFSAII (Michael W. Deem and Ramdas Pophale) SiO2 
 PCOD8170389
Probable space group: P M N 21
;
_chemical_formula_sum "Si O2"
_cell_formula_units_Z 12
_cell_length_a 17.277878
_cell_length_b 5.354751
_cell_length_c 4.754879
_cell_angle_alpha 90.000000
_cell_angle_beta 90.000000
_cell_angle_gamma 90.000000
_cell_volume 439.915388
_symmetry_space_group_name_H-M "P M N 21"
_symmetry_group_IT_number 31
_symmetry_cell_setting 'orthorhombic'
loop_
_space_group_symop_operation_xyz
x,y,z
1/2-x,-y,1/2+z
-x,y,z
1/2+x,-y,1/2+z
loop_
_atom_site_type_symbol
_atom_site_label
_atom_site_fract_x
_atom_site_fract_y
_atom_site_fract_z
Si Si1 0.626617 0.030412 0.078970
Si Si2 0.500000 0.341534 0.300386
Si Si3 0.000000 0.309011 0.311320
Si Si4 0.756724 0.666562 0.240598
O O1 0.691530 0.879337 0.249640
O O2 0.575666 0.164984 0.323063
O O3 0.576498 0.848773 0.879838
O O4 0.663963 0.233579 0.871309
O O5 0.500000 0.591391 0.489808
O O6 0.500000 0.432835 0.979270
O O7 0.727335 0.428942 0.424342
#
# Coordination Sequence:
#
# PCOD8170389 Si02
#       4
#     4   2   2   4
#     4  11  28  50  78 113 154 200 256 315 380 452
#     4  11  28  51  77 110 153 203 254 311 377 454
#     4  11  28  51  77 110 153 203 254 311 377 454
#     4  12  28  48  78 116 154 198 252 316 382 450
#
# _framework density 27.277975999999999
#
# number of rings (size 3 to 8) (size 9 to 14) (size 15 to 20)
#    0.000    0.667    0.000    4.000    0.000   32.000 
#    0.000    5.000    0.000    0.000    0.000    0.000 
#    0.000    0.000    0.000    0.000    0.000    0.000 
#
# Total GULP energy -148901.884679 kJ/mol
# GULP energy per Si atom -12408.490390 kJ/mol
# Density = 2.721589 g / cm^3
# Si number density = 27.277976 Si / 1000 Ang^3
#
#
#
# Elastic Constant Matrix: (Units=GPa)
#
#
# Indices 1 2 3 4 5 6 
#
# 1 119.4659 30.6874 31.8933 0.0000 0.0000 0.0000
# 2 30.6874 112.3040 21.4518 0.0000 0.0000 0.0000
# 3 31.8933 21.4518 84.5585 0.0000 0.0000 0.0000
# 4 0.0000 0.0000 0.0000 55.7493 0.0000 0.0000
# 5 0.0000 0.0000 0.0000 0.0000 18.5042 0.0000
# 6 0.0000 0.0000 0.0000 0.0000 0.0000 44.4502
#
#
#
# Elastic Compliance Matrix: (Units=1/GPa)
#
#
# Indices 1 2 3 4 5 6 
#
# 1 0.009741 -0.002060 -0.003152 0.000000 0.000000 0.000000
# 2 -0.002060 0.009793 -0.001708 0.000000 0.000000 0.000000
# 3 -0.003152 -0.001708 0.013448 0.000000 0.000000 0.000000
# 4 0.000000 0.000000 0.000000 0.017937 0.000000 0.000000
# 5 0.000000 0.000000 0.000000 0.000000 0.054042 0.000000
# 6 0.000000 0.000000 0.000000 0.000000 0.000000 0.022497
#
#
# Mechanical properties :
#
#
# Convention : Reuss Voigt Hill
#
# Bulk Modulus (GPa) = 52.23394 53.82149 53.02771
# Shear Modulus (GPa) = 33.85744 39.22715 36.54229
#
# Velocity S-wave (km/s) = 3.52689 3.79628 3.66406
# Velocity P-wave (km/s) = 5.98127 6.24414 6.11412
#
# Compressibility (1/GPa) = 0.01914464
#
# Stress axis : x y z
#
# Youngs Moduli (GPa) = 102.65844 102.10938 74.36047
#
# Poissons Ratio (x) = 0.21032 0.23435
# Poissons Ratio (y) = 0.21145 0.12698
# Poissons Ratio (z) = 0.32353 0.17436
#
# Static dielectric constant tensor:
#      x y z
#    x 5.015830 0.000000 0.000000 
#    y 0.000000 5.075840 0.000000 
#    z 0.000000 0.000000 4.597170 
# 
# 
# High freq. dielectric constant tensor:
#      x y z
#    x 2.109700 0.000000 0.000000 
#    y 0.000000 2.120690 0.000000 
#    z 0.000000 0.000000 2.092480 
# 
# From -- ./inp_files/712.got.cif
#   From: 2010.03.12/outbox.cif.g09.slc.cpg/sg31_1_cif.got.tgz:712.got - 2010.04.14 01:42:59.
