data_PCOD8170941
_publ_section_title
;
Structure prediction by ZEFSAII (Michael W. Deem and Ramdas Pophale) SiO2 
 PCOD8170941
Probable space group: P N A 21
;
_chemical_formula_sum "Si O2"
_cell_formula_units_Z 32
_cell_length_a 14.425649
_cell_length_b 9.656194
_cell_length_c 11.201005
_cell_angle_alpha 90.000000
_cell_angle_beta 90.000000
_cell_angle_gamma 90.000000
_cell_volume 1560.264885
_symmetry_space_group_name_H-M "P N A 21"
_symmetry_group_IT_number 33
_symmetry_cell_setting 'orthorhombic'
loop_
_space_group_symop_operation_xyz
x,y,z
-x,-y,1/2+z
1/2-x,1/2+y,1/2+z
1/2+x,1/2-y,z
loop_
_atom_site_type_symbol
_atom_site_label
_atom_site_fract_x
_atom_site_fract_y
_atom_site_fract_z
Si Si1 0.313728 0.106845 0.350740
Si Si2 0.131717 0.578999 0.593436
Si Si3 0.891156 0.243753 0.867257
Si Si4 0.681035 0.214977 0.857388
Si Si5 0.892918 0.929561 0.813793
Si Si6 0.052537 0.817902 0.955232
Si Si7 0.532795 0.189201 0.676226
Si Si8 0.338141 0.563689 0.543476
O O1 0.347798 0.154081 0.219230
O O2 0.203571 0.131300 0.366365
O O3 0.374904 0.192887 0.442803
O O4 0.334806 0.947189 0.375825
O O5 0.093289 0.691416 0.499076
O O6 0.058147 0.455239 0.611204
O O7 0.230674 0.517285 0.550872
O O8 0.785345 0.256495 0.824243
O O9 0.951906 0.332793 0.774467
O O10 0.916994 0.081016 0.868162
O O11 0.619884 0.259463 0.743664
O O12 0.650501 0.286898 0.980894
O O13 0.887061 0.934886 0.671407
O O14 0.975797 0.826335 0.850534
O O15 0.999549 0.800091 0.079704
O O16 0.111685 0.957112 0.956425
#
# Coordination Sequence:
#
# PCOD8170941 Si02
#       8
#     4   4   4   4   4   4   4   4
#     4   9  22  43  63  91 127 162 209 265 316 376
#     4   9  22  41  66  88 126 167 210 261 314 375
#     4  10  20  43  68  89 124 173 211 262 323 376
#     4   9  21  43  68  87 123 171 211 258 320 378
#     4  10  22  43  65  90 126 167 216 263 316 387
#     4  12  25  36  62  96 125 163 203 264 315 375
#     4  11  23  36  63  95 125 162 210 261 313 379
#     4  10  21  43  67  88 126 167 212 262 317 380
#
# _framework density 20.509339000000001
#
# number of rings (size 3 to 8) (size 9 to 14) (size 15 to 20)
#    0.000    2.000    1.250    1.500    5.250    2.000 
#    2.250    0.000    5.500    0.000    0.000    0.000 
#    0.000    0.000    0.000    0.000    0.000    0.000 
#
# Total GULP energy -396781.695288 kJ/mol
# GULP energy per Si atom -12399.427978 kJ/mol
# Density = 2.046266 g / cm^3
# Si number density = 20.509339 Si / 1000 Ang^3
#
#
#
# Elastic Constant Matrix: (Units=GPa)
#
#
# Indices 1 2 3 4 5 6 
#
# 1 110.4253 56.5040 45.6696 0.0000 0.0000 0.0000
# 2 56.5040 82.9947 54.9402 0.0000 0.0000 0.0000
# 3 45.6696 54.9402 92.8478 0.0000 0.0000 0.0000
# 4 0.0000 0.0000 0.0000 37.3414 0.0000 0.0000
# 5 0.0000 0.0000 0.0000 0.0000 41.3636 0.0000
# 6 0.0000 0.0000 0.0000 0.0000 0.0000 32.2510
#
#
#
# Elastic Compliance Matrix: (Units=1/GPa)
#
#
# Indices 1 2 3 4 5 6 
#
# 1 0.014135 -0.008254 -0.002069 0.000000 0.000000 0.000000
# 2 -0.008254 0.024627 -0.010513 0.000000 0.000000 0.000000
# 3 -0.002069 -0.010513 0.018008 0.000000 0.000000 0.000000
# 4 0.000000 0.000000 0.000000 0.026780 0.000000 0.000000
# 5 0.000000 0.000000 0.000000 0.000000 0.024176 0.000000
# 6 0.000000 0.000000 0.000000 0.000000 0.000000 0.031007
#
#
# Mechanical properties :
#
#
# Convention : Reuss Voigt Hill
#
# Bulk Modulus (GPa) = 66.22370 66.72170 66.47270
# Shear Modulus (GPa) = 26.96330 30.80147 28.88239
#
# Velocity S-wave (km/s) = 3.62979 3.87955 3.75674
# Velocity P-wave (km/s) = 7.06589 7.25747 7.16232
#
# Compressibility (1/GPa) = 0.01510034
#
# Stress axis : x y z
#
# Youngs Moduli (GPa) = 70.74694 40.60509 55.52951
#
# Poissons Ratio (x) = 0.33515 0.11487
# Poissons Ratio (y) = 0.58394 0.58377
# Poissons Ratio (z) = 0.14635 0.42687
#
# Static dielectric constant tensor:
#      x y z
#    x 3.949890 0.000000 0.000000 
#    y 0.000000 3.472420 0.000000 
#    z 0.000000 0.000000 3.700060 
# 
# 
# High freq. dielectric constant tensor:
#      x y z
#    x 1.818860 0.000000 0.000000 
#    y 0.000000 1.780780 0.000000 
#    z 0.000000 0.000000 1.799040 
# 
# From -- ./inp_files/6819.got.cif
#   From: 2010.03.12/outbox.cif.g09.slc.cpg/sg33_4_cif.got.tgz:6819.got - 2010.04.14 01:49:19.
