data_PCOD8170308
_publ_section_title
;
Structure prediction by ZEFSAII (Michael W. Deem and Ramdas Pophale) SiO2 
 PCOD8170308
Probable space group: P M N 21
;
_chemical_formula_sum "Si O2"
_cell_formula_units_Z 32
_cell_length_a 8.509475
_cell_length_b 13.420299
_cell_length_c 12.992088
_cell_angle_alpha 90.000000
_cell_angle_beta 90.000000
_cell_angle_gamma 90.000000
_cell_volume 1483.692537
_symmetry_space_group_name_H-M "P M N 21"
_symmetry_group_IT_number 31
_symmetry_cell_setting 'orthorhombic'
loop_
_space_group_symop_operation_xyz
x,y,z
1/2-x,-y,1/2+z
-x,y,z
1/2+x,-y,1/2+z
loop_
_atom_site_type_symbol
_atom_site_label
_atom_site_fract_x
_atom_site_fract_y
_atom_site_fract_z
Si Si1 0.182141 0.249664 0.337210
Si Si2 0.313463 0.897513 0.016550
Si Si3 0.821809 0.478936 0.337968
Si Si4 0.179740 0.455686 0.032696
Si Si5 0.684725 0.263115 0.121340
Si Si6 0.179161 0.397914 0.671951
Si Si7 0.313956 0.112572 0.945025
Si Si8 0.185630 0.813002 0.223519
O O1 0.242737 0.185641 0.434426
O O2 0.212587 0.364532 0.365546
O O3 0.274485 0.218060 0.233486
O O4 0.000000 0.226840 0.316971
O O5 0.500000 0.894122 0.031423
O O6 0.234568 0.880745 0.127277
O O7 0.252038 0.003308 0.974920
O O8 0.795611 0.550882 0.435587
O O9 0.694323 0.515504 0.256438
O O10 0.000000 0.493728 0.296750
O O11 0.223730 0.367902 0.111928
O O12 0.209503 0.565543 0.079690
O O13 0.000000 0.446439 0.998281
O O14 0.500000 0.280999 0.111909
O O15 0.747157 0.190511 0.030880
O O16 0.234385 0.293724 0.715924
O O17 0.000000 0.390049 0.633383
O O18 0.500000 0.112196 0.945471
O O19 0.252339 0.139263 0.830627
O O20 0.000000 0.799832 0.226042
#
# Coordination Sequence:
#
# PCOD8170308 Si02
#       8
#     4   4   4   4   4   4   4   4
#     4  10  22  39  63  92 128 169 211 261 322 384
#     4  10  22  43  67  93 128 170 214 264 327 388
#     4  11  22  38  60  91 130 170 210 259 318 376
#     4  12  24  39  61  92 129 169 215 263 315 380
#     4  11  22  39  64  93 129 171 217 266 323 387
#     4  12  24  40  62  91 126 170 213 256 316 379
#     4   9  22  42  65  93 128 170 210 263 329 384
#     4  11  23  42  66  95 130 167 216 270 324 388
#
# _framework density 21.567812
#
# number of rings (size 3 to 8) (size 9 to 14) (size 15 to 20)
#    0.000    1.250    1.250    4.875    1.750    3.000 
#    0.000    3.750    0.000    0.000    0.000    0.000 
#    0.000    0.000    0.000    0.000    0.000    0.000 
#
# Total GULP energy -396837.943345 kJ/mol
# GULP energy per Si atom -12401.185730 kJ/mol
# Density = 2.151872 g / cm^3
# Si number density = 21.567812 Si / 1000 Ang^3
#
#
#
# Elastic Constant Matrix: (Units=GPa)
#
#
# Indices 1 2 3 4 5 6 
#
# 1 69.8565 34.4189 24.4504 0.0000 0.0000 0.0000
# 2 34.4189 118.9310 39.2665 0.0000 0.0000 0.0000
# 3 24.4504 39.2665 129.9514 0.0000 0.0000 0.0000
# 4 0.0000 0.0000 0.0000 39.0259 0.0000 0.0000
# 5 0.0000 0.0000 0.0000 0.0000 37.0845 0.0000
# 6 0.0000 0.0000 0.0000 0.0000 0.0000 25.4867
#
#
#
# Elastic Compliance Matrix: (Units=1/GPa)
#
#
# Indices 1 2 3 4 5 6 
#
# 1 0.017114 -0.004321 -0.001914 0.000000 0.000000 0.000000
# 2 -0.004321 0.010431 -0.002339 0.000000 0.000000 0.000000
# 3 -0.001914 -0.002339 0.008762 0.000000 0.000000 0.000000
# 4 0.000000 0.000000 0.000000 0.025624 0.000000 0.000000
# 5 0.000000 0.000000 0.000000 0.000000 0.026965 0.000000
# 6 0.000000 0.000000 0.000000 0.000000 0.000000 0.039236
#
#
# Mechanical properties :
#
#
# Convention : Reuss Voigt Hill
#
# Bulk Modulus (GPa) = 52.19514 57.22337 54.70925
# Shear Modulus (GPa) = 32.96695 35.02629 33.99662
#
# Velocity S-wave (km/s) = 3.91388 4.03427 3.97453
# Velocity P-wave (km/s) = 6.68413 6.94909 6.81790
#
# Compressibility (1/GPa) = 0.01915887
#
# Stress axis : x y z
#
# Youngs Moduli (GPa) = 58.43166 95.86916 114.12781
#
# Poissons Ratio (x) = 0.41423 0.21849
# Poissons Ratio (y) = 0.25247 0.26693
# Poissons Ratio (z) = 0.11186 0.22423
#
# Static dielectric constant tensor:
#      x y z
#    x 3.649370 0.000000 0.000000 
#    y 0.000000 3.960580 0.000000 
#    z 0.000000 0.000000 4.203780 
# 
# 
# High freq. dielectric constant tensor:
#      x y z
#    x 1.829060 0.000000 0.000000 
#    y 0.000000 1.846440 0.000000 
#    z 0.000000 0.000000 1.863990 
# 
# From -- ./inp_files/3548.got.cif
#   From: 2010.03.12/outbox.cif.g09.slc.cpg/sg31_2_cif.got.tgz:3548.got - 2010.04.14 01:42:59.
