data_PCOD8170203
_publ_section_title
;
Structure prediction by ZEFSAII (Michael W. Deem and Ramdas Pophale) SiO2 
 PCOD8170203
Probable space group: P M N 21
;
_chemical_formula_sum "Si O2"
_cell_formula_units_Z 32
_cell_length_a 8.880742
_cell_length_b 14.550388
_cell_length_c 12.307544
_cell_angle_alpha 90.000000
_cell_angle_beta 90.000000
_cell_angle_gamma 90.000000
_cell_volume 1590.359197
_symmetry_space_group_name_H-M "P M N 21"
_symmetry_group_IT_number 31
_symmetry_cell_setting 'orthorhombic'
loop_
_space_group_symop_operation_xyz
x,y,z
1/2-x,-y,1/2+z
-x,y,z
1/2+x,-y,1/2+z
loop_
_atom_site_type_symbol
_atom_site_label
_atom_site_fract_x
_atom_site_fract_y
_atom_site_fract_z
Si Si1 0.665919 0.841501 0.161550
Si Si2 0.820440 0.335266 0.945414
Si Si3 0.322507 0.365706 0.176694
Si Si4 0.323636 0.226966 0.359682
Si Si5 0.180642 0.545121 0.252691
Si Si6 0.670358 0.946425 0.946647
Si Si7 0.330491 0.872026 0.402305
Si Si8 0.174048 0.680159 0.073395
O O1 0.500000 0.794759 0.150857
O O2 0.679194 0.893034 0.274821
O O3 0.792824 0.763798 0.155199
O O4 0.689921 0.916656 0.070146
O O5 0.742538 0.398068 0.854859
O O6 0.769209 0.229852 0.928389
O O7 0.000000 0.346559 0.936056
O O8 0.765641 0.366267 0.063707
O O9 0.500000 0.379478 0.157205
O O10 0.290152 0.271037 0.242199
O O11 0.257363 0.445667 0.253822
O O12 0.500000 0.216366 0.380542
O O13 0.254886 0.124662 0.366203
O O14 0.253950 0.293915 0.455400
O O15 0.233330 0.589905 0.136647
O O16 0.000000 0.539048 0.261851
O O17 0.500000 0.948096 0.905896
O O18 0.730518 0.049534 0.954644
O O19 0.500000 0.881216 0.446513
O O20 0.000000 0.666378 0.055375
#
# Coordination Sequence:
#
# PCOD8170203 Si02
#       8
#     4   4   4   4   4   4   4   4
#     4   9  18  35  55  80 111 149 196 245 301 358
#     4  11  24  43  65  90 126 165 209 261 311 372
#     4  11  25  42  63  91 127 170 210 255 315 375
#     4   9  20  40  61  84 120 162 202 248 306 369
#     4  11  23  39  63  94 124 158 204 256 312 377
#     4  10  21  35  58  89 119 154 203 258 307 367
#     4  10  21  38  60  84 117 161 203 249 310 372
#     4   9  18  34  59  86 112 147 193 248 300 354
#
# _framework density 20.12124
#
# number of rings (size 3 to 8) (size 9 to 14) (size 15 to 20)
#    0.000    2.000    1.250    1.500    1.750    4.500 
#    0.000    3.750    0.000    0.000    0.000    0.000 
#    0.000    0.000    0.000    0.000    0.000    0.000 
#
# Total GULP energy -396636.879960 kJ/mol
# GULP energy per Si atom -12394.902499 kJ/mol
# Density = 2.007544 g / cm^3
# Si number density = 20.121240 Si / 1000 Ang^3
#
#
#
# Elastic Constant Matrix: (Units=GPa)
#
#
# Indices 1 2 3 4 5 6 
#
# 1 60.6244 40.4383 28.4435 0.0000 0.0000 0.0000
# 2 40.4383 117.5508 36.5045 0.0000 0.0000 0.0000
# 3 28.4435 36.5045 76.1147 0.0000 0.0000 0.0000
# 4 0.0000 0.0000 0.0000 24.2714 0.0000 0.0000
# 5 0.0000 0.0000 0.0000 0.0000 26.5367 0.0000
# 6 0.0000 0.0000 0.0000 0.0000 0.0000 33.6137
#
#
#
# Elastic Compliance Matrix: (Units=1/GPa)
#
#
# Indices 1 2 3 4 5 6 
#
# 1 0.023355 -0.006256 -0.005727 0.000000 0.000000 0.000000
# 2 -0.006256 0.011671 -0.003260 0.000000 0.000000 0.000000
# 3 -0.005727 -0.003260 0.016842 0.000000 0.000000 0.000000
# 4 0.000000 0.000000 0.000000 0.041201 0.000000 0.000000
# 5 0.000000 0.000000 0.000000 0.000000 0.037684 0.000000
# 6 0.000000 0.000000 0.000000 0.000000 0.000000 0.029750
#
#
# Mechanical properties :
#
#
# Convention : Reuss Voigt Hill
#
# Bulk Modulus (GPa) = 46.76784 51.67361 49.22072
# Shear Modulus (GPa) = 25.23787 26.81128 26.02457
#
# Velocity S-wave (km/s) = 3.54544 3.65428 3.60027
# Velocity P-wave (km/s) = 6.32880 6.59863 6.46512
#
# Compressibility (1/GPa) = 0.02138222
#
# Stress axis : x y z
#
# Youngs Moduli (GPa) = 42.81767 85.68055 59.37632
#
# Poissons Ratio (x) = 0.53599 0.34007
# Poissons Ratio (y) = 0.26785 0.19356
# Poissons Ratio (z) = 0.24523 0.27930
#
# Static dielectric constant tensor:
#      x y z
#    x 3.671780 0.000000 0.000000 
#    y 0.000000 3.627760 0.000000 
#    z 0.000000 0.000000 3.763200 
# 
# 
# High freq. dielectric constant tensor:
#      x y z
#    x 1.781810 0.000000 0.000000 
#    y 0.000000 1.783750 0.000000 
#    z 0.000000 0.000000 1.787590 
# 
# From -- ./inp_files/3710.got.cif
#   From: 2010.03.12/outbox.cif.g09.slc.cpg/sg31_2_cif.got.tgz:3710.got - 2010.04.14 01:42:59.
