data_PCOD8170405
_publ_section_title
;
Structure prediction by ZEFSAII (Michael W. Deem and Ramdas Pophale) SiO2 
 PCOD8170405
Probable space group: P B A 2
;
_chemical_formula_sum "Si O2"
_cell_formula_units_Z 32
_cell_length_a 12.824870
_cell_length_b 13.543189
_cell_length_c 9.912593
_cell_angle_alpha 90.000000
_cell_angle_beta 90.000000
_cell_angle_gamma 90.000000
_cell_volume 1721.714693
_symmetry_space_group_name_H-M "P B A 2"
_symmetry_group_IT_number 32
_symmetry_cell_setting 'orthorhombic'
loop_
_space_group_symop_operation_xyz
x,y,z
-x,-y,z
1/2-x,1/2+y,z
1/2+x,1/2-y,z
loop_
_atom_site_type_symbol
_atom_site_label
_atom_site_fract_x
_atom_site_fract_y
_atom_site_fract_z
Si Si1 0.378090 0.478679 0.010340
Si Si2 0.300804 0.309129 0.847100
Si Si3 0.832092 0.622276 0.616490
Si Si4 0.840058 0.218687 0.452373
Si Si5 0.990567 0.232130 0.683884
Si Si6 0.223645 0.575327 0.513138
Si Si7 0.323162 0.629163 0.795289
Si Si8 0.619252 0.527600 0.313040
O O1 0.500000 0.500000 0.991970
O O2 0.343639 0.502740 0.162976
O O3 0.344405 0.365940 0.978114
O O4 0.313564 0.542561 0.903052
O O5 0.248779 0.387857 0.742264
O O6 0.396654 0.245881 0.785969
O O7 0.213456 0.226959 0.877400
O O8 0.774447 0.694849 0.511517
O O9 0.853258 0.516206 0.547122
O O10 0.942305 0.668823 0.659374
O O11 0.938541 0.193018 0.546716
O O12 0.836270 0.338028 0.429018
O O13 0.860754 0.146546 0.325256
O O14 0.057806 0.143584 0.747627
O O15 0.257935 0.616560 0.658433
O O16 0.318696 0.534068 0.424880
O O17 0.500000 0.500000 0.333672
#
# Coordination Sequence:
#
# PCOD8170405 Si02
#       8
#     4   4   4   4   4   4   4   4
#     4  11  22  37  57  81 110 149 192 230 277 331
#     4  10  19  33  53  83 114 140 181 229 284 327
#     4   9  19  30  51  86 110 138 182 220 286 333
#     4  10  20  35  54  83 111 145 185 226 283 329
#     4  10  17  32  53  83 115 137 174 237 276 327
#     4  11  19  35  56  82 114 140 186 231 278 336
#     4  11  20  33  58  87 111 141 182 232 287 325
#     4  10  24  38  55  81 111 151 193 231 276 331
#
# _framework density 18.586122
#
# number of rings (size 3 to 8) (size 9 to 14) (size 15 to 20)
#    0.000    1.750    6.250    0.750    0.000    2.000 
#    0.000    0.000    0.000    0.000    0.000    1.750 
#    0.000    0.000    0.000    0.000    0.000    0.000 
#
# Total GULP energy -396436.936052 kJ/mol
# GULP energy per Si atom -12388.654252 kJ/mol
# Density = 1.854382 g / cm^3
# Si number density = 18.586122 Si / 1000 Ang^3
#
#
#
# Elastic Constant Matrix: (Units=GPa)
#
#
# Indices 1 2 3 4 5 6 
#
# 1 56.6486 31.0239 18.3108 0.0000 0.0000 0.0000
# 2 31.0239 118.1526 43.5765 0.0000 0.0000 0.0000
# 3 18.3108 43.5765 81.5790 0.0000 0.0000 0.0000
# 4 0.0000 0.0000 0.0000 16.3873 0.0000 0.0000
# 5 0.0000 0.0000 0.0000 0.0000 14.1910 0.0000
# 6 0.0000 0.0000 0.0000 0.0000 0.0000 27.3150
#
#
#
# Elastic Compliance Matrix: (Units=1/GPa)
#
#
# Indices 1 2 3 4 5 6 
#
# 1 0.020928 -0.004686 -0.002194 0.000000 0.000000 0.000000
# 2 -0.004686 0.011589 -0.005139 0.000000 0.000000 0.000000
# 3 -0.002194 -0.005139 0.015496 0.000000 0.000000 0.000000
# 4 0.000000 0.000000 0.000000 0.061023 0.000000 0.000000
# 5 0.000000 0.000000 0.000000 0.000000 0.070467 0.000000
# 6 0.000000 0.000000 0.000000 0.000000 0.000000 0.036610
#
#
# Mechanical properties :
#
#
# Convention : Reuss Voigt Hill
#
# Bulk Modulus (GPa) = 41.71032 49.13364 45.42198
# Shear Modulus (GPa) = 20.14970 22.47661 21.31315
#
# Velocity S-wave (km/s) = 3.29618 3.48130 3.39001
# Velocity P-wave (km/s) = 6.08085 6.53088 6.30988
#
# Compressibility (1/GPa) = 0.02397488
#
# Stress axis : x y z
#
# Youngs Moduli (GPa) = 47.78226 86.28650 64.53463
#
# Poissons Ratio (x) = 0.40433 0.14162
# Poissons Ratio (y) = 0.22390 0.33163
# Poissons Ratio (z) = 0.10485 0.44341
#
# Static dielectric constant tensor:
#      x y z
#    x 3.312360 0.000000 0.000000 
#    y 0.000000 3.571470 0.000000 
#    z 0.000000 0.000000 3.223180 
# 
# 
# High freq. dielectric constant tensor:
#      x y z
#    x 1.713490 0.000000 0.000000 
#    y 0.000000 1.726390 0.000000 
#    z 0.000000 0.000000 1.689170 
# 
# From -- ./inp_files/2872.got.cif
#   From: 2010.03.12/outbox.cif.g09.slc.cpg/sg32_2_cif.got.tgz:2872.got - 2010.04.14 01:46:39.
