data_PCOD8170867
_publ_section_title
;
Structure prediction by ZEFSAII (Michael W. Deem and Ramdas Pophale) SiO2 
 PCOD8170867
Probable space group: P N A 21
;
_chemical_formula_sum "Si O2"
_cell_formula_units_Z 24
_cell_length_a 4.918905
_cell_length_b 15.308334
_cell_length_c 16.129568
_cell_angle_alpha 90.000000
_cell_angle_beta 90.000000
_cell_angle_gamma 90.000000
_cell_volume 1214.560352
_symmetry_space_group_name_H-M "P N A 21"
_symmetry_group_IT_number 33
_symmetry_cell_setting 'orthorhombic'
loop_
_space_group_symop_operation_xyz
x,y,z
-x,-y,1/2+z
1/2-x,1/2+y,1/2+z
1/2+x,1/2-y,z
loop_
_atom_site_type_symbol
_atom_site_label
_atom_site_fract_x
_atom_site_fract_y
_atom_site_fract_z
Si Si1 0.860432 0.956386 0.661280
Si Si2 0.860361 0.956386 0.004098
Si Si3 0.770353 0.308906 0.617812
Si Si4 0.670504 0.962256 0.427614
Si Si5 0.770356 0.308906 0.047573
Si Si6 0.670434 0.962258 0.237768
O O1 0.782276 0.857657 0.635753
O O2 0.589540 0.007006 0.686435
O O3 0.088255 0.964539 0.733565
O O4 0.000017 0.999993 0.582682
O O5 0.589409 0.006984 0.978964
O O6 0.782281 0.857651 0.029630
O O7 0.088134 0.964557 0.931800
O O8 0.577707 0.224966 0.622528
O O9 0.722120 0.372627 0.696337
O O10 0.777891 0.872616 0.469041
O O11 0.590894 0.945716 0.332694
O O12 0.577716 0.224963 0.042864
#
# Coordination Sequence:
#
# PCOD8170867 Si02
#       6
#     4   4   4   4   4   4
#     4  10  20  38  58  80 111 155 200 226 266 343
#     4  10  20  38  58  80 111 155 200 226 266 343
#     4  11  21  35  58  85 113 145 183 232 283 334
#     4  11  22  37  59  85 115 150 189 236 287 339
#     4  11  21  35  58  85 113 145 183 232 283 334
#     4  11  22  37  59  85 115 150 189 236 287 339
#
# _framework density 19.760235999999999
#
# number of rings (size 3 to 8) (size 9 to 14) (size 15 to 20)
#    0.000    1.333    0.000   11.000    0.000    1.333 
#    0.000    0.000    0.000   20.000    0.000    0.000 
#    0.000    0.000    0.000    0.000    0.000    0.000 
#
# Total GULP energy -297538.245052 kJ/mol
# GULP energy per Si atom -12397.426877 kJ/mol
# Density = 1.971526 g / cm^3
# Si number density = 19.760236 Si / 1000 Ang^3
#
#
#
# Elastic Constant Matrix: (Units=GPa)
#
#
# Indices 1 2 3 4 5 6 
#
# 1 114.3222 33.9662 29.4189 0.0000 0.0000 0.0000
# 2 33.9662 82.7778 59.3115 0.0000 0.0000 0.0000
# 3 29.4189 59.3115 79.1509 0.0000 0.0000 0.0000
# 4 0.0000 0.0000 0.0000 21.0685 0.0000 0.0000
# 5 0.0000 0.0000 0.0000 0.0000 26.6960 0.0000
# 6 0.0000 0.0000 0.0000 0.0000 0.0000 46.6947
#
#
#
# Elastic Compliance Matrix: (Units=1/GPa)
#
#
# Indices 1 2 3 4 5 6 
#
# 1 0.010032 -0.003120 -0.001391 0.000000 0.000000 0.000000
# 2 -0.003120 0.027058 -0.019116 0.000000 0.000000 0.000000
# 3 -0.001391 -0.019116 0.027475 0.000000 0.000000 0.000000
# 4 0.000000 0.000000 0.000000 0.047464 0.000000 0.000000
# 5 0.000000 0.000000 0.000000 0.000000 0.037459 0.000000
# 6 0.000000 0.000000 0.000000 0.000000 0.000000 0.021416
#
#
# Mechanical properties :
#
#
# Convention : Reuss Voigt Hill
#
# Bulk Modulus (GPa) = 57.76395 57.96045 57.86220
# Shear Modulus (GPa) = 22.32866 29.12881 25.72873
#
# Velocity S-wave (km/s) = 3.36516 3.84358 3.61230
# Velocity P-wave (km/s) = 6.66296 7.00664 6.83696
#
# Compressibility (1/GPa) = 0.01731184
#
# Stress axis : x y z
#
# Youngs Moduli (GPa) = 99.68036 36.95831 36.39616
#
# Poissons Ratio (x) = 0.11531 0.05062
# Poissons Ratio (y) = 0.31099 0.69574
# Poissons Ratio (z) = 0.13864 0.70649
#
# Static dielectric constant tensor:
#      x y z
#    x 3.946720 0.000000 0.000000 
#    y 0.000000 3.653430 0.000000 
#    z 0.000000 0.000000 3.696580 
# 
# 
# High freq. dielectric constant tensor:
#      x y z
#    x 1.798480 0.000000 0.000000 
#    y 0.000000 1.754390 0.000000 
#    z 0.000000 0.000000 1.749150 
# 
# From -- ./inp_files/7396.got.cif
#   From: 2010.03.12/outbox.cif.g09.slc.cpg/sg33_4_cif.got.tgz:7396.got - 2010.04.14 01:49:19.
