data_PCOD8170315
_publ_section_title
;
Structure prediction by ZEFSAII (Michael W. Deem and Ramdas Pophale) SiO2 
 PCOD8170315
Probable space group: P M N 21
;
_chemical_formula_sum "Si O2"
_cell_formula_units_Z 32
_cell_length_a 8.672517
_cell_length_b 14.579563
_cell_length_c 12.463945
_cell_angle_alpha 90.000000
_cell_angle_beta 90.000000
_cell_angle_gamma 90.000000
_cell_volume 1575.960001
_symmetry_space_group_name_H-M "P M N 21"
_symmetry_group_IT_number 31
_symmetry_cell_setting 'orthorhombic'
loop_
_space_group_symop_operation_xyz
x,y,z
1/2-x,-y,1/2+z
-x,y,z
1/2+x,-y,1/2+z
loop_
_atom_site_type_symbol
_atom_site_label
_atom_site_fract_x
_atom_site_fract_y
_atom_site_fract_z
Si Si1 0.822342 0.453844 0.900350
Si Si2 0.321285 0.626010 0.814949
Si Si3 0.676384 0.368601 0.096707
Si Si4 0.817377 0.173474 0.388831
Si Si5 0.821839 0.194312 0.022687
Si Si6 0.318151 0.142998 0.620943
Si Si7 0.178840 0.264449 0.794617
Si Si8 0.179496 0.050202 0.193925
O O1 0.709544 0.540919 0.893127
O O2 0.776565 0.370077 0.820175
O O3 0.000000 0.481928 0.884712
O O4 0.796371 0.419465 0.020250
O O5 0.500000 0.631778 0.781837
O O6 0.212369 0.599415 0.716050
O O7 0.267186 0.721650 0.866826
O O8 0.500000 0.390564 0.066594
O O9 0.710695 0.260722 0.089511
O O10 0.750905 0.144137 0.502605
O O11 0.748636 0.107668 0.293954
O O12 0.000000 0.165971 0.393645
O O13 0.779879 0.198666 0.896341
O O14 0.000000 0.224950 0.038311
O O15 0.790968 0.095993 0.076755
O O16 0.500000 0.138734 0.608496
O O17 0.272406 0.231951 0.690414
O O18 0.253562 0.052785 0.683713
O O19 0.000000 0.256735 0.766267
O O20 0.000000 0.045437 0.217825
#
# Coordination Sequence:
#
# PCOD8170315 Si02
#       8
#     4   4   4   4   4   4   4   4
#     4  10  22  40  62  88 120 160 206 256 307 365
#     4  11  22  39  64  89 118 160 202 252 310 365
#     4  11  21  35  57  88 120 152 197 249 301 364
#     4  10  22  42  64  85 120 162 201 243 304 373
#     4   9  17  36  62  83 110 152 199 249 301 353
#     4  11  24  38  59  90 126 161 201 253 303 357
#     4   9  20  38  61  85 117 161 201 241 303 368
#     4   9  19  38  61  86 117 156 197 245 305 361
#
# _framework density 20.305081999999999
#
# number of rings (size 3 to 8) (size 9 to 14) (size 15 to 20)
#    0.000    2.000    1.250    3.000    1.750    4.500 
#    0.000    3.125    0.000    0.000    0.000    0.000 
#    0.000    0.000    0.000    0.000    0.000    0.000 
#
# Total GULP energy -396704.684872 kJ/mol
# GULP energy per Si atom -12397.021402 kJ/mol
# Density = 2.025887 g / cm^3
# Si number density = 20.305082 Si / 1000 Ang^3
#
#
#
# Elastic Constant Matrix: (Units=GPa)
#
#
# Indices 1 2 3 4 5 6 
#
# 1 48.0616 27.7170 24.2187 0.0000 0.0000 0.0000
# 2 27.7170 123.4233 53.2983 0.0000 0.0000 0.0000
# 3 24.2187 53.2983 107.9062 0.0000 0.0000 0.0000
# 4 0.0000 0.0000 0.0000 22.7820 0.0000 0.0000
# 5 0.0000 0.0000 0.0000 0.0000 31.1892 0.0000
# 6 0.0000 0.0000 0.0000 0.0000 0.0000 26.7903
#
#
#
# Elastic Compliance Matrix: (Units=1/GPa)
#
#
# Indices 1 2 3 4 5 6 
#
# 1 0.024957 -0.004049 -0.003601 0.000000 0.000000 0.000000
# 2 -0.004049 0.010956 -0.004503 0.000000 0.000000 0.000000
# 3 -0.003601 -0.004503 0.012300 0.000000 0.000000 0.000000
# 4 0.000000 0.000000 0.000000 0.043894 0.000000 0.000000
# 5 0.000000 0.000000 0.000000 0.000000 0.032062 0.000000
# 6 0.000000 0.000000 0.000000 0.000000 0.000000 0.037327
#
#
# Mechanical properties :
#
#
# Convention : Reuss Voigt Hill
#
# Bulk Modulus (GPa) = 41.83106 54.42879 48.12992
# Shear Modulus (GPa) = 25.80371 27.76278 26.78324
#
# Velocity S-wave (km/s) = 3.56870 3.70169 3.63580
# Velocity P-wave (km/s) = 6.13407 6.71816 6.43275
#
# Compressibility (1/GPa) = 0.02390568
#
# Stress axis : x y z
#
# Youngs Moduli (GPa) = 40.06966 91.27466 81.30367
#
# Poissons Ratio (x) = 0.36960 0.29279
# Poissons Ratio (y) = 0.16226 0.36608
# Poissons Ratio (z) = 0.14430 0.41098
#
# Static dielectric constant tensor:
#      x y z
#    x 3.436100 0.000000 0.000000 
#    y 0.000000 3.816610 0.000000 
#    z 0.000000 0.000000 3.658630 
# 
# 
# High freq. dielectric constant tensor:
#      x y z
#    x 1.774420 0.000000 0.000000 
#    y 0.000000 1.793310 0.000000 
#    z 0.000000 0.000000 1.794180 
# 
# From -- ./inp_files/3684.got.cif
#   From: 2010.03.12/outbox.cif.g09.slc.cpg/sg31_2_cif.got.tgz:3684.got - 2010.04.14 01:42:59.
