data_PCOD8170784
_publ_section_title
;
Structure prediction by ZEFSAII (Michael W. Deem and Ramdas Pophale) SiO2 
 PCOD8170784
Probable space group: P N A 21
;
_chemical_formula_sum "Si O2"
_cell_formula_units_Z 32
_cell_length_a 8.258714
_cell_length_b 26.957344
_cell_length_c 6.261657
_cell_angle_alpha 90.000000
_cell_angle_beta 90.000000
_cell_angle_gamma 90.000000
_cell_volume 1394.051447
_symmetry_space_group_name_H-M "P N A 21"
_symmetry_group_IT_number 33
_symmetry_cell_setting 'orthorhombic'
loop_
_space_group_symop_operation_xyz
x,y,z
-x,-y,1/2+z
1/2-x,1/2+y,1/2+z
1/2+x,1/2-y,z
loop_
_atom_site_type_symbol
_atom_site_label
_atom_site_fract_x
_atom_site_fract_y
_atom_site_fract_z
Si Si1 0.332016 0.041322 0.148810
Si Si2 0.897580 0.287796 0.394904
Si Si3 0.880394 0.021689 0.950456
Si Si4 0.438519 0.425661 0.568519
Si Si5 0.448286 0.287052 0.007666
Si Si6 0.855957 0.866648 0.754451
Si Si7 0.669541 0.228957 0.703190
Si Si8 0.666354 0.043133 0.334401
O O1 0.205108 0.086333 0.116575
O O2 0.500534 0.064059 0.237993
O O3 0.267154 0.003645 0.325406
O O4 0.364509 0.012387 0.927811
O O5 0.944861 0.257439 0.180982
O O6 0.802226 0.336280 0.321558
O O7 0.784502 0.252689 0.530176
O O8 0.046987 0.303577 0.553468
O O9 0.951804 0.070200 0.824888
O O10 0.810830 0.043182 0.165406
O O11 0.023112 0.982624 0.993630
O O12 0.557258 0.384385 0.473996
O O13 0.247518 0.418542 0.505301
O O14 0.512941 0.336585 0.118768
O O15 0.572576 0.272080 0.823013
O O16 0.276438 0.299141 0.886920
#
# Coordination Sequence:
#
# PCOD8170784 Si02
#       8
#     4   4   4   4   4   4   4   4
#     4  10  23  40  68  94 131 177 228 284 339 419
#     4  11  21  45  71 100 142 186 230 295 358 430
#     4  10  19  39  66  89 124 178 215 263 348 404
#     4  10  22  38  65  95 131 173 223 280 333 415
#     4  11  21  45  71 100 142 185 230 293 357 432
#     4  11  24  45  67 105 137 176 243 296 344 419
#     4  10  22  40  74  99 128 202 224 270 376 428
#     4  11  20  42  64  92 131 181 223 271 363 405
#
# _framework density 22.954678999999999
#
# number of rings (size 3 to 8) (size 9 to 14) (size 15 to 20)
#    0.000    1.500    5.000    0.000    0.000    0.000 
#   11.250    0.000    2.750    0.000    0.000    0.000 
#    0.000    0.000    0.000    0.000    0.000    0.000 
#
# Total GULP energy -396471.251820 kJ/mol
# GULP energy per Si atom -12389.726619 kJ/mol
# Density = 2.290243 g / cm^3
# Si number density = 22.954679 Si / 1000 Ang^3
#
#
#
# Elastic Constant Matrix: (Units=GPa)
#
#
# Indices 1 2 3 4 5 6 
#
# 1 105.5017 11.4074 25.7060 0.0000 0.0000 0.0000
# 2 11.4074 62.4198 10.1523 0.0000 0.0000 0.0000
# 3 25.7060 10.1523 82.5749 0.0000 0.0000 0.0000
# 4 0.0000 0.0000 0.0000 25.4299 0.0000 0.0000
# 5 0.0000 0.0000 0.0000 0.0000 42.2343 0.0000
# 6 0.0000 0.0000 0.0000 0.0000 0.0000 35.7225
#
#
#
# Elastic Compliance Matrix: (Units=1/GPa)
#
#
# Indices 1 2 3 4 5 6 
#
# 1 0.010375 -0.001399 -0.003058 0.000000 0.000000 0.000000
# 2 -0.001399 0.016536 -0.001598 0.000000 0.000000 0.000000
# 3 -0.003058 -0.001598 0.013259 0.000000 0.000000 0.000000
# 4 0.000000 0.000000 0.000000 0.039324 0.000000 0.000000
# 5 0.000000 0.000000 0.000000 0.000000 0.023677 0.000000
# 6 0.000000 0.000000 0.000000 0.000000 0.000000 0.027994
#
#
# Mechanical properties :
#
#
# Convention : Reuss Voigt Hill
#
# Bulk Modulus (GPa) = 35.63641 38.33642 36.98641
# Shear Modulus (GPa) = 32.75980 34.22605 33.49292
#
# Velocity S-wave (km/s) = 3.78186 3.86557 3.82395
# Velocity P-wave (km/s) = 5.88459 6.05481 5.97030
#
# Compressibility (1/GPa) = 0.02806119
#
# Stress axis : x y z
#
# Youngs Moduli (GPa) = 96.38742 60.47406 75.42303
#
# Poissons Ratio (x) = 0.08458 0.23063
# Poissons Ratio (y) = 0.13482 0.12050
# Poissons Ratio (z) = 0.29473 0.09662
#
# Static dielectric constant tensor:
#      x y z
#    x 4.523410 0.000000 0.000000 
#    y 0.000000 3.699720 0.000000 
#    z 0.000000 0.000000 4.664390 
# 
# 
# High freq. dielectric constant tensor:
#      x y z
#    x 1.927160 0.000000 0.000000 
#    y 0.000000 1.857610 0.000000 
#    z 0.000000 0.000000 1.924020 
# 
# From -- ./inp_files/610.got.cif
#   From: 2010.03.12/outbox.cif.g09.slc.cpg/sg33_1_cif.got.tgz:610.got - 2010.04.14 01:49:19.
