data_PCOD8170069
_publ_section_title
;
Structure prediction by ZEFSAII (Michael W. Deem and Ramdas Pophale) SiO2 
 PCOD8170069
Probable space group: P M N 21
;
_chemical_formula_sum "Si O2"
_cell_formula_units_Z 32
_cell_length_a 9.502935
_cell_length_b 5.362827
_cell_length_c 28.960749
_cell_angle_alpha 90.000000
_cell_angle_beta 90.000000
_cell_angle_gamma 90.000000
_cell_volume 1475.914963
_symmetry_space_group_name_H-M "P M N 21"
_symmetry_group_IT_number 31
_symmetry_cell_setting 'orthorhombic'
loop_
_space_group_symop_operation_xyz
x,y,z
1/2-x,-y,1/2+z
-x,y,z
1/2+x,-y,1/2+z
loop_
_atom_site_type_symbol
_atom_site_label
_atom_site_fract_x
_atom_site_fract_y
_atom_site_fract_z
Si Si1 0.337665 0.731986 0.603420
Si Si2 0.168156 0.722490 0.696430
Si Si3 0.847360 0.485038 0.833886
Si Si4 0.346899 0.809459 0.880155
Si Si5 0.845182 0.458724 0.473741
Si Si6 0.662056 0.231259 0.546748
Si Si7 0.163260 0.218888 0.745151
Si Si8 0.154021 0.208405 0.925718
O O1 0.500000 0.735109 0.619432
O O2 0.235264 0.747292 0.646465
O O3 0.302589 0.476041 0.576898
O O4 0.303752 0.975573 0.572906
O O5 0.223420 0.465199 0.719289
O O6 0.000000 0.725672 0.691698
O O7 0.226524 0.957565 0.726804
O O8 0.721860 0.687587 0.833993
O O9 0.805288 0.255471 0.800070
O O10 0.869844 0.419304 0.887324
O O11 0.000000 0.593592 0.815899
O O12 0.500000 0.923605 0.866703
O O13 0.371395 0.613084 0.920941
O O14 0.238259 0.005124 0.898515
O O15 0.765226 0.242275 0.502316
O O16 0.740722 0.698510 0.470913
O O17 0.000000 0.520950 0.495453
O O18 0.500000 0.238449 0.530430
O O19 0.000000 0.204968 0.734548
O O20 0.000000 0.114823 0.943122
#
# Coordination Sequence:
#
# PCOD8170069 Si02
#       8
#     4   4   4   4   4   4   4   4
#     4  10  22  40  60  84 116 150 187 237 291 347
#     4  10  20  36  59  86 114 148 187 235 291 347
#     4   9  19  35  55  81 109 149 197 239 283 335
#     4  10  21  36  54  79 116 153 188 238 293 344
#     4  10  22  38  55  81 115 150 190 241 293 341
#     4  10  22  39  60  86 114 150 194 239 286 346
#     4   9  19  34  58  87 116 146 190 242 284 336
#     4  10  20  34  57  82 110 152 197 237 283 346
#
# _framework density 21.681467000000001
#
# number of rings (size 3 to 8) (size 9 to 14) (size 15 to 20)
#    0.000    2.250    0.000    1.875    3.500    3.000 
#    0.000    1.250    0.000    0.000    0.000    0.000 
#    0.000    0.000    0.000    0.000    0.000    0.000 
#
# Total GULP energy -396467.668546 kJ/mol
# GULP energy per Si atom -12389.614642 kJ/mol
# Density = 2.163212 g / cm^3
# Si number density = 21.681467 Si / 1000 Ang^3
#
#
#
# Elastic Constant Matrix: (Units=GPa)
#
#
# Indices 1 2 3 4 5 6 
#
# 1 110.1198 11.0310 6.6462 0.0000 0.0000 0.0000
# 2 11.0310 93.5354 1.4954 0.0000 0.0000 0.0000
# 3 6.6462 1.4954 55.6728 0.0000 0.0000 0.0000
# 4 0.0000 0.0000 0.0000 29.3597 0.0000 0.0000
# 5 0.0000 0.0000 0.0000 0.0000 22.0233 0.0000
# 6 0.0000 0.0000 0.0000 0.0000 0.0000 18.8837
#
#
#
# Elastic Compliance Matrix: (Units=1/GPa)
#
#
# Indices 1 2 3 4 5 6 
#
# 1 0.009254 -0.001074 -0.001076 0.000000 0.000000 0.000000
# 2 -0.001074 0.010820 -0.000162 0.000000 0.000000 0.000000
# 3 -0.001076 -0.000162 0.018095 0.000000 0.000000 0.000000
# 4 0.000000 0.000000 0.000000 0.034060 0.000000 0.000000
# 5 0.000000 0.000000 0.000000 0.000000 0.045407 0.000000
# 6 0.000000 0.000000 0.000000 0.000000 0.000000 0.052956
#
#
# Mechanical properties :
#
#
# Convention : Reuss Voigt Hill
#
# Bulk Modulus (GPa) = 29.81148 33.07481 31.44314
# Shear Modulus (GPa) = 26.82440 30.06370 28.44405
#
# Velocity S-wave (km/s) = 3.52121 3.72776 3.62595
# Velocity P-wave (km/s) = 5.50559 5.81517 5.66250
#
# Compressibility (1/GPa) = 0.03354413
#
# Stress axis : x y z
#
# Youngs Moduli (GPa) = 108.06672 92.41795 55.26420
#
# Poissons Ratio (x) = 0.09927 0.05946
# Poissons Ratio (y) = 0.11607 0.00898
# Poissons Ratio (z) = 0.11626 0.01501
#
# Static dielectric constant tensor:
#      x y z
#    x 4.329820 0.000000 0.000000 
#    y 0.000000 4.095650 0.000000 
#    z 0.000000 0.000000 3.883170 
# 
# 
# High freq. dielectric constant tensor:
#      x y z
#    x 1.844220 0.000000 0.000000 
#    y 0.000000 1.851370 0.000000 
#    z 0.000000 0.000000 1.836530 
# 
# From -- ./inp_files/6607.got.cif
#   From: 2010.03.12/outbox.cif.g09.slc.cpg/sg31_4_cif.got.tgz:6607.got - 2010.04.14 01:42:59.
