data_PCOD8170702
_publ_section_title
;
Structure prediction by ZEFSAII (Michael W. Deem and Ramdas Pophale) SiO2 
 PCOD8170702
Probable space group: P N A 21
;
_chemical_formula_sum "Si O2"
_cell_formula_units_Z 24
_cell_length_a 4.995401
_cell_length_b 7.899836
_cell_length_c 30.857355
_cell_angle_alpha 90.000000
_cell_angle_beta 90.000000
_cell_angle_gamma 90.000000
_cell_volume 1217.719130
_symmetry_space_group_name_H-M "P N A 21"
_symmetry_group_IT_number 33
_symmetry_cell_setting 'orthorhombic'
loop_
_space_group_symop_operation_xyz
x,y,z
-x,-y,1/2+z
1/2-x,1/2+y,1/2+z
1/2+x,1/2-y,z
loop_
_atom_site_type_symbol
_atom_site_label
_atom_site_fract_x
_atom_site_fract_y
_atom_site_fract_z
Si Si1 0.047001 0.135233 0.447830
Si Si2 0.436126 0.363135 0.207216
Si Si3 0.044985 0.867070 0.522358
Si Si4 0.444726 0.641672 0.615681
Si Si5 0.044102 0.862751 0.376216
Si Si6 0.945631 0.141526 0.776928
O O1 0.345914 0.207386 0.449131
O O2 0.000659 0.030735 0.403955
O O3 0.995563 0.015206 0.488607
O O4 0.133161 0.297939 0.210397
O O5 0.483960 0.457920 0.160433
O O6 0.489673 0.486157 0.246551
O O7 0.836576 0.713631 0.515908
O O8 0.012987 0.952703 0.570416
O O9 0.631504 0.810809 0.616173
O O10 0.328142 0.780689 0.387655
O O11 0.020798 0.920038 0.326330
O O12 0.646088 0.203547 0.767512
#
# Coordination Sequence:
#
# PCOD8170702 Si02
#       6
#     4   4   4   4   4   4
#     4  12  24  36  53  82 111 130 165 222 271 302
#     4  10  19  33  54  79 106 136 173 214 256 301
#     4  10  19  36  58  75 100 142 181 206 246 311
#     4   8  16  30  51  76  99 132 177 212 239 296
#     4  10  21  39  58  74 100 142 181 206 246 316
#     4  10  21  36  54  78 106 136 173 214 256 306
#
# _framework density 19.708977999999998
#
# number of rings (size 3 to 8) (size 9 to 14) (size 15 to 20)
#    0.000    2.000    0.000    4.000    0.000    1.333 
#    0.000    1.667    0.000    0.000    0.000    0.000 
#    0.000    0.000    0.000    0.000    0.000    0.000 
#
# Total GULP energy -297551.894681 kJ/mol
# GULP energy per Si atom -12397.995612 kJ/mol
# Density = 1.966412 g / cm^3
# Si number density = 19.708978 Si / 1000 Ang^3
#
#
#
# Elastic Constant Matrix: (Units=GPa)
#
#
# Indices 1 2 3 4 5 6 
#
# 1 72.9804 4.4764 19.2688 0.0000 0.0000 0.0000
# 2 4.4764 57.7375 58.0172 0.0000 0.0000 0.0000
# 3 19.2688 58.0172 142.2605 0.0000 0.0000 0.0000
# 4 0.0000 0.0000 0.0000 28.9036 0.0000 0.0000
# 5 0.0000 0.0000 0.0000 0.0000 25.7150 0.0000
# 6 0.0000 0.0000 0.0000 0.0000 0.0000 22.4187
#
#
#
# Elastic Compliance Matrix: (Units=1/GPa)
#
#
# Indices 1 2 3 4 5 6 
#
# 1 0.014279 0.001417 -0.002512 0.000000 0.000000 0.000000
# 2 0.001417 0.029486 -0.012217 0.000000 0.000000 0.000000
# 3 -0.002512 -0.012217 0.012352 0.000000 0.000000 0.000000
# 4 0.000000 0.000000 0.000000 0.034598 0.000000 0.000000
# 5 0.000000 0.000000 0.000000 0.000000 0.038888 0.000000
# 6 0.000000 0.000000 0.000000 0.000000 0.000000 0.044606
#
#
# Mechanical properties :
#
#
# Convention : Reuss Voigt Hill
#
# Bulk Modulus (GPa) = 33.90649 48.50036 41.20343
# Shear Modulus (GPa) = 23.73460 28.15519 25.94490
#
# Velocity S-wave (km/s) = 3.47400 3.78371 3.63216
# Velocity P-wave (km/s) = 5.77343 6.61440 6.20817
#
# Compressibility (1/GPa) = 0.02949288
#
# Stress axis : x y z
#
# Youngs Moduli (GPa) = 70.03487 33.91418 80.95839
#
# Poissons Ratio (x) = -0.04806 0.20336
# Poissons Ratio (y) = -0.09924 0.98908
# Poissons Ratio (z) = 0.17592 0.41433
#
# Static dielectric constant tensor:
#      x y z
#    x 3.826640 0.000000 0.000000 
#    y 0.000000 3.004070 0.000000 
#    z 0.000000 0.000000 4.015470 
# 
# 
# High freq. dielectric constant tensor:
#      x y z
#    x 1.792680 0.000000 0.000000 
#    y 0.000000 1.712770 0.000000 
#    z 0.000000 0.000000 1.794120 
# 
# From -- ./inp_files/9312.got.cif
#   From: 2010.03.12/outbox.cif.g09.slc.cpg/sg33_5_cif.got.tgz:9312.got - 2010.04.14 01:49:19.
