data_PCOD8170538
_publ_section_title
;
Structure prediction by ZEFSAII (Michael W. Deem and Ramdas Pophale) SiO2 
 PCOD8170538
Probable space group: P B A 2
;
_chemical_formula_sum "Si O2"
_cell_formula_units_Z 30
_cell_length_a 8.341514
_cell_length_b 15.103167
_cell_length_c 11.952018
_cell_angle_alpha 90.000000
_cell_angle_beta 90.000000
_cell_angle_gamma 90.000000
_cell_volume 1505.754418
_symmetry_space_group_name_H-M "P B A 2"
_symmetry_group_IT_number 32
_symmetry_cell_setting 'orthorhombic'
loop_
_space_group_symop_operation_xyz
x,y,z
-x,-y,z
1/2-x,1/2+y,z
1/2+x,1/2-y,z
loop_
_atom_site_type_symbol
_atom_site_label
_atom_site_fract_x
_atom_site_fract_y
_atom_site_fract_z
Si Si1 0.500000 0.000000 0.192500
Si Si2 0.315106 0.986432 0.768949
Si Si3 0.634888 0.680418 0.764040
Si Si4 0.476083 0.714978 0.240647
Si Si5 0.146537 0.937253 0.562053
Si Si6 0.713463 0.130193 0.337679
Si Si7 0.698444 0.338030 0.859447
Si Si8 0.815056 0.342049 0.104834
O O1 0.626333 0.052891 0.269009
O O2 0.398808 0.062393 0.109774
O O3 0.221039 0.058441 0.840244
O O4 0.500000 0.000000 0.785418
O O5 0.266464 0.888811 0.813583
O O6 0.262009 0.997575 0.639420
O O7 0.585838 0.647152 0.638121
O O8 0.487996 0.681847 0.849018
O O9 0.708927 0.778857 0.766124
O O10 0.399197 0.782221 0.333053
O O11 0.607848 0.650334 0.293105
O O12 0.333648 0.655722 0.190824
O O13 0.554914 0.769483 0.140113
O O14 0.259155 0.902006 0.463582
O O15 0.000000 0.000000 0.520601
O O16 0.757652 0.314198 0.982676
#
# Coordination Sequence:
#
# PCOD8170538 Si02
#       8
#     2   4   4   4   4   4   4   4
#     4  10  24  42  60 102 124 156 234 262 318 406
#     4  10  22  42  60  92 130 159 215 263 301 394
#     4  10  23  40  59  97 124 165 223 259 307 403
#     4   9  21  44  59  95 123 159 222 266 307 403
#     4  10  22  43  61  91 132 166 211 265 320 384
#     4  10  22  41  68  87 129 170 206 272 330 376
#     4  12  21  41  65  87 131 174 201 270 326 373
#     4  10  22  40  63  90 126 162 211 264 323 380
#
# _framework density 19.923568
#
# number of rings (size 3 to 8) (size 9 to 14) (size 15 to 20)
#    0.800    1.067    1.333    2.000    3.733    1.067 
#    9.600    0.000    0.000    0.000    0.000    0.000 
#    0.000    0.000    0.000    0.000    0.000    0.000 
#
# Total GULP energy -371846.790793 kJ/mol
# GULP energy per Si atom -12394.893026 kJ/mol
# Density = 1.987822 g / cm^3
# Si number density = 19.923568 Si / 1000 Ang^3
#
#
#
# Elastic Constant Matrix: (Units=GPa)
#
#
# Indices 1 2 3 4 5 6 
#
# 1 119.4843 30.3419 31.1509 0.0000 0.0000 0.0000
# 2 30.3419 65.9768 18.9103 0.0000 0.0000 0.0000
# 3 31.1509 18.9103 83.0496 0.0000 0.0000 0.0000
# 4 0.0000 0.0000 0.0000 16.5822 0.0000 0.0000
# 5 0.0000 0.0000 0.0000 0.0000 33.4052 0.0000
# 6 0.0000 0.0000 0.0000 0.0000 0.0000 41.6712
#
#
#
# Elastic Compliance Matrix: (Units=1/GPa)
#
#
# Indices 1 2 3 4 5 6 
#
# 1 0.010097 -0.003807 -0.002921 0.000000 0.000000 0.000000
# 2 -0.003807 0.017650 -0.002591 0.000000 0.000000 0.000000
# 3 -0.002921 -0.002591 0.013726 0.000000 0.000000 0.000000
# 4 0.000000 0.000000 0.000000 0.060305 0.000000 0.000000
# 5 0.000000 0.000000 0.000000 0.000000 0.029935 0.000000
# 6 0.000000 0.000000 0.000000 0.000000 0.000000 0.023997
#
#
# Mechanical properties :
#
#
# Convention : Reuss Voigt Hill
#
# Bulk Modulus (GPa) = 43.78796 47.70188 45.74492
# Shear Modulus (GPa) = 27.47836 30.87224 29.17530
#
# Velocity S-wave (km/s) = 3.71777 3.94068 3.83085
# Velocity P-wave (km/s) = 6.36041 6.68578 6.52512
#
# Compressibility (1/GPa) = 0.02283733
#
# Stress axis : x y z
#
# Youngs Moduli (GPa) = 99.03559 56.65696 72.85186
#
# Poissons Ratio (x) = 0.21567 0.21278
# Poissons Ratio (y) = 0.37698 0.18877
# Poissons Ratio (z) = 0.28925 0.14680
#
# Static dielectric constant tensor:
#      x y z
#    x 3.784560 0.000000 0.000000 
#    y 0.000000 6.010210 0.000000 
#    z 0.000000 0.000000 3.321660 
# 
# 
# High freq. dielectric constant tensor:
#      x y z
#    x 1.791850 0.000000 0.000000 
#    y 0.000000 1.778090 0.000000 
#    z 0.000000 0.000000 1.756250 
# 
# From -- ./inp_files/3751.got.cif
#   From: 2010.03.12/outbox.cif.g09.slc.cpg/sg32_2_cif.got.tgz:3751.got - 2010.04.14 01:46:39.
