data_PCOD8170112
_publ_section_title
;
Structure prediction by ZEFSAII (Michael W. Deem and Ramdas Pophale) SiO2 
 PCOD8170112
Probable space group: P M N 21
;
_chemical_formula_sum "Si O2"
_cell_formula_units_Z 16
_cell_length_a 8.740236
_cell_length_b 7.840646
_cell_length_c 13.279043
_cell_angle_alpha 90.000000
_cell_angle_beta 90.000000
_cell_angle_gamma 90.000000
_cell_volume 910.000818
_symmetry_space_group_name_H-M "P M N 21"
_symmetry_group_IT_number 31
_symmetry_cell_setting 'orthorhombic'
loop_
_space_group_symop_operation_xyz
x,y,z
1/2-x,-y,1/2+z
-x,y,z
1/2+x,-y,1/2+z
loop_
_atom_site_type_symbol
_atom_site_label
_atom_site_fract_x
_atom_site_fract_y
_atom_site_fract_z
Si Si1 0.320877 0.925975 0.268330
Si Si2 0.827104 0.770346 0.090108
Si Si3 0.820306 0.242491 0.379030
Si Si4 0.673151 0.408378 0.784348
O O1 0.500000 0.932676 0.250628
O O2 0.236819 0.927440 0.158757
O O3 0.274246 0.750142 0.326891
O O4 0.269757 0.084258 0.334381
O O5 0.823434 0.600970 0.161518
O O6 0.000000 0.812239 0.054614
O O7 0.717543 0.738508 0.996284
O O8 0.760729 0.411811 0.321895
O O9 0.000000 0.215142 0.363606
O O10 0.500000 0.385136 0.824432
#
# Coordination Sequence:
#
# PCOD8170112 Si02
#       4
#     4   4   4   4
#     4  10  20  36  56  82 112 144 182 226 270 326
#     4   9  19  38  56  80 112 142 183 230 271 323
#     4  11  20  36  60  82 109 147 182 225 280 324
#     4   8  19  38  56  78 111 143 179 227 271 321
#
# _framework density 17.582401000000001
#
# number of rings (size 3 to 8) (size 9 to 14) (size 15 to 20)
#    1.500    1.000    0.000    3.000    0.000    2.000 
#    4.500    0.000    0.000    0.000    0.000    0.000 
#    0.000    0.000    0.000    0.000    0.000    0.000 
#
# Total GULP energy -198238.199836 kJ/mol
# GULP energy per Si atom -12389.887490 kJ/mol
# Density = 1.754238 g / cm^3
# Si number density = 17.582401 Si / 1000 Ang^3
#
#
#
# Elastic Constant Matrix: (Units=GPa)
#
#
# Indices 1 2 3 4 5 6 
#
# 1 81.2593 35.9566 17.1003 0.0000 0.0000 0.0000
# 2 35.9566 103.9503 38.8809 0.0000 0.0000 0.0000
# 3 17.1003 38.8809 80.8838 0.0000 0.0000 0.0000
# 4 0.0000 0.0000 0.0000 26.9661 0.0000 0.0000
# 5 0.0000 0.0000 0.0000 0.0000 29.1858 0.0000
# 6 0.0000 0.0000 0.0000 0.0000 0.0000 3.6449
#
#
#
# Elastic Compliance Matrix: (Units=1/GPa)
#
#
# Indices 1 2 3 4 5 6 
#
# 1 0.014573 -0.004741 -0.000802 0.000000 0.000000 0.000000
# 2 -0.004741 0.013271 -0.005377 0.000000 0.000000 0.000000
# 3 -0.000802 -0.005377 0.015118 0.000000 0.000000 0.000000
# 4 0.000000 0.000000 0.000000 0.037084 0.000000 0.000000
# 5 0.000000 0.000000 0.000000 0.000000 0.034263 0.000000
# 6 0.000000 0.000000 0.000000 0.000000 0.000000 0.274356
#
#
# Mechanical properties :
#
#
# Convention : Reuss Voigt Hill
#
# Bulk Modulus (GPa) = 47.34459 49.99657 48.67058
# Shear Modulus (GPa) = 11.97475 23.56974 17.77225
#
# Velocity S-wave (km/s) = 2.61255 3.66530 3.18275
# Velocity P-wave (km/s) = 6.00719 6.81248 6.42247
#
# Compressibility (1/GPa) = 0.02112174
#
# Stress axis : x y z
#
# Youngs Moduli (GPa) = 68.62083 75.35201 66.14729
#
# Poissons Ratio (x) = 0.35723 0.05305
# Poissons Ratio (y) = 0.32532 0.35568
# Poissons Ratio (z) = 0.05504 0.40518
#
# Static dielectric constant tensor:
#      x y z
#    x 3.252500 0.000000 0.000000 
#    y 0.000000 3.151640 0.000000 
#    z 0.000000 0.000000 3.104410 
# 
# 
# High freq. dielectric constant tensor:
#      x y z
#    x 1.690410 0.000000 0.000000 
#    y 0.000000 1.662700 0.000000 
#    z 0.000000 0.000000 1.662010 
# 
# From -- ./inp_files/3285.got.cif
#   From: 2010.03.12/outbox.cif.g09.slc.cpg/sg31_2_cif.got.tgz:3285.got - 2010.04.14 01:42:59.
