data_PCOD8170882
_publ_section_title
;
Structure prediction by ZEFSAII (Michael W. Deem and Ramdas Pophale) SiO2 
 PCOD8170882
Probable space group: P N A 21
;
_chemical_formula_sum "Si O2"
_cell_formula_units_Z 24
_cell_length_a 9.626973
_cell_length_b 15.165042
_cell_length_c 7.790143
_cell_angle_alpha 90.000000
_cell_angle_beta 90.000000
_cell_angle_gamma 90.000000
_cell_volume 1137.309852
_symmetry_space_group_name_H-M "P N A 21"
_symmetry_group_IT_number 33
_symmetry_cell_setting 'orthorhombic'
loop_
_space_group_symop_operation_xyz
x,y,z
-x,-y,1/2+z
1/2-x,1/2+y,1/2+z
1/2+x,1/2-y,z
loop_
_atom_site_type_symbol
_atom_site_label
_atom_site_fract_x
_atom_site_fract_y
_atom_site_fract_z
Si Si1 0.893741 0.908815 0.931790
Si Si2 0.124330 0.914815 0.643280
Si Si3 0.675794 0.829871 0.721754
Si Si4 0.363175 0.761782 0.162131
Si Si5 0.613332 0.751734 0.395078
Si Si6 0.359190 0.837175 0.824253
O O1 0.750990 0.911805 0.816429
O O2 0.020319 0.902637 0.800844
O O3 0.903699 0.827748 0.063597
O O4 0.902791 0.995589 0.044584
O O5 0.102575 0.836252 0.508470
O O6 0.280444 0.917001 0.726670
O O7 0.680025 0.829881 0.513331
O O8 0.513188 0.823608 0.757490
O O9 0.761111 0.746811 0.791373
O O10 0.461655 0.778298 0.325931
O O11 0.206301 0.759327 0.227580
O O12 0.370693 0.845274 0.031358
#
# Coordination Sequence:
#
# PCOD8170882 Si02
#       6
#     4   4   4   4   4   4
#     4  11  23  41  62  90 125 166 209 259 313 372
#     4  11  23  41  62  90 125 166 209 259 313 372
#     4  10  20  38  62  89 122 160 204 253 302 362
#     4  11  20  35  61  91 118 156 204 252 304 366
#     4  11  20  35  61  91 118 156 204 252 304 366
#     4  10  20  38  62  89 122 160 204 253 302 362
#
# _framework density 21.102429000000001
#
# number of rings (size 3 to 8) (size 9 to 14) (size 15 to 20)
#    0.000    1.333    0.000   11.000    0.000    0.000 
#    0.000    6.667    0.000    0.000    0.000    0.000 
#    0.000    0.000    0.000    0.000    0.000    0.000 
#
# Total GULP energy -297415.252392 kJ/mol
# GULP energy per Si atom -12392.302183 kJ/mol
# Density = 2.105440 g / cm^3
# Si number density = 21.102429 Si / 1000 Ang^3
#
#
#
# Elastic Constant Matrix: (Units=GPa)
#
#
# Indices 1 2 3 4 5 6 
#
# 1 114.1731 14.8079 19.8101 0.0000 0.0000 0.0000
# 2 14.8079 39.0929 29.6037 0.0000 0.0000 0.0000
# 3 19.8101 29.6037 111.6580 0.0000 0.0000 0.0000
# 4 0.0000 0.0000 0.0000 44.4595 0.0000 0.0000
# 5 0.0000 0.0000 0.0000 0.0000 47.1325 0.0000
# 6 0.0000 0.0000 0.0000 0.0000 0.0000 21.6555
#
#
#
# Elastic Compliance Matrix: (Units=1/GPa)
#
#
# Indices 1 2 3 4 5 6 
#
# 1 0.009282 -0.002839 -0.000894 0.000000 0.000000 0.000000
# 2 -0.002839 0.032874 -0.008212 0.000000 0.000000 0.000000
# 3 -0.000894 -0.008212 0.011292 0.000000 0.000000 0.000000
# 4 0.000000 0.000000 0.000000 0.022492 0.000000 0.000000
# 5 0.000000 0.000000 0.000000 0.000000 0.021217 0.000000
# 6 0.000000 0.000000 0.000000 0.000000 0.000000 0.046178
#
#
# Mechanical properties :
#
#
# Convention : Reuss Voigt Hill
#
# Bulk Modulus (GPa) = 33.83216 43.70750 38.76983
# Shear Modulus (GPa) = 28.23618 36.02964 32.13291
#
# Velocity S-wave (km/s) = 3.66191 4.13652 3.90643
# Velocity P-wave (km/s) = 5.82637 6.60086 6.22567
#
# Compressibility (1/GPa) = 0.02955767
#
# Stress axis : x y z
#
# Youngs Moduli (GPa) = 107.73589 30.41899 88.55942
#
# Poissons Ratio (x) = 0.08635 0.07918
# Poissons Ratio (y) = 0.30584 0.72727
# Poissons Ratio (z) = 0.09633 0.24981
#
# Static dielectric constant tensor:
#      x y z
#    x 4.174580 0.000000 0.000000 
#    y 0.000000 3.674390 0.000000 
#    z 0.000000 0.000000 4.791620 
# 
# 
# High freq. dielectric constant tensor:
#      x y z
#    x 1.845890 0.000000 0.000000 
#    y 0.000000 1.775120 0.000000 
#    z 0.000000 0.000000 1.857750 
# 
# From -- ./inp_files/3189.got.cif
#   From: 2010.03.12/outbox.cif.g09.slc.cpg/sg33_2_cif.got.tgz:3189.got - 2010.04.14 01:49:19.
