data_PCOD8170985
_publ_section_title
;
Structure prediction by ZEFSAII (Michael W. Deem and Ramdas Pophale) SiO2 
 PCOD8170985
Probable space group: P N A 21
;
_chemical_formula_sum "Si O2"
_cell_formula_units_Z 32
_cell_length_a 9.606097
_cell_length_b 12.923706
_cell_length_c 13.450083
_cell_angle_alpha 90.000000
_cell_angle_beta 90.000000
_cell_angle_gamma 90.000000
_cell_volume 1669.779027
_symmetry_space_group_name_H-M "P N A 21"
_symmetry_group_IT_number 33
_symmetry_cell_setting 'orthorhombic'
loop_
_space_group_symop_operation_xyz
x,y,z
-x,-y,1/2+z
1/2-x,1/2+y,1/2+z
1/2+x,1/2-y,z
loop_
_atom_site_type_symbol
_atom_site_label
_atom_site_fract_x
_atom_site_fract_y
_atom_site_fract_z
Si Si1 0.566215 0.006013 0.740680
Si Si2 0.395502 0.822321 0.396830
Si Si3 0.367448 0.973111 0.566499
Si Si4 0.919188 0.965370 0.014384
Si Si5 0.714008 0.242275 0.487399
Si Si6 0.547239 0.856490 0.914580
Si Si7 0.670663 0.590690 0.142532
Si Si8 0.414990 0.364369 0.856059
O O1 0.432116 0.979385 0.675369
O O2 0.587834 0.909401 0.812297
O O3 0.541119 0.108617 0.806890
O O4 0.705176 0.013992 0.674533
O O5 0.424449 0.874614 0.504241
O O6 0.462108 0.709243 0.394397
O O7 0.230776 0.810870 0.383210
O O8 0.199142 0.972280 0.576721
O O9 0.410753 0.076121 0.509286
O O10 0.873207 0.846698 0.004101
O O11 0.068736 0.970516 0.067839
O O12 0.930753 0.022847 0.907442
O O13 0.615943 0.167420 0.422274
O O14 0.757027 0.190685 0.592239
O O15 0.854263 0.255629 0.422819
O O16 0.577888 0.623870 0.237095
#
# Coordination Sequence:
#
# PCOD8170985 Si02
#       8
#     4   4   4   4   4   4   4   4
#     4  10  21  39  60  90 118 159 205 247 302 369
#     4   9  21  37  59  84 120 158 193 250 297 354
#     4   9  19  39  59  82 120 158 197 250 304 353
#     4  10  23  40  58  91 129 151 197 267 299 350
#     4  11  20  37  62  90 120 159 200 253 306 356
#     4  10  21  38  59  88 127 152 200 261 301 354
#     4  11  22  36  65  91 116 162 205 248 305 362
#     4  10  23  40  58  92 124 155 203 248 304 358
#
# _framework density 19.164211999999999
#
# number of rings (size 3 to 8) (size 9 to 14) (size 15 to 20)
#    0.000    2.000    2.500    2.250    7.000    1.000 
#    2.250    5.000    0.000    0.000    0.000    0.000 
#    0.000    0.000    0.000    0.000    0.000    0.000 
#
# Total GULP energy -396730.305104 kJ/mol
# GULP energy per Si atom -12397.822034 kJ/mol
# Density = 1.912059 g / cm^3
# Si number density = 19.164212 Si / 1000 Ang^3
#
#
#
# Elastic Constant Matrix: (Units=GPa)
#
#
# Indices 1 2 3 4 5 6 
#
# 1 84.5167 44.0514 46.7509 0.0000 0.0000 0.0000
# 2 44.0514 76.2694 54.5346 0.0000 0.0000 0.0000
# 3 46.7509 54.5346 97.7812 0.0000 0.0000 0.0000
# 4 0.0000 0.0000 0.0000 23.0323 0.0000 0.0000
# 5 0.0000 0.0000 0.0000 0.0000 30.5839 0.0000
# 6 0.0000 0.0000 0.0000 0.0000 0.0000 31.2249
#
#
#
# Elastic Compliance Matrix: (Units=1/GPa)
#
#
# Indices 1 2 3 4 5 6 
#
# 1 0.018144 -0.007113 -0.004708 0.000000 0.000000 0.000000
# 2 -0.007113 0.024597 -0.010317 0.000000 0.000000 0.000000
# 3 -0.004708 -0.010317 0.018232 0.000000 0.000000 0.000000
# 4 0.000000 0.000000 0.000000 0.043417 0.000000 0.000000
# 5 0.000000 0.000000 0.000000 0.000000 0.032697 0.000000
# 6 0.000000 0.000000 0.000000 0.000000 0.000000 0.032026
#
#
# Mechanical properties :
#
#
# Convention : Reuss Voigt Hill
#
# Bulk Modulus (GPa) = 59.89383 61.02680 60.46032
# Shear Modulus (GPa) = 22.83588 24.51692 23.67640
#
# Velocity S-wave (km/s) = 3.45569 3.58062 3.51871
# Velocity P-wave (km/s) = 6.87337 7.00055 6.93725
#
# Compressibility (1/GPa) = 0.01669621
#
# Stress axis : x y z
#
# Youngs Moduli (GPa) = 55.11615 40.65541 54.84916
#
# Poissons Ratio (x) = 0.28919 0.25820
# Poissons Ratio (y) = 0.39205 0.56589
# Poissons Ratio (z) = 0.25946 0.41945
#
# Static dielectric constant tensor:
#      x y z
#    x 3.718520 0.000000 0.000000 
#    y 0.000000 3.337090 0.000000 
#    z 0.000000 0.000000 3.521730 
# 
# 
# High freq. dielectric constant tensor:
#      x y z
#    x 1.755080 0.000000 0.000000 
#    y 0.000000 1.727820 0.000000 
#    z 0.000000 0.000000 1.734880 
# 
# From -- ./inp_files/6005.got.cif
#   From: 2010.03.12/outbox.cif.g09.slc.cpg/sg33_4_cif.got.tgz:6005.got - 2010.04.14 01:49:19.
