data_PCOD8170062
_publ_section_title
;
Structure prediction by ZEFSAII (Michael W. Deem and Ramdas Pophale) SiO2 
 PCOD8170062
Probable space group: P M N 21
;
_chemical_formula_sum "Si O2"
_cell_formula_units_Z 32
_cell_length_a 8.925185
_cell_length_b 11.802632
_cell_length_c 14.390832
_cell_angle_alpha 90.000000
_cell_angle_beta 90.000000
_cell_angle_gamma 90.000000
_cell_volume 1515.939944
_symmetry_space_group_name_H-M "P M N 21"
_symmetry_group_IT_number 31
_symmetry_cell_setting 'orthorhombic'
loop_
_space_group_symop_operation_xyz
x,y,z
1/2-x,-y,1/2+z
-x,y,z
1/2+x,-y,1/2+z
loop_
_atom_site_type_symbol
_atom_site_label
_atom_site_fract_x
_atom_site_fract_y
_atom_site_fract_z
Si Si1 0.666968 0.198407 0.853110
Si Si2 0.176572 0.405706 0.771508
Si Si3 0.824943 0.916240 0.060763
Si Si4 0.823845 0.130465 0.172188
Si Si5 0.672612 0.944164 0.867302
Si Si6 0.321541 0.519277 0.940849
Si Si7 0.176408 0.661823 0.088682
Si Si8 0.666931 0.295569 0.046714
O O1 0.500000 0.235907 0.817652
O O2 0.790579 0.279750 0.809077
O O3 0.701188 0.069949 0.826672
O O4 0.670980 0.203450 0.964568
O O5 0.251970 0.499681 0.838524
O O6 0.247012 0.414702 0.668652
O O7 0.000000 0.427051 0.766333
O O8 0.788652 0.794663 0.107904
O O9 0.000000 0.934877 0.055619
O O10 0.752918 0.019616 0.120175
O O11 0.769954 0.914266 0.955417
O O12 0.779172 0.134725 0.280816
O O13 0.768998 0.248843 0.129370
O O14 0.000000 0.123307 0.161706
O O15 0.500000 0.927988 0.895200
O O16 0.500000 0.530676 0.930791
O O17 0.250225 0.629586 0.989154
O O18 0.273916 0.414235 0.006548
O O19 0.000000 0.637354 0.085271
O O20 0.500000 0.310567 0.086459
#
# Coordination Sequence:
#
# PCOD8170062 Si02
#       8
#     4   4   4   4   4   4   4   4
#     4   9  17  33  56  81 115 154 194 243 294 342
#     4  11  22  37  62  94 120 154 204 252 301 361
#     4  10  22  39  59  86 121 158 195 246 298 351
#     4  10  20  34  55  84 118 154 192 234 289 354
#     4  10  20  35  55  82 118 159 196 237 294 358
#     4  10  22  42  64  88 118 154 201 255 306 357
#     4  11  23  42  64  88 122 162 203 250 306 361
#     4   9  18  34  57  81 108 145 187 239 292 340
#
# _framework density 21.109014999999999
#
# number of rings (size 3 to 8) (size 9 to 14) (size 15 to 20)
#    0.000    2.000    1.250    3.375    0.000    6.500 
#    2.250    1.250    0.000    0.000    0.000    0.000 
#    0.000    0.000    0.000    0.000    0.000    0.000 
#
# Total GULP energy -396767.979067 kJ/mol
# GULP energy per Si atom -12398.999346 kJ/mol
# Density = 2.106097 g / cm^3
# Si number density = 21.109015 Si / 1000 Ang^3
#
#
#
# Elastic Constant Matrix: (Units=GPa)
#
#
# Indices 1 2 3 4 5 6 
#
# 1 74.7027 17.3095 25.4538 0.0000 0.0000 0.0000
# 2 17.3095 24.8042 4.3186 0.0000 0.0000 0.0000
# 3 25.4538 4.3186 75.1900 0.0000 0.0000 0.0000
# 4 0.0000 0.0000 0.0000 31.6955 0.0000 0.0000
# 5 0.0000 0.0000 0.0000 0.0000 33.0974 0.0000
# 6 0.0000 0.0000 0.0000 0.0000 0.0000 28.7537
#
#
#
# Elastic Compliance Matrix: (Units=1/GPa)
#
#
# Indices 1 2 3 4 5 6 
#
# 1 0.017902 -0.011554 -0.005397 0.000000 0.000000 0.000000
# 2 -0.011554 0.048179 0.001144 0.000000 0.000000 0.000000
# 3 -0.005397 0.001144 0.015061 0.000000 0.000000 0.000000
# 4 0.000000 0.000000 0.000000 0.031550 0.000000 0.000000
# 5 0.000000 0.000000 0.000000 0.000000 0.030214 0.000000
# 6 0.000000 0.000000 0.000000 0.000000 0.000000 0.034778
#
#
# Mechanical properties :
#
#
# Convention : Reuss Voigt Hill
#
# Bulk Modulus (GPa) = 20.18989 29.87342 25.03166
# Shear Modulus (GPa) = 22.14277 27.21700 24.67989
#
# Velocity S-wave (km/s) = 3.24230 3.59465 3.42301
# Velocity P-wave (km/s) = 4.85819 5.60459 5.24468
#
# Compressibility (1/GPa) = 0.04952973
#
# Stress axis : x y z
#
# Youngs Moduli (GPa) = 55.85853 20.75583 66.39711
#
# Poissons Ratio (x) = 0.23980 0.35833
# Poissons Ratio (y) = 0.64536 -0.07596
# Poissons Ratio (z) = 0.30146 -0.02374
#
# Static dielectric constant tensor:
#      x y z
#    x 3.594910 0.000000 0.000000 
#    y 0.000000 3.729410 0.000000 
#    z 0.000000 0.000000 3.865140 
# 
# 
# High freq. dielectric constant tensor:
#      x y z
#    x 1.811590 0.000000 0.000000 
#    y 0.000000 1.815630 0.000000 
#    z 0.000000 0.000000 1.832830 
# 
# From -- ./inp_files/5002.got.cif
#   From: 2010.03.12/outbox.cif.g09.slc.cpg/sg31_3_cif.got.tgz:5002.got - 2010.04.14 01:42:59.
