data_PCOD8170306
_publ_section_title
;
Structure prediction by ZEFSAII (Michael W. Deem and Ramdas Pophale) SiO2 
 PCOD8170306
Probable space group: P M N 21
;
_chemical_formula_sum "Si O2"
_cell_formula_units_Z 20
_cell_length_a 10.913951
_cell_length_b 11.949402
_cell_length_c 7.669814
_cell_angle_alpha 90.000000
_cell_angle_beta 90.000000
_cell_angle_gamma 90.000000
_cell_volume 1000.260234
_symmetry_space_group_name_H-M "P M N 21"
_symmetry_group_IT_number 31
_symmetry_cell_setting 'orthorhombic'
loop_
_space_group_symop_operation_xyz
x,y,z
1/2-x,-y,1/2+z
-x,y,z
1/2+x,-y,1/2+z
loop_
_atom_site_type_symbol
_atom_site_label
_atom_site_fract_x
_atom_site_fract_y
_atom_site_fract_z
Si Si1 0.635957 0.446040 0.363160
Si Si2 0.861523 0.782777 0.016160
Si Si3 0.281305 0.863710 0.683950
Si Si4 0.862481 0.914669 0.337981
Si Si5 0.134890 0.378800 0.139089
O O1 0.500000 0.429371 0.273430
O O2 0.650477 0.351935 0.514740
O O3 0.749746 0.434107 0.234683
O O4 0.640509 0.569264 0.445866
O O5 0.811224 0.830957 0.836288
O O6 0.000000 0.825231 0.024094
O O7 0.799990 0.832193 0.192668
O O8 0.213422 0.911059 0.514875
O O9 0.358185 0.754955 0.628089
O O10 0.367921 0.960301 0.759188
O O11 0.000000 0.876218 0.383510
O O12 0.000000 0.408313 0.222050
#
# Coordination Sequence:
#
# PCOD8170306 Si02
#       5
#     4   4   4   4   4
#     4   9  20  38  60  85 118 157 198 243 299 361
#     4   9  19  37  57  81 114 152 202 250 287 354
#     4  11  21  38  59  85 120 156 198 248 302 355
#     4  11  22  36  59  85 114 158 203 246 304 359
#     4  10  22  39  61  90 123 155 196 251 303 351
#
# _framework density 19.994796000000001
#
# number of rings (size 3 to 8) (size 9 to 14) (size 15 to 20)
#    0.000    2.000    2.000    1.200    2.800    1.600 
#    0.000    0.000    0.000    0.000    0.000    0.000 
#    0.000    0.000    0.000    0.000    0.000    0.000 
#
# Total GULP energy -247806.519164 kJ/mol
# GULP energy per Si atom -12390.325958 kJ/mol
# Density = 1.994929 g / cm^3
# Si number density = 19.994796 Si / 1000 Ang^3
#
#
#
# Elastic Constant Matrix: (Units=GPa)
#
#
# Indices 1 2 3 4 5 6 
#
# 1 125.6948 25.0154 39.6719 0.0000 0.0000 0.0000
# 2 25.0154 71.1240 24.8136 0.0000 0.0000 0.0000
# 3 39.6719 24.8136 88.6130 0.0000 0.0000 0.0000
# 4 0.0000 0.0000 0.0000 34.3918 0.0000 0.0000
# 5 0.0000 0.0000 0.0000 0.0000 23.7704 0.0000
# 6 0.0000 0.0000 0.0000 0.0000 0.0000 24.3711
#
#
#
# Elastic Compliance Matrix: (Units=1/GPa)
#
#
# Indices 1 2 3 4 5 6 
#
# 1 0.009531 -0.002065 -0.003689 0.000000 0.000000 0.000000
# 2 -0.002065 0.016030 -0.003564 0.000000 0.000000 0.000000
# 3 -0.003689 -0.003564 0.013934 0.000000 0.000000 0.000000
# 4 0.000000 0.000000 0.000000 0.029077 0.000000 0.000000
# 5 0.000000 0.000000 0.000000 0.000000 0.042069 0.000000
# 6 0.000000 0.000000 0.000000 0.000000 0.000000 0.041032
#
#
# Mechanical properties :
#
#
# Convention : Reuss Voigt Hill
#
# Bulk Modulus (GPa) = 47.94058 51.60373 49.77216
# Shear Modulus (GPa) = 28.20677 29.56872 28.88775
#
# Velocity S-wave (km/s) = 3.76001 3.84972 3.80513
# Velocity P-wave (km/s) = 6.54819 6.75463 6.65221
#
# Compressibility (1/GPa) = 0.02085915
#
# Stress axis : x y z
#
# Youngs Moduli (GPa) = 104.92034 62.38396 71.76454
#
# Poissons Ratio (x) = 0.12884 0.26472
# Poissons Ratio (y) = 0.21669 0.25577
# Poissons Ratio (z) = 0.38702 0.22234
#
# Static dielectric constant tensor:
#      x y z
#    x 3.697710 0.000000 0.000000 
#    y 0.000000 3.896510 0.000000 
#    z 0.000000 0.000000 3.406460 
# 
# 
# High freq. dielectric constant tensor:
#      x y z
#    x 1.778870 0.000000 0.000000 
#    y 0.000000 1.792300 0.000000 
#    z 0.000000 0.000000 1.760190 
# 
# From -- ./inp_files/2060.got.cif
#   From: 2010.03.12/outbox.cif.g09.slc.cpg/sg31_2_cif.got.tgz:2060.got - 2010.04.14 01:42:59.
