data_PCOD8170193
_publ_section_title
;
Structure prediction by ZEFSAII (Michael W. Deem and Ramdas Pophale) SiO2 
 PCOD8170193
Probable space group: P M N 21
;
_chemical_formula_sum "Si O2"
_cell_formula_units_Z 24
_cell_length_a 8.766814
_cell_length_b 13.601381
_cell_length_c 10.028934
_cell_angle_alpha 90.000000
_cell_angle_beta 90.000000
_cell_angle_gamma 90.000000
_cell_volume 1195.857886
_symmetry_space_group_name_H-M "P M N 21"
_symmetry_group_IT_number 31
_symmetry_cell_setting 'orthorhombic'
loop_
_space_group_symop_operation_xyz
x,y,z
1/2-x,-y,1/2+z
-x,y,z
1/2+x,-y,1/2+z
loop_
_atom_site_type_symbol
_atom_site_label
_atom_site_fract_x
_atom_site_fract_y
_atom_site_fract_z
Si Si1 0.321941 0.583998 0.250000
Si Si2 0.322725 0.429759 0.477398
Si Si3 0.319815 0.854480 0.606462
Si Si4 0.681156 0.075662 0.607968
Si Si5 0.179885 0.783764 0.339397
Si Si6 0.320992 0.214811 0.373702
O O1 0.500000 0.610107 0.254249
O O2 0.278562 0.503059 0.359156
O O3 0.222430 0.680316 0.275063
O O4 0.276768 0.540721 0.105890
O O5 0.500000 0.437554 0.514884
O O6 0.279557 0.320239 0.433149
O O7 0.500000 0.857769 0.600821
O O8 0.260257 0.794435 0.480722
O O9 0.267970 0.797010 0.736659
O O10 0.252292 0.965368 0.606397
O O11 0.500000 0.076716 0.607634
O O12 0.739539 0.130207 0.741151
O O13 0.739628 0.132537 0.476813
O O14 0.000000 0.789247 0.359244
O O15 0.500000 0.204531 0.345785
#
# Coordination Sequence:
#
# PCOD8170193 Si02
#       6
#     4   4   4   4   4   4
#     4  11  24  41  64  96 123 153 200 253 302 354
#     4  10  23  43  65  89 120 158 201 245 300 365
#     4  11  23  37  57  93 126 154 200 258 299 349
#     4   9  19  38  63  86 117 158 206 250 298 357
#     4  11  22  41  64  87 121 167 203 242 302 367
#     4  10  20  40  63  85 117 162 202 240 297 368
#
# _framework density 20.069274
#
# number of rings (size 3 to 8) (size 9 to 14) (size 15 to 20)
#    0.000    1.667    1.667    2.500    2.333    2.000 
#    0.000    3.333    0.000    0.000    0.000    0.000 
#    0.000    0.000    0.000    0.000    0.000    0.000 
#
# Total GULP energy -297731.894972 kJ/mol
# GULP energy per Si atom -12405.495624 kJ/mol
# Density = 2.002360 g / cm^3
# Si number density = 20.069274 Si / 1000 Ang^3
#
#
#
# Elastic Constant Matrix: (Units=GPa)
#
#
# Indices 1 2 3 4 5 6 
#
# 1 47.3058 22.2579 40.6471 0.0000 0.0000 0.0000
# 2 22.2579 80.4388 35.5106 0.0000 0.0000 0.0000
# 3 40.6471 35.5106 158.9895 0.0000 0.0000 0.0000
# 4 0.0000 0.0000 0.0000 37.2108 0.0000 0.0000
# 5 0.0000 0.0000 0.0000 0.0000 27.4523 0.0000
# 6 0.0000 0.0000 0.0000 0.0000 0.0000 25.6711
#
#
#
# Elastic Compliance Matrix: (Units=1/GPa)
#
#
# Indices 1 2 3 4 5 6 
#
# 1 0.028970 -0.005266 -0.006230 0.000000 0.000000 0.000000
# 2 -0.005266 0.014749 -0.001948 0.000000 0.000000 0.000000
# 3 -0.006230 -0.001948 0.008318 0.000000 0.000000 0.000000
# 4 0.000000 0.000000 0.000000 0.026874 0.000000 0.000000
# 5 0.000000 0.000000 0.000000 0.000000 0.036427 0.000000
# 6 0.000000 0.000000 0.000000 0.000000 0.000000 0.038954
#
#
# Mechanical properties :
#
#
# Convention : Reuss Voigt Hill
#
# Bulk Modulus (GPa) = 39.76390 53.72947 46.74668
# Shear Modulus (GPa) = 26.37655 30.62142 28.49899
#
# Velocity S-wave (km/s) = 3.62923 3.91037 3.77242
# Velocity P-wave (km/s) = 6.11703 6.87154 6.50523
#
# Compressibility (1/GPa) = 0.02514844
#
# Stress axis : x y z
#
# Youngs Moduli (GPa) = 34.51843 67.80203 120.22637
#
# Poissons Ratio (x) = 0.35703 0.74905
# Poissons Ratio (y) = 0.18177 0.23419
# Poissons Ratio (z) = 0.21506 0.13207
#
# Static dielectric constant tensor:
#      x y z
#    x 3.407570 0.000000 0.000000 
#    y 0.000000 3.794110 0.000000 
#    z 0.000000 0.000000 3.778780 
# 
# 
# High freq. dielectric constant tensor:
#      x y z
#    x 1.766600 0.000000 0.000000 
#    y 0.000000 1.791320 0.000000 
#    z 0.000000 0.000000 1.800870 
# 
# From -- ./inp_files/1689.got.cif
#   From: 2010.03.12/outbox.cif.g09.slc.cpg/sg31_1_cif.got.tgz:1689.got - 2010.04.14 01:42:59.
