data_PCOD8170927
_publ_section_title
;
Structure prediction by ZEFSAII (Michael W. Deem and Ramdas Pophale) SiO2 
 PCOD8170927
Probable space group: P N A 21
;
_chemical_formula_sum "Si O2"
_cell_formula_units_Z 24
_cell_length_a 11.347189
_cell_length_b 10.057979
_cell_length_c 9.314883
_cell_angle_alpha 90.000000
_cell_angle_beta 90.000000
_cell_angle_gamma 90.000000
_cell_volume 1063.105628
_symmetry_space_group_name_H-M "P N A 21"
_symmetry_group_IT_number 33
_symmetry_cell_setting 'orthorhombic'
loop_
_space_group_symop_operation_xyz
x,y,z
-x,-y,1/2+z
1/2-x,1/2+y,1/2+z
1/2+x,1/2-y,z
loop_
_atom_site_type_symbol
_atom_site_label
_atom_site_fract_x
_atom_site_fract_y
_atom_site_fract_z
Si Si1 0.936392 0.262611 0.757550
Si Si2 0.683123 0.450990 0.518444
Si Si3 0.283754 0.993129 0.802861
Si Si4 0.295033 0.502672 0.707323
Si Si5 0.565294 0.409766 0.965508
Si Si6 0.381524 0.840280 0.043713
O O1 0.845916 0.364696 0.828734
O O2 0.877399 0.125665 0.715071
O O3 0.036660 0.226213 0.878219
O O4 0.987791 0.328850 0.610754
O O5 0.760603 0.535183 0.633096
O O6 0.745180 0.447475 0.363312
O O7 0.552962 0.508302 0.497538
O O8 0.680811 0.300331 0.576912
O O9 0.153862 0.996238 0.874339
O O10 0.367829 0.878547 0.874084
O O11 0.368036 0.615738 0.618237
O O12 0.176847 0.464145 0.625205
#
# Coordination Sequence:
#
# PCOD8170927 Si02
#       6
#     4   4   4   4   4   4
#     4  11  20  42  67  92 138 169 221 293 333 393
#     4  11  20  42  67  97 127 179 229 279 328 408
#     4  11  24  42  69 102 133 181 228 278 345 400
#     4  10  21  38  70  92 127 178 232 270 340 403
#     4  10  20  41  72  94 124 184 225 268 346 413
#     4  11  23  43  63  95 137 177 219 286 340 399
#
# _framework density 22.575368999999998
#
# number of rings (size 3 to 8) (size 9 to 14) (size 15 to 20)
#    0.000    1.333    5.000    1.000    0.000    1.333 
#   18.000    0.000    0.000    0.000    0.000    0.000 
#    0.000    0.000    0.000    0.000    0.000    0.000 
#
# Total GULP energy -297382.211861 kJ/mol
# GULP energy per Si atom -12390.925494 kJ/mol
# Density = 2.252399 g / cm^3
# Si number density = 22.575369 Si / 1000 Ang^3
#
#
#
# Elastic Constant Matrix: (Units=GPa)
#
#
# Indices 1 2 3 4 5 6 
#
# 1 43.7373 25.4099 22.0165 0.0000 0.0000 0.0000
# 2 25.4099 49.1947 26.4150 0.0000 0.0000 0.0000
# 3 22.0165 26.4150 153.4282 0.0000 0.0000 0.0000
# 4 0.0000 0.0000 0.0000 39.3843 0.0000 0.0000
# 5 0.0000 0.0000 0.0000 0.0000 42.0961 0.0000
# 6 0.0000 0.0000 0.0000 0.0000 0.0000 37.5713
#
#
#
# Elastic Compliance Matrix: (Units=1/GPa)
#
#
# Indices 1 2 3 4 5 6 
#
# 1 0.033212 -0.016082 -0.001997 0.000000 0.000000 0.000000
# 2 -0.016082 0.030186 -0.002889 0.000000 0.000000 0.000000
# 3 -0.001997 -0.002889 0.007302 0.000000 0.000000 0.000000
# 4 0.000000 0.000000 0.000000 0.025391 0.000000 0.000000
# 5 0.000000 0.000000 0.000000 0.000000 0.023755 0.000000
# 6 0.000000 0.000000 0.000000 0.000000 0.000000 0.026616
#
#
# Mechanical properties :
#
#
# Convention : Reuss Voigt Hill
#
# Bulk Modulus (GPa) = 34.76762 43.78257 39.27510
# Shear Modulus (GPa) = 25.25426 35.31158 30.28292
#
# Velocity S-wave (km/s) = 3.34827 3.95924 3.66651
# Velocity P-wave (km/s) = 5.51199 6.35113 5.94638
#
# Compressibility (1/GPa) = 0.02876239
#
# Stress axis : x y z
#
# Youngs Moduli (GPa) = 30.10924 33.12845 136.95472
#
# Poissons Ratio (x) = 0.53279 0.27351
# Poissons Ratio (y) = 0.48423 0.39568
# Poissons Ratio (z) = 0.06013 0.09571
#
# Static dielectric constant tensor:
#      x y z
#    x 3.994830 0.000000 0.000000 
#    y 0.000000 3.839400 0.000000 
#    z 0.000000 0.000000 4.702760 
# 
# 
# High freq. dielectric constant tensor:
#      x y z
#    x 1.880420 0.000000 0.000000 
#    y 0.000000 1.852960 0.000000 
#    z 0.000000 0.000000 1.905220 
# 
# From -- ./inp_files/3796.got.cif
#   From: 2010.03.12/outbox.cif.g09.slc.cpg/sg33_2_cif.got.tgz:3796.got - 2010.04.14 01:49:19.
