data_PCOD8170359
_publ_section_title
;
Structure prediction by ZEFSAII (Michael W. Deem and Ramdas Pophale) SiO2 
 PCOD8170359
Probable space group: P M N 21
;
_chemical_formula_sum "Si O2"
_cell_formula_units_Z 16
_cell_length_a 14.812488
_cell_length_b 5.275204
_cell_length_c 9.722661
_cell_angle_alpha 90.000000
_cell_angle_beta 90.000000
_cell_angle_gamma 90.000000
_cell_volume 759.717996
_symmetry_space_group_name_H-M "P M N 21"
_symmetry_group_IT_number 31
_symmetry_cell_setting 'orthorhombic'
loop_
_space_group_symop_operation_xyz
x,y,z
1/2-x,-y,1/2+z
-x,y,z
1/2+x,-y,1/2+z
loop_
_atom_site_type_symbol
_atom_site_label
_atom_site_fract_x
_atom_site_fract_y
_atom_site_fract_z
Si Si1 0.142749 0.102487 0.277090
Si Si2 0.327717 0.405525 0.906119
Si Si3 0.188044 0.625899 0.724568
Si Si4 0.500000 0.897807 0.544061
Si Si5 0.000000 0.610239 0.865617
O O1 0.111297 0.352406 0.362074
O O2 0.251098 0.119769 0.247390
O O3 0.090211 0.109001 0.134089
O O4 0.120497 0.854691 0.368374
O O5 0.234393 0.405904 0.817334
O O6 0.306035 0.441091 0.064965
O O7 0.085280 0.657361 0.768037
O O8 0.500000 0.667898 0.434755
O O9 0.500000 0.173984 0.478628
#
# Coordination Sequence:
#
# PCOD8170359 Si02
#       5
#     4   4   4   2   2
#     4  10  25  40  72  93 139 181 226 278 331 420
#     4  10  24  41  71  94 139 177 228 273 349 397
#     4  10  26  43  69 102 140 179 228 283 348 401
#     4  12  26  48  68 106 136 188 234 274 354 412
#     4  12  28  40  76 100 144 174 238 290 338 412
#
# _framework density 21.060447
#
# number of rings (size 3 to 8) (size 9 to 14) (size 15 to 20)
#    1.500    0.000    0.000    3.000   14.000    2.000 
#    0.000    0.000    0.000    0.000    0.000    0.000 
#    0.000    0.000    0.000    0.000    0.000    0.000 
#
# Total GULP energy -198241.343696 kJ/mol
# GULP energy per Si atom -12390.083981 kJ/mol
# Density = 2.101251 g / cm^3
# Si number density = 21.060447 Si / 1000 Ang^3
#
#
#
# Elastic Constant Matrix: (Units=GPa)
#
#
# Indices 1 2 3 4 5 6 
#
# 1 105.8907 24.5511 36.8676 0.0000 0.0000 0.0000
# 2 24.5511 134.8316 41.0210 0.0000 0.0000 0.0000
# 3 36.8676 41.0210 157.2560 0.0000 0.0000 0.0000
# 4 0.0000 0.0000 0.0000 29.9328 0.0000 0.0000
# 5 0.0000 0.0000 0.0000 0.0000 31.6201 0.0000
# 6 0.0000 0.0000 0.0000 0.0000 0.0000 5.8456
#
#
#
# Elastic Compliance Matrix: (Units=1/GPa)
#
#
# Indices 1 2 3 4 5 6 
#
# 1 0.010477 -0.001260 -0.002127 0.000000 0.000000 0.000000
# 2 -0.001260 0.008208 -0.001846 0.000000 0.000000 0.000000
# 3 -0.002127 -0.001846 0.007339 0.000000 0.000000 0.000000
# 4 0.000000 0.000000 0.000000 0.033408 0.000000 0.000000
# 5 0.000000 0.000000 0.000000 0.000000 0.031625 0.000000
# 6 0.000000 0.000000 0.000000 0.000000 0.000000 0.171070
#
#
# Mechanical properties :
#
#
# Convention : Reuss Voigt Hill
#
# Bulk Modulus (GPa) = 64.28036 66.98418 65.63227
# Shear Modulus (GPa) = 17.99989 33.18226 25.59107
#
# Velocity S-wave (km/s) = 2.92666 3.97365 3.48965
# Velocity P-wave (km/s) = 6.48140 7.27516 6.88972
#
# Compressibility (1/GPa) = 0.01555685
#
# Stress axis : x y z
#
# Youngs Moduli (GPa) = 95.45064 121.83767 136.25431
#
# Poissons Ratio (x) = 0.15357 0.28987
# Poissons Ratio (y) = 0.12031 0.25146
# Poissons Ratio (z) = 0.20306 0.22485
#
# Static dielectric constant tensor:
#      x y z
#    x 4.426220 0.000000 0.000000 
#    y 0.000000 3.806370 0.000000 
#    z 0.000000 0.000000 3.660350 
# 
# 
# High freq. dielectric constant tensor:
#      x y z
#    x 1.813000 0.000000 0.000000 
#    y 0.000000 1.827380 0.000000 
#    z 0.000000 0.000000 1.830290 
# 
# From -- ./inp_files/2652.got.cif
#   From: 2010.03.12/outbox.cif.g09.slc.cpg/sg31_2_cif.got.tgz:2652.got - 2010.04.14 01:42:59.
