data_PCOD8170930
_publ_section_title
;
Structure prediction by ZEFSAII (Michael W. Deem and Ramdas Pophale) SiO2 
 PCOD8170930
Probable space group: P N A 21
;
_chemical_formula_sum "Si O2"
_cell_formula_units_Z 24
_cell_length_a 9.821869
_cell_length_b 8.282179
_cell_length_c 14.668740
_cell_angle_alpha 90.000000
_cell_angle_beta 90.000000
_cell_angle_gamma 90.000000
_cell_volume 1193.250324
_symmetry_space_group_name_H-M "P N A 21"
_symmetry_group_IT_number 33
_symmetry_cell_setting 'orthorhombic'
loop_
_space_group_symop_operation_xyz
x,y,z
-x,-y,1/2+z
1/2-x,1/2+y,1/2+z
1/2+x,1/2-y,z
loop_
_atom_site_type_symbol
_atom_site_label
_atom_site_fract_x
_atom_site_fract_y
_atom_site_fract_z
Si Si1 0.123825 0.941035 0.086440
Si Si2 0.351082 0.055605 0.961971
Si Si3 0.869905 0.377277 0.485655
Si Si4 0.613519 0.571700 0.464160
Si Si5 0.561575 0.411421 0.270572
Si Si6 0.724317 0.665178 0.819212
O O1 0.140408 0.749986 0.068550
O O2 0.115291 0.964500 0.194787
O O3 0.252730 0.039418 0.048579
O O4 0.989531 0.011952 0.040328
O O5 0.397297 0.238183 0.949350
O O6 0.276903 0.996293 0.869650
O O7 0.478981 0.943308 0.981753
O O8 0.763706 0.522996 0.499062
O O9 0.836817 0.288757 0.392047
O O10 0.575300 0.487850 0.369799
O O11 0.401487 0.375553 0.251907
O O12 0.651809 0.247717 0.264003
#
# Coordination Sequence:
#
# PCOD8170930 Si02
#       6
#     4   4   4   4   4   4
#     4  11  23  41  63  92 129 172 218 264 317 386
#     4  11  21  41  65  92 126 170 215 269 319 380
#     4  10  20  42  67  86 124 172 209 261 328 371
#     4  11  23  42  65  94 128 168 218 268 321 384
#     4  11  23  42  66  95 127 170 217 260 328 388
#     4  10  20  42  66  89 126 168 205 262 327 381
#
# _framework density 20.113132
#
# number of rings (size 3 to 8) (size 9 to 14) (size 15 to 20)
#    0.000    1.333    5.000    3.000    2.333    0.000 
#    6.000    0.000    0.000    0.000    0.000    0.000 
#    0.000    0.000    0.000    0.000    0.000    0.000 
#
# Total GULP energy -297665.760305 kJ/mol
# GULP energy per Si atom -12402.740013 kJ/mol
# Density = 2.006735 g / cm^3
# Si number density = 20.113132 Si / 1000 Ang^3
#
#
#
# Elastic Constant Matrix: (Units=GPa)
#
#
# Indices 1 2 3 4 5 6 
#
# 1 96.1410 3.2391 23.2326 0.0000 0.0000 0.0000
# 2 3.2391 85.5128 14.3244 0.0000 0.0000 0.0000
# 3 23.2326 14.3244 54.7704 0.0000 0.0000 0.0000
# 4 0.0000 0.0000 0.0000 16.1392 0.0000 0.0000
# 5 0.0000 0.0000 0.0000 0.0000 10.5631 0.0000
# 6 0.0000 0.0000 0.0000 0.0000 0.0000 28.1556
#
#
#
# Elastic Compliance Matrix: (Units=1/GPa)
#
#
# Indices 1 2 3 4 5 6 
#
# 1 0.011603 0.000403 -0.005027 0.000000 0.000000 0.000000
# 2 0.000403 0.012244 -0.003373 0.000000 0.000000 0.000000
# 3 -0.005027 -0.003373 0.021273 0.000000 0.000000 0.000000
# 4 0.000000 0.000000 0.000000 0.061961 0.000000 0.000000
# 5 0.000000 0.000000 0.000000 0.000000 0.094669 0.000000
# 6 0.000000 0.000000 0.000000 0.000000 0.000000 0.035517
#
#
# Mechanical properties :
#
#
# Convention : Reuss Voigt Hill
#
# Bulk Modulus (GPa) = 34.33548 35.33518 34.83533
# Shear Modulus (GPa) = 19.01365 24.01344 21.51354
#
# Velocity S-wave (km/s) = 3.07797 3.45906 3.27406
# Velocity P-wave (km/s) = 5.45345 5.79308 5.62583
#
# Compressibility (1/GPa) = 0.02912439
#
# Stress axis : x y z
#
# Youngs Moduli (GPa) = 86.18766 81.67319 47.00899
#
# Poissons Ratio (x) = -0.03288 0.23631
# Poissons Ratio (y) = -0.03470 0.15856
# Poissons Ratio (z) = 0.43326 0.27548
#
# Static dielectric constant tensor:
#      x y z
#    x 4.045550 0.000000 0.000000 
#    y 0.000000 3.700180 0.000000 
#    z 0.000000 0.000000 3.350410 
# 
# 
# High freq. dielectric constant tensor:
#      x y z
#    x 1.809520 0.000000 0.000000 
#    y 0.000000 1.783550 0.000000 
#    z 0.000000 0.000000 1.758690 
# 
# From -- ./inp_files/7527.got.cif
#   From: 2010.03.12/outbox.cif.g09.slc.cpg/sg33_4_cif.got.tgz:7527.got - 2010.04.14 01:49:19.
