data_PCOD8170713
_publ_section_title
;
Structure prediction by ZEFSAII (Michael W. Deem and Ramdas Pophale) SiO2 
 PCOD8170713
Probable space group: P N A 21
;
_chemical_formula_sum "Si O2"
_cell_formula_units_Z 28
_cell_length_a 9.436112
_cell_length_b 18.434654
_cell_length_c 8.163116
_cell_angle_alpha 90.000000
_cell_angle_beta 90.000000
_cell_angle_gamma 90.000000
_cell_volume 1419.985945
_symmetry_space_group_name_H-M "P N A 21"
_symmetry_group_IT_number 33
_symmetry_cell_setting 'orthorhombic'
loop_
_space_group_symop_operation_xyz
x,y,z
-x,-y,1/2+z
1/2-x,1/2+y,1/2+z
1/2+x,1/2-y,z
loop_
_atom_site_type_symbol
_atom_site_label
_atom_site_fract_x
_atom_site_fract_y
_atom_site_fract_z
Si Si1 0.512589 0.678991 0.609420
Si Si2 0.945782 0.800294 0.984859
Si Si3 0.951845 0.952671 0.387667
Si Si4 0.135675 0.918752 0.100403
Si Si5 0.717602 0.231983 0.933710
Si Si6 0.224272 0.636791 0.206014
Si Si7 0.084831 0.352019 0.643502
O O1 0.488651 0.680935 0.801867
O O2 0.471459 0.599910 0.542779
O O3 0.415883 0.740690 0.533638
O O4 0.673980 0.696728 0.562212
O O5 0.794536 0.834756 0.036323
O O6 0.943389 0.714711 0.019697
O O7 0.065472 0.838139 0.099090
O O8 0.816745 0.928601 0.279304
O O9 0.093357 0.953566 0.275686
O O10 0.925460 0.033429 0.452084
O O11 0.304752 0.911090 0.071748
O O12 0.789757 0.297175 0.833717
O O13 0.658740 0.171489 0.811846
O O14 0.065564 0.608305 0.171362
#
# Coordination Sequence:
#
# PCOD8170713 Si02
#       7
#     4   4   4   4   4   4   4
#     4  11  21  35  58  92 121 153 203 254 302 356
#     4  10  22  35  61  91 124 151 202 255 299 365
#     4  10  22  41  61  84 117 163 204 243 300 370
#     4  11  22  41  64  85 117 164 206 245 298 371
#     4  10  19  34  59  86 116 157 197 249 302 355
#     4   9  20  38  56  84 121 157 192 248 309 360
#     4  11  20  38  61  88 118 163 196 250 314 357
#
# _framework density 19.718505
#
# number of rings (size 3 to 8) (size 9 to 14) (size 15 to 20)
#    0.000    1.714    2.857    3.429    4.000    0.000 
#    0.000    4.286    0.000    0.000    0.000    0.000 
#    0.000    0.000    0.000    0.000    0.000    0.000 
#
# Total GULP energy -347196.219410 kJ/mol
# GULP energy per Si atom -12399.864979 kJ/mol
# Density = 1.967362 g / cm^3
# Si number density = 19.718505 Si / 1000 Ang^3
#
#
#
# Elastic Constant Matrix: (Units=GPa)
#
#
# Indices 1 2 3 4 5 6 
#
# 1 113.9688 18.3805 26.3729 0.0000 0.0000 0.0000
# 2 18.3805 55.5400 13.3462 0.0000 0.0000 0.0000
# 3 26.3729 13.3462 98.5232 0.0000 0.0000 0.0000
# 4 0.0000 0.0000 0.0000 24.4230 0.0000 0.0000
# 5 0.0000 0.0000 0.0000 0.0000 25.7635 0.0000
# 6 0.0000 0.0000 0.0000 0.0000 0.0000 21.0166
#
#
#
# Elastic Compliance Matrix: (Units=1/GPa)
#
#
# Indices 1 2 3 4 5 6 
#
# 1 0.009725 -0.002680 -0.002240 0.000000 0.000000 0.000000
# 2 -0.002680 0.019349 -0.001904 0.000000 0.000000 0.000000
# 3 -0.002240 -0.001904 0.011007 0.000000 0.000000 0.000000
# 4 0.000000 0.000000 0.000000 0.040945 0.000000 0.000000
# 5 0.000000 0.000000 0.000000 0.000000 0.038815 0.000000
# 6 0.000000 0.000000 0.000000 0.000000 0.000000 0.047582
#
#
# Mechanical properties :
#
#
# Convention : Reuss Voigt Hill
#
# Bulk Modulus (GPa) = 37.83014 42.69234 40.26124
# Shear Modulus (GPa) = 26.33212 28.23610 27.28411
#
# Velocity S-wave (km/s) = 3.65828 3.78823 3.72382
# Velocity P-wave (km/s) = 6.08858 6.39000 6.24111
#
# Compressibility (1/GPa) = 0.02643395
#
# Stress axis : x y z
#
# Youngs Moduli (GPa) = 102.82832 51.68101 90.84780
#
# Poissons Ratio (x) = 0.13851 0.20351
# Poissons Ratio (y) = 0.27559 0.17295
# Poissons Ratio (z) = 0.23035 0.09839
#
# Static dielectric constant tensor:
#      x y z
#    x 3.730470 0.000000 0.000000 
#    y 0.000000 3.398760 0.000000 
#    z 0.000000 0.000000 3.781820 
# 
# 
# High freq. dielectric constant tensor:
#      x y z
#    x 1.773420 0.000000 0.000000 
#    y 0.000000 1.744910 0.000000 
#    z 0.000000 0.000000 1.764440 
# 
# From -- ./inp_files/3289.got.cif
#   From: 2010.03.12/outbox.cif.g09.slc.cpg/sg33_2_cif.got.tgz:3289.got - 2010.04.14 01:49:19.
