data_PCOD8170723
_publ_section_title
;
Structure prediction by ZEFSAII (Michael W. Deem and Ramdas Pophale) SiO2 
 PCOD8170723
Probable space group: P N A 21
;
_chemical_formula_sum "Si O2"
_cell_formula_units_Z 24
_cell_length_a 8.830254
_cell_length_b 15.692070
_cell_length_c 8.850453
_cell_angle_alpha 90.000000
_cell_angle_beta 90.000000
_cell_angle_gamma 90.000000
_cell_volume 1226.362700
_symmetry_space_group_name_H-M "P N A 21"
_symmetry_group_IT_number 33
_symmetry_cell_setting 'orthorhombic'
loop_
_space_group_symop_operation_xyz
x,y,z
-x,-y,1/2+z
1/2-x,1/2+y,1/2+z
1/2+x,1/2-y,z
loop_
_atom_site_type_symbol
_atom_site_label
_atom_site_fract_x
_atom_site_fract_y
_atom_site_fract_z
Si Si1 0.678717 0.157827 0.307670
Si Si2 0.850258 0.989116 0.809673
Si Si3 0.333414 0.493055 0.451612
Si Si4 0.323204 0.174149 0.298644
Si Si5 0.814509 0.159076 0.980241
Si Si6 0.169062 0.176993 0.975751
O O1 0.704732 0.075357 0.413727
O O2 0.502175 0.175638 0.301532
O O3 0.760675 0.240699 0.382569
O O4 0.740398 0.137255 0.141050
O O5 0.859207 0.996923 0.629733
O O6 0.790803 0.077592 0.875152
O O7 0.738173 0.914427 0.867158
O O8 0.013997 0.962460 0.871114
O O9 0.289376 0.588361 0.390323
O O10 0.260740 0.182735 0.130570
O O11 0.728853 0.237372 0.892398
O O12 0.990147 0.181532 0.004283
#
# Coordination Sequence:
#
# PCOD8170723 Si02
#       6
#     4   4   4   4   4   4
#     4  11  20  34  57  80 106 140 183 223 267 321
#     4  10  21  37  57  80 110 144 182 222 271 320
#     4  10  20  37  55  79 109 145 181 223 268 320
#     4  10  20  34  56  80 106 145 183 219 266 333
#     4  10  19  35  58  81 107 144 180 224 267 321
#     4   9  18  33  55  78 106 140 179 213 263 325
#
# _framework density 19.570067999999999
#
# number of rings (size 3 to 8) (size 9 to 14) (size 15 to 20)
#    0.000    2.000    0.000    8.000    0.000    4.000 
#    0.000    8.333    0.000    0.000    0.000    0.000 
#    0.000    0.000    0.000    0.000    0.000    0.000 
#
# Total GULP energy -297454.689661 kJ/mol
# GULP energy per Si atom -12393.945403 kJ/mol
# Density = 1.952553 g / cm^3
# Si number density = 19.570068 Si / 1000 Ang^3
#
#
#
# Elastic Constant Matrix: (Units=GPa)
#
#
# Indices 1 2 3 4 5 6 
#
# 1 119.0409 59.9469 17.9611 0.0000 0.0000 0.0000
# 2 59.9469 164.8095 28.7100 0.0000 0.0000 0.0000
# 3 17.9611 28.7100 45.6965 0.0000 0.0000 0.0000
# 4 0.0000 0.0000 0.0000 29.9775 0.0000 0.0000
# 5 0.0000 0.0000 0.0000 0.0000 22.8895 0.0000
# 6 0.0000 0.0000 0.0000 0.0000 0.0000 40.1968
#
#
#
# Elastic Compliance Matrix: (Units=1/GPa)
#
#
# Indices 1 2 3 4 5 6 
#
# 1 0.010433 -0.003459 -0.001928 0.000000 0.000000 0.000000
# 2 -0.003459 0.007960 -0.003642 0.000000 0.000000 0.000000
# 3 -0.001928 -0.003642 0.024929 0.000000 0.000000 0.000000
# 4 0.000000 0.000000 0.000000 0.033358 0.000000 0.000000
# 5 0.000000 0.000000 0.000000 0.000000 0.043688 0.000000
# 6 0.000000 0.000000 0.000000 0.000000 0.000000 0.024878
#
#
# Mechanical properties :
#
#
# Convention : Reuss Voigt Hill
#
# Bulk Modulus (GPa) = 39.57884 60.30922 49.94403
# Shear Modulus (GPa) = 29.11628 33.47467 31.29547
#
# Velocity S-wave (km/s) = 3.86138 4.14031 4.00328
# Velocity P-wave (km/s) = 6.33628 7.33077 6.85159
#
# Compressibility (1/GPa) = 0.02526603
#
# Stress axis : x y z
#
# Youngs Moduli (GPa) = 95.84723 125.62510 40.11381
#
# Poissons Ratio (x) = 0.43456 0.07732
# Poissons Ratio (y) = 0.33155 0.14608
# Poissons Ratio (z) = 0.18475 0.45747
#
# Static dielectric constant tensor:
#      x y z
#    x 3.596140 0.000000 0.000000 
#    y 0.000000 4.540850 0.000000 
#    z 0.000000 0.000000 3.134610 
# 
# 
# High freq. dielectric constant tensor:
#      x y z
#    x 1.766110 0.000000 0.000000 
#    y 0.000000 1.798000 0.000000 
#    z 0.000000 0.000000 1.712430 
# 
# From -- ./inp_files/3161.got.cif
#   From: 2010.03.12/outbox.cif.g09.slc.cpg/sg33_2_cif.got.tgz:3161.got - 2010.04.14 01:49:19.
