data_PCOD8170623
_publ_section_title
;
Structure prediction by ZEFSAII (Michael W. Deem and Ramdas Pophale) SiO2 
 PCOD8170623
Probable space group: P B A 2
;
_chemical_formula_sum "Si O2"
_cell_formula_units_Z 22
_cell_length_a 8.262369
_cell_length_b 13.950685
_cell_length_c 7.994727
_cell_angle_alpha 90.000000
_cell_angle_beta 90.000000
_cell_angle_gamma 90.000000
_cell_volume 921.517862
_symmetry_space_group_name_H-M "P B A 2"
_symmetry_group_IT_number 32
_symmetry_cell_setting 'orthorhombic'
loop_
_space_group_symop_operation_xyz
x,y,z
-x,-y,z
1/2-x,1/2+y,z
1/2+x,1/2-y,z
loop_
_atom_site_type_symbol
_atom_site_label
_atom_site_fract_x
_atom_site_fract_y
_atom_site_fract_z
Si Si1 0.313194 0.158038 0.639330
Si Si2 0.509234 0.682896 0.816294
Si Si3 0.221479 0.944457 0.054405
Si Si4 0.957683 0.708111 0.128893
Si Si5 0.500000 0.000000 0.809922
Si Si6 0.279025 0.627311 0.261616
O O1 0.366111 0.268645 0.681604
O O2 0.461582 0.091135 0.694665
O O3 0.290336 0.131555 0.446581
O O4 0.140834 0.133429 0.723079
O O5 0.579456 0.602401 0.942711
O O6 0.439489 0.767480 0.932707
O O7 0.344551 0.988665 0.923744
O O8 0.313980 0.866246 0.169170
O O9 0.162694 0.024421 0.189469
O O10 0.933059 0.801538 0.246104
O O11 0.135038 0.664492 0.143855
#
# Coordination Sequence:
#
# PCOD8170623 Si02
#       6
#     4   4   4   4   2   4
#     4  12  26  46  72 114 150 196 245 338 389 446
#     4  12  23  49  76 103 148 199 261 302 382 468
#     4  12  24  46  76 105 143 203 258 301 369 479
#     4  12  22  46  74 103 141 202 248 300 372 481
#     4  12  24  44  72 104 140 196 254 298 386 460
#     4  12  27  45  74 112 153 188 254 321 396 436
#
# _framework density 23.873656
#
# number of rings (size 3 to 8) (size 9 to 14) (size 15 to 20)
#    0.000    0.000    7.273    2.182    2.545    2.909 
#    0.000    1.818    0.000    0.000    0.000    0.000 
#    0.000    0.000    0.000    0.000    0.000    0.000 
#
# Total GULP energy -272727.591506 kJ/mol
# GULP energy per Si atom -12396.708705 kJ/mol
# Density = 2.381932 g / cm^3
# Si number density = 23.873656 Si / 1000 Ang^3
#
#
#
# Elastic Constant Matrix: (Units=GPa)
#
#
# Indices 1 2 3 4 5 6 
#
# 1 79.4196 31.8812 10.7649 0.0000 0.0000 0.0000
# 2 31.8812 138.3405 52.9463 0.0000 0.0000 0.0000
# 3 10.7649 52.9463 122.4661 0.0000 0.0000 0.0000
# 4 0.0000 0.0000 0.0000 33.2026 0.0000 0.0000
# 5 0.0000 0.0000 0.0000 0.0000 60.5689 0.0000
# 6 0.0000 0.0000 0.0000 0.0000 0.0000 44.0724
#
#
#
# Elastic Compliance Matrix: (Units=1/GPa)
#
#
# Indices 1 2 3 4 5 6 
#
# 1 0.013879 -0.003273 0.000195 0.000000 0.000000 0.000000
# 2 -0.003273 0.009434 -0.003791 0.000000 0.000000 0.000000
# 3 0.000195 -0.003791 0.009787 0.000000 0.000000 0.000000
# 4 0.000000 0.000000 0.000000 0.030118 0.000000 0.000000
# 5 0.000000 0.000000 0.000000 0.000000 0.016510 0.000000
# 6 0.000000 0.000000 0.000000 0.000000 0.000000 0.022690
#
#
# Mechanical properties :
#
#
# Convention : Reuss Voigt Hill
#
# Bulk Modulus (GPa) = 51.64706 59.04566 55.34636
# Shear Modulus (GPa) = 40.77987 43.87772 42.32880
#
# Velocity S-wave (km/s) = 4.13747 4.29174 4.21531
# Velocity P-wave (km/s) = 6.67123 7.02460 6.85019
#
# Compressibility (1/GPa) = 0.01936218
#
# Stress axis : x y z
#
# Youngs Moduli (GPa) = 72.05226 106.00324 102.17360
#
# Poissons Ratio (x) = 0.34696 -0.01994
# Poissons Ratio (y) = 0.23583 0.38732
# Poissons Ratio (z) = -0.01406 0.40184
#
# Static dielectric constant tensor:
#      x y z
#    x 3.520570 0.000000 0.000000 
#    y 0.000000 4.752240 0.000000 
#    z 0.000000 0.000000 4.069140 
# 
# 
# High freq. dielectric constant tensor:
#      x y z
#    x 1.955990 0.000000 0.000000 
#    y 0.000000 1.954810 0.000000 
#    z 0.000000 0.000000 1.927740 
# 
# From -- ./inp_files/2303.got.cif
#   From: 2010.03.12/outbox.cif.g09.slc.cpg/sg32_2_cif.got.tgz:2303.got - 2010.04.14 01:46:39.
