data_PCOD8170750
_publ_section_title
;
Structure prediction by ZEFSAII (Michael W. Deem and Ramdas Pophale) SiO2 
 PCOD8170750
Probable space group: P N A 21
;
_chemical_formula_sum "Si O2"
_cell_formula_units_Z 32
_cell_length_a 8.712282
_cell_length_b 14.422742
_cell_length_c 11.322950
_cell_angle_alpha 90.000000
_cell_angle_beta 90.000000
_cell_angle_gamma 90.000000
_cell_volume 1422.785231
_symmetry_space_group_name_H-M "P N A 21"
_symmetry_group_IT_number 33
_symmetry_cell_setting 'orthorhombic'
loop_
_space_group_symop_operation_xyz
x,y,z
-x,-y,1/2+z
1/2-x,1/2+y,1/2+z
1/2+x,1/2-y,z
loop_
_atom_site_type_symbol
_atom_site_label
_atom_site_fract_x
_atom_site_fract_y
_atom_site_fract_z
Si Si1 0.517763 0.782082 0.825600
Si Si2 0.758636 0.428344 0.752873
Si Si3 0.801660 0.113089 0.365555
Si Si4 0.126493 0.233888 0.907554
Si Si5 0.856996 0.417975 0.501030
Si Si6 0.667842 0.020712 0.575778
Si Si7 0.882870 0.572596 0.321631
Si Si8 0.376727 0.190668 0.061521
O O1 0.346471 0.820057 0.844222
O O2 0.542263 0.674045 0.861352
O O3 0.562684 0.785837 0.689090
O O4 0.646090 0.838195 0.901365
O O5 0.692846 0.532752 0.766576
O O6 0.653269 0.356302 0.826239
O O7 0.743475 0.403143 0.612941
O O8 0.933241 0.432924 0.800830
O O9 0.801781 0.060417 0.491965
O O10 0.180135 0.323226 0.832729
O O11 0.203503 0.223569 0.038021
O O12 0.954530 0.255822 0.949978
O O13 0.832228 0.517142 0.438705
O O14 0.025050 0.410922 0.558298
O O15 0.711428 0.025527 0.713587
O O16 0.614405 0.918756 0.537575
#
# Coordination Sequence:
#
# PCOD8170750 Si02
#       8
#     4   4   4   4   4   4   4   4
#     4  11  23  39  66  97 122 171 218 264 318 384
#     4  11  22  40  64  92 132 171 210 267 327 383
#     4  11  22  42  65  91 128 168 214 263 323 381
#     4  12  23  39  64  99 123 169 213 265 321 384
#     4  10  19  36  63  92 124 167 216 253 316 389
#     4  10  19  39  65  88 125 172 212 261 312 386
#     4  11  20  38  66  93 122 169 224 253 313 399
#     4  12  22  39  67  92 126 163 219 264 314 380
#
# _framework density 22.491095999999999
#
# number of rings (size 3 to 8) (size 9 to 14) (size 15 to 20)
#    0.000    1.000    7.500    1.500    3.500    0.000 
#    0.000    1.250    0.000    0.000    0.000    0.000 
#    0.000    0.000    0.000    0.000    0.000    0.000 
#
# Total GULP energy -396437.593986 kJ/mol
# GULP energy per Si atom -12388.674812 kJ/mol
# Density = 2.243991 g / cm^3
# Si number density = 22.491096 Si / 1000 Ang^3
#
#
#
# Elastic Constant Matrix: (Units=GPa)
#
#
# Indices 1 2 3 4 5 6 
#
# 1 16.4867 29.2137 14.9099 0.0000 0.0000 0.0000
# 2 29.2137 133.3306 43.1870 0.0000 0.0000 0.0000
# 3 14.9099 43.1870 137.9748 0.0000 0.0000 0.0000
# 4 0.0000 0.0000 0.0000 37.4950 0.0000 0.0000
# 5 0.0000 0.0000 0.0000 0.0000 11.4289 0.0000
# 6 0.0000 0.0000 0.0000 0.0000 0.0000 36.9426
#
#
#
# Elastic Compliance Matrix: (Units=1/GPa)
#
#
# Indices 1 2 3 4 5 6 
#
# 1 0.101560 -0.020807 -0.004462 0.000000 0.000000 0.000000
# 2 -0.020807 0.012609 -0.001698 0.000000 0.000000 0.000000
# 3 -0.004462 -0.001698 0.008261 0.000000 0.000000 0.000000
# 4 0.000000 0.000000 0.000000 0.026670 0.000000 0.000000
# 5 0.000000 0.000000 0.000000 0.000000 0.087497 0.000000
# 6 0.000000 0.000000 0.000000 0.000000 0.000000 0.027069
#
#
# Mechanical properties :
#
#
# Convention : Reuss Voigt Hill
#
# Bulk Modulus (GPa) = 14.59952 51.37924 32.98938
# Shear Modulus (GPa) = 14.68714 30.53872 22.61293
#
# Velocity S-wave (km/s) = 2.55820 3.68885 3.17427
# Velocity P-wave (km/s) = 3.90271 6.40604 5.30417
#
# Compressibility (1/GPa) = 0.06849538
#
# Stress axis : x y z
#
# Youngs Moduli (GPa) = 9.84643 79.30675 121.04404
#
# Poissons Ratio (x) = 1.65015 0.54010
# Poissons Ratio (y) = 0.20488 0.20557
# Poissons Ratio (z) = 0.04393 0.13469
#
# Static dielectric constant tensor:
#      x y z
#    x 3.545750 0.000000 0.000000 
#    y 0.000000 4.275690 0.000000 
#    z 0.000000 0.000000 4.470700 
# 
# 
# High freq. dielectric constant tensor:
#      x y z
#    x 1.833850 0.000000 0.000000 
#    y 0.000000 1.890840 0.000000 
#    z 0.000000 0.000000 1.906470 
# 
# From -- ./inp_files/6476.got.cif
#   From: 2010.03.12/outbox.cif.g09.slc.cpg/sg33_4_cif.got.tgz:6476.got - 2010.04.14 01:49:19.
