data_PCOD8170227
_publ_section_title
;
Structure prediction by ZEFSAII (Michael W. Deem and Ramdas Pophale) SiO2 
 PCOD8170227
Probable space group: P M N 21
;
_chemical_formula_sum "Si O2"
_cell_formula_units_Z 32
_cell_length_a 9.075324
_cell_length_b 15.938806
_cell_length_c 10.777382
_cell_angle_alpha 90.000000
_cell_angle_beta 90.000000
_cell_angle_gamma 90.000000
_cell_volume 1558.946459
_symmetry_space_group_name_H-M "P M N 21"
_symmetry_group_IT_number 31
_symmetry_cell_setting 'orthorhombic'
loop_
_space_group_symop_operation_xyz
x,y,z
1/2-x,-y,1/2+z
-x,y,z
1/2+x,-y,1/2+z
loop_
_atom_site_type_symbol
_atom_site_label
_atom_site_fract_x
_atom_site_fract_y
_atom_site_fract_z
Si Si1 0.164761 0.716252 0.622320
Si Si2 0.164115 0.861138 0.421344
Si Si3 0.831750 0.148298 0.554064
Si Si4 0.675276 0.563963 0.276780
Si Si5 0.834604 0.161067 0.267537
Si Si6 0.827054 0.734533 0.212629
Si Si7 0.326706 0.980429 0.582101
Si Si8 0.674577 0.460985 0.028828
O O1 0.172348 0.785521 0.517390
O O2 0.249600 0.751950 0.741723
O O3 0.233213 0.630569 0.569552
O O4 0.000000 0.696268 0.666546
O O5 0.203900 0.818789 0.291479
O O6 0.275172 0.936855 0.453069
O O7 0.000000 0.900202 0.418331
O O8 0.821592 0.136213 0.408451
O O9 0.748468 0.236435 0.584189
O O10 0.000000 0.153507 0.600584
O O11 0.752302 0.067557 0.612115
O O12 0.500000 0.568389 0.293205
O O13 0.745890 0.656032 0.273695
O O14 0.716564 0.521311 0.144494
O O15 0.742928 0.515722 0.398344
O O16 0.773316 0.081833 0.191007
O O17 0.000000 0.178255 0.223881
O O18 0.000000 0.713922 0.199200
O O19 0.500000 0.996758 0.578085
O O20 0.500000 0.462578 0.002288
#
# Coordination Sequence:
#
# PCOD8170227 Si02
#       8
#     4   4   4   4   4   4   4   4
#     4   9  17  35  62  86 110 148 195 241 295 359
#     4   9  18  35  60  84 111 150 191 241 296 351
#     4  11  24  40  57  84 122 160 202 252 307 368
#     4  11  24  41  66  98 131 168 217 267 322 389
#     4   9  21  39  56  80 118 154 192 249 306 361
#     4  11  23  41  63  87 122 163 203 252 312 371
#     4  10  21  37  58  86 115 153 199 246 302 362
#     4  10  22  42  64  93 131 168 209 264 320 381
#
# _framework density 20.526682999999998
#
# number of rings (size 3 to 8) (size 9 to 14) (size 15 to 20)
#    0.000    2.000    1.250    1.500    1.750    5.000 
#    0.000    2.500    0.000    0.000    0.000    0.000 
#    0.000    0.000    0.000    0.000    0.000    0.000 
#
# Total GULP energy -396679.153824 kJ/mol
# GULP energy per Si atom -12396.223557 kJ/mol
# Density = 2.047996 g / cm^3
# Si number density = 20.526683 Si / 1000 Ang^3
#
#
#
# Elastic Constant Matrix: (Units=GPa)
#
#
# Indices 1 2 3 4 5 6 
#
# 1 99.4029 41.8428 48.4939 0.0000 0.0000 0.0000
# 2 41.8428 69.1286 37.9893 0.0000 0.0000 0.0000
# 3 48.4939 37.9893 87.7894 0.0000 0.0000 0.0000
# 4 0.0000 0.0000 0.0000 26.3036 0.0000 0.0000
# 5 0.0000 0.0000 0.0000 0.0000 31.4681 0.0000
# 6 0.0000 0.0000 0.0000 0.0000 0.0000 29.0771
#
#
#
# Elastic Compliance Matrix: (Units=1/GPa)
#
#
# Indices 1 2 3 4 5 6 
#
# 1 0.015538 -0.006151 -0.005921 0.000000 0.000000 0.000000
# 2 -0.006151 0.021414 -0.005869 0.000000 0.000000 0.000000
# 3 -0.005921 -0.005869 0.017201 0.000000 0.000000 0.000000
# 4 0.000000 0.000000 0.000000 0.038018 0.000000 0.000000
# 5 0.000000 0.000000 0.000000 0.000000 0.031778 0.000000
# 6 0.000000 0.000000 0.000000 0.000000 0.000000 0.034391
#
#
# Mechanical properties :
#
#
# Convention : Reuss Voigt Hill
#
# Bulk Modulus (GPa) = 54.73070 56.99698 55.86384
# Shear Modulus (GPa) = 24.96090 25.90274 25.43182
#
# Velocity S-wave (km/s) = 3.49093 3.55619 3.52371
# Velocity P-wave (km/s) = 6.55514 6.68502 6.62040
#
# Compressibility (1/GPa) = 0.01827128
#
# Stress axis : x y z
#
# Youngs Moduli (GPa) = 64.35846 46.69823 58.13482
#
# Poissons Ratio (x) = 0.28724 0.34423
# Poissons Ratio (y) = 0.39587 0.34118
# Poissons Ratio (z) = 0.38109 0.27406
#
# Static dielectric constant tensor:
#      x y z
#    x 3.809740 0.000000 0.000000 
#    y 0.000000 3.646550 0.000000 
#    z 0.000000 0.000000 3.803570 
# 
# 
# High freq. dielectric constant tensor:
#      x y z
#    x 1.799990 0.000000 0.000000 
#    y 0.000000 1.798510 0.000000 
#    z 0.000000 0.000000 1.803630 
# 
# From -- ./inp_files/3747.got.cif
#   From: 2010.03.12/outbox.cif.g09.slc.cpg/sg31_2_cif.got.tgz:3747.got - 2010.04.14 01:42:59.
