data_PCOD8170580
_publ_section_title
;
Structure prediction by ZEFSAII (Michael W. Deem and Ramdas Pophale) SiO2 
 PCOD8170580
Probable space group: P B A 2
;
_chemical_formula_sum "Si O2"
_cell_formula_units_Z 30
_cell_length_a 19.693111
_cell_length_b 12.762075
_cell_length_c 5.247845
_cell_angle_alpha 90.000000
_cell_angle_beta 90.000000
_cell_angle_gamma 90.000000
_cell_volume 1318.914432
_symmetry_space_group_name_H-M "P B A 2"
_symmetry_group_IT_number 32
_symmetry_cell_setting 'orthorhombic'
loop_
_space_group_symop_operation_xyz
x,y,z
-x,-y,z
1/2-x,1/2+y,z
1/2+x,1/2-y,z
loop_
_atom_site_type_symbol
_atom_site_label
_atom_site_fract_x
_atom_site_fract_y
_atom_site_fract_z
Si Si1 0.505787 0.790681 0.237950
Si Si2 0.712713 0.045950 0.657430
Si Si3 0.603961 0.887337 0.643563
Si Si4 0.141731 0.023743 0.711524
Si Si5 0.873498 0.195036 0.929837
Si Si6 0.771215 0.673571 0.152768
Si Si7 0.377988 0.649650 0.207766
Si Si8 0.500000 0.000000 0.980903
O O1 0.549626 0.826199 0.476931
O O2 0.440222 0.722025 0.298846
O O3 0.554630 0.722890 0.058072
O O4 0.474887 0.899387 0.136749
O O5 0.725846 0.125268 0.431733
O O6 0.657601 0.968237 0.527270
O O7 0.777218 0.976454 0.736766
O O8 0.693569 0.109403 0.918308
O O9 0.648700 0.797162 0.772418
O O10 0.565535 0.964406 0.831617
O O11 0.124333 0.061644 0.427126
O O12 0.113673 0.905599 0.750158
O O13 0.109023 0.095781 0.933553
O O14 0.810160 0.179881 0.117585
O O15 0.808293 0.785367 0.180742
#
# Coordination Sequence:
#
# PCOD8170580 Si02
#       8
#     4   4   4   4   4   4   4   2
#     4  11  27  44  73 105 143 191 235 300 370 437
#     4  11  25  44  75 108 139 186 234 303 365 426
#     4  11  25  42  77 100 147 183 236 295 370 436
#     4  11  26  48  69 101 144 190 248 291 349 424
#     4  10  26  47  69 103 141 192 243 297 350 432
#     4  11  25  45  76 106 146 182 243 298 364 427
#     4  12  27  46  73 103 145 189 240 298 359 426
#     4  10  24  46  68 110 142 176 234 294 366 450
#
# _framework density 22.745979999999999
#
# number of rings (size 3 to 8) (size 9 to 14) (size 15 to 20)
#    0.000    1.067    0.000    4.400   18.667    0.533 
#    0.000    0.000    0.000    0.000    0.000    0.000 
#    0.000    0.000    0.000    0.000    0.000    0.000 
#
# Total GULP energy -371713.531531 kJ/mol
# GULP energy per Si atom -12390.451051 kJ/mol
# Density = 2.269421 g / cm^3
# Si number density = 22.745980 Si / 1000 Ang^3
#
#
#
# Elastic Constant Matrix: (Units=GPa)
#
#
# Indices 1 2 3 4 5 6 
#
# 1 63.4559 54.1542 14.1287 0.0000 0.0000 0.0000
# 2 54.1542 118.0396 29.2435 0.0000 0.0000 0.0000
# 3 14.1287 29.2435 107.9985 0.0000 0.0000 0.0000
# 4 0.0000 0.0000 0.0000 59.2176 0.0000 0.0000
# 5 0.0000 0.0000 0.0000 0.0000 43.4271 0.0000
# 6 0.0000 0.0000 0.0000 0.0000 0.0000 48.5296
#
#
#
# Elastic Compliance Matrix: (Units=1/GPa)
#
#
# Indices 1 2 3 4 5 6 
#
# 1 0.025903 -0.011838 -0.000183 0.000000 0.000000 0.000000
# 2 -0.011838 0.014491 -0.002375 0.000000 0.000000 0.000000
# 3 -0.000183 -0.002375 0.009926 0.000000 0.000000 0.000000
# 4 0.000000 0.000000 0.000000 0.016887 0.000000 0.000000
# 5 0.000000 0.000000 0.000000 0.000000 0.023027 0.000000
# 6 0.000000 0.000000 0.000000 0.000000 0.000000 0.020606
#
#
# Mechanical properties :
#
#
# Convention : Reuss Voigt Hill
#
# Bulk Modulus (GPa) = 46.45262 53.83855 50.14558
# Shear Modulus (GPa) = 34.05772 43.03269 38.54520
#
# Velocity S-wave (km/s) = 3.87370 4.35429 4.12101
# Velocity P-wave (km/s) = 6.36193 7.00005 6.68860
#
# Compressibility (1/GPa) = 0.02152731
#
# Stress axis : x y z
#
# Youngs Moduli (GPa) = 38.60595 69.00669 100.74049
#
# Poissons Ratio (x) = 0.81692 0.01845
# Poissons Ratio (y) = 0.45703 0.23928
# Poissons Ratio (z) = 0.00707 0.16390
#
# Static dielectric constant tensor:
#      x y z
#    x 3.965020 0.000000 0.000000 
#    y 0.000000 4.428670 0.000000 
#    z 0.000000 0.000000 4.129590 
# 
# 
# High freq. dielectric constant tensor:
#      x y z
#    x 1.896680 0.000000 0.000000 
#    y 0.000000 1.918250 0.000000 
#    z 0.000000 0.000000 1.897770 
# 
# From -- ./inp_files/1601.got.cif
#   From: 2010.03.12/outbox.cif.g09.slc.cpg/sg32_1_cif.got.tgz:1601.got - 2010.04.14 01:46:39.
