data_PCOD8170783
_publ_section_title
;
Structure prediction by ZEFSAII (Michael W. Deem and Ramdas Pophale) SiO2 
 PCOD8170783
Probable space group: P N A 21
;
_chemical_formula_sum "Si O2"
_cell_formula_units_Z 32
_cell_length_a 13.028099
_cell_length_b 11.620829
_cell_length_c 10.547977
_cell_angle_alpha 90.000000
_cell_angle_beta 90.000000
_cell_angle_gamma 90.000000
_cell_volume 1596.935351
_symmetry_space_group_name_H-M "P N A 21"
_symmetry_group_IT_number 33
_symmetry_cell_setting 'orthorhombic'
loop_
_space_group_symop_operation_xyz
x,y,z
-x,-y,1/2+z
1/2-x,1/2+y,1/2+z
1/2+x,1/2-y,z
loop_
_atom_site_type_symbol
_atom_site_label
_atom_site_fract_x
_atom_site_fract_y
_atom_site_fract_z
Si Si1 0.573255 0.274865 0.908000
Si Si2 0.471261 0.885389 0.757658
Si Si3 0.204453 0.387474 0.052290
Si Si4 0.247811 0.575362 0.387085
Si Si5 0.991704 0.633224 0.188040
Si Si6 0.663040 0.154046 0.480314
Si Si7 0.885186 0.273766 0.073925
Si Si8 0.292305 0.137913 0.596064
O O1 0.634014 0.395284 0.919721
O O2 0.525641 0.248189 0.770570
O O3 0.660073 0.175232 0.927863
O O4 0.484135 0.283601 0.010303
O O5 0.384378 0.874259 0.653404
O O6 0.430752 0.818754 0.882547
O O7 0.577877 0.831695 0.706069
O O8 0.485559 0.023406 0.780188
O O9 0.305851 0.326684 0.107160
O O10 0.230474 0.519690 0.020336
O O11 0.234933 0.438973 0.408768
O O12 0.164921 0.634877 0.478574
O O13 0.235001 0.619155 0.243497
O O14 0.085834 0.662712 0.093000
O O15 0.890862 0.603812 0.105852
O O16 0.729393 0.264415 0.521818
#
# Coordination Sequence:
#
# PCOD8170783 Si02
#       8
#     4   4   4   4   4   4   4   4
#     4  10  20  37  62  92 116 163 217 255 318 392
#     4  10  21  36  62  94 120 162 218 260 316 396
#     4   9  21  38  60  88 125 163 205 268 319 372
#     4  11  20  39  63  90 124 161 210 269 313 388
#     4  11  21  38  65  92 121 168 218 260 325 393
#     4  12  23  40  63  94 129 166 213 266 330 383
#     4  10  19  39  65  84 122 166 204 261 326 374
#     4  11  23  39  60  92 131 167 209 269 325 386
#
# _framework density 20.038381999999999
#
# number of rings (size 3 to 8) (size 9 to 14) (size 15 to 20)
#    0.000    1.500    6.250    0.000    3.500    1.000 
#    2.250    0.000    0.000    0.000    0.000    0.000 
#    0.000    0.000    0.000    0.000    0.000    0.000 
#
# Total GULP energy -396577.480102 kJ/mol
# GULP energy per Si atom -12393.046253 kJ/mol
# Density = 1.999277 g / cm^3
# Si number density = 20.038382 Si / 1000 Ang^3
#
#
#
# Elastic Constant Matrix: (Units=GPa)
#
#
# Indices 1 2 3 4 5 6 
#
# 1 88.5177 47.1516 2.0432 0.0000 0.0000 0.0000
# 2 47.1516 98.3735 27.9378 0.0000 0.0000 0.0000
# 3 2.0432 27.9378 44.9735 0.0000 0.0000 0.0000
# 4 0.0000 0.0000 0.0000 28.4962 0.0000 0.0000
# 5 0.0000 0.0000 0.0000 0.0000 28.9644 0.0000
# 6 0.0000 0.0000 0.0000 0.0000 0.0000 27.2606
#
#
#
# Elastic Compliance Matrix: (Units=1/GPa)
#
#
# Indices 1 2 3 4 5 6 
#
# 1 0.016015 -0.009070 0.004907 0.000000 0.000000 0.000000
# 2 -0.009070 0.017479 -0.010446 0.000000 0.000000 0.000000
# 3 0.004907 -0.010446 0.028502 0.000000 0.000000 0.000000
# 4 0.000000 0.000000 0.000000 0.035092 0.000000 0.000000
# 5 0.000000 0.000000 0.000000 0.000000 0.034525 0.000000
# 6 0.000000 0.000000 0.000000 0.000000 0.000000 0.036683
#
#
# Mechanical properties :
#
#
# Convention : Reuss Voigt Hill
#
# Bulk Modulus (GPa) = 30.50879 42.90333 36.70606
# Shear Modulus (GPa) = 23.98761 27.25973 25.62367
#
# Velocity S-wave (km/s) = 3.46364 3.69233 3.57981
# Velocity P-wave (km/s) = 5.59053 6.29562 5.95352
#
# Compressibility (1/GPa) = 0.03277744
#
# Stress axis : x y z
#
# Youngs Moduli (GPa) = 62.44082 57.21068 35.08566
#
# Poissons Ratio (x) = 0.51888 -0.17215
# Poissons Ratio (y) = 0.56632 0.36651
# Poissons Ratio (z) = -0.30637 0.59763
#
# Static dielectric constant tensor:
#      x y z
#    x 3.891100 0.000000 0.000000 
#    y 0.000000 3.612800 0.000000 
#    z 0.000000 0.000000 3.621200 
# 
# 
# High freq. dielectric constant tensor:
#      x y z
#    x 1.790670 0.000000 0.000000 
#    y 0.000000 1.757360 0.000000 
#    z 0.000000 0.000000 1.775130 
# 
# From -- ./inp_files/6487.got.cif
#   From: 2010.03.12/outbox.cif.g09.slc.cpg/sg33_4_cif.got.tgz:6487.got - 2010.04.14 01:49:19.
