data_PCOD8170011
_publ_section_title
;
Structure prediction by ZEFSAII (Michael W. Deem and Ramdas Pophale) SiO2 
 PCOD8170011
Probable space group: P M N 21
;
_chemical_formula_sum "Si O2"
_cell_formula_units_Z 32
_cell_length_a 9.019401
_cell_length_b 11.368713
_cell_length_c 16.230323
_cell_angle_alpha 90.000000
_cell_angle_beta 90.000000
_cell_angle_gamma 90.000000
_cell_volume 1664.240788
_symmetry_space_group_name_H-M "P M N 21"
_symmetry_group_IT_number 31
_symmetry_cell_setting 'orthorhombic'
loop_
_space_group_symop_operation_xyz
x,y,z
1/2-x,-y,1/2+z
-x,y,z
1/2+x,-y,1/2+z
loop_
_atom_site_type_symbol
_atom_site_label
_atom_site_fract_x
_atom_site_fract_y
_atom_site_fract_z
Si Si1 0.334171 0.725512 0.982160
Si Si2 0.324028 0.320104 0.786234
Si Si3 0.163217 0.431776 0.638953
Si Si4 0.166829 0.442852 0.350210
Si Si5 0.324024 0.917543 0.659557
Si Si6 0.324420 0.036862 0.489515
Si Si7 0.667502 0.652845 0.667443
Si Si8 0.323610 0.056933 0.822792
O O1 0.500000 0.773499 0.957482
O O2 0.252908 0.649524 0.910141
O O3 0.222795 0.829509 0.003216
O O4 0.351894 0.637607 0.056033
O O5 0.500000 0.326570 0.777017
O O6 0.259322 0.348284 0.697199
O O7 0.267561 0.423655 0.848751
O O8 0.271913 0.192574 0.816151
O O9 0.235988 0.558385 0.617125
O O10 0.000000 0.453570 0.677667
O O11 0.172933 0.388696 0.260546
O O12 0.000000 0.450944 0.384068
O O13 0.500000 0.920785 0.663788
O O14 0.264271 0.783767 0.661755
O O15 0.268577 0.971010 0.572562
O O16 0.265476 0.988133 0.740747
O O17 0.500000 0.025760 0.479679
O O18 0.248859 0.990294 0.406281
O O19 0.500000 0.652568 0.632841
O O20 0.500000 0.045651 0.830408
#
# Coordination Sequence:
#
# PCOD8170011 Si02
#       8
#     4   4   4   4   4   4   4   4
#     4  10  20  35  53  73 102 139 175 213 264 323
#     4   9  18  34  56  77 100 139 184 216 254 321
#     4  10  20  32  51  80 109 133 165 221 277 312
#     4   8  15  30  53  76  96 126 173 218 250 300
#     4   9  19  36  57  79 108 148 184 217 265 327
#     4  11  23  37  55  83 113 139 179 232 276 318
#     4   9  17  33  55  73  96 136 179 211 252 319
#     4  10  20  37  60  81 106 146 189 222 262 324
#
# _framework density 19.227988
#
# number of rings (size 3 to 8) (size 9 to 14) (size 15 to 20)
#    0.000    2.500    0.000    3.000    0.000    5.500 
#    0.000    9.375    0.000    0.000    0.000    0.000 
#    0.000    0.000    0.000    0.000    0.000    0.000 
#
# Total GULP energy -396540.243494 kJ/mol
# GULP energy per Si atom -12391.882609 kJ/mol
# Density = 1.918422 g / cm^3
# Si number density = 19.227988 Si / 1000 Ang^3
#
#
#
# Elastic Constant Matrix: (Units=GPa)
#
#
# Indices 1 2 3 4 5 6 
#
# 1 37.9147 36.1416 22.1047 0.0000 0.0000 0.0000
# 2 36.1416 167.5870 56.9329 0.0000 0.0000 0.0000
# 3 22.1047 56.9329 95.9891 0.0000 0.0000 0.0000
# 4 0.0000 0.0000 0.0000 30.0528 0.0000 0.0000
# 5 0.0000 0.0000 0.0000 0.0000 23.5005 0.0000
# 6 0.0000 0.0000 0.0000 0.0000 0.0000 23.8080
#
#
#
# Elastic Compliance Matrix: (Units=1/GPa)
#
#
# Indices 1 2 3 4 5 6 
#
# 1 0.034649 -0.005963 -0.004442 0.000000 0.000000 0.000000
# 2 -0.005963 0.008499 -0.003668 0.000000 0.000000 0.000000
# 3 -0.004442 -0.003668 0.013616 0.000000 0.000000 0.000000
# 4 0.000000 0.000000 0.000000 0.033275 0.000000 0.000000
# 5 0.000000 0.000000 0.000000 0.000000 0.042552 0.000000
# 6 0.000000 0.000000 0.000000 0.000000 0.000000 0.042003
#
#
# Mechanical properties :
#
#
# Convention : Reuss Voigt Hill
#
# Bulk Modulus (GPa) = 34.94292 59.09436 47.01864
# Shear Modulus (GPa) = 23.55376 27.89302 25.72339
#
# Velocity S-wave (km/s) = 3.50376 3.81287 3.66158
# Velocity P-wave (km/s) = 5.88055 7.08408 6.51018
#
# Compressibility (1/GPa) = 0.02861810
#
# Stress axis : x y z
#
# Youngs Moduli (GPa) = 28.86062 117.65958 73.44187
#
# Poissons Ratio (x) = 0.70164 0.32625
# Poissons Ratio (y) = 0.17210 0.26936
# Poissons Ratio (z) = 0.12821 0.43154
#
# Static dielectric constant tensor:
#      x y z
#    x 3.477940 0.000000 0.000000 
#    y 0.000000 4.141900 0.000000 
#    z 0.000000 0.000000 3.489950 
# 
# 
# High freq. dielectric constant tensor:
#      x y z
#    x 1.715300 0.000000 0.000000 
#    y 0.000000 1.767770 0.000000 
#    z 0.000000 0.000000 1.744920 
# 
# From -- ./inp_files/5022.got.cif
#   From: 2010.03.12/outbox.cif.g09.slc.cpg/sg31_3_cif.got.tgz:5022.got - 2010.04.14 01:42:59.
