data_PCOD8170096
_publ_section_title
;
Structure prediction by ZEFSAII (Michael W. Deem and Ramdas Pophale) SiO2 
 PCOD8170096
Probable space group: P M N 21
;
_chemical_formula_sum "Si O2"
_cell_formula_units_Z 24
_cell_length_a 9.068792
_cell_length_b 11.867363
_cell_length_c 12.017820
_cell_angle_alpha 90.000000
_cell_angle_beta 90.000000
_cell_angle_gamma 90.000000
_cell_volume 1293.389595
_symmetry_space_group_name_H-M "P M N 21"
_symmetry_group_IT_number 31
_symmetry_cell_setting 'orthorhombic'
loop_
_space_group_symop_operation_xyz
x,y,z
1/2-x,-y,1/2+z
-x,y,z
1/2+x,-y,1/2+z
loop_
_atom_site_type_symbol
_atom_site_label
_atom_site_fract_x
_atom_site_fract_y
_atom_site_fract_z
Si Si1 0.172074 0.724713 0.523920
Si Si2 0.174692 0.658165 0.767740
Si Si3 0.332047 0.430784 0.820073
Si Si4 0.175079 0.089093 0.886946
Si Si5 0.672462 0.209253 0.690087
Si Si6 0.174818 0.838565 0.942843
O O1 0.231348 0.689522 0.644798
O O2 0.200944 0.620579 0.441355
O O3 0.262545 0.833420 0.485365
O O4 0.000000 0.757489 0.524263
O O5 0.226024 0.534955 0.801850
O O6 0.239747 0.749412 0.854297
O O7 0.000000 0.657991 0.769833
O O8 0.500000 0.472199 0.811132
O O9 0.297551 0.337530 0.726379
O O10 0.238326 0.123703 0.767537
O O11 0.000000 0.099360 0.884917
O O12 0.229478 0.962606 0.910690
O O13 0.500000 0.179859 0.702026
O O14 0.732361 0.194077 0.565318
O O15 0.000000 0.832745 0.941182
#
# Coordination Sequence:
#
# PCOD8170096 Si02
#       6
#     4   4   4   4   4   4
#     4   9  20  38  57  78 110 147 177 214 275 330
#     4  10  21  36  57  81 107 143 182 219 264 319
#     4   9  19  35  54  78 108 142 178 220 266 317
#     4  10  20  35  57  84 108 136 184 229 261 313
#     4   9  19  38  58  76 109 149 177 213 276 330
#     4   9  20  36  55  81 110 141 178 221 268 319
#
# _framework density 18.555895
#
# number of rings (size 3 to 8) (size 9 to 14) (size 15 to 20)
#    0.000    2.667    0.000    1.500    4.667    3.333 
#    0.000    3.333    0.000    0.000    0.000    0.000 
#    0.000    0.000    0.000    0.000    0.000    0.000 
#
# Total GULP energy -297641.304779 kJ/mol
# GULP energy per Si atom -12401.721032 kJ/mol
# Density = 1.851366 g / cm^3
# Si number density = 18.555895 Si / 1000 Ang^3
#
#
#
# Elastic Constant Matrix: (Units=GPa)
#
#
# Indices 1 2 3 4 5 6 
#
# 1 40.0493 40.2499 36.5092 0.0000 0.0000 0.0000
# 2 40.2499 146.6844 91.9802 0.0000 0.0000 0.0000
# 3 36.5092 91.9802 176.2065 0.0000 0.0000 0.0000
# 4 0.0000 0.0000 0.0000 22.0920 0.0000 0.0000
# 5 0.0000 0.0000 0.0000 0.0000 22.6548 0.0000
# 6 0.0000 0.0000 0.0000 0.0000 0.0000 29.9813
#
#
#
# Elastic Compliance Matrix: (Units=1/GPa)
#
#
# Indices 1 2 3 4 5 6 
#
# 1 0.035800 -0.007689 -0.003404 0.000000 0.000000 0.000000
# 2 -0.007689 0.011786 -0.004559 0.000000 0.000000 0.000000
# 3 -0.003404 -0.004559 0.008760 0.000000 0.000000 0.000000
# 4 0.000000 0.000000 0.000000 0.045265 0.000000 0.000000
# 5 0.000000 0.000000 0.000000 0.000000 0.044141 0.000000
# 6 0.000000 0.000000 0.000000 0.000000 0.000000 0.033354
#
#
# Mechanical properties :
#
#
# Convention : Reuss Voigt Hill
#
# Bulk Modulus (GPa) = 39.93287 77.82431 58.87859
# Shear Modulus (GPa) = 22.85631 27.89234 25.37433
#
# Velocity S-wave (km/s) = 3.51344 3.88126 3.70192
# Velocity P-wave (km/s) = 6.16653 7.88144 7.07613
#
# Compressibility (1/GPa) = 0.02504203
#
# Stress axis : x y z
#
# Youngs Moduli (GPa) = 27.93318 84.84556 114.15020
#
# Poissons Ratio (x) = 0.65237 0.38856
# Poissons Ratio (y) = 0.21478 0.52044
# Poissons Ratio (z) = 0.09508 0.38683
#
# Static dielectric constant tensor:
#      x y z
#    x 3.147150 0.000000 0.000000 
#    y 0.000000 3.388180 0.000000 
#    z 0.000000 0.000000 3.800900 
# 
# 
# High freq. dielectric constant tensor:
#      x y z
#    x 1.697480 0.000000 0.000000 
#    y 0.000000 1.723900 0.000000 
#    z 0.000000 0.000000 1.733370 
# 
# From -- ./inp_files/3435.got.cif
#   From: 2010.03.12/outbox.cif.g09.slc.cpg/sg31_2_cif.got.tgz:3435.got - 2010.04.14 01:42:59.
