data_PCOD8170740
_publ_section_title
;
Structure prediction by ZEFSAII (Michael W. Deem and Ramdas Pophale) SiO2 
 PCOD8170740
Probable space group: P N A 21
;
_chemical_formula_sum "Si O2"
_cell_formula_units_Z 32
_cell_length_a 8.975999
_cell_length_b 29.578754
_cell_length_c 5.046314
_cell_angle_alpha 90.000000
_cell_angle_beta 90.000000
_cell_angle_gamma 90.000000
_cell_volume 1339.790646
_symmetry_space_group_name_H-M "P N A 21"
_symmetry_group_IT_number 33
_symmetry_cell_setting 'orthorhombic'
loop_
_space_group_symop_operation_xyz
x,y,z
-x,-y,1/2+z
1/2-x,1/2+y,1/2+z
1/2+x,1/2-y,z
loop_
_atom_site_type_symbol
_atom_site_label
_atom_site_fract_x
_atom_site_fract_y
_atom_site_fract_z
Si Si1 0.555629 0.320217 0.232440
Si Si2 0.130193 0.230277 0.728488
Si Si3 0.128282 0.634185 0.729157
Si Si4 0.227354 0.946859 0.352278
Si Si5 0.238358 0.049928 0.444511
Si Si6 0.968103 0.470831 0.855403
Si Si7 0.575649 0.590983 0.857735
Si Si8 0.549511 0.814342 0.228884
O O1 0.557348 0.279853 0.443878
O O2 0.706410 0.347733 0.257738
O O3 0.423017 0.355252 0.298098
O O4 0.538580 0.299200 0.942222
O O5 0.097037 0.283435 0.776054
O O6 0.305610 0.218839 0.740445
O O7 0.144339 0.579267 0.759358
O O8 0.056867 0.646847 0.450234
O O9 0.031663 0.658037 0.957696
O O10 0.115037 0.933221 0.584247
O O11 0.209598 0.001060 0.320671
O O12 0.400048 0.934557 0.425128
O O13 0.194425 0.920667 0.081712
O O14 0.310885 0.047991 0.742468
O O15 0.082935 0.075283 0.473667
O O16 0.949996 0.503078 0.107047
#
# Coordination Sequence:
#
# PCOD8170740 Si02
#       8
#     4   4   4   4   4   4   4   4
#     4   9  19  35  56  80 111 148 177 228 297 348
#     4  10  19  36  58  78 107 143 181 222 287 351
#     4   9  20  35  56  83 112 144 193 235 274 339
#     4  11  22  37  57  87 120 152 197 254 298 336
#     4  10  22  39  61  83 115 163 202 239 292 353
#     4  10  22  39  58  81 116 162 204 240 299 361
#     4  11  22  37  59  88 116 147 201 251 288 346
#     4  10  20  36  57  84 109 141 181 233 283 346
#
# _framework density 23.884329000000001
#
# number of rings (size 3 to 8) (size 9 to 14) (size 15 to 20)
#    0.000    2.000    0.000    3.750    0.000    8.000 
#    0.000    3.750    0.000    0.000    0.000    0.000 
#    0.000    0.000    0.000    0.000    0.000    0.000 
#
# Total GULP energy -396647.224233 kJ/mol
# GULP energy per Si atom -12395.225757 kJ/mol
# Density = 2.382997 g / cm^3
# Si number density = 23.884329 Si / 1000 Ang^3
#
#
#
# Elastic Constant Matrix: (Units=GPa)
#
#
# Indices 1 2 3 4 5 6 
#
# 1 26.4514 8.1676 -14.6734 0.0000 0.0000 0.0000
# 2 8.1676 40.8792 13.0245 0.0000 0.0000 0.0000
# 3 -14.6734 13.0245 69.0298 0.0000 0.0000 0.0000
# 4 0.0000 0.0000 0.0000 23.0055 0.0000 0.0000
# 5 0.0000 0.0000 0.0000 0.0000 26.1673 0.0000
# 6 0.0000 0.0000 0.0000 0.0000 0.0000 24.3795
#
#
#
# Elastic Compliance Matrix: (Units=1/GPa)
#
#
# Indices 1 2 3 4 5 6 
#
# 1 0.049457 -0.014077 0.013169 0.000000 0.000000 0.000000
# 2 -0.014077 0.030034 -0.008659 0.000000 0.000000 0.000000
# 3 0.013169 -0.008659 0.018920 0.000000 0.000000 0.000000
# 4 0.000000 0.000000 0.000000 0.043468 0.000000 0.000000
# 5 0.000000 0.000000 0.000000 0.000000 0.038216 0.000000
# 6 0.000000 0.000000 0.000000 0.000000 0.000000 0.041018
#
#
# Mechanical properties :
#
#
# Convention : Reuss Voigt Hill
#
# Bulk Modulus (GPa) = 12.61417 16.59975 14.60696
# Shear Modulus (GPa) = 18.74962 23.36657 21.05810
#
# Velocity S-wave (km/s) = 2.80486 3.13121 2.97251
# Velocity P-wave (km/s) = 3.97271 4.47636 4.23203
#
# Compressibility (1/GPa) = 0.07927595
#
# Stress axis : x y z
#
# Youngs Moduli (GPa) = 20.21949 33.29588 52.85539
#
# Poissons Ratio (x) = 0.46871 -0.69605
# Poissons Ratio (y) = 0.28463 0.45768
# Poissons Ratio (z) = -0.26627 0.28831
#
# Static dielectric constant tensor:
#      x y z
#    x 4.319020 0.000000 0.000000 
#    y 0.000000 4.347010 0.000000 
#    z 0.000000 0.000000 4.540820 
# 
# 
# High freq. dielectric constant tensor:
#      x y z
#    x 1.931680 0.000000 0.000000 
#    y 0.000000 1.943120 0.000000 
#    z 0.000000 0.000000 1.959530 
# 
# From -- ./inp_files/589.got.cif
#   From: 2010.03.12/outbox.cif.g09.slc.cpg/sg33_1_cif.got.tgz:589.got - 2010.04.14 01:49:19.
