data_PCOD8170925
_publ_section_title
;
Structure prediction by ZEFSAII (Michael W. Deem and Ramdas Pophale) SiO2 
 PCOD8170925
Probable space group: P N A 21
;
_chemical_formula_sum "Si O2"
_cell_formula_units_Z 28
_cell_length_a 8.361574
_cell_length_b 30.686942
_cell_length_c 5.042868
_cell_angle_alpha 90.000000
_cell_angle_beta 90.000000
_cell_angle_gamma 90.000000
_cell_volume 1293.955231
_symmetry_space_group_name_H-M "P N A 21"
_symmetry_group_IT_number 33
_symmetry_cell_setting 'orthorhombic'
loop_
_space_group_symop_operation_xyz
x,y,z
-x,-y,1/2+z
1/2-x,1/2+y,1/2+z
1/2+x,1/2-y,z
loop_
_atom_site_type_symbol
_atom_site_label
_atom_site_fract_x
_atom_site_fract_y
_atom_site_fract_z
Si Si1 0.922277 0.781928 0.791700
Si Si2 0.059741 0.976353 0.742228
Si Si3 0.806058 0.912174 0.580026
Si Si4 0.483631 0.791892 0.143819
Si Si5 0.755100 0.855854 0.081073
Si Si6 0.204489 0.766914 0.462663
Si Si7 0.106258 0.505846 0.388499
O O1 0.779151 0.778705 0.577027
O O2 0.093767 0.793932 0.666585
O O3 0.880862 0.817720 0.011416
O O4 0.916602 0.730280 0.876763
O O5 0.983987 0.931576 0.630551
O O6 0.249251 0.972830 0.807139
O O7 0.036600 0.012469 0.511963
O O8 0.818933 0.875362 0.356146
O O9 0.682331 0.948755 0.483037
O O10 0.743654 0.892052 0.853405
O O11 0.575507 0.837104 0.106307
O O12 0.339790 0.799694 0.351363
O O13 0.597114 0.751520 0.226121
O O14 0.006350 0.485832 0.633559
#
# Coordination Sequence:
#
# PCOD8170925 Si02
#       7
#     4   4   4   4   4   4   4
#     4  11  21  38  62  91 116 180 228 274 319 397
#     4  10  20  41  72 100 131 176 219 252 311 427
#     4  11  25  43  66 106 132 176 216 269 350 396
#     4  11  21  38  62  91 119 180 228 277 320 397
#     4  12  24  40  67  93 139 171 217 293 333 380
#     4  10  21  36  62  86 121 156 255 264 317 384
#     4  11  22  42  77 103 132 171 219 267 322 417
#
# _framework density 21.639081000000001
#
# number of rings (size 3 to 8) (size 9 to 14) (size 15 to 20)
#    0.000    1.143    2.857    5.143    4.000    0.000 
#    0.000    1.429    6.286    1.714    0.000    0.000 
#    0.000    0.000    0.000    0.000    0.000    0.000 
#
# Total GULP energy -347080.539432 kJ/mol
# GULP energy per Si atom -12395.733551 kJ/mol
# Density = 2.158983 g / cm^3
# Si number density = 21.639081 Si / 1000 Ang^3
#
#
#
# Elastic Constant Matrix: (Units=GPa)
#
#
# Indices 1 2 3 4 5 6 
#
# 1 131.4690 21.5581 35.2682 0.0000 0.0000 0.0000
# 2 21.5581 45.5315 2.2491 0.0000 0.0000 0.0000
# 3 35.2682 2.2491 88.4543 0.0000 0.0000 0.0000
# 4 0.0000 0.0000 0.0000 42.2983 0.0000 0.0000
# 5 0.0000 0.0000 0.0000 0.0000 41.0311 0.0000
# 6 0.0000 0.0000 0.0000 0.0000 0.0000 25.9280
#
#
#
# Elastic Compliance Matrix: (Units=1/GPa)
#
#
# Indices 1 2 3 4 5 6 
#
# 1 0.009258 -0.004206 -0.003584 0.000000 0.000000 0.000000
# 2 -0.004206 0.023902 0.001069 0.000000 0.000000 0.000000
# 3 -0.003584 0.001069 0.012707 0.000000 0.000000 0.000000
# 4 0.000000 0.000000 0.000000 0.023642 0.000000 0.000000
# 5 0.000000 0.000000 0.000000 0.000000 0.024372 0.000000
# 6 0.000000 0.000000 0.000000 0.000000 0.000000 0.038568
#
#
# Mechanical properties :
#
#
# Convention : Reuss Voigt Hill
#
# Bulk Modulus (GPa) = 30.84121 42.62284 36.73202
# Shear Modulus (GPa) = 31.90847 35.61011 33.75929
#
# Velocity S-wave (km/s) = 3.84419 4.06105 3.95410
# Velocity P-wave (km/s) = 5.82985 6.45983 6.15291
#
# Compressibility (1/GPa) = 0.03242415
#
# Stress axis : x y z
#
# Youngs Moduli (GPa) = 108.01939 41.83833 78.69570
#
# Poissons Ratio (x) = 0.17598 0.28206
# Poissons Ratio (y) = 0.45435 -0.08415
# Poissons Ratio (z) = 0.38716 -0.04474
#
# Static dielectric constant tensor:
#      x y z
#    x 4.069100 0.000000 0.000000 
#    y 0.000000 3.558030 0.000000 
#    z 0.000000 0.000000 4.201160 
# 
# 
# High freq. dielectric constant tensor:
#      x y z
#    x 1.858210 0.000000 0.000000 
#    y 0.000000 1.803430 0.000000 
#    z 0.000000 0.000000 1.881410 
# 
# From -- ./inp_files/532.got.cif
#   From: 2010.03.12/outbox.cif.g09.slc.cpg/sg33_1_cif.got.tgz:532.got - 2010.04.14 01:49:19.
