data_PCOD8170979
_publ_section_title
;
Structure prediction by ZEFSAII (Michael W. Deem and Ramdas Pophale) SiO2 
 PCOD8170979
Probable space group: P N A 21
;
_chemical_formula_sum "Si O2"
_cell_formula_units_Z 28
_cell_length_a 26.444461
_cell_length_b 8.411272
_cell_length_c 5.333908
_cell_angle_alpha 90.000000
_cell_angle_beta 90.000000
_cell_angle_gamma 90.000000
_cell_volume 1186.429447
_symmetry_space_group_name_H-M "P N A 21"
_symmetry_group_IT_number 33
_symmetry_cell_setting 'orthorhombic'
loop_
_space_group_symop_operation_xyz
x,y,z
-x,-y,1/2+z
1/2-x,1/2+y,1/2+z
1/2+x,1/2-y,z
loop_
_atom_site_type_symbol
_atom_site_label
_atom_site_fract_x
_atom_site_fract_y
_atom_site_fract_z
Si Si1 0.792422 0.639041 0.268430
Si Si2 0.640645 0.456282 0.764812
Si Si3 0.683156 0.519348 0.265707
Si Si4 0.033009 0.984530 0.773074
Si Si5 0.064366 0.453805 0.320035
Si Si6 0.829550 0.654280 0.769850
Si Si7 0.048804 0.636734 0.820031
O O1 0.819383 0.811588 0.259692
O O2 0.731979 0.633058 0.276389
O O3 0.813276 0.555343 0.521578
O O4 0.809317 0.553795 0.009360
O O5 0.650027 0.559013 0.512600
O O6 0.581460 0.394929 0.768057
O O7 0.651928 0.560685 0.013638
O O8 0.695943 0.329379 0.261606
O O9 0.063639 0.819206 0.789725
O O10 0.001312 0.990215 0.517040
O O11 0.109731 0.327819 0.286873
O O12 0.071415 0.538593 0.588452
O O13 0.012219 0.360085 0.309231
O O14 0.067784 0.576812 0.089069
#
# Coordination Sequence:
#
# PCOD8170979 Si02
#       7
#     4   4   4   4   4   4   4
#     4  10  21  38  63  94 128 168 222 278 341 401
#     4  10  23  41  64  95 134 174 216 276 345 400
#     4  10  21  41  62  93 127 166 226 275 332 404
#     4  12  26  42  69 104 139 182 230 281 337 408
#     4  10  21  41  64  91 128 177 222 270 332 397
#     4  10  21  37  65  90 125 167 223 263 347 390
#     4  10  23  40  61  95 135 172 225 273 322 398
#
# _framework density 23.600224999999998
#
# number of rings (size 3 to 8) (size 9 to 14) (size 15 to 20)
#    0.000    1.714    0.000    3.429    8.000    0.000 
#    0.000   17.143    0.000    0.000    0.000    0.000 
#    0.000    0.000    0.000    0.000    0.000    0.000 
#
# Total GULP energy -346892.659146 kJ/mol
# GULP energy per Si atom -12389.023541 kJ/mol
# Density = 2.354651 g / cm^3
# Si number density = 23.600225 Si / 1000 Ang^3
#
#
#
# Elastic Constant Matrix: (Units=GPa)
#
#
# Indices 1 2 3 4 5 6 
#
# 1 157.6661 11.7491 59.3800 0.0000 0.0000 0.0000
# 2 11.7491 40.3605 -9.1005 0.0000 0.0000 0.0000
# 3 59.3800 -9.1005 236.8321 0.0000 0.0000 0.0000
# 4 0.0000 0.0000 0.0000 8.6129 0.0000 0.0000
# 5 0.0000 0.0000 0.0000 0.0000 42.3487 0.0000
# 6 0.0000 0.0000 0.0000 0.0000 0.0000 25.6067
#
#
#
# Elastic Compliance Matrix: (Units=1/GPa)
#
#
# Indices 1 2 3 4 5 6 
#
# 1 0.007254 -0.002544 -0.001916 0.000000 0.000000 0.000000
# 2 -0.002544 0.025885 0.001632 0.000000 0.000000 0.000000
# 3 -0.001916 0.001632 0.004766 0.000000 0.000000 0.000000
# 4 0.000000 0.000000 0.000000 0.116105 0.000000 0.000000
# 5 0.000000 0.000000 0.000000 0.000000 0.023613 0.000000
# 6 0.000000 0.000000 0.000000 0.000000 0.000000 0.039052
#
#
# Mechanical properties :
#
#
# Convention : Reuss Voigt Hill
#
# Bulk Modulus (GPa) = 31.00848 62.10173 46.55511
# Shear Modulus (GPa) = 21.45176 40.16900 30.81038
#
# Velocity S-wave (km/s) = 3.01817 4.13008 3.61711
# Velocity P-wave (km/s) = 5.03124 7.00818 6.10033
#
# Compressibility (1/GPa) = 0.03224924
#
# Stress axis : x y z
#
# Youngs Moduli (GPa) = 137.85773 38.63198 209.83536
#
# Poissons Ratio (x) = 0.09827 0.40214
# Poissons Ratio (y) = 0.35068 -0.34255
# Poissons Ratio (z) = 0.26420 -0.06307
#
# Static dielectric constant tensor:
#      x y z
#    x 4.233700 0.000000 0.000000 
#    y 0.000000 3.611120 0.000000 
#    z 0.000000 0.000000 6.074780 
# 
# 
# High freq. dielectric constant tensor:
#      x y z
#    x 1.935300 0.000000 0.000000 
#    y 0.000000 1.875380 0.000000 
#    z 0.000000 0.000000 1.982890 
# 
# From -- ./inp_files/2209.got.cif
#   From: 2010.03.12/outbox.cif.g09.slc.cpg/sg33_2_cif.got.tgz:2209.got - 2010.04.14 01:49:19.
