data_PCOD8170970
_publ_section_title
;
Structure prediction by ZEFSAII (Michael W. Deem and Ramdas Pophale) SiO2 
 PCOD8170970
Probable space group: P N A 21
;
_chemical_formula_sum "Si O2"
_cell_formula_units_Z 32
_cell_length_a 8.906910
_cell_length_b 9.751208
_cell_length_c 18.191012
_cell_angle_alpha 90.000000
_cell_angle_beta 90.000000
_cell_angle_gamma 90.000000
_cell_volume 1579.946367
_symmetry_space_group_name_H-M "P N A 21"
_symmetry_group_IT_number 33
_symmetry_cell_setting 'orthorhombic'
loop_
_space_group_symop_operation_xyz
x,y,z
-x,-y,1/2+z
1/2-x,1/2+y,1/2+z
1/2+x,1/2-y,z
loop_
_atom_site_type_symbol
_atom_site_label
_atom_site_fract_x
_atom_site_fract_y
_atom_site_fract_z
Si Si1 0.672149 0.836346 0.233650
Si Si2 0.560441 0.071592 0.972844
Si Si3 0.399920 0.334751 0.960452
Si Si4 0.517319 0.378166 0.799816
Si Si5 0.017319 0.121834 0.500057
Si Si6 0.600080 0.665249 0.839421
Si Si7 0.560441 0.071592 0.327029
Si Si8 0.672149 0.836346 0.066224
O O1 0.587537 0.690205 0.237933
O O2 0.813949 0.826912 0.287118
O O3 0.719763 0.865326 0.149937
O O4 0.565611 0.959967 0.261812
O O5 0.443448 0.190196 0.998135
O O6 0.722479 0.140910 0.959294
O O7 0.500000 1.000000 0.899937
O O8 0.565611 0.959967 0.038061
O O9 0.464106 0.324402 0.878403
O O10 0.485612 0.456582 0.004224
O O11 0.514389 0.543418 0.795649
O O12 0.964106 0.175598 0.421471
O O13 0.912463 0.190205 0.561941
O O14 0.186051 0.173088 0.512756
O O15 0.556552 0.809804 0.801738
O O16 0.777521 0.640910 0.840580
#
# Coordination Sequence:
#
# PCOD8170970 Si02
#       8
#     4   4   4   4   4   4   4   4
#     4  11  23  39  58  89 125 165 202 249 310 369
#     4  11  23  38  62  91 125 153 206 261 300 363
#     4  10  22  37  61  95 116 155 204 259 308 346
#     4  10  21  37  61  88 122 153 203 251 298 367
#     4  10  21  37  61  88 122 153 203 251 298 367
#     4  10  22  37  61  95 116 155 204 259 308 346
#     4  11  23  38  62  91 125 153 206 261 300 363
#     4  11  23  39  58  89 125 165 202 249 310 369
#
# _framework density 20.253852999999999
#
# number of rings (size 3 to 8) (size 9 to 14) (size 15 to 20)
#    0.000    1.500    2.500    2.250    7.000    0.000 
#    0.000    6.250    0.000    0.000    0.000    0.000 
#    0.000    0.000    0.000    0.000    0.000    0.000 
#
# Total GULP energy -396770.846296 kJ/mol
# GULP energy per Si atom -12399.088947 kJ/mol
# Density = 2.020775 g / cm^3
# Si number density = 20.253853 Si / 1000 Ang^3
#
#
#
# Elastic Constant Matrix: (Units=GPa)
#
#
# Indices 1 2 3 4 5 6 
#
# 1 90.7884 55.2282 28.4362 0.0000 0.0000 0.0000
# 2 55.2282 123.6049 29.1606 0.0000 0.0000 0.0000
# 3 28.4362 29.1606 69.9312 0.0000 0.0000 0.0000
# 4 0.0000 0.0000 0.0000 25.9065 0.0000 0.0000
# 5 0.0000 0.0000 0.0000 0.0000 18.8548 0.0000
# 6 0.0000 0.0000 0.0000 0.0000 0.0000 45.7279
#
#
#
# Elastic Compliance Matrix: (Units=1/GPa)
#
#
# Indices 1 2 3 4 5 6 
#
# 1 0.016039 -0.006242 -0.003919 0.000000 0.000000 0.000000
# 2 -0.006242 0.011402 -0.002216 0.000000 0.000000 0.000000
# 3 -0.003919 -0.002216 0.016818 0.000000 0.000000 0.000000
# 4 0.000000 0.000000 0.000000 0.038600 0.000000 0.000000
# 5 0.000000 0.000000 0.000000 0.000000 0.053037 0.000000
# 6 0.000000 0.000000 0.000000 0.000000 0.000000 0.021868
#
#
# Mechanical properties :
#
#
# Convention : Reuss Voigt Hill
#
# Bulk Modulus (GPa) = 51.27175 56.66384 53.96780
# Shear Modulus (GPa) = 26.45205 29.53113 27.99159
#
# Velocity S-wave (km/s) = 3.61782 3.82258 3.72161
# Velocity P-wave (km/s) = 6.54378 6.89351 6.72092
#
# Compressibility (1/GPa) = 0.01950392
#
# Stress axis : x y z
#
# Youngs Moduli (GPa) = 62.34697 87.70269 59.46121
#
# Poissons Ratio (x) = 0.54743 0.23304
# Poissons Ratio (y) = 0.38917 0.13179
# Poissons Ratio (z) = 0.24435 0.19439
#
# Static dielectric constant tensor:
#      x y z
#    x 3.746560 0.000000 0.000000 
#    y 0.000000 4.047780 0.000000 
#    z 0.000000 0.000000 3.334220 
# 
# 
# High freq. dielectric constant tensor:
#      x y z
#    x 1.797850 0.000000 0.000000 
#    y 0.000000 1.807650 0.000000 
#    z 0.000000 0.000000 1.752120 
# 
# From -- ./inp_files/8932.got.cif
#   From: 2010.03.12/outbox.cif.g09.slc.cpg/sg33_5_cif.got.tgz:8932.got - 2010.04.14 01:49:19.
