data_PCOD8170244
_publ_section_title
;
Structure prediction by ZEFSAII (Michael W. Deem and Ramdas Pophale) SiO2 
 PCOD8170244
Probable space group: P M N 21
;
_chemical_formula_sum "Si O2"
_cell_formula_units_Z 32
_cell_length_a 9.057853
_cell_length_b 16.201568
_cell_length_c 10.724444
_cell_angle_alpha 90.000000
_cell_angle_beta 90.000000
_cell_angle_gamma 90.000000
_cell_volume 1573.827400
_symmetry_space_group_name_H-M "P M N 21"
_symmetry_group_IT_number 31
_symmetry_cell_setting 'orthorhombic'
loop_
_space_group_symop_operation_xyz
x,y,z
1/2-x,-y,1/2+z
-x,y,z
1/2+x,-y,1/2+z
loop_
_atom_site_type_symbol
_atom_site_label
_atom_site_fract_x
_atom_site_fract_y
_atom_site_fract_z
Si Si1 0.672939 0.754732 0.761400
Si Si2 0.325370 0.738419 0.040177
Si Si3 0.669765 0.569504 0.144358
Si Si4 0.336406 0.826047 0.275559
Si Si5 0.659321 0.649704 0.395780
Si Si6 0.173895 0.963310 0.413724
Si Si7 0.671991 0.387805 0.123820
Si Si8 0.325537 0.931806 0.671857
O O1 0.500000 0.739442 0.747786
O O2 0.753688 0.670850 0.725196
O O3 0.719336 0.834783 0.679695
O O4 0.717728 0.770939 0.904485
O O5 0.500000 0.730203 0.060169
O O6 0.256565 0.646839 0.069164
O O7 0.271926 0.810391 0.135791
O O8 0.500000 0.563622 0.103344
O O9 0.688861 0.581177 0.291753
O O10 0.743214 0.480004 0.119562
O O11 0.500000 0.868793 0.274437
O O12 0.352812 0.736950 0.332446
O O13 0.220802 0.875503 0.358588
O O14 0.500000 0.632040 0.461984
O O15 0.795015 0.651307 0.490014
O O16 0.248563 0.974944 0.551164
O O17 0.000000 0.967514 0.436345
O O18 0.222681 0.028238 0.305242
O O19 0.500000 0.389917 0.153283
O O20 0.500000 0.942085 0.653488
#
# Coordination Sequence:
#
# PCOD8170244 Si02
#       8
#     4   4   4   4   4   4   4   4
#     4  10  21  38  60  82 111 152 200 239 278 348
#     4   8  16  33  59  84 107 148 199 238 276 338
#     4   8  17  33  51  77 110 141 181 232 282 332
#     4   9  18  35  62  86 109 147 193 238 287 342
#     4   9  18  35  55  75 102 142 188 226 268 339
#     4  11  24  40  63  93 123 155 195 245 302 358
#     4  11  22  33  51  80 113 144 178 232 293 338
#     4  10  24  43  61  89 123 157 202 248 292 355
#
# _framework density 20.332598000000001
#
# number of rings (size 3 to 8) (size 9 to 14) (size 15 to 20)
#    0.000    2.500    0.000    3.000    3.500    5.000 
#    0.000    1.250    0.000    2.250    0.000    0.000 
#    0.000    0.000    0.000    0.000    0.000    0.000 
#
# Total GULP energy -396471.816314 kJ/mol
# GULP energy per Si atom -12389.744260 kJ/mol
# Density = 2.028632 g / cm^3
# Si number density = 20.332598 Si / 1000 Ang^3
#
#
#
# Elastic Constant Matrix: (Units=GPa)
#
#
# Indices 1 2 3 4 5 6 
#
# 1 44.6733 25.1693 34.1819 0.0000 0.0000 0.0000
# 2 25.1693 53.1374 38.3831 0.0000 0.0000 0.0000
# 3 34.1819 38.3831 117.0745 0.0000 0.0000 0.0000
# 4 0.0000 0.0000 0.0000 9.8527 0.0000 0.0000
# 5 0.0000 0.0000 0.0000 0.0000 21.6000 0.0000
# 6 0.0000 0.0000 0.0000 0.0000 0.0000 21.2127
#
#
#
# Elastic Compliance Matrix: (Units=1/GPa)
#
#
# Indices 1 2 3 4 5 6 
#
# 1 0.033461 -0.011521 -0.005992 0.000000 0.000000 0.000000
# 2 -0.011521 0.028625 -0.006021 0.000000 0.000000 0.000000
# 3 -0.005992 -0.006021 0.012265 0.000000 0.000000 0.000000
# 4 0.000000 0.000000 0.000000 0.101495 0.000000 0.000000
# 5 0.000000 0.000000 0.000000 0.000000 0.046296 0.000000
# 6 0.000000 0.000000 0.000000 0.000000 0.000000 0.047142
#
#
# Mechanical properties :
#
#
# Convention : Reuss Voigt Hill
#
# Bulk Modulus (GPa) = 36.65311 45.59489 41.12400
# Shear Modulus (GPa) = 15.36349 18.34314 16.85332
#
# Velocity S-wave (km/s) = 2.75182 3.00685 2.88215
# Velocity P-wave (km/s) = 5.30684 5.87606 5.59869
#
# Compressibility (1/GPa) = 0.02728281
#
# Stress axis : x y z
#
# Youngs Moduli (GPa) = 29.88585 34.93393 81.53134
#
# Poissons Ratio (x) = 0.40246 0.48856
# Poissons Ratio (y) = 0.34430 0.49092
# Poissons Ratio (z) = 0.17909 0.21035
#
# Static dielectric constant tensor:
#      x y z
#    x 3.468760 0.000000 0.000000 
#    y 0.000000 3.859930 0.000000 
#    z 0.000000 0.000000 4.023930 
# 
# 
# High freq. dielectric constant tensor:
#      x y z
#    x 1.752610 0.000000 0.000000 
#    y 0.000000 1.799660 0.000000 
#    z 0.000000 0.000000 1.804240 
# 
# From -- ./inp_files/3718.got.cif
#   From: 2010.03.12/outbox.cif.g09.slc.cpg/sg31_2_cif.got.tgz:3718.got - 2010.04.14 01:42:59.
