data_PCOD8170780
_publ_section_title
;
Structure prediction by ZEFSAII (Michael W. Deem and Ramdas Pophale) SiO2 
 PCOD8170780
Probable space group: P N A 21
;
_chemical_formula_sum "Si O2"
_cell_formula_units_Z 24
_cell_length_a 9.353049
_cell_length_b 13.440334
_cell_length_c 7.682077
_cell_angle_alpha 90.000000
_cell_angle_beta 90.000000
_cell_angle_gamma 90.000000
_cell_volume 965.699323
_symmetry_space_group_name_H-M "P N A 21"
_symmetry_group_IT_number 33
_symmetry_cell_setting 'orthorhombic'
loop_
_space_group_symop_operation_xyz
x,y,z
-x,-y,1/2+z
1/2-x,1/2+y,1/2+z
1/2+x,1/2-y,z
loop_
_atom_site_type_symbol
_atom_site_label
_atom_site_fract_x
_atom_site_fract_y
_atom_site_fract_z
Si Si1 0.602727 0.129945 0.725500
Si Si2 0.187034 0.921687 0.797562
Si Si3 0.935974 0.931985 0.545358
Si Si4 0.465533 0.944467 0.607477
Si Si5 0.695241 0.791481 0.659506
Si Si6 0.103970 0.796912 0.302371
O O1 0.593311 0.088508 0.921525
O O2 0.766327 0.161112 0.683427
O O3 0.489742 0.218488 0.693403
O O4 0.562590 0.043143 0.589173
O O5 0.334909 0.970399 0.734836
O O6 0.201199 0.800761 0.795497
O O7 0.067629 0.961170 0.664879
O O8 0.147938 0.967794 0.986728
O O9 0.837140 0.859355 0.663654
O O10 0.993772 0.879724 0.370210
O O11 0.555054 0.856309 0.699314
O O12 0.686828 0.752130 0.463556
#
# Coordination Sequence:
#
# PCOD8170780 Si02
#       6
#     4   4   4   4   4   4
#     4  11  22  41  67  92 127 170 220 268 331 394
#     4  11  22  40  64  98 132 175 227 277 332 400
#     4  11  22  38  67  98 127 175 228 273 332 400
#     4  11  23  39  65  96 129 172 216 271 328 396
#     4  10  20  41  67  91 129 176 224 265 333 401
#     4  10  19  39  62  91 122 172 215 262 318 403
#
# _framework density 24.852454000000002
#
# number of rings (size 3 to 8) (size 9 to 14) (size 15 to 20)
#    0.000    1.333    5.000    4.000    2.333    0.000 
#    0.000    1.667    0.000    4.000    0.000    0.000 
#    0.000    0.000    0.000    0.000    0.000    0.000 
#
# Total GULP energy -297585.714517 kJ/mol
# GULP energy per Si atom -12399.404772 kJ/mol
# Density = 2.479589 g / cm^3
# Si number density = 24.852454 Si / 1000 Ang^3
#
#
#
# Elastic Constant Matrix: (Units=GPa)
#
#
# Indices 1 2 3 4 5 6 
#
# 1 156.7170 58.7555 40.4602 0.0000 0.0000 0.0000
# 2 58.7555 144.6814 40.0573 0.0000 0.0000 0.0000
# 3 40.4602 40.0573 22.9759 0.0000 0.0000 0.0000
# 4 0.0000 0.0000 0.0000 39.1027 0.0000 0.0000
# 5 0.0000 0.0000 0.0000 0.0000 23.9424 0.0000
# 6 0.0000 0.0000 0.0000 0.0000 0.0000 -39.2051
#
#
#
# Elastic Compliance Matrix: (Units=1/GPa)
#
#
# Indices 1 2 3 4 5 6 
#
# 1 0.011960 0.001883 -0.024345 0.000000 0.000000 0.000000
# 2 0.001883 0.013658 -0.027128 0.000000 0.000000 0.000000
# 3 -0.024345 -0.027128 0.133691 0.000000 0.000000 0.000000
# 4 0.000000 0.000000 0.000000 0.025574 0.000000 0.000000
# 5 0.000000 0.000000 0.000000 0.000000 0.041767 0.000000
# 6 0.000000 0.000000 0.000000 0.000000 0.000000 -0.025507
#
#
# Mechanical properties :
#
#
# Convention : Reuss Voigt Hill
#
# Bulk Modulus (GPa) = 16.63068 66.99116 41.81092
# Shear Modulus (GPa) = 15.60718 17.10808 16.35763
#
# Velocity S-wave (km/s) = 2.50870 2.62656 2.56830
# Velocity P-wave (km/s) = 3.88558 6.01768 5.06509
#
# Compressibility (1/GPa) = 0.06012982
#
# Stress axis : x y z
#
# Youngs Moduli (GPa) = 83.61155 73.21836 7.47992
#
# Poissons Ratio (x) = -0.13789 0.18210
# Poissons Ratio (y) = -0.15746 0.20292
# Poissons Ratio (z) = 2.03551 1.98627
#
# Static dielectric constant tensor:
#      x y z
#    x 4.669560 0.000000 0.000000 
#    y 0.000000 4.813260 0.000000 
#    z 0.000000 0.000000 3.810660 
# 
# 
# High freq. dielectric constant tensor:
#      x y z
#    x 2.013960 0.000000 0.000000 
#    y 0.000000 1.995540 0.000000 
#    z 0.000000 0.000000 1.946930 
# 
# From -- ./inp_files/3187.got.cif
#   From: 2010.03.12/outbox.cif.g09.slc.cpg/sg33_2_cif.got.tgz:3187.got - 2010.04.14 01:49:19.
