data_PCOD8170034
_publ_section_title
;
Structure prediction by ZEFSAII (Michael W. Deem and Ramdas Pophale) SiO2 
 PCOD8170034
Probable space group: P M N 21
;
_chemical_formula_sum "Si O2"
_cell_formula_units_Z 32
_cell_length_a 8.827818
_cell_length_b 7.600187
_cell_length_c 24.707178
_cell_angle_alpha 90.000000
_cell_angle_beta 90.000000
_cell_angle_gamma 90.000000
_cell_volume 1657.680364
_symmetry_space_group_name_H-M "P M N 21"
_symmetry_group_IT_number 31
_symmetry_cell_setting 'orthorhombic'
loop_
_space_group_symop_operation_xyz
x,y,z
1/2-x,-y,1/2+z
-x,y,z
1/2+x,-y,1/2+z
loop_
_atom_site_type_symbol
_atom_site_label
_atom_site_fract_x
_atom_site_fract_y
_atom_site_fract_z
Si Si1 0.677151 0.805402 0.455030
Si Si2 0.180274 0.494093 0.151994
Si Si3 0.181937 0.190043 0.228695
Si Si4 0.333807 0.211455 0.846765
Si Si5 0.318892 0.819635 0.960759
Si Si6 0.819425 0.797331 0.228660
Si Si7 0.164926 0.203937 0.344621
Si Si8 0.821342 0.519003 0.029682
O O1 0.500000 0.843857 0.456535
O O2 0.722230 0.735076 0.395368
O O3 0.724956 0.655156 0.497256
O O4 0.762308 0.983012 0.472421
O O5 0.242100 0.319607 0.182135
O O6 0.244246 0.665684 0.183063
O O7 0.238903 0.494230 0.090708
O O8 0.000000 0.493570 0.153285
O O9 0.246470 0.256417 0.287877
O O10 0.000000 0.189703 0.232241
O O11 0.242243 0.993563 0.215694
O O12 0.500000 0.296122 0.857633
O O13 0.267370 0.271927 0.788311
O O14 0.353738 0.004311 0.843550
O O15 0.500000 0.824294 0.959434
O O16 0.253520 0.750297 0.901953
O O17 0.260231 0.691114 0.006850
O O18 0.000000 0.800033 0.228250
O O19 0.000000 0.294890 0.345457
O O20 0.000000 0.552466 0.027453
#
# Coordination Sequence:
#
# PCOD8170034 Si02
#       8
#     4   4   4   4   4   4   4   4
#     4  10  20  34  52  75 107 143 172 206 257 315
#     4   9  17  28  43  66  95 128 166 204 247 298
#     4   8  13  23  40  64  93 119 147 193 250 298
#     4   8  14  27  48  75 102 126 161 208 255 306
#     4  10  20  35  56  78 101 134 174 218 263 304
#     4   8  14  25  44  69  95 123 159 209 258 295
#     4   7  12  24  43  70  98 118 147 197 252 300
#     4  10  22  36  49  73 107 139 174 213 254 306
#
# _framework density 19.304082000000001
#
# number of rings (size 3 to 8) (size 9 to 14) (size 15 to 20)
#    0.000    3.250    0.000    3.000    0.000    3.000 
#    0.000    6.250    0.000    0.750    0.000    8.750 
#    0.000    0.000    0.000    0.000    0.000    0.000 
#
# Total GULP energy -396436.467966 kJ/mol
# GULP energy per Si atom -12388.639624 kJ/mol
# Density = 1.926015 g / cm^3
# Si number density = 19.304082 Si / 1000 Ang^3
#
#
#
# Elastic Constant Matrix: (Units=GPa)
#
#
# Indices 1 2 3 4 5 6 
#
# 1 26.4666 21.3960 21.1359 0.0000 0.0000 0.0000
# 2 21.3960 113.6650 83.4303 0.0000 0.0000 0.0000
# 3 21.1359 83.4303 183.1656 0.0000 0.0000 0.0000
# 4 0.0000 0.0000 0.0000 37.0140 0.0000 0.0000
# 5 0.0000 0.0000 0.0000 0.0000 21.6203 0.0000
# 6 0.0000 0.0000 0.0000 0.0000 0.0000 9.5859
#
#
#
# Elastic Compliance Matrix: (Units=1/GPa)
#
#
# Indices 1 2 3 4 5 6 
#
# 1 0.045051 -0.007007 -0.002007 0.000000 0.000000 0.000000
# 2 -0.007007 0.014306 -0.005708 0.000000 0.000000 0.000000
# 3 -0.002007 -0.005708 0.008291 0.000000 0.000000 0.000000
# 4 0.000000 0.000000 0.000000 0.027017 0.000000 0.000000
# 5 0.000000 0.000000 0.000000 0.000000 0.046253 0.000000
# 6 0.000000 0.000000 0.000000 0.000000 0.000000 0.104320
#
#
# Mechanical properties :
#
#
# Convention : Reuss Voigt Hill
#
# Bulk Modulus (GPa) = 26.17497 63.91350 45.04424
# Shear Modulus (GPa) = 17.39634 26.79970 22.09802
#
# Velocity S-wave (km/s) = 3.00521 3.73002 3.38706
# Velocity P-wave (km/s) = 5.06265 7.19246 6.21940
#
# Compressibility (1/GPa) = 0.03820443
#
# Stress axis : x y z
#
# Youngs Moduli (GPa) = 22.19715 69.89891 120.61303
#
# Poissons Ratio (x) = 0.48980 0.24204
# Poissons Ratio (y) = 0.15554 0.68844
# Poissons Ratio (z) = 0.04454 0.39897
#
# Static dielectric constant tensor:
#      x y z
#    x 2.961540 0.000000 0.000000 
#    y 0.000000 3.487380 0.000000 
#    z 0.000000 0.000000 4.029030 
# 
# 
# High freq. dielectric constant tensor:
#      x y z
#    x 1.684950 0.000000 0.000000 
#    y 0.000000 1.746970 0.000000 
#    z 0.000000 0.000000 1.762740 
# 
# From -- ./inp_files/6457.got.cif
#   From: 2010.03.12/outbox.cif.g09.slc.cpg/sg31_4_cif.got.tgz:6457.got - 2010.04.14 01:42:59.
