data_PCOD8170106
_publ_section_title
;
Structure prediction by ZEFSAII (Michael W. Deem and Ramdas Pophale) SiO2 
 PCOD8170106
Probable space group: P M N 21
;
_chemical_formula_sum "Si O2"
_cell_formula_units_Z 24
_cell_length_a 9.058737
_cell_length_b 12.017336
_cell_length_c 11.870186
_cell_angle_alpha 90.000000
_cell_angle_beta 90.000000
_cell_angle_gamma 90.000000
_cell_volume 1292.210838
_symmetry_space_group_name_H-M "P M N 21"
_symmetry_group_IT_number 31
_symmetry_cell_setting 'orthorhombic'
loop_
_space_group_symop_operation_xyz
x,y,z
1/2-x,-y,1/2+z
-x,y,z
1/2+x,-y,1/2+z
loop_
_atom_site_type_symbol
_atom_site_label
_atom_site_fract_x
_atom_site_fract_y
_atom_site_fract_z
Si Si1 0.827877 0.582838 0.214800
Si Si2 0.324622 0.720051 0.028057
Si Si3 0.168203 0.786689 0.370316
Si Si4 0.675311 0.661045 0.779371
Si Si5 0.172720 0.916203 0.148745
Si Si6 0.174689 0.164024 0.098749
O O1 0.736511 0.622609 0.107130
O O2 0.801087 0.664730 0.319890
O O3 0.767385 0.461984 0.248963
O O4 0.000000 0.582055 0.181568
O O5 0.500000 0.722151 0.036551
O O6 0.262553 0.840074 0.062286
O O7 0.267765 0.695181 0.902363
O O8 0.205039 0.879699 0.276736
O O9 0.274253 0.804527 0.474718
O O10 0.000000 0.797922 0.411260
O O11 0.500000 0.662061 0.777793
O O12 0.739932 0.748075 0.688454
O O13 0.000000 0.902189 0.121287
O O14 0.229993 0.041551 0.133292
O O15 0.000000 0.168091 0.100756
#
# Coordination Sequence:
#
# PCOD8170106 Si02
#       6
#     4   4   4   4   4   4
#     4   9  19  38  58  77 110 148 176 213 276 330
#     4  10  20  35  59  84 106 138 186 227 261 314
#     4   9  19  35  56  78 106 144 178 216 270 322
#     4   9  20  36  56  81 109 143 178 219 269 320
#     4   9  20  38  57  77 109 148 178 214 275 330
#     4  10  21  36  56  81 108 141 182 221 263 318
#
# _framework density 18.572821999999999
#
# number of rings (size 3 to 8) (size 9 to 14) (size 15 to 20)
#    0.000    2.667    0.000    1.500    4.667    3.333 
#    0.000    3.333    0.000    0.000    0.000    0.000 
#    0.000    0.000    0.000    0.000    0.000    0.000 
#
# Total GULP energy -297639.435982 kJ/mol
# GULP energy per Si atom -12401.643166 kJ/mol
# Density = 1.853055 g / cm^3
# Si number density = 18.572822 Si / 1000 Ang^3
#
#
#
# Elastic Constant Matrix: (Units=GPa)
#
#
# Indices 1 2 3 4 5 6 
#
# 1 36.0891 35.9666 35.7045 0.0000 0.0000 0.0000
# 2 35.9666 178.1401 90.4720 0.0000 0.0000 0.0000
# 3 35.7045 90.4720 142.9679 0.0000 0.0000 0.0000
# 4 0.0000 0.0000 0.0000 21.8637 0.0000 0.0000
# 5 0.0000 0.0000 0.0000 0.0000 31.8240 0.0000
# 6 0.0000 0.0000 0.0000 0.0000 0.0000 22.5398
#
#
#
# Elastic Compliance Matrix: (Units=1/GPa)
#
#
# Indices 1 2 3 4 5 6 
#
# 1 0.038921 -0.004305 -0.006996 0.000000 0.000000 0.000000
# 2 -0.004305 0.008748 -0.004461 0.000000 0.000000 0.000000
# 3 -0.006996 -0.004461 0.011565 0.000000 0.000000 0.000000
# 4 0.000000 0.000000 0.000000 0.045738 0.000000 0.000000
# 5 0.000000 0.000000 0.000000 0.000000 0.031423 0.000000
# 6 0.000000 0.000000 0.000000 0.000000 0.000000 0.044366
#
#
# Mechanical properties :
#
#
# Convention : Reuss Voigt Hill
#
# Bulk Modulus (GPa) = 36.08764 75.72036 55.90400
# Shear Modulus (GPa) = 22.57124 28.24910 25.41017
#
# Velocity S-wave (km/s) = 3.48987 3.90422 3.70285
# Velocity P-wave (km/s) = 5.97591 7.82188 6.96036
#
# Compressibility (1/GPa) = 0.02771032
#
# Stress axis : x y z
#
# Youngs Moduli (GPa) = 25.69310 114.30730 86.47122
#
# Poissons Ratio (x) = 0.49213 0.60492
# Poissons Ratio (y) = 0.11062 0.38574
# Poissons Ratio (z) = 0.17974 0.50991
#
# Static dielectric constant tensor:
#      x y z
#    x 3.144570 0.000000 0.000000 
#    y 0.000000 3.774710 0.000000 
#    z 0.000000 0.000000 3.410380 
# 
# 
# High freq. dielectric constant tensor:
#      x y z
#    x 1.697700 0.000000 0.000000 
#    y 0.000000 1.734290 0.000000 
#    z 0.000000 0.000000 1.724680 
# 
# From -- ./inp_files/3442.got.cif
#   From: 2010.03.12/outbox.cif.g09.slc.cpg/sg31_2_cif.got.tgz:3442.got - 2010.04.14 01:42:59.
