data_PCOD8170665
_publ_section_title
;
Structure prediction by ZEFSAII (Michael W. Deem and Ramdas Pophale) SiO2 
 PCOD8170665
Probable space group: P N A 21
;
_chemical_formula_sum "Si O2"
_cell_formula_units_Z 32
_cell_length_a 9.007392
_cell_length_b 14.454584
_cell_length_c 11.751055
_cell_angle_alpha 90.000000
_cell_angle_beta 90.000000
_cell_angle_gamma 90.000000
_cell_volume 1529.965084
_symmetry_space_group_name_H-M "P N A 21"
_symmetry_group_IT_number 33
_symmetry_cell_setting 'orthorhombic'
loop_
_space_group_symop_operation_xyz
x,y,z
-x,-y,1/2+z
1/2-x,1/2+y,1/2+z
1/2+x,1/2-y,z
loop_
_atom_site_type_symbol
_atom_site_label
_atom_site_fract_x
_atom_site_fract_y
_atom_site_fract_z
Si Si1 0.335949 0.139253 0.167000
Si Si2 0.657361 0.051409 0.928156
Si Si3 0.298129 0.334638 0.744759
Si Si4 0.333116 0.823987 0.995333
Si Si5 0.839122 0.352428 0.428800
Si Si6 0.379997 0.779691 0.565027
Si Si7 0.685774 0.973803 0.448294
Si Si8 0.112523 0.173751 0.844586
O O1 0.349679 0.112618 0.298500
O O2 0.492949 0.182553 0.142812
O O3 0.218525 0.220291 0.149434
O O4 0.298845 0.053518 0.082626
O O5 0.734265 0.074593 0.807581
O O6 0.479279 0.054601 0.908716
O O7 0.707955 0.952151 0.982601
O O8 0.709503 0.131807 0.014911
O O9 0.240260 0.335445 0.617318
O O10 0.241494 0.238801 0.796922
O O11 0.477941 0.337253 0.754824
O O12 0.279784 0.728887 0.937971
O O13 0.511799 0.817891 0.991859
O O14 0.286184 0.917008 0.928239
O O15 0.447529 0.718332 0.461828
O O16 0.809138 0.924061 0.370912
#
# Coordination Sequence:
#
# PCOD8170665 Si02
#       8
#     4   4   4   4   4   4   4   4
#     4  10  18  34  57  81 108 144 182 226 281 332
#     4   9  19  36  59  82 107 144 191 236 286 340
#     4  11  20  36  60  86 114 152 187 230 287 344
#     4  11  24  40  55  80 119 155 190 233 281 342
#     4  11  23  38  55  79 114 155 192 232 282 344
#     4   9  17  32  56  84 107 133 181 236 277 324
#     4   9  20  38  59  83 112 144 190 244 286 332
#     4  10  19  34  59  87 113 141 187 239 284 334
#
# _framework density 20.915509
#
# number of rings (size 3 to 8) (size 9 to 14) (size 15 to 20)
#    0.000    2.000    0.000    6.000    0.000    1.000 
#    0.000    6.250    0.000    1.500    0.000    0.000 
#    0.000    0.000    0.000    0.000    0.000    0.000 
#
# Total GULP energy -396562.703344 kJ/mol
# GULP energy per Si atom -12392.584480 kJ/mol
# Density = 2.086790 g / cm^3
# Si number density = 20.915509 Si / 1000 Ang^3
#
#
#
# Elastic Constant Matrix: (Units=GPa)
#
#
# Indices 1 2 3 4 5 6 
#
# 1 60.8728 20.0217 9.6392 0.0000 0.0000 0.0000
# 2 20.0217 173.2312 29.8030 0.0000 0.0000 0.0000
# 3 9.6392 29.8030 56.7748 0.0000 0.0000 0.0000
# 4 0.0000 0.0000 0.0000 48.3625 0.0000 0.0000
# 5 0.0000 0.0000 0.0000 0.0000 39.7022 0.0000
# 6 0.0000 0.0000 0.0000 0.0000 0.0000 -26.9496
#
#
#
# Elastic Compliance Matrix: (Units=1/GPa)
#
#
# Indices 1 2 3 4 5 6 
#
# 1 0.017296 -0.001642 -0.002075 0.000000 0.000000 0.000000
# 2 -0.001642 0.006502 -0.003134 0.000000 0.000000 0.000000
# 3 -0.002075 -0.003134 0.019611 0.000000 0.000000 0.000000
# 4 0.000000 0.000000 0.000000 0.020677 0.000000 0.000000
# 5 0.000000 0.000000 0.000000 0.000000 0.025188 0.000000
# 6 0.000000 0.000000 0.000000 0.000000 0.000000 -0.037106
#
#
# Mechanical properties :
#
#
# Convention : Reuss Voigt Hill
#
# Bulk Modulus (GPa) = 33.66189 45.53406 39.59797
# Shear Modulus (GPa) = 65.98802 27.65067 46.81934
#
# Velocity S-wave (km/s) = 5.62301 3.63990 4.73641
# Velocity P-wave (km/s) = 7.63458 6.28354 6.99177
#
# Compressibility (1/GPa) = 0.02970719
#
# Stress axis : x y z
#
# Youngs Moduli (GPa) = 57.81572 153.80759 50.99209
#
# Poissons Ratio (x) = 0.25258 0.10579
# Poissons Ratio (y) = 0.09494 0.15982
# Poissons Ratio (z) = 0.11994 0.48205
#
# Static dielectric constant tensor:
#      x y z
#    x 3.307110 0.000000 0.000000 
#    y 0.000000 3.983230 0.000000 
#    z 0.000000 0.000000 3.671410 
# 
# 
# High freq. dielectric constant tensor:
#      x y z
#    x 1.803870 0.000000 0.000000 
#    y 0.000000 1.834820 0.000000 
#    z 0.000000 0.000000 1.801870 
# 
# From -- ./inp_files/5946.got.cif
#   From: 2010.03.12/outbox.cif.g09.slc.cpg/sg33_3_cif.got.tgz:5946.got - 2010.04.14 01:49:19.
