data_PCOD8170817
_publ_section_title
;
Structure prediction by ZEFSAII (Michael W. Deem and Ramdas Pophale) SiO2 
 PCOD8170817
Probable space group: P N A 21
;
_chemical_formula_sum "Si O2"
_cell_formula_units_Z 28
_cell_length_a 27.660830
_cell_length_b 10.064528
_cell_length_c 4.926590
_cell_angle_alpha 90.000000
_cell_angle_beta 90.000000
_cell_angle_gamma 90.000000
_cell_volume 1371.529146
_symmetry_space_group_name_H-M "P N A 21"
_symmetry_group_IT_number 33
_symmetry_cell_setting 'orthorhombic'
loop_
_space_group_symop_operation_xyz
x,y,z
-x,-y,1/2+z
1/2-x,1/2+y,1/2+z
1/2+x,1/2-y,z
loop_
_atom_site_type_symbol
_atom_site_label
_atom_site_fract_x
_atom_site_fract_y
_atom_site_fract_z
Si Si1 0.846121 0.263184 0.045310
Si Si2 0.289079 0.499922 0.086957
Si Si3 0.401809 0.843782 0.618008
Si Si4 0.901814 0.343788 0.555636
Si Si5 0.499996 0.909472 0.836864
Si Si6 0.653866 0.236971 0.628366
Si Si7 0.724027 0.000100 0.587022
O O1 0.822426 0.121341 0.993823
O O2 0.863604 0.278694 0.352472
O O3 0.807787 0.378176 0.976775
O O4 0.892452 0.275793 0.845973
O O5 0.322525 0.621059 0.179646
O O6 0.256740 0.450886 0.337825
O O7 0.256664 0.549047 0.836446
O O8 0.456426 0.818170 0.724078
O O9 0.392461 0.775711 0.327723
O O10 0.393019 0.999991 0.586683
O O11 0.363587 0.778764 0.821200
O O12 0.956440 0.318164 0.449716
O O13 0.519653 0.999975 0.586835
O O14 0.692265 0.122168 0.697107
#
# Coordination Sequence:
#
# PCOD8170817 Si02
#       7
#     4   4   4   4   4   4   4
#     4  12  23  39  63  86 125 158 201 250 296 363
#     4  12  26  40  58  90 120 166 206 248 304 350
#     4  11  20  38  61  92 120 154 196 247 305 352
#     4  11  20  38  61  92 120 154 196 247 305 352
#     4  10  20  34  60  96 126 146 192 256 302 354
#     4  12  23  39  63  86 125 158 201 250 296 363
#     4  12  22  42  60  86 120 160 214 254 294 344
#
# _framework density 20.415167
#
# number of rings (size 3 to 8) (size 9 to 14) (size 15 to 20)
#    0.000    0.571    2.857    8.571    0.000    0.000 
#    0.000    0.000    0.000    3.429    0.000    2.000 
#    0.000    0.000    0.000    0.000    0.000    0.000 
#
# Total GULP energy -347347.193416 kJ/mol
# GULP energy per Si atom -12405.256908 kJ/mol
# Density = 2.036870 g / cm^3
# Si number density = 20.415167 Si / 1000 Ang^3
#
#
#
# Elastic Constant Matrix: (Units=GPa)
#
#
# Indices 1 2 3 4 5 6 
#
# 1 110.4859 45.9060 32.8331 0.0000 0.0000 0.0000
# 2 45.9060 99.3580 13.9375 0.0000 0.0000 0.0000
# 3 32.8331 13.9375 109.4953 0.0000 0.0000 0.0000
# 4 0.0000 0.0000 0.0000 23.7614 0.0000 0.0000
# 5 0.0000 0.0000 0.0000 0.0000 51.3591 0.0000
# 6 0.0000 0.0000 0.0000 0.0000 0.0000 3.8197
#
#
#
# Elastic Compliance Matrix: (Units=1/GPa)
#
#
# Indices 1 2 3 4 5 6 
#
# 1 0.012078 -0.005164 -0.002964 0.000000 0.000000 0.000000
# 2 -0.005164 0.012456 -0.000037 0.000000 0.000000 0.000000
# 3 -0.002964 -0.000037 0.010026 0.000000 0.000000 0.000000
# 4 0.000000 0.000000 0.000000 0.042085 0.000000 0.000000
# 5 0.000000 0.000000 0.000000 0.000000 0.019471 0.000000
# 6 0.000000 0.000000 0.000000 0.000000 0.000000 0.261803
#
#
# Mechanical properties :
#
#
# Convention : Reuss Voigt Hill
#
# Bulk Modulus (GPa) = 54.85810 56.07694 55.46752
# Shear Modulus (GPa) = 13.14662 30.89887 22.02274
#
# Velocity S-wave (km/s) = 2.54040 3.89463 3.28799
# Velocity P-wave (km/s) = 5.96107 6.91029 6.45316
#
# Compressibility (1/GPa) = 0.01822885
#
# Stress axis : x y z
#
# Youngs Moduli (GPa) = 82.79836 80.28356 99.73722
#
# Poissons Ratio (x) = 0.41461 0.29564
# Poissons Ratio (y) = 0.42760 0.00368
# Poissons Ratio (z) = 0.24543 0.00296
#
# Static dielectric constant tensor:
#      x y z
#    x 3.821160 0.000000 0.000000 
#    y 0.000000 3.378870 0.000000 
#    z 0.000000 0.000000 4.044810 
# 
# 
# High freq. dielectric constant tensor:
#      x y z
#    x 1.802940 0.000000 0.000000 
#    y 0.000000 1.753900 0.000000 
#    z 0.000000 0.000000 1.823670 
# 
# From -- ./inp_files/2420.got.cif
#   From: 2010.03.12/outbox.cif.g09.slc.cpg/sg33_2_cif.got.tgz:2420.got - 2010.04.14 01:49:19.
