data_PCOD8170304
_publ_section_title
;
Structure prediction by ZEFSAII (Michael W. Deem and Ramdas Pophale) SiO2 
 PCOD8170304
Probable space group: P M N 21
;
_chemical_formula_sum "Si O2"
_cell_formula_units_Z 28
_cell_length_a 18.907679
_cell_length_b 11.207363
_cell_length_c 6.549264
_cell_angle_alpha 90.000000
_cell_angle_beta 90.000000
_cell_angle_gamma 90.000000
_cell_volume 1387.823242
_symmetry_space_group_name_H-M "P M N 21"
_symmetry_group_IT_number 31
_symmetry_cell_setting 'orthorhombic'
loop_
_space_group_symop_operation_xyz
x,y,z
1/2-x,-y,1/2+z
-x,y,z
1/2+x,-y,1/2+z
loop_
_atom_site_type_symbol
_atom_site_label
_atom_site_fract_x
_atom_site_fract_y
_atom_site_fract_z
Si Si1 0.920171 0.808033 0.449790
Si Si2 0.917681 0.528325 0.489341
Si Si3 0.180699 0.930717 0.741449
Si Si4 0.180549 0.785906 0.125905
Si Si5 0.707409 0.838563 0.438716
Si Si6 0.179744 0.376186 0.188304
Si Si7 0.674928 0.429298 0.374609
O O1 0.910377 0.665550 0.425522
O O2 0.888347 0.860298 0.659618
O O3 0.879512 0.859102 0.252241
O O4 0.000000 0.850246 0.443264
O O5 0.880629 0.433941 0.333138
O O6 0.881069 0.523129 0.710152
O O7 0.000000 0.490745 0.507011
O O8 0.242417 0.923216 0.575176
O O9 0.162036 0.069105 0.798765
O O10 0.208281 0.868548 0.946092
O O11 0.244831 0.757606 0.284357
O O12 0.143469 0.665957 0.035490
O O13 0.659867 0.753194 0.587315
O O14 0.255081 0.361003 0.296841
O O15 0.198724 0.455853 0.995589
#
# Coordination Sequence:
#
# PCOD8170304 Si02
#       7
#     4   4   4   4   4   4   4
#     4  10  22  39  59  87 122 161 208 257 309 379
#     4  11  24  40  59  91 131 166 204 259 321 382
#     4  11  21  38  60  89 124 155 206 261 319 364
#     4  11  20  36  61  92 122 153 202 264 317 364
#     4  11  23  37  60  93 124 160 206 262 316 378
#     4  12  23  37  62  93 127 164 207 261 317 378
#     4  12  21  37  63  95 123 159 207 260 316 377
#
# _framework density 20.175481000000001
#
# number of rings (size 3 to 8) (size 9 to 14) (size 15 to 20)
#    0.000    0.857    7.143    1.714    0.000    1.714 
#    0.000    0.714    0.000    1.714    0.000    0.000 
#    0.000    0.000    0.000    0.000    0.000    0.000 
#
# Total GULP energy -346881.946801 kJ/mol
# GULP energy per Si atom -12388.640957 kJ/mol
# Density = 2.012956 g / cm^3
# Si number density = 20.175481 Si / 1000 Ang^3
#
#
#
# Elastic Constant Matrix: (Units=GPa)
#
#
# Indices 1 2 3 4 5 6 
#
# 1 98.3137 31.4665 42.8968 0.0000 0.0000 0.0000
# 2 31.4665 109.7607 47.9198 0.0000 0.0000 0.0000
# 3 42.8968 47.9198 117.3009 0.0000 0.0000 0.0000
# 4 0.0000 0.0000 0.0000 44.9572 0.0000 0.0000
# 5 0.0000 0.0000 0.0000 0.0000 12.0622 0.0000
# 6 0.0000 0.0000 0.0000 0.0000 0.0000 15.2033
#
#
#
# Elastic Compliance Matrix: (Units=1/GPa)
#
#
# Indices 1 2 3 4 5 6 
#
# 1 0.012427 -0.001921 -0.003760 0.000000 0.000000 0.000000
# 2 -0.001921 0.011385 -0.003949 0.000000 0.000000 0.000000
# 3 -0.003760 -0.003949 0.011513 0.000000 0.000000 0.000000
# 4 0.000000 0.000000 0.000000 0.022243 0.000000 0.000000
# 5 0.000000 0.000000 0.000000 0.000000 0.082903 0.000000
# 6 0.000000 0.000000 0.000000 0.000000 0.000000 0.065775
#
#
# Mechanical properties :
#
#
# Convention : Reuss Voigt Hill
#
# Bulk Modulus (GPa) = 62.24137 63.32685 62.78411
# Shear Modulus (GPa) = 21.65802 27.98404 24.82103
#
# Velocity S-wave (km/s) = 3.27996 3.72833 3.51131
# Velocity P-wave (km/s) = 6.72764 7.07037 6.90113
#
# Compressibility (1/GPa) = 0.01606648
#
# Stress axis : x y z
#
# Youngs Moduli (GPa) = 80.47098 87.83195 86.85787
#
# Poissons Ratio (x) = 0.16874 0.32656
# Poissons Ratio (y) = 0.15460 0.34297
# Poissons Ratio (z) = 0.30254 0.34681
#
# Static dielectric constant tensor:
#      x y z
#    x 3.314600 0.000000 0.000000 
#    y 0.000000 3.674230 0.000000 
#    z 0.000000 0.000000 4.060620 
# 
# 
# High freq. dielectric constant tensor:
#      x y z
#    x 1.739930 0.000000 0.000000 
#    y 0.000000 1.781160 0.000000 
#    z 0.000000 0.000000 1.814930 
# 
# From -- ./inp_files/979.got.cif
#   From: 2010.03.12/outbox.cif.g09.slc.cpg/sg31_1_cif.got.tgz:979.got - 2010.04.14 01:42:59.
