data_PCOD8170550
_publ_section_title
;
Structure prediction by ZEFSAII (Michael W. Deem and Ramdas Pophale) SiO2 
 PCOD8170550
Probable space group: P B A 2
;
_chemical_formula_sum "Si O2"
_cell_formula_units_Z 30
_cell_length_a 18.333620
_cell_length_b 13.056845
_cell_length_c 5.535114
_cell_angle_alpha 90.000000
_cell_angle_beta 90.000000
_cell_angle_gamma 90.000000
_cell_volume 1324.991353
_symmetry_space_group_name_H-M "P B A 2"
_symmetry_group_IT_number 32
_symmetry_cell_setting 'orthorhombic'
loop_
_space_group_symop_operation_xyz
x,y,z
-x,-y,z
1/2-x,1/2+y,z
1/2+x,1/2-y,z
loop_
_atom_site_type_symbol
_atom_site_label
_atom_site_fract_x
_atom_site_fract_y
_atom_site_fract_z
Si Si1 0.116399 0.008392 0.168260
Si Si2 0.732735 0.462659 0.527803
Si Si3 0.681117 0.815322 0.810221
Si Si4 0.998883 0.170257 0.127732
Si Si5 0.758077 0.106220 0.915618
Si Si6 0.000000 0.500000 0.454613
Si Si7 0.145290 0.514860 0.161130
Si Si8 0.966507 0.284207 0.622548
O O1 0.149976 0.035405 0.431763
O O2 0.074436 0.110024 0.084785
O O3 0.064692 0.910741 0.175576
O O4 0.184706 0.981647 0.999631
O O5 0.745372 0.370173 0.716583
O O6 0.750719 0.576491 0.634060
O O7 0.795064 0.437772 0.337150
O O8 0.711239 0.718887 0.962110
O O9 0.622268 0.778467 0.607827
O O10 0.633009 0.893997 0.969200
O O11 0.000094 0.236254 0.375772
O O12 0.988967 0.232493 0.878187
O O13 0.679966 0.089162 0.045298
O O14 0.070010 0.486724 0.284703
O O15 0.006288 0.598387 0.627609
#
# Coordination Sequence:
#
# PCOD8170550 Si02
#       8
#     4   4   4   4   4   2   4   4
#     4  10  23  42  72 104 153 180 241 319 364 454
#     4  10  22  43  66 102 142 187 245 300 379 417
#     4  11  22  44  75  99 145 192 257 291 375 455
#     4  11  26  45  73 111 145 190 249 297 389 435
#     4  10  22  43  72 103 139 196 243 306 374 443
#     4  12  26  50  72  98 158 186 262 306 370 454
#     4  10  24  46  67 105 137 198 237 315 368 435
#     4  12  26  46  74 104 142 203 242 301 371 444
#
# _framework density 22.641656999999999
#
# number of rings (size 3 to 8) (size 9 to 14) (size 15 to 20)
#    0.000    1.333    2.667    1.600    1.867    5.333 
#    9.600    0.000    0.000    0.000    0.000    0.000 
#    0.000    0.000    0.000    0.000    0.000    0.000 
#
# Total GULP energy -371701.550165 kJ/mol
# GULP energy per Si atom -12390.051672 kJ/mol
# Density = 2.259012 g / cm^3
# Si number density = 22.641657 Si / 1000 Ang^3
#
#
#
# Elastic Constant Matrix: (Units=GPa)
#
#
# Indices 1 2 3 4 5 6 
#
# 1 129.2381 63.0492 47.0132 0.0000 0.0000 0.0000
# 2 63.0492 151.9013 62.2688 0.0000 0.0000 0.0000
# 3 47.0132 62.2688 118.2168 0.0000 0.0000 0.0000
# 4 0.0000 0.0000 0.0000 28.7399 0.0000 0.0000
# 5 0.0000 0.0000 0.0000 0.0000 36.0962 0.0000
# 6 0.0000 0.0000 0.0000 0.0000 0.0000 31.5769
#
#
#
# Elastic Compliance Matrix: (Units=1/GPa)
#
#
# Indices 1 2 3 4 5 6 
#
# 1 0.010180 -0.003272 -0.002325 0.000000 0.000000 0.000000
# 2 -0.003272 0.009448 -0.003675 0.000000 0.000000 0.000000
# 3 -0.002325 -0.003675 0.011319 0.000000 0.000000 0.000000
# 4 0.000000 0.000000 0.000000 0.034795 0.000000 0.000000
# 5 0.000000 0.000000 0.000000 0.000000 0.027704 0.000000
# 6 0.000000 0.000000 0.000000 0.000000 0.000000 0.031669
#
#
# Mechanical properties :
#
#
# Convention : Reuss Voigt Hill
#
# Bulk Modulus (GPa) = 80.62785 82.66873 81.64829
# Shear Modulus (GPa) = 33.83106 34.41761 34.12434
#
# Velocity S-wave (km/s) = 3.86968 3.90308 3.88641
# Velocity P-wave (km/s) = 7.46013 7.54341 7.50189
#
# Compressibility (1/GPa) = 0.01240266
#
# Stress axis : x y z
#
# Youngs Moduli (GPa) = 98.23449 105.84203 88.34379
#
# Poissons Ratio (x) = 0.34635 0.20537
# Poissons Ratio (y) = 0.32145 0.32469
# Poissons Ratio (z) = 0.22837 0.38900
#
# Static dielectric constant tensor:
#      x y z
#    x 4.171570 0.000000 0.000000 
#    y 0.000000 4.038460 0.000000 
#    z 0.000000 0.000000 4.230140 
# 
# 
# High freq. dielectric constant tensor:
#      x y z
#    x 1.895640 0.000000 0.000000 
#    y 0.000000 1.891580 0.000000 
#    z 0.000000 0.000000 1.895200 
# 
# From -- ./inp_files/1465.got.cif
#   From: 2010.03.12/outbox.cif.g09.slc.cpg/sg32_1_cif.got.tgz:1465.got - 2010.04.14 01:46:39.
