data_PCOD8170669
_publ_section_title
;
Structure prediction by ZEFSAII (Michael W. Deem and Ramdas Pophale) SiO2 
 PCOD8170669
Probable space group: P N A 21
;
_chemical_formula_sum "Si O2"
_cell_formula_units_Z 20
_cell_length_a 26.870751
_cell_length_b 7.766047
_cell_length_c 4.921915
_cell_angle_alpha 90.000000
_cell_angle_beta 90.000000
_cell_angle_gamma 90.000000
_cell_volume 1027.102836
_symmetry_space_group_name_H-M "P N A 21"
_symmetry_group_IT_number 33
_symmetry_cell_setting 'orthorhombic'
loop_
_space_group_symop_operation_xyz
x,y,z
-x,-y,1/2+z
1/2-x,1/2+y,1/2+z
1/2+x,1/2-y,z
loop_
_atom_site_type_symbol
_atom_site_label
_atom_site_fract_x
_atom_site_fract_y
_atom_site_fract_z
Si Si1 0.873048 0.393766 0.754060
Si Si2 0.793461 0.890636 0.164732
Si Si3 0.373576 0.880580 0.218849
Si Si4 0.532432 0.001131 0.482250
Si Si5 0.293244 0.377733 0.660390
O O1 0.872907 0.526723 0.506590
O O2 0.930477 0.355857 0.850923
O O3 0.846624 0.215069 0.688438
O O4 0.845178 0.493393 0.002836
O O5 0.846408 0.802431 0.229197
O O6 0.749957 0.756436 0.226277
O O7 0.787609 0.056408 0.354786
O O8 0.790540 0.957988 0.857577
O O9 0.430723 0.852163 0.110625
O O10 0.500700 0.923867 0.734198
#
# Coordination Sequence:
#
# PCOD8170669 Si02
#       5
#     4   4   4   4   4
#     4  10  20  36  60  88 117 149 203 236 294 344
#     4  12  24  39  60  87 125 159 196 239 294 352
#     4  10  20  36  60  88 117 149 203 236 294 344
#     4  10  18  34  62  90 110 148 202 252 284 346
#     4  12  24  39  60  87 125 159 196 239 294 352
#
# _framework density 19.472246999999999
#
# number of rings (size 3 to 8) (size 9 to 14) (size 15 to 20)
#    1.200    0.000    2.000    6.000    0.000    0.000 
#    0.000    0.000    0.000    4.800    0.000    0.000 
#    0.000    0.000    0.000    0.000    0.000    0.000 
#
# Total GULP energy -247814.761210 kJ/mol
# GULP energy per Si atom -12390.738060 kJ/mol
# Density = 1.942793 g / cm^3
# Si number density = 19.472247 Si / 1000 Ang^3
#
#
#
# Elastic Constant Matrix: (Units=GPa)
#
#
# Indices 1 2 3 4 5 6 
#
# 1 119.9907 38.7821 25.0706 0.0000 0.0000 0.0000
# 2 38.7821 65.3151 15.8745 0.0000 0.0000 0.0000
# 3 25.0706 15.8745 97.8838 0.0000 0.0000 0.0000
# 4 0.0000 0.0000 0.0000 40.0832 0.0000 0.0000
# 5 0.0000 0.0000 0.0000 0.0000 25.4873 0.0000
# 6 0.0000 0.0000 0.0000 0.0000 0.0000 21.8258
#
#
#
# Elastic Compliance Matrix: (Units=1/GPa)
#
#
# Indices 1 2 3 4 5 6 
#
# 1 0.010598 -0.005864 -0.001763 0.000000 0.000000 0.000000
# 2 -0.005864 0.019183 -0.001609 0.000000 0.000000 0.000000
# 3 -0.001763 -0.001609 0.010929 0.000000 0.000000 0.000000
# 4 0.000000 0.000000 0.000000 0.024948 0.000000 0.000000
# 5 0.000000 0.000000 0.000000 0.000000 0.039235 0.000000
# 6 0.000000 0.000000 0.000000 0.000000 0.000000 0.045817
#
#
# Mechanical properties :
#
#
# Convention : Reuss Voigt Hill
#
# Bulk Modulus (GPa) = 44.97045 49.18266 47.07656
# Shear Modulus (GPa) = 28.31323 31.04342 29.67832
#
# Velocity S-wave (km/s) = 3.81731 3.99712 3.90825
# Velocity P-wave (km/s) = 6.52487 6.82754 6.67792
#
# Compressibility (1/GPa) = 0.02223682
#
# Stress axis : x y z
#
# Youngs Moduli (GPa) = 94.35992 52.12841 91.50129
#
# Poissons Ratio (x) = 0.30568 0.16135
# Poissons Ratio (y) = 0.55333 0.14724
# Poissons Ratio (z) = 0.16639 0.08388
#
# Static dielectric constant tensor:
#      x y z
#    x 3.709010 0.000000 0.000000 
#    y 0.000000 3.118980 0.000000 
#    z 0.000000 0.000000 3.763840 
# 
# 
# High freq. dielectric constant tensor:
#      x y z
#    x 1.762670 0.000000 0.000000 
#    y 0.000000 1.707060 0.000000 
#    z 0.000000 0.000000 1.789120 
# 
# From -- ./inp_files/2486.got.cif
#   From: 2010.03.12/outbox.cif.g09.slc.cpg/sg33_2_cif.got.tgz:2486.got - 2010.04.14 01:49:19.
