data_PCOD8170714
_publ_section_title
;
Structure prediction by ZEFSAII (Michael W. Deem and Ramdas Pophale) SiO2 
 PCOD8170714
Probable space group: P N A 21
;
_chemical_formula_sum "Si O2"
_cell_formula_units_Z 32
_cell_length_a 19.473659
_cell_length_b 7.512862
_cell_length_c 8.949353
_cell_angle_alpha 90.000000
_cell_angle_beta 90.000000
_cell_angle_gamma 90.000000
_cell_volume 1309.316411
_symmetry_space_group_name_H-M "P N A 21"
_symmetry_group_IT_number 33
_symmetry_cell_setting 'orthorhombic'
loop_
_space_group_symop_operation_xyz
x,y,z
-x,-y,1/2+z
1/2-x,1/2+y,1/2+z
1/2+x,1/2-y,z
loop_
_atom_site_type_symbol
_atom_site_label
_atom_site_fract_x
_atom_site_fract_y
_atom_site_fract_z
Si Si1 0.366352 0.060108 0.243950
Si Si2 0.535081 0.652262 0.807326
Si Si3 0.159532 0.876153 0.360724
Si Si4 0.723701 0.483785 0.081531
Si Si5 0.203761 0.407354 0.006961
Si Si6 0.185742 0.477655 0.336292
Si Si7 0.486259 0.336339 0.971972
Si Si8 0.550898 0.061235 0.468351
O O1 0.390316 0.265066 0.267288
O O2 0.291176 0.062549 0.176047
O O3 0.360619 0.965629 0.405125
O O4 0.422433 0.955207 0.140132
O O5 0.541648 0.454057 0.878025
O O6 0.495531 0.645514 0.647662
O O7 0.503476 0.784191 0.934624
O O8 0.223208 0.973068 0.441146
O O9 0.168706 0.671028 0.404023
O O10 0.086141 0.935317 0.426694
O O11 0.167681 0.911412 0.181625
O O12 0.690022 0.301412 0.027048
O O13 0.749523 0.596669 0.935073
O O14 0.202839 0.502377 0.165521
O O15 0.115016 0.372909 0.364457
O O16 0.483005 0.129527 0.920502
#
# Coordination Sequence:
#
# PCOD8170714 Si02
#       8
#     4   4   4   4   4   4   4   4
#     4   9  21  41  63  92 130 169 215 271 335 393
#     4  11  23  42  69  93 129 179 219 281 329 394
#     4   9  20  41  58  89 135 164 205 276 326 389
#     4   9  19  38  63  91 131 166 209 260 333 401
#     4  10  19  34  63  93 124 165 215 259 328 399
#     4   9  19  35  59  90 124 164 209 262 315 397
#     4  10  24  44  66  97 129 171 231 273 336 398
#     4   9  21  43  65  85 132 172 211 272 336 387
#
# _framework density 24.440237
#
# number of rings (size 3 to 8) (size 9 to 14) (size 15 to 20)
#    0.000    2.500    0.000    2.250    1.750    8.000 
#    6.750    1.250    5.500    0.000    0.000    0.000 
#    0.000    0.000    0.000    0.000    0.000    0.000 
#
# Total GULP energy -396445.292387 kJ/mol
# GULP energy per Si atom -12388.915387 kJ/mol
# Density = 2.438461 g / cm^3
# Si number density = 24.440237 Si / 1000 Ang^3
#
#
#
# Elastic Constant Matrix: (Units=GPa)
#
#
# Indices 1 2 3 4 5 6 
#
# 1 44.4772 8.3125 24.4300 0.0000 0.0000 0.0000
# 2 8.3125 52.2724 14.2637 0.0000 0.0000 0.0000
# 3 24.4300 14.2637 139.5860 0.0000 0.0000 0.0000
# 4 0.0000 0.0000 0.0000 40.7865 0.0000 0.0000
# 5 0.0000 0.0000 0.0000 0.0000 25.0742 0.0000
# 6 0.0000 0.0000 0.0000 0.0000 0.0000 24.2243
#
#
#
# Elastic Compliance Matrix: (Units=1/GPa)
#
#
# Indices 1 2 3 4 5 6 
#
# 1 0.025294 -0.002895 -0.004131 0.000000 0.000000 0.000000
# 2 -0.002895 0.020011 -0.001538 0.000000 0.000000 0.000000
# 3 -0.004131 -0.001538 0.008044 0.000000 0.000000 0.000000
# 4 0.000000 0.000000 0.000000 0.024518 0.000000 0.000000
# 5 0.000000 0.000000 0.000000 0.000000 0.039882 0.000000
# 6 0.000000 0.000000 0.000000 0.000000 0.000000 0.041281
#
#
# Mechanical properties :
#
#
# Convention : Reuss Voigt Hill
#
# Bulk Modulus (GPa) = 27.60897 36.70533 32.15715
# Shear Modulus (GPa) = 26.56320 30.63896 28.60108
#
# Velocity S-wave (km/s) = 3.30034 3.54450 3.42460
# Velocity P-wave (km/s) = 5.08370 5.63936 5.36872
#
# Compressibility (1/GPa) = 0.03622011
#
# Stress axis : x y z
#
# Youngs Moduli (GPa) = 39.53583 49.97345 124.31304
#
# Poissons Ratio (x) = 0.14467 0.51353
# Poissons Ratio (y) = 0.11446 0.19121
# Poissons Ratio (z) = 0.16332 0.07687
#
# Static dielectric constant tensor:
#      x y z
#    x 4.346700 0.000000 0.000000 
#    y 0.000000 4.049000 0.000000 
#    z 0.000000 0.000000 4.688760 
# 
# 
# High freq. dielectric constant tensor:
#      x y z
#    x 1.955980 0.000000 0.000000 
#    y 0.000000 1.946310 0.000000 
#    z 0.000000 0.000000 1.983030 
# 
# From -- ./inp_files/5204.got.cif
#   From: 2010.03.12/outbox.cif.g09.slc.cpg/sg33_3_cif.got.tgz:5204.got - 2010.04.14 01:49:19.
