data_PCOD8170685
_publ_section_title
;
Structure prediction by ZEFSAII (Michael W. Deem and Ramdas Pophale) SiO2 
 PCOD8170685
Probable space group: P N A 21
;
_chemical_formula_sum "Si O2"
_cell_formula_units_Z 28
_cell_length_a 9.118385
_cell_length_b 7.526344
_cell_length_c 18.199687
_cell_angle_alpha 90.000000
_cell_angle_beta 90.000000
_cell_angle_gamma 90.000000
_cell_volume 1249.009980
_symmetry_space_group_name_H-M "P N A 21"
_symmetry_group_IT_number 33
_symmetry_cell_setting 'orthorhombic'
loop_
_space_group_symop_operation_xyz
x,y,z
-x,-y,1/2+z
1/2-x,1/2+y,1/2+z
1/2+x,1/2-y,z
loop_
_atom_site_type_symbol
_atom_site_label
_atom_site_fract_x
_atom_site_fract_y
_atom_site_fract_z
Si Si1 0.590741 0.325518 0.695120
Si Si2 0.656857 0.777742 0.293746
Si Si3 0.887903 0.410259 0.182183
Si Si4 0.611825 0.004174 0.841308
Si Si5 0.801340 0.389517 0.494463
Si Si6 0.864503 0.734618 0.589422
Si Si7 0.995358 0.075414 0.542047
O O1 0.448064 0.351978 0.746319
O O2 0.737631 0.389231 0.737934
O O3 0.570110 0.439516 0.622616
O O4 0.609177 0.121182 0.671541
O O5 0.552455 0.910604 0.339700
O O6 0.763455 0.658709 0.344632
O O7 0.863448 0.378160 0.269791
O O8 0.773189 0.326517 0.126693
O O9 0.040069 0.323939 0.158793
O O10 0.625549 0.887857 0.914173
O O11 0.831278 0.568204 0.538474
O O12 0.625001 0.372338 0.485531
O O13 0.866423 0.220820 0.538006
O O14 0.933607 0.877093 0.531562
#
# Coordination Sequence:
#
# PCOD8170685 Si02
#       7
#     4   4   4   4   4   4   4
#     4  10  18  39  67 103 124 171 232 291 348 405
#     4   8  18  36  67  94 132 173 220 283 349 413
#     4  10  22  41  68  99 134 174 241 290 337 425
#     4  10  23  42  65 101 143 181 231 290 360 422
#     4  12  28  45  67 103 146 190 232 286 360 429
#     4  12  24  44  71 103 132 182 241 292 349 416
#     4  12  25  43  71  97 143 181 231 298 347 412
#
# _framework density 22.417753000000001
#
# number of rings (size 3 to 8) (size 9 to 14) (size 15 to 20)
#    0.000    1.714    2.857    3.429    4.000    1.143 
#    0.000    0.000    0.000    0.000    0.000    0.000 
#    0.000    0.000    0.000    0.000    0.000    0.000 
#
# Total GULP energy -347060.986083 kJ/mol
# GULP energy per Si atom -12395.035217 kJ/mol
# Density = 2.236673 g / cm^3
# Si number density = 22.417753 Si / 1000 Ang^3
#
#
#
# Elastic Constant Matrix: (Units=GPa)
#
#
# Indices 1 2 3 4 5 6 
#
# 1 112.8434 25.2007 9.8986 0.0000 0.0000 0.0000
# 2 25.2007 99.4765 12.9346 0.0000 0.0000 0.0000
# 3 9.8986 12.9346 76.4906 0.0000 0.0000 0.0000
# 4 0.0000 0.0000 0.0000 24.1374 0.0000 0.0000
# 5 0.0000 0.0000 0.0000 0.0000 23.5781 0.0000
# 6 0.0000 0.0000 0.0000 0.0000 0.0000 15.4822
#
#
#
# Elastic Compliance Matrix: (Units=1/GPa)
#
#
# Indices 1 2 3 4 5 6 
#
# 1 0.009445 -0.002284 -0.000836 0.000000 0.000000 0.000000
# 2 -0.002284 0.010831 -0.001536 0.000000 0.000000 0.000000
# 3 -0.000836 -0.001536 0.013441 0.000000 0.000000 0.000000
# 4 0.000000 0.000000 0.000000 0.041430 0.000000 0.000000
# 5 0.000000 0.000000 0.000000 0.000000 0.042412 0.000000
# 6 0.000000 0.000000 0.000000 0.000000 0.000000 0.064590
#
#
# Mechanical properties :
#
#
# Convention : Reuss Voigt Hill
#
# Bulk Modulus (GPa) = 40.97441 42.76426 41.86933
# Shear Modulus (GPa) = 25.05046 28.69131 26.87089
#
# Velocity S-wave (km/s) = 3.34644 3.58138 3.46590
# Velocity P-wave (km/s) = 5.76618 6.01824 5.89356
#
# Compressibility (1/GPa) = 0.02440548
#
# Stress axis : x y z
#
# Youngs Moduli (GPa) = 105.87311 92.32784 74.39686
#
# Poissons Ratio (x) = 0.21088 0.06220
# Poissons Ratio (y) = 0.24182 0.11427
# Poissons Ratio (z) = 0.08852 0.14181
#
# Static dielectric constant tensor:
#      x y z
#    x 4.421580 0.000000 0.000000 
#    y 0.000000 3.842230 0.000000 
#    z 0.000000 0.000000 3.924110 
# 
# 
# High freq. dielectric constant tensor:
#      x y z
#    x 1.905850 0.000000 0.000000 
#    y 0.000000 1.867130 0.000000 
#    z 0.000000 0.000000 1.864290 
# 
# From -- ./inp_files/8458.got.cif
#   From: 2010.03.12/outbox.cif.g09.slc.cpg/sg33_5_cif.got.tgz:8458.got - 2010.04.14 01:49:19.
