data_PCOD8170778
_publ_section_title
;
Structure prediction by ZEFSAII (Michael W. Deem and Ramdas Pophale) SiO2 
 PCOD8170778
Probable space group: P N A 21
;
_chemical_formula_sum "Si O2"
_cell_formula_units_Z 32
_cell_length_a 17.629881
_cell_length_b 10.992055
_cell_length_c 7.642346
_cell_angle_alpha 90.000000
_cell_angle_beta 90.000000
_cell_angle_gamma 90.000000
_cell_volume 1480.999697
_symmetry_space_group_name_H-M "P N A 21"
_symmetry_group_IT_number 33
_symmetry_cell_setting 'orthorhombic'
loop_
_space_group_symop_operation_xyz
x,y,z
-x,-y,1/2+z
1/2-x,1/2+y,1/2+z
1/2+x,1/2-y,z
loop_
_atom_site_type_symbol
_atom_site_label
_atom_site_fract_x
_atom_site_fract_y
_atom_site_fract_z
Si Si1 0.668892 0.768188 0.963760
Si Si2 0.070553 0.122600 0.732366
Si Si3 0.915544 0.242144 0.817637
Si Si4 0.434189 0.348446 0.165897
Si Si5 0.400626 0.985258 0.475552
Si Si6 0.157264 0.262020 0.441195
Si Si7 0.565915 0.012069 0.374908
Si Si8 0.903030 0.769392 0.568410
O O1 0.618700 0.700819 0.819437
O O2 0.753587 0.719792 0.959578
O O3 0.641962 0.735555 0.158463
O O4 0.664515 0.915354 0.934803
O O5 0.126604 0.161069 0.575823
O O6 0.998425 0.212563 0.739103
O O7 0.041786 0.986315 0.702902
O O8 0.109977 0.122646 0.926546
O O9 0.915088 0.372867 0.917318
O O10 0.891152 0.152901 0.976558
O O11 0.510271 0.267775 0.141987
O O12 0.412114 0.962792 0.679103
O O13 0.476952 0.040162 0.393962
O O14 0.382603 0.844627 0.433313
O O15 0.115329 0.390483 0.486324
O O16 0.148308 0.217161 0.239912
#
# Coordination Sequence:
#
# PCOD8170778 Si02
#       8
#     4   4   4   4   4   4   4   4
#     4  11  25  41  63  99 138 174 210 266 345 408
#     4  11  24  41  69  95 131 173 229 277 332 391
#     4  10  23  42  68  98 123 170 232 281 326 384
#     4  11  24  41  69  95 131 173 229 277 332 391
#     4  10  19  38  68  94 121 158 223 276 317 384
#     4  11  25  41  63  99 138 174 210 266 345 408
#     4  10  19  38  68  94 121 158 223 276 317 384
#     4  10  23  42  68  98 123 170 232 281 326 384
#
# _framework density 21.607028
#
# number of rings (size 3 to 8) (size 9 to 14) (size 15 to 20)
#    0.000    1.500    2.500    3.750    7.000    4.000 
#    0.000    2.500    0.000    0.000    0.000    0.000 
#    0.000    0.000    0.000    0.000    0.000    0.000 
#
# Total GULP energy -396474.119314 kJ/mol
# GULP energy per Si atom -12389.816229 kJ/mol
# Density = 2.155785 g / cm^3
# Si number density = 21.607028 Si / 1000 Ang^3
#
#
#
# Elastic Constant Matrix: (Units=GPa)
#
#
# Indices 1 2 3 4 5 6 
#
# 1 61.4686 18.8403 26.5277 0.0000 0.0000 0.0000
# 2 18.8403 88.4855 32.2189 0.0000 0.0000 0.0000
# 3 26.5277 32.2189 101.2121 0.0000 0.0000 0.0000
# 4 0.0000 0.0000 0.0000 35.7561 0.0000 0.0000
# 5 0.0000 0.0000 0.0000 0.0000 25.3422 0.0000
# 6 0.0000 0.0000 0.0000 0.0000 0.0000 9.3294
#
#
#
# Elastic Compliance Matrix: (Units=1/GPa)
#
#
# Indices 1 2 3 4 5 6 
#
# 1 0.018820 -0.002501 -0.004137 0.000000 0.000000 0.000000
# 2 -0.002501 0.013115 -0.003519 0.000000 0.000000 0.000000
# 3 -0.004137 -0.003519 0.012085 0.000000 0.000000 0.000000
# 4 0.000000 0.000000 0.000000 0.027967 0.000000 0.000000
# 5 0.000000 0.000000 0.000000 0.000000 0.039460 0.000000
# 6 0.000000 0.000000 0.000000 0.000000 0.000000 0.107188
#
#
# Mechanical properties :
#
#
# Convention : Reuss Voigt Hill
#
# Bulk Modulus (GPa) = 42.18320 45.14889 43.66605
# Shear Modulus (GPa) = 20.25511 25.65750 22.95631
#
# Velocity S-wave (km/s) = 3.06507 3.44969 3.26305
# Velocity P-wave (km/s) = 5.66494 6.06696 5.86939
#
# Compressibility (1/GPa) = 0.02370612
#
# Stress axis : x y z
#
# Youngs Moduli (GPa) = 53.13421 76.24678 82.74840
#
# Poissons Ratio (x) = 0.19069 0.34230
# Poissons Ratio (y) = 0.13289 0.29123
# Poissons Ratio (z) = 0.21980 0.26835
#
# Static dielectric constant tensor:
#      x y z
#    x 3.469690 0.000000 0.000000 
#    y 0.000000 4.379740 0.000000 
#    z 0.000000 0.000000 4.200520 
# 
# 
# High freq. dielectric constant tensor:
#      x y z
#    x 1.805110 0.000000 0.000000 
#    y 0.000000 1.857320 0.000000 
#    z 0.000000 0.000000 1.867630 
# 
# From -- ./inp_files/4855.got.cif
#   From: 2010.03.12/outbox.cif.g09.slc.cpg/sg33_3_cif.got.tgz:4855.got - 2010.04.14 01:49:19.
