data_PCOD8170845
_publ_section_title
;
Structure prediction by ZEFSAII (Michael W. Deem and Ramdas Pophale) SiO2 
 PCOD8170845
Probable space group: P N A 21
;
_chemical_formula_sum "Si O2"
_cell_formula_units_Z 28
_cell_length_a 12.563038
_cell_length_b 12.969666
_cell_length_c 8.690336
_cell_angle_alpha 90.000000
_cell_angle_beta 90.000000
_cell_angle_gamma 90.000000
_cell_volume 1415.989502
_symmetry_space_group_name_H-M "P N A 21"
_symmetry_group_IT_number 33
_symmetry_cell_setting 'orthorhombic'
loop_
_space_group_symop_operation_xyz
x,y,z
-x,-y,1/2+z
1/2-x,1/2+y,1/2+z
1/2+x,1/2-y,z
loop_
_atom_site_type_symbol
_atom_site_label
_atom_site_fract_x
_atom_site_fract_y
_atom_site_fract_z
Si Si1 0.482681 0.182944 0.513820
Si Si2 0.582089 0.398638 0.522131
Si Si3 0.658899 0.754495 0.281328
Si Si4 0.722761 0.818542 0.858836
Si Si5 0.783095 0.627905 0.033531
Si Si6 0.219981 0.108391 0.023962
Si Si7 0.509633 0.406347 0.866200
O O1 0.514638 0.299281 0.475472
O O2 0.415507 0.177946 0.670530
O O3 0.400833 0.147004 0.379752
O O4 0.588640 0.114013 0.527401
O O5 0.706424 0.379724 0.485440
O O6 0.566485 0.422036 0.701616
O O7 0.540435 0.486145 0.411489
O O8 0.708922 0.835516 0.397734
O O9 0.584340 0.676056 0.373245
O O10 0.748243 0.687750 0.189846
O O11 0.739160 0.695730 0.890293
O O12 0.757186 0.843129 0.688022
O O13 0.734465 0.514712 0.024718
O O14 0.097024 0.130537 0.988604
#
# Coordination Sequence:
#
# PCOD8170845 Si02
#       7
#     4   4   4   4   4   4   4
#     4   9  19  39  58  78 118 160 193 243 303 350
#     4  10  20  36  62  86 115 159 201 247 304 358
#     4  10  21  38  59  86 117 155 198 248 299 360
#     4  10  21  38  58  88 121 154 202 249 296 364
#     4  10  22  42  62  84 121 161 198 247 303 360
#     4  12  24  38  61  91 119 155 204 248 303 369
#     4  11  21  37  60  87 119 156 202 254 304 355
#
# _framework density 19.774158
#
# number of rings (size 3 to 8) (size 9 to 14) (size 15 to 20)
#    0.000    1.714    0.000    7.714    0.000    5.714 
#    0.000    4.286    0.000    0.000    0.000    0.000 
#    0.000    0.000    0.000    0.000    0.000    0.000 
#
# Total GULP energy -347144.616528 kJ/mol
# GULP energy per Si atom -12398.022019 kJ/mol
# Density = 1.972915 g / cm^3
# Si number density = 19.774158 Si / 1000 Ang^3
#
#
#
# Elastic Constant Matrix: (Units=GPa)
#
#
# Indices 1 2 3 4 5 6 
#
# 1 132.7663 13.7892 36.2192 0.0000 0.0000 0.0000
# 2 13.7892 74.3195 44.4279 0.0000 0.0000 0.0000
# 3 36.2192 44.4279 81.0547 0.0000 0.0000 0.0000
# 4 0.0000 0.0000 0.0000 34.0529 0.0000 0.0000
# 5 0.0000 0.0000 0.0000 0.0000 34.3858 0.0000
# 6 0.0000 0.0000 0.0000 0.0000 0.0000 17.8519
#
#
#
# Elastic Compliance Matrix: (Units=1/GPa)
#
#
# Indices 1 2 3 4 5 6 
#
# 1 0.008632 0.001047 -0.004431 0.000000 0.000000 0.000000
# 2 0.001047 0.020140 -0.011507 0.000000 0.000000 0.000000
# 3 -0.004431 -0.011507 0.020625 0.000000 0.000000 0.000000
# 4 0.000000 0.000000 0.000000 0.029366 0.000000 0.000000
# 5 0.000000 0.000000 0.000000 0.000000 0.029082 0.000000
# 6 0.000000 0.000000 0.000000 0.000000 0.000000 0.056016
#
#
# Mechanical properties :
#
#
# Convention : Reuss Voigt Hill
#
# Bulk Modulus (GPa) = 50.98215 53.00143 51.99179
# Shear Modulus (GPa) = 24.97726 30.17172 27.57449
#
# Velocity S-wave (km/s) = 3.55790 3.91041 3.73831
# Velocity P-wave (km/s) = 6.53578 6.87386 6.70695
#
# Compressibility (1/GPa) = 0.01961471
#
# Stress axis : x y z
#
# Youngs Moduli (GPa) = 115.84604 49.65224 48.48507
#
# Poissons Ratio (x) = -0.05201 0.21486
# Poissons Ratio (y) = -0.12135 0.55793
# Poissons Ratio (z) = 0.51336 0.57136
#
# Static dielectric constant tensor:
#      x y z
#    x 4.155180 0.000000 0.000000 
#    y 0.000000 3.489730 0.000000 
#    z 0.000000 0.000000 3.679860 
# 
# 
# High freq. dielectric constant tensor:
#      x y z
#    x 1.792720 0.000000 0.000000 
#    y 0.000000 1.757370 0.000000 
#    z 0.000000 0.000000 1.764400 
# 
# From -- ./inp_files/3836.got.cif
#   From: 2010.03.12/outbox.cif.g09.slc.cpg/sg33_2_cif.got.tgz:3836.got - 2010.04.14 01:49:19.
