data_PCOD8170742
_publ_section_title
;
Structure prediction by ZEFSAII (Michael W. Deem and Ramdas Pophale) SiO2 
 PCOD8170742
Probable space group: P N A 21
;
_chemical_formula_sum "Si O2"
_cell_formula_units_Z 32
_cell_length_a 12.533446
_cell_length_b 16.696093
_cell_length_c 7.654669
_cell_angle_alpha 90.000000
_cell_angle_beta 90.000000
_cell_angle_gamma 90.000000
_cell_volume 1601.812820
_symmetry_space_group_name_H-M "P N A 21"
_symmetry_group_IT_number 33
_symmetry_cell_setting 'orthorhombic'
loop_
_space_group_symop_operation_xyz
x,y,z
-x,-y,1/2+z
1/2-x,1/2+y,1/2+z
1/2+x,1/2-y,z
loop_
_atom_site_type_symbol
_atom_site_label
_atom_site_fract_x
_atom_site_fract_y
_atom_site_fract_z
Si Si1 0.295933 0.498053 0.993660
Si Si2 0.698284 0.207284 0.172439
Si Si3 0.080144 0.440473 0.125322
Si Si4 0.136269 0.119852 0.204252
Si Si5 0.071084 0.254753 0.840809
Si Si6 0.919671 0.151353 0.076426
Si Si7 0.445838 0.101492 0.815616
Si Si8 0.200608 0.112464 0.804096
O O1 0.310563 0.557704 0.833628
O O2 0.172460 0.471721 0.993946
O O3 0.372962 0.422576 0.964407
O O4 0.325223 0.536909 0.181884
O O5 0.631506 0.130306 0.248331
O O6 0.674502 0.291595 0.265339
O O7 0.824620 0.192076 0.186337
O O8 0.662521 0.212114 0.970019
O O9 0.034687 0.514055 0.236297
O O10 0.980529 0.404132 0.018604
O O11 0.007617 0.118664 0.214214
O O12 0.168149 0.097338 0.005054
O O13 0.131674 0.187338 0.725667
O O14 0.021430 0.328793 0.729379
O O15 0.973186 0.215440 0.947896
O O16 0.325672 0.131611 0.796777
#
# Coordination Sequence:
#
# PCOD8170742 Si02
#       8
#     4   4   4   4   4   4   4   4
#     4  10  21  37  53  85 120 137 189 239 274 327
#     4   8  16  35  52  79 110 143 189 224 280 326
#     4   9  20  35  57  81 112 146 182 238 278 325
#     4  10  21  34  60  83 104 159 184 224 287 335
#     4   9  17  32  56  80 104 153 184 217 284 333
#     4   9  18  33  57  78 109 150 181 231 272 339
#     4  10  19  36  58  82 109 148 187 227 284 328
#     4   9  20  36  55  78 116 144 182 236 271 327
#
# _framework density 19.977366
#
# number of rings (size 3 to 8) (size 9 to 14) (size 15 to 20)
#    0.000    3.000    0.000    1.500    5.250    0.000 
#    2.250    1.250    0.000    1.500    0.000    0.000 
#    0.000    0.000    0.000    0.000    0.000    0.000 
#
# Total GULP energy -396475.668393 kJ/mol
# GULP energy per Si atom -12389.864637 kJ/mol
# Density = 1.993190 g / cm^3
# Si number density = 19.977366 Si / 1000 Ang^3
#
#
#
# Elastic Constant Matrix: (Units=GPa)
#
#
# Indices 1 2 3 4 5 6 
#
# 1 78.0352 20.6442 10.7945 0.0000 0.0000 0.0000
# 2 20.6442 110.9603 25.1339 0.0000 0.0000 0.0000
# 3 10.7945 25.1339 43.4190 0.0000 0.0000 0.0000
# 4 0.0000 0.0000 0.0000 27.0657 0.0000 0.0000
# 5 0.0000 0.0000 0.0000 0.0000 14.6764 0.0000
# 6 0.0000 0.0000 0.0000 0.0000 0.0000 38.3584
#
#
#
# Elastic Compliance Matrix: (Units=1/GPa)
#
#
# Indices 1 2 3 4 5 6 
#
# 1 0.013661 -0.002040 -0.002215 0.000000 0.000000 0.000000
# 2 -0.002040 0.010677 -0.005673 0.000000 0.000000 0.000000
# 3 -0.002215 -0.005673 0.026866 0.000000 0.000000 0.000000
# 4 0.000000 0.000000 0.000000 0.036947 0.000000 0.000000
# 5 0.000000 0.000000 0.000000 0.000000 0.068137 0.000000
# 6 0.000000 0.000000 0.000000 0.000000 0.000000 0.026070
#
#
# Mechanical properties :
#
#
# Convention : Reuss Voigt Hill
#
# Bulk Modulus (GPa) = 31.90123 38.39551 35.14837
# Shear Modulus (GPa) = 23.51127 27.74288 25.62708
#
# Velocity S-wave (km/s) = 3.43431 3.73059 3.58551
# Velocity P-wave (km/s) = 5.63288 6.14960 5.89691
#
# Compressibility (1/GPa) = 0.03134675
#
# Stress axis : x y z
#
# Youngs Moduli (GPa) = 73.20205 93.66085 37.22128
#
# Poissons Ratio (x) = 0.19105 0.08246
# Poissons Ratio (y) = 0.14932 0.21117
# Poissons Ratio (z) = 0.16218 0.53137
#
# Static dielectric constant tensor:
#      x y z
#    x 3.809290 0.000000 0.000000 
#    y 0.000000 4.133180 0.000000 
#    z 0.000000 0.000000 2.997310 
# 
# 
# High freq. dielectric constant tensor:
#      x y z
#    x 1.794990 0.000000 0.000000 
#    y 0.000000 1.805640 0.000000 
#    z 0.000000 0.000000 1.708230 
# 
# From -- ./inp_files/4054.got.cif
#   From: 2010.03.12/outbox.cif.g09.slc.cpg/sg33_3_cif.got.tgz:4054.got - 2010.04.14 01:49:19.
