data_PCOD8170547
_publ_section_title
;
Structure prediction by ZEFSAII (Michael W. Deem and Ramdas Pophale) SiO2 
 PCOD8170547
Probable space group: P B A 2
;
_chemical_formula_sum "Si O2"
_cell_formula_units_Z 18
_cell_length_a 9.632016
_cell_length_b 13.620454
_cell_length_c 5.852150
_cell_angle_alpha 90.000000
_cell_angle_beta 90.000000
_cell_angle_gamma 90.000000
_cell_volume 767.757784
_symmetry_space_group_name_H-M "P B A 2"
_symmetry_group_IT_number 32
_symmetry_cell_setting 'orthorhombic'
loop_
_space_group_symop_operation_xyz
x,y,z
-x,-y,z
1/2-x,1/2+y,z
1/2+x,1/2-y,z
loop_
_atom_site_type_symbol
_atom_site_label
_atom_site_fract_x
_atom_site_fract_y
_atom_site_fract_z
Si Si1 0.840830 0.360691 0.465420
Si Si2 0.500000 0.000000 0.786307
Si Si3 0.141586 0.175774 0.847937
Si Si4 0.374506 0.288718 0.096962
Si Si5 0.257673 0.493934 0.088493
O O1 0.951993 0.404675 0.643454
O O2 0.702354 0.317270 0.591059
O O3 0.918181 0.274686 0.321120
O O4 0.792167 0.451554 0.314081
O O5 0.375706 0.959412 0.942937
O O6 0.234300 0.239724 0.015772
O O7 0.985331 0.215456 0.887300
O O8 0.146682 0.062874 0.930832
O O9 0.347176 0.400701 0.169103
#
# Coordination Sequence:
#
# PCOD8170547 Si02
#       5
#     4   2   4   4   4
#     4  10  24  44  73 107 139 192 246 287 383 436
#     4  10  22  42  72 104 142 186 242 300 364 446
#     4  10  25  44  66 105 140 183 240 294 364 433
#     4  11  25  45  72 101 146 183 239 305 355 440
#     4  10  23  45  69  98 145 184 234 303 358 434
#
# _framework density 23.444891999999999
#
# number of rings (size 3 to 8) (size 9 to 14) (size 15 to 20)
#    0.000    1.778    0.000    1.333   12.444    7.111 
#    0.000    8.889    0.000    0.000    0.000    0.000 
#    0.000    0.000    0.000    0.000    0.000    0.000 
#
# Total GULP energy -223177.187060 kJ/mol
# GULP energy per Si atom -12398.732614 kJ/mol
# Density = 2.339153 g / cm^3
# Si number density = 23.444892 Si / 1000 Ang^3
#
#
#
# Elastic Constant Matrix: (Units=GPa)
#
#
# Indices 1 2 3 4 5 6 
#
# 1 93.3797 35.8993 26.2076 0.0000 0.0000 0.0000
# 2 35.8993 124.9459 37.9935 0.0000 0.0000 0.0000
# 3 26.2076 37.9935 115.2097 0.0000 0.0000 0.0000
# 4 0.0000 0.0000 0.0000 33.2432 0.0000 0.0000
# 5 0.0000 0.0000 0.0000 0.0000 38.2621 0.0000
# 6 0.0000 0.0000 0.0000 0.0000 0.0000 22.8766
#
#
#
# Elastic Compliance Matrix: (Units=1/GPa)
#
#
# Indices 1 2 3 4 5 6 
#
# 1 0.012375 -0.003000 -0.001826 0.000000 0.000000 0.000000
# 2 -0.003000 0.009623 -0.002491 0.000000 0.000000 0.000000
# 3 -0.001826 -0.002491 0.009917 0.000000 0.000000 0.000000
# 4 0.000000 0.000000 0.000000 0.030081 0.000000 0.000000
# 5 0.000000 0.000000 0.000000 0.000000 0.026136 0.000000
# 6 0.000000 0.000000 0.000000 0.000000 0.000000 0.043713
#
#
# Mechanical properties :
#
#
# Convention : Reuss Voigt Hill
#
# Bulk Modulus (GPa) = 57.86826 59.30400 58.58613
# Shear Modulus (GPa) = 32.84336 34.43872 33.64104
#
# Velocity S-wave (km/s) = 3.74689 3.83681 3.79211
# Velocity P-wave (km/s) = 6.59205 6.70657 6.64956
#
# Compressibility (1/GPa) = 0.01728063
#
# Stress axis : x y z
#
# Youngs Moduli (GPa) = 80.80942 103.91800 100.84167
#
# Poissons Ratio (x) = 0.31180 0.18409
# Poissons Ratio (y) = 0.24246 0.25119
# Poissons Ratio (z) = 0.14752 0.25885
#
# Static dielectric constant tensor:
#      x y z
#    x 4.078900 0.000000 0.000000 
#    y 0.000000 4.363780 0.000000 
#    z 0.000000 0.000000 4.286170 
# 
# 
# High freq. dielectric constant tensor:
#      x y z
#    x 1.917500 0.000000 0.000000 
#    y 0.000000 1.938520 0.000000 
#    z 0.000000 0.000000 1.922540 
# 
# From -- ./inp_files/385.got.cif
#   From: 2010.03.12/outbox.cif.g09.slc.cpg/sg32_1_cif.got.tgz:385.got - 2010.04.14 01:46:39.
