data_PCOD8170000
_publ_section_title
;
Structure prediction by ZEFSAII (Michael W. Deem and Ramdas Pophale) SiO2 
 PCOD8170000
Probable space group: P M N 21
;
_chemical_formula_sum "Si O2"
_cell_formula_units_Z 32
_cell_length_a 8.666439
_cell_length_b 12.064587
_cell_length_c 15.322659
_cell_angle_alpha 90.000000
_cell_angle_beta 90.000000
_cell_angle_gamma 90.000000
_cell_volume 1602.091369
_symmetry_space_group_name_H-M "P M N 21"
_symmetry_group_IT_number 31
_symmetry_cell_setting 'orthorhombic'
loop_
_space_group_symop_operation_xyz
x,y,z
1/2-x,-y,1/2+z
-x,y,z
1/2+x,-y,1/2+z
loop_
_atom_site_type_symbol
_atom_site_label
_atom_site_fract_x
_atom_site_fract_y
_atom_site_fract_z
Si Si1 0.680267 0.990024 0.665890
Si Si2 0.682188 0.614947 0.017902
Si Si3 0.171623 0.751015 0.421400
Si Si4 0.816959 0.990294 0.362001
Si Si5 0.817356 0.530775 0.678097
Si Si6 0.172068 0.764496 0.623178
Si Si7 0.817035 0.858804 0.008993
Si Si8 0.320345 0.533234 0.369362
O O1 0.500000 0.010192 0.669832
O O2 0.748689 0.007488 0.762974
O O3 0.750206 0.075129 0.593911
O O4 0.713356 0.865430 0.636988
O O5 0.500000 0.633837 0.022957
O O6 0.747909 0.550066 0.102694
O O7 0.764445 0.732723 0.013716
O O8 0.720509 0.543255 0.932729
O O9 0.235496 0.873217 0.401752
O O10 0.161361 0.731324 0.523253
O O11 0.290651 0.662944 0.383103
O O12 0.000000 0.735639 0.380213
O O13 0.000000 0.006346 0.365021
O O14 0.743610 0.087964 0.419233
O O15 0.756025 0.656776 0.670274
O O16 0.763203 0.488293 0.771470
O O17 0.000000 0.534007 0.667480
O O18 0.000000 0.794853 0.658041
O O19 0.000000 0.864678 0.007553
O O20 0.500000 0.505829 0.382425
#
# Coordination Sequence:
#
# PCOD8170000 Si02
#       8
#     4   4   4   4   4   4   4   4
#     4  10  23  40  59  88 123 154 196 250 299 347
#     4  11  23  43  64  85 119 163 203 240 292 364
#     4  10  20  38  64  87 114 155 202 245 292 353
#     4  10  22  41  62  87 120 161 203 242 292 360
#     4   9  21  40  60  86 120 156 196 241 292 354
#     4  10  19  38  64  85 112 154 201 245 292 352
#     4  11  24  41  60  89 125 157 195 252 304 348
#     4  11  23  39  61  91 123 154 196 251 301 346
#
# _framework density 19.973890999999998
#
# number of rings (size 3 to 8) (size 9 to 14) (size 15 to 20)
#    0.000    1.750    2.500    1.125    3.500    2.000 
#    0.000    2.500    0.000    0.000    0.000    0.000 
#    0.000    0.000    0.000    0.000    0.000    0.000 
#
# Total GULP energy -396829.072926 kJ/mol
# GULP energy per Si atom -12400.908529 kJ/mol
# Density = 1.992843 g / cm^3
# Si number density = 19.973891 Si / 1000 Ang^3
#
#
#
# Elastic Constant Matrix: (Units=GPa)
#
#
# Indices 1 2 3 4 5 6 
#
# 1 31.1211 12.1717 21.8587 0.0000 0.0000 0.0000
# 2 12.1717 122.5002 40.1782 0.0000 0.0000 0.0000
# 3 21.8587 40.1782 124.0768 0.0000 0.0000 0.0000
# 4 0.0000 0.0000 0.0000 32.2900 0.0000 0.0000
# 5 0.0000 0.0000 0.0000 0.0000 14.1163 0.0000
# 6 0.0000 0.0000 0.0000 0.0000 0.0000 34.2953
#
#
#
# Elastic Compliance Matrix: (Units=1/GPa)
#
#
# Indices 1 2 3 4 5 6 
#
# 1 0.036991 -0.001721 -0.005960 0.000000 0.000000 0.000000
# 2 -0.001721 0.009213 -0.002680 0.000000 0.000000 0.000000
# 3 -0.005960 -0.002680 0.009977 0.000000 0.000000 0.000000
# 4 0.000000 0.000000 0.000000 0.030969 0.000000 0.000000
# 5 0.000000 0.000000 0.000000 0.000000 0.070840 0.000000
# 6 0.000000 0.000000 0.000000 0.000000 0.000000 0.029159
#
#
# Mechanical properties :
#
#
# Convention : Reuss Voigt Hill
#
# Bulk Modulus (GPa) = 28.20025 47.34616 37.77321
# Shear Modulus (GPa) = 22.75916 29.70627 26.23272
#
# Velocity S-wave (km/s) = 3.37923 3.86068 3.62795
# Velocity P-wave (km/s) = 5.41985 6.60520 6.04166
#
# Compressibility (1/GPa) = 0.03546068
#
# Stress axis : x y z
#
# Youngs Moduli (GPa) = 27.03333 108.53843 100.22715
#
# Poissons Ratio (x) = 0.18678 0.59731
# Poissons Ratio (y) = 0.04652 0.26864
# Poissons Ratio (z) = 0.16111 0.29091
#
# Static dielectric constant tensor:
#      x y z
#    x 3.437260 0.000000 0.000000 
#    y 0.000000 3.699230 0.000000 
#    z 0.000000 0.000000 3.898810 
# 
# 
# High freq. dielectric constant tensor:
#      x y z
#    x 1.757700 0.000000 0.000000 
#    y 0.000000 1.792060 0.000000 
#    z 0.000000 0.000000 1.789440 
# 
# From -- ./inp_files/4956.got.cif
#   From: 2010.03.12/outbox.cif.g09.slc.cpg/sg31_3_cif.got.tgz:4956.got - 2010.04.14 01:42:59.
