data_PCOD8170859
_publ_section_title
;
Structure prediction by ZEFSAII (Michael W. Deem and Ramdas Pophale) SiO2 
 PCOD8170859
Probable space group: P N A 21
;
_chemical_formula_sum "Si O2"
_cell_formula_units_Z 24
_cell_length_a 27.496776
_cell_length_b 8.016512
_cell_length_c 4.993190
_cell_angle_alpha 90.000000
_cell_angle_beta 90.000000
_cell_angle_gamma 90.000000
_cell_volume 1100.640058
_symmetry_space_group_name_H-M "P N A 21"
_symmetry_group_IT_number 33
_symmetry_cell_setting 'orthorhombic'
loop_
_space_group_symop_operation_xyz
x,y,z
-x,-y,1/2+z
1/2-x,1/2+y,1/2+z
1/2+x,1/2-y,z
loop_
_atom_site_type_symbol
_atom_site_label
_atom_site_fract_x
_atom_site_fract_y
_atom_site_fract_z
Si Si1 0.226165 0.501078 0.538420
Si Si2 0.834627 0.510485 0.558754
Si Si3 0.990265 0.101281 0.977021
Si Si4 0.108679 0.003397 0.588021
Si Si5 0.308884 0.313192 0.807227
Si Si6 0.411899 0.719464 0.587497
O O1 0.187804 0.465434 0.769718
O O2 0.279544 0.434878 0.608717
O O3 0.229288 0.700365 0.478423
O O4 0.203513 0.410788 0.275185
O O5 0.842376 0.312963 0.629174
O O6 0.886413 0.601678 0.562685
O O7 0.030202 0.247417 0.028020
O O8 0.991542 0.053166 0.664272
O O9 0.934425 0.137683 0.065886
O O10 0.111316 0.081918 0.884543
O O11 0.159856 0.920253 0.515713
O O12 0.095851 0.153113 0.386442
#
# Coordination Sequence:
#
# PCOD8170859 Si02
#       6
#     4   4   4   4   4   4
#     4  10  25  39  63  83 122 158 210 250 302 359
#     4  10  24  40  60  89 117 162 202 252 304 363
#     4   8  16  33  56  92 119 153 196 243 295 367
#     4  10  21  35  67  91 120 159 204 248 301 363
#     4  10  26  42  64  85 126 158 211 250 308 359
#     4  10  20  37  64  90 124 156 201 249 304 361
#
# _framework density 21.805495000000001
#
# number of rings (size 3 to 8) (size 9 to 14) (size 15 to 20)
#    1.000    1.333    0.000    1.000    7.000    1.333 
#    0.000    0.000    3.667    0.000    0.000    0.000 
#    0.000    0.000    0.000    0.000    0.000    0.000 
#
# Total GULP energy -297327.740927 kJ/mol
# GULP energy per Si atom -12388.655872 kJ/mol
# Density = 2.175586 g / cm^3
# Si number density = 21.805495 Si / 1000 Ang^3
#
#
#
# Elastic Constant Matrix: (Units=GPa)
#
#
# Indices 1 2 3 4 5 6 
#
# 1 58.8857 15.7370 3.0280 0.0000 0.0000 0.0000
# 2 15.7370 42.5187 4.9428 0.0000 0.0000 0.0000
# 3 3.0280 4.9428 83.9562 0.0000 0.0000 0.0000
# 4 0.0000 0.0000 0.0000 18.8794 0.0000 0.0000
# 5 0.0000 0.0000 0.0000 0.0000 31.3165 0.0000
# 6 0.0000 0.0000 0.0000 0.0000 0.0000 28.4966
#
#
#
# Elastic Compliance Matrix: (Units=1/GPa)
#
#
# Indices 1 2 3 4 5 6 
#
# 1 0.018852 -0.006946 -0.000271 0.000000 0.000000 0.000000
# 2 -0.006946 0.026240 -0.001294 0.000000 0.000000 0.000000
# 3 -0.000271 -0.001294 0.011997 0.000000 0.000000 0.000000
# 4 0.000000 0.000000 0.000000 0.052968 0.000000 0.000000
# 5 0.000000 0.000000 0.000000 0.000000 0.031932 0.000000
# 6 0.000000 0.000000 0.000000 0.000000 0.000000 0.035092
#
#
# Mechanical properties :
#
#
# Convention : Reuss Voigt Hill
#
# Bulk Modulus (GPa) = 24.95832 25.86402 25.41117
# Shear Modulus (GPa) = 24.10104 26.51535 25.30820
#
# Velocity S-wave (km/s) = 3.32817 3.49089 3.41050
# Velocity P-wave (km/s) = 5.12247 5.30429 5.21417
#
# Compressibility (1/GPa) = 0.04006680
#
# Stress axis : x y z
#
# Youngs Moduli (GPa) = 53.04388 38.10916 83.35453
#
# Poissons Ratio (x) = 0.26471 0.02259
# Poissons Ratio (y) = 0.36845 0.10789
# Poissons Ratio (z) = 0.01437 0.04933
#
# Static dielectric constant tensor:
#      x y z
#    x 3.945450 0.000000 0.000000 
#    y 0.000000 3.436330 0.000000 
#    z 0.000000 0.000000 4.041610 
# 
# 
# High freq. dielectric constant tensor:
#      x y z
#    x 1.852840 0.000000 0.000000 
#    y 0.000000 1.802140 0.000000 
#    z 0.000000 0.000000 1.878850 
# 
# From -- ./inp_files/2182.got.cif
#   From: 2010.03.12/outbox.cif.g09.slc.cpg/sg33_2_cif.got.tgz:2182.got - 2010.04.14 01:49:19.
