data_PCOD8170049
_publ_section_title
;
Structure prediction by ZEFSAII (Michael W. Deem and Ramdas Pophale) SiO2 
 PCOD8170049
Probable space group: P M N 21
;
_chemical_formula_sum "Si O2"
_cell_formula_units_Z 32
_cell_length_a 9.518899
_cell_length_b 14.161460
_cell_length_c 12.558400
_cell_angle_alpha 90.000000
_cell_angle_beta 90.000000
_cell_angle_gamma 90.000000
_cell_volume 1692.891251
_symmetry_space_group_name_H-M "P M N 21"
_symmetry_group_IT_number 31
_symmetry_cell_setting 'orthorhombic'
loop_
_space_group_symop_operation_xyz
x,y,z
1/2-x,-y,1/2+z
-x,y,z
1/2+x,-y,1/2+z
loop_
_atom_site_type_symbol
_atom_site_label
_atom_site_fract_x
_atom_site_fract_y
_atom_site_fract_z
Si Si1 0.334738 0.038436 0.901940
Si Si2 0.338941 0.663694 0.662354
Si Si3 0.665196 0.158714 0.706880
Si Si4 0.654740 0.329486 0.849491
Si Si5 0.663514 0.843121 0.993696
Si Si6 0.337310 0.640565 0.903226
Si Si7 0.344640 0.194748 0.051004
Si Si8 0.664633 0.530150 0.466635
O O1 0.500000 0.058095 0.900779
O O2 0.276081 0.080714 0.791056
O O3 0.296627 0.928422 0.913204
O O4 0.278379 0.096779 0.005613
O O5 0.500000 0.694440 0.654308
O O6 0.302515 0.625140 0.779015
O O7 0.253206 0.759724 0.641083
O O8 0.303787 0.581095 0.578601
O O9 0.500000 0.145866 0.685725
O O10 0.697882 0.264526 0.749365
O O11 0.747869 0.143305 0.599246
O O12 0.500000 0.375372 0.829618
O O13 0.646011 0.264724 0.952142
O O14 0.769377 0.411239 0.867833
O O15 0.500000 0.847396 0.024261
O O16 0.702703 0.746912 0.934508
O O17 0.500000 0.618849 0.928323
O O18 0.239607 0.571311 0.972122
O O19 0.500000 0.179752 0.100463
O O20 0.500000 0.517631 0.445525
#
# Coordination Sequence:
#
# PCOD8170049 Si02
#       8
#     4   4   4   4   4   4   4   4
#     4   8  16  33  54  76 104 139 176 210 253 311
#     4   9  19  35  53  75 102 131 165 208 257 304
#     4   9  18  34  56  79 105 139 175 212 258 310
#     4   8  15  30  52  76 102 132 165 203 253 312
#     4  10  21  36  53  75 106 141 176 214 255 305
#     4  10  22  38  52  70 103 143 173 201 252 316
#     4   8  14  28  52  77  99 127 165 207 249 297
#     4  10  20  34  54  78 101 128 171 223 259 293
#
# _framework density 18.902574000000001
#
# number of rings (size 3 to 8) (size 9 to 14) (size 15 to 20)
#    0.000    3.000    0.000    1.875    0.000    4.000 
#    0.000    8.125    0.000    0.000    0.000    0.000 
#    0.000    0.000    0.000    0.000    0.000    0.000 
#
# Total GULP energy -396688.642858 kJ/mol
# GULP energy per Si atom -12396.520089 kJ/mol
# Density = 1.885955 g / cm^3
# Si number density = 18.902574 Si / 1000 Ang^3
#
#
#
# Elastic Constant Matrix: (Units=GPa)
#
#
# Indices 1 2 3 4 5 6 
#
# 1 72.9262 57.9926 44.8921 0.0000 0.0000 0.0000
# 2 57.9926 133.6246 47.1642 0.0000 0.0000 0.0000
# 3 44.8921 47.1642 89.9848 0.0000 0.0000 0.0000
# 4 0.0000 0.0000 0.0000 22.6806 0.0000 0.0000
# 5 0.0000 0.0000 0.0000 0.0000 27.0779 0.0000
# 6 0.0000 0.0000 0.0000 0.0000 0.0000 22.0948
#
#
#
# Elastic Compliance Matrix: (Units=1/GPa)
#
#
# Indices 1 2 3 4 5 6 
#
# 1 0.025237 -0.007986 -0.008404 0.000000 0.000000 0.000000
# 2 -0.007986 0.011710 -0.002153 0.000000 0.000000 0.000000
# 3 -0.008404 -0.002153 0.016434 0.000000 0.000000 0.000000
# 4 0.000000 0.000000 0.000000 0.044091 0.000000 0.000000
# 5 0.000000 0.000000 0.000000 0.000000 0.036931 0.000000
# 6 0.000000 0.000000 0.000000 0.000000 0.000000 0.045260
#
#
# Mechanical properties :
#
#
# Convention : Reuss Voigt Hill
#
# Bulk Modulus (GPa) = 61.37550 66.29261 63.83405
# Shear Modulus (GPa) = 22.50417 24.13642 23.32030
#
# Velocity S-wave (km/s) = 3.45416 3.57723 3.51623
# Velocity P-wave (km/s) = 6.96047 7.22557 7.09426
#
# Compressibility (1/GPa) = 0.01629315
#
# Stress axis : x y z
#
# Youngs Moduli (GPa) = 39.62419 85.39931 60.84791
#
# Poissons Ratio (x) = 0.68203 0.51140
# Poissons Ratio (y) = 0.31645 0.13102
# Poissons Ratio (z) = 0.33302 0.18388
#
# Static dielectric constant tensor:
#      x y z
#    x 3.398410 0.000000 0.000000 
#    y 0.000000 3.602960 0.000000 
#    z 0.000000 0.000000 3.328520 
# 
# 
# High freq. dielectric constant tensor:
#      x y z
#    x 1.716190 0.000000 0.000000 
#    y 0.000000 1.737250 0.000000 
#    z 0.000000 0.000000 1.719210 
# 
# From -- ./inp_files/3705.got.cif
#   From: 2010.03.12/outbox.cif.g09.slc.cpg/sg31_2_cif.got.tgz:3705.got - 2010.04.14 01:42:59.
