data_PCOD8170944
_publ_section_title
;
Structure prediction by ZEFSAII (Michael W. Deem and Ramdas Pophale) SiO2 
 PCOD8170944
Probable space group: P N A 21
;
_chemical_formula_sum "Si O2"
_cell_formula_units_Z 20
_cell_length_a 8.800657
_cell_length_b 11.302264
_cell_length_c 7.542756
_cell_angle_alpha 90.000000
_cell_angle_beta 90.000000
_cell_angle_gamma 90.000000
_cell_volume 750.257942
_symmetry_space_group_name_H-M "P N A 21"
_symmetry_group_IT_number 33
_symmetry_cell_setting 'orthorhombic'
loop_
_space_group_symop_operation_xyz
x,y,z
-x,-y,1/2+z
1/2-x,1/2+y,1/2+z
1/2+x,1/2-y,z
loop_
_atom_site_type_symbol
_atom_site_label
_atom_site_fract_x
_atom_site_fract_y
_atom_site_fract_z
Si Si1 0.847107 0.374891 0.299880
Si Si2 0.903584 0.634268 0.272404
Si Si3 0.984006 0.956589 0.718495
Si Si4 0.881412 0.215441 0.965412
Si Si5 0.352566 0.342549 0.521102
O O1 0.941048 0.496752 0.311573
O O2 0.666622 0.397773 0.300857
O O3 0.891323 0.293196 0.469797
O O4 0.895591 0.308714 0.123191
O O5 0.791338 0.681684 0.426832
O O6 0.823999 0.648711 0.079559
O O7 0.053645 0.715631 0.289845
O O8 0.024637 0.902153 0.524022
O O9 0.124680 0.927392 0.849240
O O10 0.951743 0.097820 0.684803
#
# Coordination Sequence:
#
# PCOD8170944 Si02
#       5
#     4   4   4   4   4
#     4  10  23  45  68 106 147 194 247 310 373 443
#     4  11  25  45  72 106 146 195 245 312 378 444
#     4  10  20  44  69 101 141 193 242 309 369 448
#     4  11  23  47  69 102 147 192 251 301 373 449
#     4  10  23  41  72 103 141 188 253 298 375 448
#
# _framework density 26.657495999999998
#
# number of rings (size 3 to 8) (size 9 to 14) (size 15 to 20)
#    0.000    1.600    2.000    2.400    2.800    1.600 
#   18.000    0.000    0.000    0.000    0.000    0.000 
#    0.000    0.000    0.000    0.000    0.000    0.000 
#
# Total GULP energy -247976.231428 kJ/mol
# GULP energy per Si atom -12398.811571 kJ/mol
# Density = 2.659682 g / cm^3
# Si number density = 26.657496 Si / 1000 Ang^3
#
#
#
# Elastic Constant Matrix: (Units=GPa)
#
#
# Indices 1 2 3 4 5 6 
#
# 1 42.3085 24.3318 0.6992 0.0000 0.0000 0.0000
# 2 24.3318 201.8127 31.0430 0.0000 0.0000 0.0000
# 3 0.6992 31.0430 87.1581 0.0000 0.0000 0.0000
# 4 0.0000 0.0000 0.0000 46.0709 0.0000 0.0000
# 5 0.0000 0.0000 0.0000 0.0000 42.8490 0.0000
# 6 0.0000 0.0000 0.0000 0.0000 0.0000 35.0847
#
#
#
# Elastic Compliance Matrix: (Units=1/GPa)
#
#
# Indices 1 2 3 4 5 6 
#
# 1 0.025470 -0.003216 0.000941 0.000000 0.000000 0.000000
# 2 -0.003216 0.005648 -0.001986 0.000000 0.000000 0.000000
# 3 0.000941 -0.001986 0.012173 0.000000 0.000000 0.000000
# 4 0.000000 0.000000 0.000000 0.021706 0.000000 0.000000
# 5 0.000000 0.000000 0.000000 0.000000 0.023338 0.000000
# 6 0.000000 0.000000 0.000000 0.000000 0.000000 0.028502
#
#
# Mechanical properties :
#
#
# Convention : Reuss Voigt Hill
#
# Bulk Modulus (GPa) = 28.76037 49.26968 39.01503
# Shear Modulus (GPa) = 36.51021 43.14794 39.82908
#
# Velocity S-wave (km/s) = 3.70483 4.02755 3.86956
# Velocity P-wave (km/s) = 5.39567 6.33647 5.88490
#
# Compressibility (1/GPa) = 0.03477006
#
# Stress axis : x y z
#
# Youngs Moduli (GPa) = 39.26245 177.04596 82.14781
#
# Poissons Ratio (x) = 0.56929 -0.07730
# Poissons Ratio (y) = 0.12625 0.16314
# Poissons Ratio (z) = -0.03694 0.35160
#
# Static dielectric constant tensor:
#      x y z
#    x 4.256260 0.000000 0.000000 
#    y 0.000000 5.169520 0.000000 
#    z 0.000000 0.000000 5.081860 
# 
# 
# High freq. dielectric constant tensor:
#      x y z
#    x 2.032220 0.000000 0.000000 
#    y 0.000000 2.096840 0.000000 
#    z 0.000000 0.000000 2.095810 
# 
# From -- ./inp_files/3028.got.cif
#   From: 2010.03.12/outbox.cif.g09.slc.cpg/sg33_2_cif.got.tgz:3028.got - 2010.04.14 01:49:19.
