data_PCOD8170258
_publ_section_title
;
Structure prediction by ZEFSAII (Michael W. Deem and Ramdas Pophale) SiO2 
 PCOD8170258
Probable space group: P M N 21
;
_chemical_formula_sum "Si O2"
_cell_formula_units_Z 32
_cell_length_a 14.658874
_cell_length_b 11.413043
_cell_length_c 9.509389
_cell_angle_alpha 90.000000
_cell_angle_beta 90.000000
_cell_angle_gamma 90.000000
_cell_volume 1590.943215
_symmetry_space_group_name_H-M "P M N 21"
_symmetry_group_IT_number 31
_symmetry_cell_setting 'orthorhombic'
loop_
_space_group_symop_operation_xyz
x,y,z
1/2-x,-y,1/2+z
-x,y,z
1/2+x,-y,1/2+z
loop_
_atom_site_type_symbol
_atom_site_label
_atom_site_fract_x
_atom_site_fract_y
_atom_site_fract_z
Si Si1 0.399938 0.358416 0.801610
Si Si2 0.338093 0.360339 0.112272
Si Si3 0.221234 0.238908 0.768711
Si Si4 0.734091 0.120838 0.056794
Si Si5 0.107193 0.099751 0.538951
Si Si6 0.097624 0.456514 0.820885
Si Si7 0.101408 0.164224 0.223751
Si Si8 0.639294 0.574148 0.624942
O O1 0.500000 0.311516 0.759164
O O2 0.326831 0.268591 0.731715
O O3 0.386254 0.491612 0.753831
O O4 0.395807 0.364598 0.970095
O O5 0.315257 0.224556 0.144117
O O6 0.388698 0.418307 0.244528
O O7 0.245734 0.432708 0.089611
O O8 0.164720 0.173292 0.650514
O O9 0.176472 0.364915 0.790294
O O10 0.221086 0.163974 0.911060
O O11 0.821455 0.080739 0.151427
O O12 0.657120 0.024899 0.029133
O O13 0.115983 0.165743 0.391133
O O14 0.000000 0.085189 0.581991
O O15 0.000000 0.406139 0.768410
O O16 0.089418 0.476622 0.987641
O O17 0.108457 0.295007 0.163561
O O18 0.000000 0.114778 0.189187
#
# Coordination Sequence:
#
# PCOD8170258 Si02
#       8
#     4   4   4   4   4   4   4   4
#     4  11  22  37  60  90 124 164 203 248 312 383
#     4  10  21  39  60  88 125 164 202 258 315 373
#     4  11  23  41  62  90 129 161 205 265 324 375
#     4  10  22  43  65  87 124 170 211 262 322 377
#     4  11  25  42  65  93 123 165 221 273 316 376
#     4  12  22  36  60  91 124 162 204 254 318 384
#     4  10  21  38  62  93 123 162 210 260 316 380
#     4  11  20  38  58  88 128 164 198 252 313 382
#
# _framework density 20.113855000000001
#
# number of rings (size 3 to 8) (size 9 to 14) (size 15 to 20)
#    0.000    1.250    5.000    2.625    1.750    5.000 
#    0.000    0.625    0.000    2.250    0.000    0.000 
#    0.000    0.000    0.000    0.000    0.000    0.000 
#
# Total GULP energy -396613.565011 kJ/mol
# GULP energy per Si atom -12394.173907 kJ/mol
# Density = 2.006808 g / cm^3
# Si number density = 20.113855 Si / 1000 Ang^3
#
#
#
# Elastic Constant Matrix: (Units=GPa)
#
#
# Indices 1 2 3 4 5 6 
#
# 1 161.0418 42.5149 48.7123 0.0000 0.0000 0.0000
# 2 42.5149 64.6325 49.1214 0.0000 0.0000 0.0000
# 3 48.7123 49.1214 90.5790 0.0000 0.0000 0.0000
# 4 0.0000 0.0000 0.0000 24.7268 0.0000 0.0000
# 5 0.0000 0.0000 0.0000 0.0000 19.5499 0.0000
# 6 0.0000 0.0000 0.0000 0.0000 0.0000 24.0394
#
#
#
# Elastic Compliance Matrix: (Units=1/GPa)
#
#
# Indices 1 2 3 4 5 6 
#
# 1 0.007811 -0.003310 -0.002406 0.000000 0.000000 0.000000
# 2 -0.003310 0.027722 -0.013254 0.000000 0.000000 0.000000
# 3 -0.002406 -0.013254 0.019522 0.000000 0.000000 0.000000
# 4 0.000000 0.000000 0.000000 0.040442 0.000000 0.000000
# 5 0.000000 0.000000 0.000000 0.000000 0.051151 0.000000
# 6 0.000000 0.000000 0.000000 0.000000 0.000000 0.041598
#
#
# Mechanical properties :
#
#
# Convention : Reuss Voigt Hill
#
# Bulk Modulus (GPa) = 58.42492 66.32783 62.37638
# Shear Modulus (GPa) = 21.56183 25.39020 23.47602
#
# Velocity S-wave (km/s) = 3.27768 3.55677 3.42007
# Velocity P-wave (km/s) = 6.59048 7.06508 6.83190
#
# Compressibility (1/GPa) = 0.01711598
#
# Stress axis : x y z
#
# Youngs Moduli (GPa) = 128.02411 36.07187 51.22487
#
# Poissons Ratio (x) = 0.11938 0.12324
# Poissons Ratio (y) = 0.42370 0.67894
# Poissons Ratio (z) = 0.30801 0.47810
#
# Static dielectric constant tensor:
#      x y z
#    x 4.088270 0.000000 0.000000 
#    y 0.000000 3.499110 0.000000 
#    z 0.000000 0.000000 3.712440 
# 
# 
# High freq. dielectric constant tensor:
#      x y z
#    x 1.808700 0.000000 0.000000 
#    y 0.000000 1.760520 0.000000 
#    z 0.000000 0.000000 1.781010 
# 
# From -- ./inp_files/2567.got.cif
#   From: 2010.03.12/outbox.cif.g09.slc.cpg/sg31_2_cif.got.tgz:2567.got - 2010.04.14 01:42:59.
