data_PCOD8170566
_publ_section_title
;
Structure prediction by ZEFSAII (Michael W. Deem and Ramdas Pophale) SiO2 
 PCOD8170566
Probable space group: P B A 2
;
_chemical_formula_sum "Si O2"
_cell_formula_units_Z 20
_cell_length_a 9.503946
_cell_length_b 9.320270
_cell_length_c 9.055508
_cell_angle_alpha 90.000000
_cell_angle_beta 90.000000
_cell_angle_gamma 90.000000
_cell_volume 802.130947
_symmetry_space_group_name_H-M "P B A 2"
_symmetry_group_IT_number 32
_symmetry_cell_setting 'orthorhombic'
loop_
_space_group_symop_operation_xyz
x,y,z
-x,-y,z
1/2-x,1/2+y,z
1/2+x,1/2-y,z
loop_
_atom_site_type_symbol
_atom_site_label
_atom_site_fract_x
_atom_site_fract_y
_atom_site_fract_z
Si Si1 0.155607 0.514896 0.641840
Si Si2 0.174831 0.903299 0.071630
Si Si3 0.407196 0.714196 0.185554
Si Si4 0.864152 0.198615 0.753787
Si Si5 0.082788 0.134037 0.496181
O O1 0.147930 0.629135 0.780719
O O2 0.217894 0.358976 0.680305
O O3 0.256175 0.593310 0.526838
O O4 0.000000 0.500000 0.572957
O O5 0.332627 0.844121 0.097353
O O6 0.072516 0.790140 0.152212
O O7 0.162630 0.063898 0.132341
O O8 0.122969 0.894665 0.901208
O O9 0.399750 0.746898 0.362266
O O10 0.996883 0.176586 0.644171
O O11 0.000000 0.000000 0.423951
#
# Coordination Sequence:
#
# PCOD8170566 Si02
#       5
#     4   4   4   4   4
#     4  11  25  41  71 105 134 177 241 281 345 407
#     4  11  26  46  71 102 141 182 232 288 355 418
#     4  11  26  47  69 102 141 184 230 285 360 415
#     4  11  25  45  72 102 140 185 231 293 348 421
#     4  10  23  45  70  98 141 185 225 286 350 417
#
# _framework density 24.933585999999998
#
# number of rings (size 3 to 8) (size 9 to 14) (size 15 to 20)
#    0.000    1.200    2.000    2.400   16.800    2.400 
#    0.000    0.000    0.000    0.000    0.000    0.000 
#    0.000    0.000    0.000    0.000    0.000    0.000 
#
# Total GULP energy -247764.870682 kJ/mol
# GULP energy per Si atom -12388.243534 kJ/mol
# Density = 2.487684 g / cm^3
# Si number density = 24.933586 Si / 1000 Ang^3
#
#
#
# Elastic Constant Matrix: (Units=GPa)
#
#
# Indices 1 2 3 4 5 6 
#
# 1 139.4023 15.2349 26.8485 0.0000 0.0000 0.0000
# 2 15.2349 84.1854 -3.7606 0.0000 0.0000 0.0000
# 3 26.8485 -3.7606 139.3787 0.0000 0.0000 0.0000
# 4 0.0000 0.0000 0.0000 16.0915 0.0000 0.0000
# 5 0.0000 0.0000 0.0000 0.0000 23.3861 0.0000
# 6 0.0000 0.0000 0.0000 0.0000 0.0000 35.7268
#
#
#
# Elastic Compliance Matrix: (Units=1/GPa)
#
#
# Indices 1 2 3 4 5 6 
#
# 1 0.007622 -0.001447 -0.001507 0.000000 0.000000 0.000000
# 2 -0.001447 0.012167 0.000607 0.000000 0.000000 0.000000
# 3 -0.001507 0.000607 0.007481 0.000000 0.000000 0.000000
# 4 0.000000 0.000000 0.000000 0.062145 0.000000 0.000000
# 5 0.000000 0.000000 0.000000 0.000000 0.042760 0.000000
# 6 0.000000 0.000000 0.000000 0.000000 0.000000 0.027990
#
#
# Mechanical properties :
#
#
# Convention : Reuss Voigt Hill
#
# Bulk Modulus (GPa) = 44.29305 48.84576 46.56941
# Shear Modulus (GPa) = 29.00474 36.68378 32.84426
#
# Velocity S-wave (km/s) = 3.41439 3.83986 3.63336
# Velocity P-wave (km/s) = 5.77469 6.26835 6.02658
#
# Compressibility (1/GPa) = 0.02257691
#
# Stress axis : x y z
#
# Youngs Moduli (GPa) = 131.20142 82.18642 133.66460
#
# Poissons Ratio (x) = 0.11889 0.20146
# Poissons Ratio (y) = 0.18980 -0.08113
# Poissons Ratio (z) = 0.19775 -0.04988
#
# Static dielectric constant tensor:
#      x y z
#    x 4.586300 0.000000 0.000000 
#    y 0.000000 4.680630 0.000000 
#    z 0.000000 0.000000 4.255870 
# 
# 
# High freq. dielectric constant tensor:
#      x y z
#    x 2.006910 0.000000 0.000000 
#    y 0.000000 1.989670 0.000000 
#    z 0.000000 0.000000 1.976110 
# 
# From -- ./inp_files/2199.got.cif
#   From: 2010.03.12/outbox.cif.g09.slc.cpg/sg32_2_cif.got.tgz:2199.got - 2010.04.14 01:46:39.
