data_PCOD8170730
_publ_section_title
;
Structure prediction by ZEFSAII (Michael W. Deem and Ramdas Pophale) SiO2 
 PCOD8170730
Probable space group: P N A 21
;
_chemical_formula_sum "Si O2"
_cell_formula_units_Z 32
_cell_length_a 8.855449
_cell_length_b 14.484520
_cell_length_c 11.652482
_cell_angle_alpha 90.000000
_cell_angle_beta 90.000000
_cell_angle_gamma 90.000000
_cell_volume 1494.628071
_symmetry_space_group_name_H-M "P N A 21"
_symmetry_group_IT_number 33
_symmetry_cell_setting 'orthorhombic'
loop_
_space_group_symop_operation_xyz
x,y,z
-x,-y,1/2+z
1/2-x,1/2+y,1/2+z
1/2+x,1/2-y,z
loop_
_atom_site_type_symbol
_atom_site_label
_atom_site_fract_x
_atom_site_fract_y
_atom_site_fract_z
Si Si1 0.957303 0.448997 0.923150
Si Si2 0.847427 0.168908 0.381485
Si Si3 0.007615 0.349515 0.455240
Si Si4 0.149328 0.293814 0.019975
Si Si5 0.609048 0.478991 0.967831
Si Si6 0.412112 0.673633 0.300332
Si Si7 0.047477 0.847807 0.628273
Si Si8 0.098700 0.671910 0.208569
O O1 0.036899 0.548905 0.909636
O O2 0.788979 0.460992 0.973451
O O3 0.961663 0.402579 0.798905
O O4 0.052122 0.387198 0.011587
O O5 0.674229 0.173900 0.414395
O O6 0.877676 0.137907 0.251323
O O7 0.904241 0.271458 0.400845
O O8 0.925798 0.088516 0.458184
O O9 0.985021 0.351590 0.591352
O O10 0.322475 0.318190 0.040330
O O11 0.079650 0.232678 0.124319
O O12 0.153673 0.234069 0.904814
O O13 0.544206 0.425671 0.854568
O O14 0.527763 0.443284 0.083519
O O15 0.280609 0.665871 0.203455
O O16 0.555947 0.722964 0.244000
#
# Coordination Sequence:
#
# PCOD8170730 Si02
#       8
#     4   4   4   4   4   4   4   4
#     4   9  21  39  59  86 116 152 201 245 288 350
#     4  11  25  41  57  85 121 155 197 243 293 358
#     4  11  24  41  58  85 121 155 197 243 294 358
#     4  10  19  35  61  91 117 150 200 243 289 355
#     4   9  20  39  58  83 118 154 200 247 287 347
#     4   9  17  33  57  86 113 144 193 238 282 342
#     4  11  21  37  62  87 119 158 189 241 300 342
#     4  10  19  35  60  83 113 152 183 236 295 332
#
# _framework density 21.410008999999999
#
# number of rings (size 3 to 8) (size 9 to 14) (size 15 to 20)
#    0.000    2.000    0.000    5.250    0.000    6.000 
#    0.000    6.250    0.000    0.000    0.000    0.000 
#    0.000    0.000    0.000    0.000    0.000    0.000 
#
# Total GULP energy -396719.166135 kJ/mol
# GULP energy per Si atom -12397.473942 kJ/mol
# Density = 2.136128 g / cm^3
# Si number density = 21.410009 Si / 1000 Ang^3
#
#
#
# Elastic Constant Matrix: (Units=GPa)
#
#
# Indices 1 2 3 4 5 6 
#
# 1 51.3471 8.8176 24.0703 0.0000 0.0000 0.0000
# 2 8.8176 113.5985 3.1007 0.0000 0.0000 0.0000
# 3 24.0703 3.1007 80.9227 0.0000 0.0000 0.0000
# 4 0.0000 0.0000 0.0000 22.3425 0.0000 0.0000
# 5 0.0000 0.0000 0.0000 0.0000 38.7126 0.0000
# 6 0.0000 0.0000 0.0000 0.0000 0.0000 34.9913
#
#
#
# Elastic Compliance Matrix: (Units=1/GPa)
#
#
# Indices 1 2 3 4 5 6 
#
# 1 0.022916 -0.001594 -0.006755 0.000000 0.000000 0.000000
# 2 -0.001594 0.008923 0.000132 0.000000 0.000000 0.000000
# 3 -0.006755 0.000132 0.014362 0.000000 0.000000 0.000000
# 4 0.000000 0.000000 0.000000 0.044758 0.000000 0.000000
# 5 0.000000 0.000000 0.000000 0.000000 0.025831 0.000000
# 6 0.000000 0.000000 0.000000 0.000000 0.000000 0.028579
#
#
# Mechanical properties :
#
#
# Convention : Reuss Voigt Hill
#
# Bulk Modulus (GPa) = 33.59517 35.31617 34.45567
# Shear Modulus (GPa) = 29.11638 33.20126 31.15882
#
# Velocity S-wave (km/s) = 3.69174 3.94221 3.81903
# Velocity P-wave (km/s) = 5.82214 6.10347 5.96446
#
# Compressibility (1/GPa) = 0.02976618
#
# Stress axis : x y z
#
# Youngs Moduli (GPa) = 43.63810 112.06899 69.62965
#
# Poissons Ratio (x) = 0.17868 0.47036
# Poissons Ratio (y) = 0.06957 -0.00921
# Poissons Ratio (z) = 0.29478 -0.01483
#
# Static dielectric constant tensor:
#      x y z
#    x 3.804680 0.000000 0.000000 
#    y 0.000000 4.300270 0.000000 
#    z 0.000000 0.000000 3.650370 
# 
# 
# High freq. dielectric constant tensor:
#      x y z
#    x 1.834070 0.000000 0.000000 
#    y 0.000000 1.852040 0.000000 
#    z 0.000000 0.000000 1.820450 
# 
# From -- ./inp_files/5969.got.cif
#   From: 2010.03.12/outbox.cif.g09.slc.cpg/sg33_3_cif.got.tgz:5969.got - 2010.04.14 01:49:19.
