data_PCOD8170269
_publ_section_title
;
Structure prediction by ZEFSAII (Michael W. Deem and Ramdas Pophale) SiO2 
 PCOD8170269
Probable space group: P M N 21
;
_chemical_formula_sum "Si O2"
_cell_formula_units_Z 32
_cell_length_a 8.755224
_cell_length_b 13.401874
_cell_length_c 13.107581
_cell_angle_alpha 90.000000
_cell_angle_beta 90.000000
_cell_angle_gamma 90.000000
_cell_volume 1537.996484
_symmetry_space_group_name_H-M "P M N 21"
_symmetry_group_IT_number 31
_symmetry_cell_setting 'orthorhombic'
loop_
_space_group_symop_operation_xyz
x,y,z
1/2-x,-y,1/2+z
-x,y,z
1/2+x,-y,1/2+z
loop_
_atom_site_type_symbol
_atom_site_label
_atom_site_fract_x
_atom_site_fract_y
_atom_site_fract_z
Si Si1 0.318368 0.400799 0.150400
Si Si2 0.175878 0.900466 0.821021
Si Si3 0.827155 0.967532 0.172440
Si Si4 0.175806 0.972814 0.482655
Si Si5 0.820401 0.745214 0.476390
Si Si6 0.320363 0.322467 0.368113
Si Si7 0.819994 0.382970 0.580251
Si Si8 0.324171 0.248330 0.749952
O O1 0.500000 0.391019 0.150068
O O2 0.257852 0.372241 0.263338
O O3 0.261948 0.511728 0.124744
O O4 0.249390 0.326992 0.063123
O O5 0.223253 0.793930 0.866154
O O6 0.000000 0.899563 0.784706
O O7 0.285683 0.928558 0.727657
O O8 0.203647 0.987532 0.901520
O O9 0.706381 0.958520 0.080965
O O10 0.807451 0.871635 0.245224
O O11 0.000000 0.973954 0.130825
O O12 0.000000 0.984977 0.445741
O O13 0.217770 0.858499 0.506615
O O14 0.759166 0.719521 0.361629
O O15 0.000000 0.729370 0.472253
O O16 0.500000 0.338561 0.378878
O O17 0.243380 0.371084 0.466430
O O18 0.767904 0.297243 0.657632
O O19 0.000000 0.380419 0.572352
O O20 0.500000 0.279923 0.736859
#
# Coordination Sequence:
#
# PCOD8170269 Si02
#       8
#     4   4   4   4   4   4   4   4
#     4   9  20  39  63  88 116 152 200 252 300 355
#     4  11  22  37  59  87 117 158 201 240 293 352
#     4  11  22  37  57  87 122 159 201 244 289 350
#     4  11  21  36  59  88 121 161 200 241 293 351
#     4   9  18  37  62  87 117 159 203 239 291 365
#     4  10  22  42  63  85 119 162 202 241 296 374
#     4  11  24  39  61  93 120 150 197 258 309 345
#     4  10  21  39  62  87 120 163 202 237 293 370
#
# _framework density 20.806289
#
# number of rings (size 3 to 8) (size 9 to 14) (size 15 to 20)
#    0.000    1.750    1.250    3.000    1.750    7.000 
#    0.000    0.625    0.000    3.750    0.000    0.000 
#    0.000    0.000    0.000    0.000    0.000    0.000 
#
# Total GULP energy -396699.419412 kJ/mol
# GULP energy per Si atom -12396.856857 kJ/mol
# Density = 2.075893 g / cm^3
# Si number density = 20.806289 Si / 1000 Ang^3
#
#
#
# Elastic Constant Matrix: (Units=GPa)
#
#
# Indices 1 2 3 4 5 6 
#
# 1 45.1591 43.5422 33.1974 0.0000 0.0000 0.0000
# 2 43.5422 108.9278 51.0645 0.0000 0.0000 0.0000
# 3 33.1974 51.0645 156.1093 0.0000 0.0000 0.0000
# 4 0.0000 0.0000 0.0000 38.0226 0.0000 0.0000
# 5 0.0000 0.0000 0.0000 0.0000 25.1606 0.0000
# 6 0.0000 0.0000 0.0000 0.0000 0.0000 17.4085
#
#
#
# Elastic Compliance Matrix: (Units=1/GPa)
#
#
# Indices 1 2 3 4 5 6 
#
# 1 0.037712 -0.013365 -0.003648 0.000000 0.000000 0.000000
# 2 -0.013365 0.015579 -0.002254 0.000000 0.000000 0.000000
# 3 -0.003648 -0.002254 0.007919 0.000000 0.000000 0.000000
# 4 0.000000 0.000000 0.000000 0.026300 0.000000 0.000000
# 5 0.000000 0.000000 0.000000 0.000000 0.039745 0.000000
# 6 0.000000 0.000000 0.000000 0.000000 0.000000 0.057443
#
#
# Mechanical properties :
#
#
# Convention : Reuss Voigt Hill
#
# Bulk Modulus (GPa) = 44.09802 62.86717 53.48260
# Shear Modulus (GPa) = 21.66471 28.27781 24.97126
#
# Velocity S-wave (km/s) = 3.23035 3.69060 3.46812
# Velocity P-wave (km/s) = 5.92909 6.96001 6.46513
#
# Compressibility (1/GPa) = 0.02267676
#
# Stress axis : x y z
#
# Youngs Moduli (GPa) = 26.51698 64.18745 126.28098
#
# Poissons Ratio (x) = 0.85784 0.46066
# Poissons Ratio (y) = 0.35439 0.28465
# Poissons Ratio (z) = 0.09673 0.14468
#
# Static dielectric constant tensor:
#      x y z
#    x 3.436780 0.000000 0.000000 
#    y 0.000000 3.817300 0.000000 
#    z 0.000000 0.000000 4.181920 
# 
# 
# High freq. dielectric constant tensor:
#      x y z
#    x 1.782170 0.000000 0.000000 
#    y 0.000000 1.813780 0.000000 
#    z 0.000000 0.000000 1.833950 
# 
# From -- ./inp_files/5089.got.cif
#   From: 2010.03.12/outbox.cif.g09.slc.cpg/sg31_3_cif.got.tgz:5089.got - 2010.04.14 01:42:59.
