data_PCOD8170098
_publ_section_title
;
Structure prediction by ZEFSAII (Michael W. Deem and Ramdas Pophale) SiO2 
 PCOD8170098
Probable space group: P M N 21
;
_chemical_formula_sum "Si O2"
_cell_formula_units_Z 24
_cell_length_a 8.891080
_cell_length_b 9.421103
_cell_length_c 15.190409
_cell_angle_alpha 90.000000
_cell_angle_beta 90.000000
_cell_angle_gamma 90.000000
_cell_volume 1272.406085
_symmetry_space_group_name_H-M "P M N 21"
_symmetry_group_IT_number 31
_symmetry_cell_setting 'orthorhombic'
loop_
_space_group_symop_operation_xyz
x,y,z
1/2-x,-y,1/2+z
-x,y,z
1/2+x,-y,1/2+z
loop_
_atom_site_type_symbol
_atom_site_label
_atom_site_fract_x
_atom_site_fract_y
_atom_site_fract_z
Si Si1 0.176497 0.149265 0.891250
Si Si2 0.678440 0.168404 0.396101
Si Si3 0.323961 0.860196 0.589172
Si Si4 0.326882 0.847901 0.077215
Si Si5 0.174196 0.353866 0.741457
Si Si6 0.176638 0.346372 0.244475
O O1 0.243821 0.262557 0.822634
O O2 0.000000 0.146675 0.875847
O O3 0.237155 0.990106 0.872021
O O4 0.218324 0.193756 0.990977
O O5 0.500000 0.177034 0.395533
O O6 0.734775 0.207853 0.493396
O O7 0.743059 0.281118 0.328694
O O8 0.500000 0.896595 0.594259
O O9 0.275609 0.738835 0.657046
O O10 0.234082 0.002217 0.613005
O O11 0.500000 0.866561 0.050769
O O12 0.305310 0.733269 0.152743
O O13 0.272135 0.493626 0.731920
O O14 0.000000 0.393501 0.758036
O O15 0.000000 0.339806 0.259981
#
# Coordination Sequence:
#
# PCOD8170098 Si02
#       6
#     4   4   4   4   4   4
#     4   8  16  34  58  80 101 135 183 223 262 322
#     4  10  20  37  60  81 105 142 185 228 279 329
#     4   9  19  36  57  80 108 143 181 222 270 323
#     4  10  20  35  57  85 112 139 180 229 271 320
#     4  10  21  36  54  78 111 148 181 217 268 328
#     4  11  23  36  52  80 115 147 184 227 268 318
#
# _framework density 18.861901
#
# number of rings (size 3 to 8) (size 9 to 14) (size 15 to 20)
#    0.000    2.333    0.000    3.500    0.000    5.333 
#    0.000    5.833    0.000    0.000    0.000    0.000 
#    0.000    0.000    0.000    0.000    0.000    0.000 
#
# Total GULP energy -297630.639743 kJ/mol
# GULP energy per Si atom -12401.276656 kJ/mol
# Density = 1.881897 g / cm^3
# Si number density = 18.861901 Si / 1000 Ang^3
#
#
#
# Elastic Constant Matrix: (Units=GPa)
#
#
# Indices 1 2 3 4 5 6 
#
# 1 72.4150 47.5740 47.1728 0.0000 0.0000 0.0000
# 2 47.5740 115.0511 69.0590 0.0000 0.0000 0.0000
# 3 47.1728 69.0590 109.8445 0.0000 0.0000 0.0000
# 4 0.0000 0.0000 0.0000 11.6745 0.0000 0.0000
# 5 0.0000 0.0000 0.0000 0.0000 24.0159 0.0000
# 6 0.0000 0.0000 0.0000 0.0000 0.0000 31.7150
#
#
#
# Elastic Compliance Matrix: (Units=1/GPa)
#
#
# Indices 1 2 3 4 5 6 
#
# 1 0.020975 -0.005246 -0.005710 0.000000 0.000000 0.000000
# 2 -0.005246 0.015272 -0.007349 0.000000 0.000000 0.000000
# 3 -0.005710 -0.007349 0.016176 0.000000 0.000000 0.000000
# 4 0.000000 0.000000 0.000000 0.085657 0.000000 0.000000
# 5 0.000000 0.000000 0.000000 0.000000 0.041639 0.000000
# 6 0.000000 0.000000 0.000000 0.000000 0.000000 0.031531
#
#
# Mechanical properties :
#
#
# Convention : Reuss Voigt Hill
#
# Bulk Modulus (GPa) = 63.23324 69.43582 66.33453
# Shear Modulus (GPa) = 19.75272 22.38140 21.06706
#
# Velocity S-wave (km/s) = 3.23960 3.44843 3.34565
# Velocity P-wave (km/s) = 6.89858 7.26280 7.08303
#
# Compressibility (1/GPa) = 0.01581447
#
# Stress axis : x y z
#
# Youngs Moduli (GPa) = 47.67544 65.47924 61.82095
#
# Poissons Ratio (x) = 0.34351 0.35297
# Poissons Ratio (y) = 0.25011 0.45429
# Poissons Ratio (z) = 0.27221 0.48118
#
# Static dielectric constant tensor:
#      x y z
#    x 3.375340 0.000000 0.000000 
#    y 0.000000 3.482170 0.000000 
#    z 0.000000 0.000000 3.644140 
# 
# 
# High freq. dielectric constant tensor:
#      x y z
#    x 1.722030 0.000000 0.000000 
#    y 0.000000 1.729120 0.000000 
#    z 0.000000 0.000000 1.746470 
# 
# From -- ./inp_files/4736.got.cif
#   From: 2010.03.12/outbox.cif.g09.slc.cpg/sg31_3_cif.got.tgz:4736.got - 2010.04.14 01:42:59.
