data_PCOD8170022
_publ_section_title
;
Structure prediction by ZEFSAII (Michael W. Deem and Ramdas Pophale) SiO2 
 PCOD8170022
Probable space group: P M N 21
;
_chemical_formula_sum "Si O2"
_cell_formula_units_Z 32
_cell_length_a 9.182356
_cell_length_b 12.245685
_cell_length_c 14.734529
_cell_angle_alpha 90.000000
_cell_angle_beta 90.000000
_cell_angle_gamma 90.000000
_cell_volume 1656.812902
_symmetry_space_group_name_H-M "P M N 21"
_symmetry_group_IT_number 31
_symmetry_cell_setting 'orthorhombic'
loop_
_space_group_symop_operation_xyz
x,y,z
1/2-x,-y,1/2+z
-x,y,z
1/2+x,-y,1/2+z
loop_
_atom_site_type_symbol
_atom_site_label
_atom_site_fract_x
_atom_site_fract_y
_atom_site_fract_z
Si Si1 0.839492 0.508136 0.496130
Si Si2 0.170400 0.286418 0.206731
Si Si3 0.169164 0.711286 0.198926
Si Si4 0.171730 0.269053 0.512581
Si Si5 0.669447 0.717271 0.495827
Si Si6 0.327721 0.884254 0.851772
Si Si7 0.163394 0.501113 0.711712
Si Si8 0.331115 0.128716 0.861928
O O1 0.793597 0.386361 0.464777
O O2 0.728018 0.599674 0.460869
O O3 0.840898 0.503307 0.604006
O O4 0.000000 0.539384 0.459158
O O5 0.205997 0.265589 0.101521
O O6 0.226224 0.181263 0.262787
O O7 0.254844 0.391068 0.246686
O O8 0.000000 0.308830 0.221678
O O9 0.238694 0.748213 0.104255
O O10 0.247599 0.605796 0.242707
O O11 0.192716 0.810956 0.267079
O O12 0.000000 0.683290 0.183833
O O13 0.224156 0.176162 0.443229
O O14 0.000000 0.262801 0.535560
O O15 0.500000 0.720461 0.475164
O O16 0.745575 0.814899 0.443294
O O17 0.500000 0.888090 0.849295
O O18 0.265665 0.006924 0.850498
O O19 0.000000 0.496615 0.752061
O O20 0.500000 0.126570 0.889617
#
# Coordination Sequence:
#
# PCOD8170022 Si02
#       8
#     4   4   4   4   4   4   4   4
#     4   8  15  29  50  77 107 135 165 203 253 317
#     4   9  18  34  56  81 108 137 171 213 263 315
#     4  10  20  34  54  79 107 139 174 215 261 308
#     4   9  18  34  57  81 105 136 171 212 262 312
#     4  10  20  33  53  80 108 137 169 215 266 304
#     4   9  19  37  57  76 102 139 181 217 255 313
#     4   9  17  31  53  81 110 137 169 211 260 314
#     4  10  22  38  54  73 101 142 186 218 252 309
#
# _framework density 19.314191999999998
#
# number of rings (size 3 to 8) (size 9 to 14) (size 15 to 20)
#    0.000    2.750    0.000    1.875    0.000    6.500 
#    0.000    5.625    0.000    0.000    0.000    0.000 
#    0.000    0.000    0.000    0.000    0.000    0.000 
#
# Total GULP energy -396772.540308 kJ/mol
# GULP energy per Si atom -12399.141885 kJ/mol
# Density = 1.927023 g / cm^3
# Si number density = 19.314192 Si / 1000 Ang^3
#
#
#
# Elastic Constant Matrix: (Units=GPa)
#
#
# Indices 1 2 3 4 5 6 
#
# 1 94.4695 70.7259 50.7339 0.0000 0.0000 0.0000
# 2 70.7259 188.5251 65.8161 0.0000 0.0000 0.0000
# 3 50.7339 65.8161 74.2943 0.0000 0.0000 0.0000
# 4 0.0000 0.0000 0.0000 21.8450 0.0000 0.0000
# 5 0.0000 0.0000 0.0000 0.0000 23.9915 0.0000
# 6 0.0000 0.0000 0.0000 0.0000 0.0000 23.7406
#
#
#
# Elastic Compliance Matrix: (Units=1/GPa)
#
#
# Indices 1 2 3 4 5 6 
#
# 1 0.018275 -0.003618 -0.009274 0.000000 0.000000 0.000000
# 2 -0.003618 0.008396 -0.004967 0.000000 0.000000 0.000000
# 3 -0.009274 -0.004967 0.024193 0.000000 0.000000 0.000000
# 4 0.000000 0.000000 0.000000 0.045777 0.000000 0.000000
# 5 0.000000 0.000000 0.000000 0.000000 0.041681 0.000000
# 6 0.000000 0.000000 0.000000 0.000000 0.000000 0.042122
#
#
# Mechanical properties :
#
#
# Convention : Reuss Voigt Hill
#
# Bulk Modulus (GPa) = 66.02716 81.31563 73.67140
# Shear Modulus (GPa) = 22.60284 25.24960 23.92622
#
# Velocity S-wave (km/s) = 3.42463 3.61959 3.52346
# Velocity P-wave (km/s) = 7.06382 7.72409 7.40132
#
# Compressibility (1/GPa) = 0.01514528
#
# Stress axis : x y z
#
# Youngs Moduli (GPa) = 54.72006 119.10899 41.33395
#
# Poissons Ratio (x) = 0.43095 0.38334
# Poissons Ratio (y) = 0.19799 0.20530
# Poissons Ratio (z) = 0.50749 0.59160
#
# Static dielectric constant tensor:
#      x y z
#    x 3.497220 0.000000 0.000000 
#    y 0.000000 3.854280 0.000000 
#    z 0.000000 0.000000 3.354970 
# 
# 
# High freq. dielectric constant tensor:
#      x y z
#    x 1.738180 0.000000 0.000000 
#    y 0.000000 1.754530 0.000000 
#    z 0.000000 0.000000 1.743510 
# 
# From -- ./inp_files/5038.got.cif
#   From: 2010.03.12/outbox.cif.g09.slc.cpg/sg31_3_cif.got.tgz:5038.got - 2010.04.14 01:42:59.
