data_PCOD8170447
_publ_section_title
;
Structure prediction by ZEFSAII (Michael W. Deem and Ramdas Pophale) SiO2 
 PCOD8170447
Probable space group: P B A 2
;
_chemical_formula_sum "Si O2"
_cell_formula_units_Z 32
_cell_length_a 22.161600
_cell_length_b 12.893287
_cell_length_c 6.526344
_cell_angle_alpha 90.000000
_cell_angle_beta 90.000000
_cell_angle_gamma 90.000000
_cell_volume 1864.810575
_symmetry_space_group_name_H-M "P B A 2"
_symmetry_group_IT_number 32
_symmetry_cell_setting 'orthorhombic'
loop_
_space_group_symop_operation_xyz
x,y,z
-x,-y,z
1/2-x,1/2+y,z
1/2+x,1/2-y,z
loop_
_atom_site_type_symbol
_atom_site_label
_atom_site_fract_x
_atom_site_fract_y
_atom_site_fract_z
Si Si1 0.278195 0.383976 0.629770
Si Si2 0.234924 0.077160 0.373816
Si Si3 0.649906 0.807959 0.525360
Si Si4 0.093547 0.537598 0.825316
Si Si5 0.936677 0.597512 0.466541
Si Si6 0.936774 0.396041 0.252569
Si Si7 0.824334 0.712649 0.359238
Si Si8 0.711789 0.057452 0.020699
O O1 0.295803 0.490210 0.515555
O O2 0.335316 0.307653 0.601958
O O3 0.218905 0.334499 0.530590
O O4 0.264303 0.403705 0.867685
O O5 0.289197 0.127270 0.501440
O O6 0.185100 0.164904 0.326800
O O7 0.258539 0.030091 0.162215
O O8 0.605418 0.862727 0.685050
O O9 0.612068 0.806277 0.308962
O O10 0.058154 0.445539 0.701536
O O11 0.053499 0.584837 0.011108
O O12 0.157206 0.493180 0.898055
O O13 0.907224 0.503391 0.336424
O O14 0.892478 0.695277 0.441112
O O15 0.000959 0.626980 0.370617
O O16 0.811703 0.657091 0.143901
#
# Coordination Sequence:
#
# PCOD8170447 Si02
#       8
#     4   4   4   4   4   4   4   4
#     4  10  20  33  51  75 105 138 172 217 259 315
#     4  10  20  32  51  76 107 134 173 215 265 310
#     4  10  20  32  50  77 103 134 178 210 262 314
#     4  11  18  33  52  75 107 139 169 213 257 318
#     4  10  20  34  50  78 104 136 178 208 263 312
#     4  10  20  33  52  73 108 138 170 215 260 314
#     4  10  20  33  50  77 106 136 170 219 260 315
#     4  11  18  31  51  75 106 139 168 207 266 316
#
# _framework density 17.15992
#
# number of rings (size 3 to 8) (size 9 to 14) (size 15 to 20)
#    0.000    1.750    5.000    1.500    1.750    5.000 
#    0.000    0.000    0.000    0.750    0.000    0.000 
#    0.000    0.000    0.000    0.000    0.000    0.000 
#
# Total GULP energy -396671.044726 kJ/mol
# GULP energy per Si atom -12395.970148 kJ/mol
# Density = 1.712086 g / cm^3
# Si number density = 17.159920 Si / 1000 Ang^3
#
#
#
# Elastic Constant Matrix: (Units=GPa)
#
#
# Indices 1 2 3 4 5 6 
#
# 1 76.0810 39.9067 26.8448 0.0000 0.0000 0.0000
# 2 39.9067 98.3989 31.2377 0.0000 0.0000 0.0000
# 3 26.8448 31.2377 97.9405 0.0000 0.0000 0.0000
# 4 0.0000 0.0000 0.0000 15.4806 0.0000 0.0000
# 5 0.0000 0.0000 0.0000 0.0000 20.7548 0.0000
# 6 0.0000 0.0000 0.0000 0.0000 0.0000 23.9353
#
#
#
# Elastic Compliance Matrix: (Units=1/GPa)
#
#
# Indices 1 2 3 4 5 6 
#
# 1 0.017357 -0.006152 -0.002795 0.000000 0.000000 0.000000
# 2 -0.006152 0.013488 -0.002616 0.000000 0.000000 0.000000
# 3 -0.002795 -0.002616 0.011811 0.000000 0.000000 0.000000
# 4 0.000000 0.000000 0.000000 0.064597 0.000000 0.000000
# 5 0.000000 0.000000 0.000000 0.000000 0.048182 0.000000
# 6 0.000000 0.000000 0.000000 0.000000 0.000000 0.041779
#
#
# Mechanical properties :
#
#
# Convention : Reuss Voigt Hill
#
# Bulk Modulus (GPa) = 51.20363 52.04431 51.62397
# Shear Modulus (GPa) = 22.04100 23.66288 22.85194
#
# Velocity S-wave (km/s) = 3.58781 3.71747 3.65321
# Velocity P-wave (km/s) = 6.86054 6.98720 6.92416
#
# Compressibility (1/GPa) = 0.01952987
#
# Stress axis : x y z
#
# Youngs Moduli (GPa) = 57.61337 74.13936 84.66864
#
# Poissons Ratio (x) = 0.45610 0.23668
# Poissons Ratio (y) = 0.35443 0.22147
# Poissons Ratio (z) = 0.16105 0.19393
#
# Static dielectric constant tensor:
#      x y z
#    x 3.007110 0.000000 0.000000 
#    y 0.000000 3.191310 0.000000 
#    z 0.000000 0.000000 3.437090 
# 
# 
# High freq. dielectric constant tensor:
#      x y z
#    x 1.642290 0.000000 0.000000 
#    y 0.000000 1.632550 0.000000 
#    z 0.000000 0.000000 1.676480 
# 
# From -- ./inp_files/1680.got.cif
#   From: 2010.03.12/outbox.cif.g09.slc.cpg/sg32_1_cif.got.tgz:1680.got - 2010.04.14 01:46:39.
