data_PCOD8170357
_publ_section_title
;
Structure prediction by ZEFSAII (Michael W. Deem and Ramdas Pophale) SiO2 
 PCOD8170357
Probable space group: P M N 21
;
_chemical_formula_sum "Si O2"
_cell_formula_units_Z 20
_cell_length_a 9.689026
_cell_length_b 8.934996
_cell_length_c 10.991345
_cell_angle_alpha 90.000000
_cell_angle_beta 90.000000
_cell_angle_gamma 90.000000
_cell_volume 951.536219
_symmetry_space_group_name_H-M "P M N 21"
_symmetry_group_IT_number 31
_symmetry_cell_setting 'orthorhombic'
loop_
_space_group_symop_operation_xyz
x,y,z
1/2-x,-y,1/2+z
-x,y,z
1/2+x,-y,1/2+z
loop_
_atom_site_type_symbol
_atom_site_label
_atom_site_fract_x
_atom_site_fract_y
_atom_site_fract_z
Si Si1 0.000000 0.673543 0.690670
Si Si2 0.717535 0.381356 0.992675
Si Si3 0.500000 0.467275 0.452824
Si Si4 0.000000 0.028236 0.690033
Si Si5 0.782816 0.880911 0.312168
Si Si6 0.500000 0.896123 0.904061
Si Si7 0.000000 0.704034 0.169613
Si Si8 0.000000 0.446347 0.347061
O O1 0.141377 0.629051 0.622435
O O2 0.000000 0.573388 0.811621
O O3 0.000000 0.850918 0.705920
O O4 0.715636 0.217026 0.934289
O O5 0.637608 0.503147 0.914492
O O6 0.872690 0.435237 0.999857
O O7 0.500000 0.308569 0.523711
O O8 0.868594 0.091372 0.761476
O O9 0.000000 0.088854 0.551094
O O10 0.863957 0.792603 0.207747
O O11 0.861504 0.031938 0.348774
O O12 0.500000 0.731653 0.846800
O O13 0.000000 0.531485 0.217754
#
# Coordination Sequence:
#
# PCOD8170357 Si02
#       8
#     2   4   2   2   4   2   2   2
#     4  11  26  48  68 105 144 182 228 302 348 418
#     4  10  23  47  66  99 140 178 226 292 354 402
#     4  12  27  38  76 101 130 183 249 279 344 423
#     4  12  25  40  78 102 138 181 242 284 352 427
#     4  10  23  45  68  96 143 180 222 288 358 400
#     4  11  23  45  68 103 136 190 224 287 349 419
#     4   9  23  45  62 103 141 177 228 295 335 417
#     4   9  22  40  74  92 137 183 227 279 352 412
#
# _framework density 21.018642
#
# number of rings (size 3 to 8) (size 9 to 14) (size 15 to 20)
#    0.000    1.600    2.000    1.800   11.200    1.600 
#    0.000    2.000    0.000    0.000    0.000    0.000 
#    0.000    0.000    0.000    0.000    0.000    0.000 
#
# Total GULP energy -247936.109831 kJ/mol
# GULP energy per Si atom -12396.805492 kJ/mol
# Density = 2.097080 g / cm^3
# Si number density = 21.018642 Si / 1000 Ang^3
#
#
#
# Elastic Constant Matrix: (Units=GPa)
#
#
# Indices 1 2 3 4 5 6 
#
# 1 191.9084 60.8808 62.6572 0.0000 0.0000 0.0000
# 2 60.8808 140.5019 42.4766 0.0000 0.0000 0.0000
# 3 62.6572 42.4766 113.2176 0.0000 0.0000 0.0000
# 4 0.0000 0.0000 0.0000 15.7711 0.0000 0.0000
# 5 0.0000 0.0000 0.0000 0.0000 18.4820 0.0000
# 6 0.0000 0.0000 0.0000 0.0000 0.0000 8.6837
#
#
#
# Elastic Compliance Matrix: (Units=1/GPa)
#
#
# Indices 1 2 3 4 5 6 
#
# 1 0.006848 -0.002055 -0.003019 0.000000 0.000000 0.000000
# 2 -0.002055 0.008644 -0.002106 0.000000 0.000000 0.000000
# 3 -0.003019 -0.002106 0.011294 0.000000 0.000000 0.000000
# 4 0.000000 0.000000 0.000000 0.063407 0.000000 0.000000
# 5 0.000000 0.000000 0.000000 0.000000 0.054107 0.000000
# 6 0.000000 0.000000 0.000000 0.000000 0.000000 0.115158
#
#
# Mechanical properties :
#
#
# Convention : Reuss Voigt Hill
#
# Bulk Modulus (GPa) = 80.47336 86.40633 83.43984
# Shear Modulus (GPa) = 17.98819 27.22825 22.60822
#
# Velocity S-wave (km/s) = 2.92862 3.60312 3.28323
# Velocity P-wave (km/s) = 7.05730 7.64909 7.35915
#
# Compressibility (1/GPa) = 0.01242647
#
# Stress axis : x y z
#
# Youngs Moduli (GPa) = 146.01939 115.68225 88.54592
#
# Poissons Ratio (x) = 0.23769 0.26734
# Poissons Ratio (y) = 0.30003 0.18648
# Poissons Ratio (z) = 0.44086 0.24363
#
# Static dielectric constant tensor:
#      x y z
#    x 3.127110 0.000000 0.000000 
#    y 0.000000 3.750480 0.000000 
#    z 0.000000 0.000000 3.845890 
# 
# 
# High freq. dielectric constant tensor:
#      x y z
#    x 1.839330 0.000000 0.000000 
#    y 0.000000 1.826800 0.000000 
#    z 0.000000 0.000000 1.823950 
# 
# From -- ./inp_files/3418.got.cif
#   From: 2010.03.12/outbox.cif.g09.slc.cpg/sg31_2_cif.got.tgz:3418.got - 2010.04.14 01:42:59.
