data_PCOD8170395
_publ_section_title
;
Structure prediction by ZEFSAII (Michael W. Deem and Ramdas Pophale) SiO2 
 PCOD8170395
Probable space group: P M N 21
;
_chemical_formula_sum "Si O2"
_cell_formula_units_Z 20
_cell_length_a 27.428094
_cell_length_b 5.071565
_cell_length_c 5.452881
_cell_angle_alpha 90.000000
_cell_angle_beta 90.000000
_cell_angle_gamma 90.000000
_cell_volume 758.514077
_symmetry_space_group_name_H-M "P M N 21"
_symmetry_group_IT_number 31
_symmetry_cell_setting 'orthorhombic'
loop_
_space_group_symop_operation_xyz
x,y,z
1/2-x,-y,1/2+z
-x,y,z
1/2+x,-y,1/2+z
loop_
_atom_site_type_symbol
_atom_site_label
_atom_site_fract_x
_atom_site_fract_y
_atom_site_fract_z
Si Si1 0.395001 0.795287 0.586470
Si Si2 0.251520 0.669101 0.221990
Si Si3 0.500000 0.219029 0.091389
Si Si4 0.000000 0.285519 0.284300
Si Si5 0.828129 0.008019 0.457978
Si Si6 0.605030 0.297409 0.292847
O O1 0.452310 0.765101 0.626429
O O2 0.378909 0.586461 0.380906
O O3 0.383323 0.090620 0.504914
O O4 0.362137 0.766549 0.830945
O O5 0.258962 0.498988 0.472213
O O6 0.299512 0.845599 0.176853
O O7 0.207874 0.875473 0.260623
O O8 0.547566 0.286877 0.245396
O O9 0.500000 0.408176 0.855603
O O10 0.500000 0.911675 0.016945
O O11 0.862788 0.774740 0.557304
#
# Coordination Sequence:
#
# PCOD8170395 Si02
#       6
#     4   4   2   2   4   4
#     4  12  29  50  85 121 168 223 281 347 430 514
#     4  12  32  56  88 120 176 224 294 372 448 518
#     4  12  24  50  78 121 171 222 273 348 420 510
#     4  12  24  50  78 121 171 222 273 348 420 510
#     4  12  32  53  80 128 162 223 292 362 438 518
#     4  12  29  50  85 121 168 223 281 347 430 514
#
# _framework density 26.367342000000001
#
# number of rings (size 3 to 8) (size 9 to 14) (size 15 to 20)
#    0.000    0.000    2.000    4.800   14.000    0.000 
#    0.000    0.000    0.000    0.000    0.000    0.000 
#    0.000    0.000    0.000    0.000    0.000    0.000 
#
# Total GULP energy -248076.960435 kJ/mol
# GULP energy per Si atom -12403.848022 kJ/mol
# Density = 2.630733 g / cm^3
# Si number density = 26.367342 Si / 1000 Ang^3
#
#
#
# Elastic Constant Matrix: (Units=GPa)
#
#
# Indices 1 2 3 4 5 6 
#
# 1 175.9858 47.6738 59.0331 0.0000 0.0000 0.0000
# 2 47.6738 96.4783 42.2188 0.0000 0.0000 0.0000
# 3 59.0331 42.2188 135.2044 0.0000 0.0000 0.0000
# 4 0.0000 0.0000 0.0000 65.3473 0.0000 0.0000
# 5 0.0000 0.0000 0.0000 0.0000 -218.3364 0.0000
# 6 0.0000 0.0000 0.0000 0.0000 0.0000 -2.0413
#
#
#
# Elastic Compliance Matrix: (Units=1/GPa)
#
#
# Indices 1 2 3 4 5 6 
#
# 1 0.007146 -0.002508 -0.002337 0.000000 0.000000 0.000000
# 2 -0.002508 0.012886 -0.002929 0.000000 0.000000 0.000000
# 3 -0.002337 -0.002929 0.009331 0.000000 0.000000 0.000000
# 4 0.000000 0.000000 0.000000 0.015303 0.000000 0.000000
# 5 0.000000 0.000000 0.000000 0.000000 -0.004580 0.000000
# 6 0.000000 0.000000 0.000000 0.000000 0.000000 -0.489887
#
#
# Mechanical properties :
#
#
# Convention : Reuss Voigt Hill
#
# Bulk Modulus (GPa) = 72.38335 78.39110 75.38723
# Shear Modulus (GPa) = -11.63740 -13.75656 -12.69698
#
# Velocity S-wave (km/s) = -2.10313 -2.28661 -2.19679
# Velocity P-wave (km/s) = 4.64908 4.77739 4.71367
#
# Compressibility (1/GPa) = 0.01381533
#
# Stress axis : x y z
#
# Youngs Moduli (GPa) = 139.94611 77.60315 107.17070
#
# Poissons Ratio (x) = 0.19466 0.25042
# Poissons Ratio (y) = 0.35104 0.31386
# Poissons Ratio (z) = 0.32701 0.22727
#
# Static dielectric constant tensor:
#      x y z
#    x 5.858170 0.000000 0.000000 
#    y 0.000000 5.056250 0.000000 
#    z 0.000000 0.000000 4.608090 
# 
# 
# High freq. dielectric constant tensor:
#      x y z
#    x 2.082020 0.000000 0.000000 
#    y 0.000000 2.066920 0.000000 
#    z 0.000000 0.000000 2.057810 
# 
# From -- ./inp_files/1325.got.cif
#   From: 2010.03.12/outbox.cif.g09.slc.cpg/sg31_1_cif.got.tgz:1325.got - 2010.04.14 01:42:59.
