data_PCOD8170732
_publ_section_title
;
Structure prediction by ZEFSAII (Michael W. Deem and Ramdas Pophale) SiO2 
 PCOD8170732
Probable space group: P N A 21
;
_chemical_formula_sum "Si O2"
_cell_formula_units_Z 32
_cell_length_a 11.891388
_cell_length_b 14.687973
_cell_length_c 9.266802
_cell_angle_alpha 90.000000
_cell_angle_beta 90.000000
_cell_angle_gamma 90.000000
_cell_volume 1618.543213
_symmetry_space_group_name_H-M "P N A 21"
_symmetry_group_IT_number 33
_symmetry_cell_setting 'orthorhombic'
loop_
_space_group_symop_operation_xyz
x,y,z
-x,-y,1/2+z
1/2-x,1/2+y,1/2+z
1/2+x,1/2-y,z
loop_
_atom_site_type_symbol
_atom_site_label
_atom_site_fract_x
_atom_site_fract_y
_atom_site_fract_z
Si Si1 0.424164 0.417738 0.611500
Si Si2 0.254549 0.021022 0.672845
Si Si3 0.966788 0.062454 0.287749
Si Si4 0.326186 0.064712 0.347460
Si Si5 0.368804 0.695815 0.160720
Si Si6 0.416257 0.900478 0.844964
Si Si7 0.641632 0.295976 0.325606
Si Si8 0.176682 0.389662 0.653898
O O1 0.434169 0.498099 0.727762
O O2 0.453659 0.460723 0.456263
O O3 0.503293 0.336696 0.666388
O O4 0.302940 0.374064 0.600723
O O5 0.149275 0.950768 0.697714
O O6 0.363577 0.986630 0.759984
O O7 0.284828 0.034507 0.506038
O O8 0.212913 0.119719 0.733618
O O9 0.019429 0.163956 0.278592
O O10 0.449877 0.106827 0.335133
O O11 0.244013 0.139437 0.270877
O O12 0.330819 0.970973 0.263420
O O13 0.360184 0.795422 0.234149
O O14 0.335995 0.708561 0.995218
O O15 0.359142 0.809455 0.774877
O O16 0.397082 0.912395 0.014683
#
# Coordination Sequence:
#
# PCOD8170732 Si02
#       8
#     4   4   4   4   4   4   4   4
#     4  10  19  35  60  88 112 153 201 245 294 347
#     4  10  21  39  60  87 122 153 200 249 305 346
#     4  10  19  36  60  86 115 150 201 253 289 348
#     4  11  23  40  59  89 125 155 198 247 311 358
#     4   8  20  35  59  87 115 156 198 247 285 350
#     4  11  23  37  63  87 119 164 198 251 296 360
#     4   9  20  36  60  88 111 156 204 243 287 357
#     4  11  21  38  61  88 117 161 200 241 299 362
#
# _framework density 19.770866000000002
#
# number of rings (size 3 to 8) (size 9 to 14) (size 15 to 20)
#    0.000    2.000    2.500    1.500    1.750    7.000 
#    0.000    3.750    2.750    0.000    0.000    0.000 
#    0.000    0.000    0.000    0.000    0.000    0.000 
#
# Total GULP energy -396490.060188 kJ/mol
# GULP energy per Si atom -12390.314381 kJ/mol
# Density = 1.972587 g / cm^3
# Si number density = 19.770866 Si / 1000 Ang^3
#
#
#
# Elastic Constant Matrix: (Units=GPa)
#
#
# Indices 1 2 3 4 5 6 
#
# 1 111.7103 44.3108 26.6822 0.0000 0.0000 0.0000
# 2 44.3108 125.8968 41.8871 0.0000 0.0000 0.0000
# 3 26.6822 41.8871 50.3129 0.0000 0.0000 0.0000
# 4 0.0000 0.0000 0.0000 24.8564 0.0000 0.0000
# 5 0.0000 0.0000 0.0000 0.0000 30.2793 0.0000
# 6 0.0000 0.0000 0.0000 0.0000 0.0000 9.6171
#
#
#
# Elastic Compliance Matrix: (Units=1/GPa)
#
#
# Indices 1 2 3 4 5 6 
#
# 1 0.010846 -0.002633 -0.003560 0.000000 0.000000 0.000000
# 2 -0.002633 0.011625 -0.008282 0.000000 0.000000 0.000000
# 3 -0.003560 -0.008282 0.028659 0.000000 0.000000 0.000000
# 4 0.000000 0.000000 0.000000 0.040231 0.000000 0.000000
# 5 0.000000 0.000000 0.000000 0.000000 0.033026 0.000000
# 6 0.000000 0.000000 0.000000 0.000000 0.000000 0.103982
#
#
# Mechanical properties :
#
#
# Convention : Reuss Voigt Hill
#
# Bulk Modulus (GPa) = 45.08541 57.07558 51.08050
# Shear Modulus (GPa) = 18.88839 24.61988 21.75414
#
# Velocity S-wave (km/s) = 3.09425 3.53265 3.32069
# Velocity P-wave (km/s) = 5.96819 6.75061 6.37142
#
# Compressibility (1/GPa) = 0.02218012
#
# Stress axis : x y z
#
# Youngs Moduli (GPa) = 92.19583 86.01956 34.89349
#
# Poissons Ratio (x) = 0.22650 0.12422
# Poissons Ratio (y) = 0.24276 0.28899
# Poissons Ratio (z) = 0.32822 0.71242
#
# Static dielectric constant tensor:
#      x y z
#    x 3.853970 0.000000 0.000000 
#    y 0.000000 3.902640 0.000000 
#    z 0.000000 0.000000 3.292040 
# 
# 
# High freq. dielectric constant tensor:
#      x y z
#    x 1.783920 0.000000 0.000000 
#    y 0.000000 1.775440 0.000000 
#    z 0.000000 0.000000 1.732800 
# 
# From -- ./inp_files/3916.got.cif
#   From: 2010.03.12/outbox.cif.g09.slc.cpg/sg33_2_cif.got.tgz:3916.got - 2010.04.14 01:49:19.
