data_PCOD8170612
_publ_section_title
;
Structure prediction by ZEFSAII (Michael W. Deem and Ramdas Pophale) SiO2 
 PCOD8170612
Probable space group: P B A 2
;
_chemical_formula_sum "Si O2"
_cell_formula_units_Z 22
_cell_length_a 13.139583
_cell_length_b 11.528651
_cell_length_c 6.241555
_cell_angle_alpha 90.000000
_cell_angle_beta 90.000000
_cell_angle_gamma 90.000000
_cell_volume 945.481154
_symmetry_space_group_name_H-M "P B A 2"
_symmetry_group_IT_number 32
_symmetry_cell_setting 'orthorhombic'
loop_
_space_group_symop_operation_xyz
x,y,z
-x,-y,z
1/2-x,1/2+y,z
1/2+x,1/2-y,z
loop_
_atom_site_type_symbol
_atom_site_label
_atom_site_fract_x
_atom_site_fract_y
_atom_site_fract_z
Si Si1 0.145156 0.615872 0.370060
Si Si2 0.500000 0.500000 0.509664
Si Si3 0.145137 0.384159 0.649255
Si Si4 0.866261 0.186398 0.714239
Si Si5 0.633717 0.313572 0.305064
Si Si6 0.999989 0.327546 0.009641
O O1 0.152605 0.500028 0.509695
O O2 0.120517 0.726683 0.514831
O O3 0.252266 0.643110 0.256324
O O4 0.054925 0.596517 0.195474
O O5 0.569098 0.573364 0.667801
O O6 0.569044 0.426574 0.351525
O O7 0.252238 0.356890 0.763015
O O8 0.120503 0.273375 0.504421
O O9 0.054892 0.403493 0.823811
O O10 0.908399 0.247907 0.925107
O O11 0.591591 0.252076 0.094173
#
# Coordination Sequence:
#
# PCOD8170612 Si02
#       6
#     4   2   4   4   4   4
#     4  11  25  46  71 103 150 188 235 301 363 431
#     4  12  20  50  70  96 144 188 240 296 352 414
#     4  11  25  46  71 103 150 188 235 301 363 431
#     4  11  25  45  71 104 142 190 241 298 359 423
#     4  11  25  45  71 104 142 190 241 298 359 423
#     4  12  24  46  72 110 136 191 249 284 358 440
#
# _framework density 23.268574000000001
#
# number of rings (size 3 to 8) (size 9 to 14) (size 15 to 20)
#    0.000    0.727    5.455    1.091    0.000    6.545 
#    0.000    3.636    0.000    0.000    0.000    0.000 
#    0.000    0.000    0.000    0.000    0.000    0.000 
#
# Total GULP energy -272855.677609 kJ/mol
# GULP energy per Si atom -12402.530800 kJ/mol
# Density = 2.321561 g / cm^3
# Si number density = 23.268574 Si / 1000 Ang^3
#
#
#
# Elastic Constant Matrix: (Units=GPa)
#
#
# Indices 1 2 3 4 5 6 
#
# 1 176.3743 62.4836 66.2135 0.0000 0.0000 0.0000
# 2 62.4836 112.2963 34.6262 0.0000 0.0000 0.0000
# 3 66.2135 34.6262 92.1373 0.0000 0.0000 0.0000
# 4 0.0000 0.0000 0.0000 11.6512 0.0000 0.0000
# 5 0.0000 0.0000 0.0000 0.0000 46.8467 0.0000
# 6 0.0000 0.0000 0.0000 0.0000 0.0000 46.0704
#
#
#
# Elastic Compliance Matrix: (Units=1/GPa)
#
#
# Indices 1 2 3 4 5 6 
#
# 1 0.008730 -0.003306 -0.005031 0.000000 0.000000 0.000000
# 2 -0.003306 0.011324 -0.001880 0.000000 0.000000 0.000000
# 3 -0.005031 -0.001880 0.015175 0.000000 0.000000 0.000000
# 4 0.000000 0.000000 0.000000 0.085828 0.000000 0.000000
# 5 0.000000 0.000000 0.000000 0.000000 0.021346 0.000000
# 6 0.000000 0.000000 0.000000 0.000000 0.000000 0.021706
#
#
# Mechanical properties :
#
#
# Convention : Reuss Voigt Hill
#
# Bulk Modulus (GPa) = 67.58917 78.60605 73.09761
# Shear Modulus (GPa) = 26.38863 35.41261 30.90062
#
# Velocity S-wave (km/s) = 3.37128 3.90540 3.64812
# Velocity P-wave (km/s) = 6.65316 7.36149 7.01627
#
# Compressibility (1/GPa) = 0.01479527
#
# Stress axis : x y z
#
# Youngs Moduli (GPa) = 114.55117 88.30627 65.89617
#
# Poissons Ratio (x) = 0.29195 0.33153
# Poissons Ratio (y) = 0.37871 0.12388
# Poissons Ratio (z) = 0.57632 0.16601
#
# Static dielectric constant tensor:
#      x y z
#    x 4.600240 0.000000 0.000000 
#    y 0.000000 4.247420 0.000000 
#    z 0.000000 0.000000 4.077140 
# 
# 
# High freq. dielectric constant tensor:
#      x y z
#    x 1.948450 0.000000 0.000000 
#    y 0.000000 1.929410 0.000000 
#    z 0.000000 0.000000 1.907070 
# 
# From -- ./inp_files/838.got.cif
#   From: 2010.03.12/outbox.cif.g09.slc.cpg/sg32_1_cif.got.tgz:838.got - 2010.04.14 01:46:39.
