data_PCOD8170858
_publ_section_title
;
Structure prediction by ZEFSAII (Michael W. Deem and Ramdas Pophale) SiO2 
 PCOD8170858
Probable space group: P N A 21
;
_chemical_formula_sum "Si O2"
_cell_formula_units_Z 28
_cell_length_a 15.407104
_cell_length_b 15.657741
_cell_length_c 5.344468
_cell_angle_alpha 90.000000
_cell_angle_beta 90.000000
_cell_angle_gamma 90.000000
_cell_volume 1289.301833
_symmetry_space_group_name_H-M "P N A 21"
_symmetry_group_IT_number 33
_symmetry_cell_setting 'orthorhombic'
loop_
_space_group_symop_operation_xyz
x,y,z
-x,-y,1/2+z
1/2-x,1/2+y,1/2+z
1/2+x,1/2-y,z
loop_
_atom_site_type_symbol
_atom_site_label
_atom_site_fract_x
_atom_site_fract_y
_atom_site_fract_z
Si Si1 0.540680 0.965679 0.356570
Si Si2 0.209144 0.676808 0.734080
Si Si3 0.104374 0.183594 0.253745
Si Si4 0.217812 0.572438 0.229374
Si Si5 0.951539 0.271383 0.989518
Si Si6 0.028601 0.872242 0.143003
Si Si7 0.892957 0.974661 0.419215
O O1 0.639644 0.993890 0.291076
O O2 0.536706 0.863037 0.361567
O O3 0.519913 0.001581 0.632112
O O4 0.299950 0.726975 0.793081
O O5 0.215607 0.642675 0.449188
O O6 0.118911 0.731263 0.719342
O O7 0.196961 0.608203 0.953746
O O8 0.126032 0.087993 0.152884
O O9 0.047642 0.242081 0.071390
O O10 0.051622 0.174810 0.508463
O O11 0.312292 0.528436 0.225414
O O12 0.918740 0.200395 0.791667
O O13 0.985618 0.945422 0.313604
O O14 0.097992 0.924368 0.978358
#
# Coordination Sequence:
#
# PCOD8170858 Si02
#       7
#     4   4   4   4   4   4   4
#     4  11  24  45  69  92 126 178 232 281 336 396
#     4  10  21  41  65  94 130 179 223 267 343 408
#     4  10  21  38  65  90 135 176 219 273 333 414
#     4  10  21  40  68  93 127 172 226 272 332 411
#     4  10  25  40  65  98 130 181 228 285 344 399
#     4  11  20  37  64  98 139 170 224 276 340 411
#     4  10  20  37  62  99 131 178 218 266 342 411
#
# _framework density 21.717181
#
# number of rings (size 3 to 8) (size 9 to 14) (size 15 to 20)
#    0.000    1.714    2.857    1.714    6.000    0.000 
#    2.571    1.429    0.000    0.000    0.000    0.000 
#    0.000    0.000    0.000    0.000    0.000    0.000 
#
# Total GULP energy -346871.791247 kJ/mol
# GULP energy per Si atom -12388.278259 kJ/mol
# Density = 2.166775 g / cm^3
# Si number density = 21.717181 Si / 1000 Ang^3
#
#
#
# Elastic Constant Matrix: (Units=GPa)
#
#
# Indices 1 2 3 4 5 6 
#
# 1 137.2868 43.5604 29.0474 0.0000 0.0000 0.0000
# 2 43.5604 103.3798 38.3999 0.0000 0.0000 0.0000
# 3 29.0474 38.3999 103.3103 0.0000 0.0000 0.0000
# 4 0.0000 0.0000 0.0000 34.3122 0.0000 0.0000
# 5 0.0000 0.0000 0.0000 0.0000 29.5695 0.0000
# 6 0.0000 0.0000 0.0000 0.0000 0.0000 23.9395
#
#
#
# Elastic Compliance Matrix: (Units=1/GPa)
#
#
# Indices 1 2 3 4 5 6 
#
# 1 0.008542 -0.003141 -0.001234 0.000000 0.000000 0.000000
# 2 -0.003141 0.012377 -0.003718 0.000000 0.000000 0.000000
# 3 -0.001234 -0.003718 0.011408 0.000000 0.000000 0.000000
# 4 0.000000 0.000000 0.000000 0.029144 0.000000 0.000000
# 5 0.000000 0.000000 0.000000 0.000000 0.033819 0.000000
# 6 0.000000 0.000000 0.000000 0.000000 0.000000 0.041772
#
#
# Mechanical properties :
#
#
# Convention : Reuss Voigt Hill
#
# Bulk Modulus (GPa) = 61.94853 62.88805 62.41829
# Shear Modulus (GPa) = 31.52032 33.09553 32.30793
#
# Velocity S-wave (km/s) = 3.81386 3.90799 3.86121
# Velocity P-wave (km/s) = 6.92684 7.02736 6.97728
#
# Compressibility (1/GPa) = 0.01614243
#
# Stress axis : x y z
#
# Youngs Moduli (GPa) = 117.07282 80.79311 87.65481
#
# Poissons Ratio (x) = 0.25375 0.10819
# Poissons Ratio (y) = 0.36769 0.32586
# Poissons Ratio (z) = 0.14450 0.30035
#
# Static dielectric constant tensor:
#      x y z
#    x 4.881740 0.000000 0.000000 
#    y 0.000000 3.614730 0.000000 
#    z 0.000000 0.000000 3.986070 
# 
# 
# High freq. dielectric constant tensor:
#      x y z
#    x 1.870860 0.000000 0.000000 
#    y 0.000000 1.808210 0.000000 
#    z 0.000000 0.000000 1.861310 
# 
# From -- ./inp_files/1410.got.cif
#   From: 2010.03.12/outbox.cif.g09.slc.cpg/sg33_1_cif.got.tgz:1410.got - 2010.04.14 01:49:19.
