data_PCOD8170775
_publ_section_title
;
Structure prediction by ZEFSAII (Michael W. Deem and Ramdas Pophale) SiO2 
 PCOD8170775
Probable space group: P N A 21
;
_chemical_formula_sum "Si O2"
_cell_formula_units_Z 32
_cell_length_a 13.260184
_cell_length_b 10.530743
_cell_length_c 10.204922
_cell_angle_alpha 90.000000
_cell_angle_beta 90.000000
_cell_angle_gamma 90.000000
_cell_volume 1425.011122
_symmetry_space_group_name_H-M "P N A 21"
_symmetry_group_IT_number 33
_symmetry_cell_setting 'orthorhombic'
loop_
_space_group_symop_operation_xyz
x,y,z
-x,-y,1/2+z
1/2-x,1/2+y,1/2+z
1/2+x,1/2-y,z
loop_
_atom_site_type_symbol
_atom_site_label
_atom_site_fract_x
_atom_site_fract_y
_atom_site_fract_z
Si Si1 0.769447 0.423365 0.504480
Si Si2 0.380750 0.440952 0.181218
Si Si3 0.715296 0.208436 0.318332
Si Si4 0.253769 0.116900 0.082714
Si Si5 0.966262 0.270458 0.041496
Si Si6 0.610881 0.330915 0.850827
Si Si7 0.855789 0.569158 0.260652
Si Si8 0.426650 0.982064 0.696695
O O1 0.681945 0.518896 0.551356
O O2 0.724511 0.285510 0.457145
O O3 0.825904 0.480691 0.380712
O O4 0.848249 0.418766 0.627837
O O5 0.318575 0.365817 0.291827
O O6 0.473187 0.350754 0.139648
O O7 0.423733 0.568734 0.243463
O O8 0.697667 0.306855 0.198465
O O9 0.626385 0.100849 0.314322
O O10 0.349403 0.194693 0.029095
O O11 0.295027 0.980349 0.132835
O O12 0.176879 0.100826 0.963220
O O13 0.038055 0.382998 0.086893
O O14 0.006781 0.227351 0.901704
O O15 0.673452 0.216168 0.782694
O O16 0.977207 0.557273 0.249523
#
# Coordination Sequence:
#
# PCOD8170775 Si02
#       8
#     4   4   4   4   4   4   4   4
#     4  10  20  42  64  90 126 165 216 270 320 394
#     4  10  24  39  57  92 130 170 210 258 328 388
#     4   9  18  39  66  85 120 172 209 267 330 378
#     4   9  20  39  67  90 120 167 215 267 330 385
#     4  10  20  39  60  88 124 167 207 261 321 380
#     4  12  22  42  62  91 134 168 217 269 325 395
#     4  10  21  38  66  98 118 168 226 267 328 384
#     4  10  19  38  66  94 124 161 224 265 318 386
#
# _framework density 22.455963000000001
#
# number of rings (size 3 to 8) (size 9 to 14) (size 15 to 20)
#    0.000    2.000    2.500    2.250    0.000    4.000 
#    6.750    0.000    0.000    0.000    0.000    0.000 
#    0.000    0.000    0.000    0.000    0.000    0.000 
#
# Total GULP energy -396578.431713 kJ/mol
# GULP energy per Si atom -12393.075991 kJ/mol
# Density = 2.240485 g / cm^3
# Si number density = 22.455963 Si / 1000 Ang^3
#
#
#
# Elastic Constant Matrix: (Units=GPa)
#
#
# Indices 1 2 3 4 5 6 
#
# 1 52.9268 5.2751 28.3286 0.0000 0.0000 0.0000
# 2 5.2751 87.0151 37.6582 0.0000 0.0000 0.0000
# 3 28.3286 37.6582 74.6438 0.0000 0.0000 0.0000
# 4 0.0000 0.0000 0.0000 49.5792 0.0000 0.0000
# 5 0.0000 0.0000 0.0000 0.0000 29.7488 0.0000
# 6 0.0000 0.0000 0.0000 0.0000 0.0000 16.9605
#
#
#
# Elastic Compliance Matrix: (Units=1/GPa)
#
#
# Indices 1 2 3 4 5 6 
#
# 1 0.024402 0.003235 -0.010893 0.000000 0.000000 0.000000
# 2 0.003235 0.015131 -0.008861 0.000000 0.000000 0.000000
# 3 -0.010893 -0.008861 0.022002 0.000000 0.000000 0.000000
# 4 0.000000 0.000000 0.000000 0.020170 0.000000 0.000000
# 5 0.000000 0.000000 0.000000 0.000000 0.033615 0.000000
# 6 0.000000 0.000000 0.000000 0.000000 0.000000 0.058961
#
#
# Mechanical properties :
#
#
# Convention : Reuss Voigt Hill
#
# Bulk Modulus (GPa) = 35.09294 39.67884 37.38589
# Shear Modulus (GPa) = 23.06085 28.81262 25.93674
#
# Velocity S-wave (km/s) = 3.20806 3.58589 3.40222
# Velocity P-wave (km/s) = 5.42066 5.90362 5.66729
#
# Compressibility (1/GPa) = 0.02849576
#
# Stress axis : x y z
#
# Youngs Moduli (GPa) = 40.98030 66.08861 45.45106
#
# Poissons Ratio (x) = -0.21379 0.49510
# Poissons Ratio (y) = -0.13257 0.40276
# Poissons Ratio (z) = 0.44640 0.58564
#
# Static dielectric constant tensor:
#      x y z
#    x 3.889000 0.000000 0.000000 
#    y 0.000000 4.263070 0.000000 
#    z 0.000000 0.000000 3.906320 
# 
# 
# High freq. dielectric constant tensor:
#      x y z
#    x 1.869230 0.000000 0.000000 
#    y 0.000000 1.886850 0.000000 
#    z 0.000000 0.000000 1.871100 
# 
# From -- ./inp_files/4432.got.cif
#   From: 2010.03.12/outbox.cif.g09.slc.cpg/sg33_3_cif.got.tgz:4432.got - 2010.04.14 01:49:19.
