data_PCOD8170238
_publ_section_title
;
Structure prediction by ZEFSAII (Michael W. Deem and Ramdas Pophale) SiO2 
 PCOD8170238
Probable space group: P M N 21
;
_chemical_formula_sum "Si O2"
_cell_formula_units_Z 32
_cell_length_a 8.943578
_cell_length_b 10.279632
_cell_length_c 19.110270
_cell_angle_alpha 90.000000
_cell_angle_beta 90.000000
_cell_angle_gamma 90.000000
_cell_volume 1756.934980
_symmetry_space_group_name_H-M "P M N 21"
_symmetry_group_IT_number 31
_symmetry_cell_setting 'orthorhombic'
loop_
_space_group_symop_operation_xyz
x,y,z
1/2-x,-y,1/2+z
-x,y,z
1/2+x,-y,1/2+z
loop_
_atom_site_type_symbol
_atom_site_label
_atom_site_fract_x
_atom_site_fract_y
_atom_site_fract_z
Si Si1 0.327515 0.754650 0.796240
Si Si2 0.671962 0.779923 0.951155
Si Si3 0.323861 0.518296 0.299786
Si Si4 0.673743 0.870764 0.650881
Si Si5 0.177490 0.608698 0.167175
Si Si6 0.324098 0.139705 0.584919
Si Si7 0.828621 0.517586 0.440764
Si Si8 0.173703 0.626414 0.588527
O O1 0.500000 0.707693 0.797991
O O2 0.287322 0.820163 0.871103
O O3 0.227002 0.628533 0.782932
O O4 0.298871 0.857558 0.734351
O O5 0.500000 0.806247 0.967604
O O6 0.714162 0.629008 0.962748
O O7 0.764287 0.866938 0.005545
O O8 0.500000 0.527249 0.292987
O O9 0.248875 0.615580 0.244196
O O10 0.274226 0.564098 0.376837
O O11 0.500000 0.846895 0.632610
O O12 0.774265 0.769739 0.608576
O O13 0.727897 0.013270 0.627930
O O14 0.238516 0.733017 0.124439
O O15 0.227738 0.477124 0.129683
O O16 0.000000 0.609653 0.173648
O O17 0.500000 0.146657 0.580656
O O18 0.799222 0.612101 0.505712
O O19 0.000000 0.521481 0.415576
O O20 0.000000 0.605169 0.607643
#
# Coordination Sequence:
#
# PCOD8170238 Si02
#       8
#     4   4   4   4   4   4   4   4
#     4   9  18  34  55  78 106 144 184 223 281 336
#     4   9  17  32  54  79 107 141 180 229 279 326
#     4  11  21  32  53  84 113 140 184 235 279 327
#     4  10  21  38  57  79 112 150 185 228 277 332
#     4  11  21  35  55  79 112 150 184 224 276 328
#     4  10  22  37  55  81 111 149 191 225 271 333
#     4   9  19  35  54  79 113 145 179 226 282 335
#     4  11  21  35  57  85 110 139 185 232 275 329
#
# _framework density 18.213536999999999
#
# number of rings (size 3 to 8) (size 9 to 14) (size 15 to 20)
#    0.000    2.000    2.500    2.625    0.000    4.000 
#    0.000    1.250    0.000    3.000    0.000    0.000 
#    0.000    0.000    0.000    0.000    0.000    0.000 
#
# Total GULP energy -396849.343582 kJ/mol
# GULP energy per Si atom -12401.541987 kJ/mol
# Density = 1.817208 g / cm^3
# Si number density = 18.213537 Si / 1000 Ang^3
#
#
#
# Elastic Constant Matrix: (Units=GPa)
#
#
# Indices 1 2 3 4 5 6 
#
# 1 70.8069 31.7525 47.5428 0.0000 0.0000 0.0000
# 2 31.7525 80.9504 60.6717 0.0000 0.0000 0.0000
# 3 47.5428 60.6717 145.9810 0.0000 0.0000 0.0000
# 4 0.0000 0.0000 0.0000 28.7857 0.0000 0.0000
# 5 0.0000 0.0000 0.0000 0.0000 33.1421 0.0000
# 6 0.0000 0.0000 0.0000 0.0000 0.0000 15.9573
#
#
#
# Elastic Compliance Matrix: (Units=1/GPa)
#
#
# Indices 1 2 3 4 5 6 
#
# 1 0.018960 -0.004080 -0.004479 0.000000 0.000000 0.000000
# 2 -0.004080 0.018820 -0.006493 0.000000 0.000000 0.000000
# 3 -0.004479 -0.006493 0.011008 0.000000 0.000000 0.000000
# 4 0.000000 0.000000 0.000000 0.034739 0.000000 0.000000
# 5 0.000000 0.000000 0.000000 0.000000 0.030173 0.000000
# 6 0.000000 0.000000 0.000000 0.000000 0.000000 0.062667
#
#
# Mechanical properties :
#
#
# Convention : Reuss Voigt Hill
#
# Bulk Modulus (GPa) = 53.52378 64.18581 58.85480
# Shear Modulus (GPa) = 23.50727 26.09509 24.80118
#
# Velocity S-wave (km/s) = 3.59646 3.78925 3.69411
# Velocity P-wave (km/s) = 6.83349 7.37982 7.11190
#
# Compressibility (1/GPa) = 0.01868328
#
# Stress axis : x y z
#
# Youngs Moduli (GPa) = 52.74257 53.13456 90.84588
#
# Poissons Ratio (x) = 0.21678 0.40692
# Poissons Ratio (y) = 0.21518 0.58988
# Poissons Ratio (z) = 0.23625 0.34501
#
# Static dielectric constant tensor:
#      x y z
#    x 3.271380 0.000000 0.000000 
#    y 0.000000 3.160100 0.000000 
#    z 0.000000 0.000000 3.650010 
# 
# 
# High freq. dielectric constant tensor:
#      x y z
#    x 1.703510 0.000000 0.000000 
#    y 0.000000 1.670840 0.000000 
#    z 0.000000 0.000000 1.723970 
# 
# From -- ./inp_files/5842.got.cif
#   From: 2010.03.12/outbox.cif.g09.slc.cpg/sg31_3_cif.got.tgz:5842.got - 2010.04.14 01:42:59.
