data_PCOD8170617
_publ_section_title
;
Structure prediction by ZEFSAII (Michael W. Deem and Ramdas Pophale) SiO2 
 PCOD8170617
Probable space group: P B A 2
;
_chemical_formula_sum "Si O2"
_cell_formula_units_Z 16
_cell_length_a 9.484944
_cell_length_b 8.437468
_cell_length_c 7.412763
_cell_angle_alpha 90.000000
_cell_angle_beta 90.000000
_cell_angle_gamma 90.000000
_cell_volume 593.235354
_symmetry_space_group_name_H-M "P B A 2"
_symmetry_group_IT_number 32
_symmetry_cell_setting 'orthorhombic'
loop_
_space_group_symop_operation_xyz
x,y,z
-x,-y,z
1/2-x,1/2+y,z
1/2+x,1/2-y,z
loop_
_atom_site_type_symbol
_atom_site_label
_atom_site_fract_x
_atom_site_fract_y
_atom_site_fract_z
Si Si1 0.298266 0.448686 0.636760
Si Si2 0.846303 0.049344 0.236708
Si Si3 0.047295 0.244609 0.761547
Si Si4 0.103262 0.623342 0.116092
O O1 0.300038 0.516004 0.432729
O O2 0.140238 0.392006 0.687258
O O3 0.348946 0.590633 0.770655
O O4 0.411513 0.303061 0.641156
O O5 0.841065 0.239019 0.245467
O O6 0.744321 0.980893 0.078840
O O7 0.000000 0.000000 0.176464
O O8 0.980776 0.301593 0.949413
O O9 0.000000 0.500000 0.218772
#
# Coordination Sequence:
#
# PCOD8170617 Si02
#       4
#     4   4   4   4
#     4  11  27  52  81 119 167 215 281 343 420 502
#     4  12  27  54  81 119 167 219 280 348 423 505
#     4  11  28  49  80 121 159 218 275 348 412 503
#     4  12  31  48  84 120 165 222 276 349 423 507
#
# _framework density 26.970744
#
# number of rings (size 3 to 8) (size 9 to 14) (size 15 to 20)
#    0.000    0.500    2.500    3.000   17.500    0.000 
#    0.000    0.000    0.000    0.000    0.000    0.000 
#    0.000    0.000    0.000    0.000    0.000    0.000 
#
# Total GULP energy -198248.087204 kJ/mol
# GULP energy per Si atom -12390.505450 kJ/mol
# Density = 2.690936 g / cm^3
# Si number density = 26.970744 Si / 1000 Ang^3
#
#
#
# Elastic Constant Matrix: (Units=GPa)
#
#
# Indices 1 2 3 4 5 6 
#
# 1 191.5468 73.8881 58.3756 0.0000 0.0000 0.0000
# 2 73.8881 154.4029 45.9642 0.0000 0.0000 0.0000
# 3 58.3756 45.9642 88.5051 0.0000 0.0000 0.0000
# 4 0.0000 0.0000 0.0000 10.7215 0.0000 0.0000
# 5 0.0000 0.0000 0.0000 0.0000 38.5343 0.0000
# 6 0.0000 0.0000 0.0000 0.0000 0.0000 68.0755
#
#
#
# Elastic Compliance Matrix: (Units=1/GPa)
#
#
# Indices 1 2 3 4 5 6 
#
# 1 0.007220 -0.002410 -0.003511 0.000000 0.000000 0.000000
# 2 -0.002410 0.008465 -0.002807 0.000000 0.000000 0.000000
# 3 -0.003511 -0.002807 0.015072 0.000000 0.000000 0.000000
# 4 0.000000 0.000000 0.000000 0.093271 0.000000 0.000000
# 5 0.000000 0.000000 0.000000 0.000000 0.025951 0.000000
# 6 0.000000 0.000000 0.000000 0.000000 0.000000 0.014690
#
#
# Mechanical properties :
#
#
# Convention : Reuss Voigt Hill
#
# Bulk Modulus (GPa) = 75.17315 87.87895 81.52605
# Shear Modulus (GPa) = 26.80131 40.54805 33.67468
#
# Velocity S-wave (km/s) = 3.15575 3.88159 3.53734
# Velocity P-wave (km/s) = 6.41958 7.26242 6.85397
#
# Compressibility (1/GPa) = 0.01330262
#
# Stress axis : x y z
#
# Youngs Moduli (GPa) = 138.49978 118.12715 66.34830
#
# Poissons Ratio (x) = 0.28470 0.23292
# Poissons Ratio (y) = 0.33380 0.18623
# Poissons Ratio (z) = 0.48622 0.33156
#
# Static dielectric constant tensor:
#      x y z
#    x 5.271730 0.000000 0.000000 
#    y 0.000000 5.575870 0.000000 
#    z 0.000000 0.000000 4.282800 
# 
# 
# High freq. dielectric constant tensor:
#      x y z
#    x 2.110550 0.000000 0.000000 
#    y 0.000000 2.099380 0.000000 
#    z 0.000000 0.000000 2.054080 
# 
# From -- ./inp_files/2114.got.cif
#   From: 2010.03.12/outbox.cif.g09.slc.cpg/sg32_2_cif.got.tgz:2114.got - 2010.04.14 01:46:39.
