data_PCOD8170884
_publ_section_title
;
Structure prediction by ZEFSAII (Michael W. Deem and Ramdas Pophale) SiO2 
 PCOD8170884
Probable space group: P N A 21
;
_chemical_formula_sum "Si O2"
_cell_formula_units_Z 32
_cell_length_a 17.466306
_cell_length_b 6.257681
_cell_length_c 14.159214
_cell_angle_alpha 90.000000
_cell_angle_beta 90.000000
_cell_angle_gamma 90.000000
_cell_volume 1547.581859
_symmetry_space_group_name_H-M "P N A 21"
_symmetry_group_IT_number 33
_symmetry_cell_setting 'orthorhombic'
loop_
_space_group_symop_operation_xyz
x,y,z
-x,-y,1/2+z
1/2-x,1/2+y,1/2+z
1/2+x,1/2-y,z
loop_
_atom_site_type_symbol
_atom_site_label
_atom_site_fract_x
_atom_site_fract_y
_atom_site_fract_z
Si Si1 0.887150 0.244345 0.879720
Si Si2 0.734534 0.050766 0.313570
Si Si3 0.591877 0.401197 0.537727
Si Si4 0.507307 0.970452 0.956835
Si Si5 0.163962 0.058100 0.230508
Si Si6 0.251607 0.718915 0.126855
Si Si7 0.950575 0.851170 0.578629
Si Si8 0.357111 0.320180 0.456466
O O1 0.815183 0.404840 0.883845
O O2 0.967871 0.371104 0.881049
O O3 0.885657 0.125821 0.780015
O O4 0.877292 0.081206 0.966088
O O5 0.697660 0.285088 0.308752
O O6 0.815375 0.081827 0.365252
O O7 0.737735 0.962460 0.206379
O O8 0.660071 0.303476 0.599389
O O9 0.527588 0.514762 0.603528
O O10 0.555624 0.204659 0.482226
O O11 0.583953 0.859183 0.917359
O O12 0.529070 0.112228 0.047443
O O13 0.234019 0.951520 0.171976
O O14 0.103318 0.185128 0.167839
O O15 0.197839 0.702450 0.033589
O O16 0.904255 0.983935 0.499956
#
# Coordination Sequence:
#
# PCOD8170884 Si02
#       8
#     4   4   4   4   4   4   4   4
#     4  10  21  38  62  87 121 161 206 252 309 373
#     4  11  23  39  62  94 123 163 207 258 322 367
#     4  10  21  41  61  89 118 161 210 250 311 380
#     4  10  20  38  64  86 115 166 203 247 313 374
#     4  10  21  39  59  91 123 160 201 256 309 376
#     4  10  22  39  62  89 125 159 207 263 308 375
#     4   9  21  39  61  84 122 162 205 249 317 370
#     4  10  21  39  61  88 123 164 209 257 309 385
#
# _framework density 20.677420999999999
#
# number of rings (size 3 to 8) (size 9 to 14) (size 15 to 20)
#    0.000    2.000    0.000    3.000    0.000    8.000 
#   11.250    0.000    0.000    0.000    0.000    0.000 
#    0.000    0.000    0.000    0.000    0.000    0.000 
#
# Total GULP energy -396664.277642 kJ/mol
# GULP energy per Si atom -12395.758676 kJ/mol
# Density = 2.063036 g / cm^3
# Si number density = 20.677421 Si / 1000 Ang^3
#
#
#
# Elastic Constant Matrix: (Units=GPa)
#
#
# Indices 1 2 3 4 5 6 
#
# 1 135.2676 59.3142 48.2737 0.0000 0.0000 0.0000
# 2 59.3142 109.0494 33.4229 0.0000 0.0000 0.0000
# 3 48.2737 33.4229 69.5481 0.0000 0.0000 0.0000
# 4 0.0000 0.0000 0.0000 23.2209 0.0000 0.0000
# 5 0.0000 0.0000 0.0000 0.0000 29.8388 0.0000
# 6 0.0000 0.0000 0.0000 0.0000 0.0000 34.4026
#
#
#
# Elastic Compliance Matrix: (Units=1/GPa)
#
#
# Indices 1 2 3 4 5 6 
#
# 1 0.011398 -0.004427 -0.005784 0.000000 0.000000 0.000000
# 2 -0.004427 0.012474 -0.002922 0.000000 0.000000 0.000000
# 3 -0.005784 -0.002922 0.019797 0.000000 0.000000 0.000000
# 4 0.000000 0.000000 0.000000 0.043065 0.000000 0.000000
# 5 0.000000 0.000000 0.000000 0.000000 0.033513 0.000000
# 6 0.000000 0.000000 0.000000 0.000000 0.000000 0.029068
#
#
# Mechanical properties :
#
#
# Convention : Reuss Voigt Hill
#
# Bulk Modulus (GPa) = 57.45900 66.20964 61.83432
# Shear Modulus (GPa) = 27.56625 29.01607 28.29116
#
# Velocity S-wave (km/s) = 3.65520 3.75009 3.70295
# Velocity P-wave (km/s) = 6.75741 7.13027 6.94634
#
# Compressibility (1/GPa) = 0.01740372
#
# Stress axis : x y z
#
# Youngs Moduli (GPa) = 87.73385 80.16981 50.51173
#
# Poissons Ratio (x) = 0.35490 0.29216
# Poissons Ratio (y) = 0.38839 0.14758
# Poissons Ratio (z) = 0.50746 0.23423
#
# Static dielectric constant tensor:
#      x y z
#    x 3.888380 0.000000 0.000000 
#    y 0.000000 3.900650 0.000000 
#    z 0.000000 0.000000 3.500390 
# 
# 
# High freq. dielectric constant tensor:
#      x y z
#    x 1.815420 0.000000 0.000000 
#    y 0.000000 1.823660 0.000000 
#    z 0.000000 0.000000 1.785240 
# 
# From -- ./inp_files/8246.got.cif
#   From: 2010.03.12/outbox.cif.g09.slc.cpg/sg33_5_cif.got.tgz:8246.got - 2010.04.14 01:49:19.
