data_PCOD8170814
_publ_section_title
;
Structure prediction by ZEFSAII (Michael W. Deem and Ramdas Pophale) SiO2 
 PCOD8170814
Probable space group: P N A 21
;
_chemical_formula_sum "Si O2"
_cell_formula_units_Z 12
_cell_length_a 15.170934
_cell_length_b 9.086154
_cell_length_c 4.992261
_cell_angle_alpha 90.000000
_cell_angle_beta 90.000000
_cell_angle_gamma 90.000000
_cell_volume 688.160427
_symmetry_space_group_name_H-M "P N A 21"
_symmetry_group_IT_number 33
_symmetry_cell_setting 'orthorhombic'
loop_
_space_group_symop_operation_xyz
x,y,z
-x,-y,1/2+z
1/2-x,1/2+y,1/2+z
1/2+x,1/2-y,z
loop_
_atom_site_type_symbol
_atom_site_label
_atom_site_fract_x
_atom_site_fract_y
_atom_site_fract_z
Si Si1 0.777896 0.162983 0.452540
Si Si2 0.777895 0.837024 0.452540
Si Si3 0.558422 0.500001 0.085233
O O1 0.725794 0.263003 0.662321
O O2 0.881066 0.145208 0.535249
O O3 0.733745 0.000004 0.438735
O O4 0.774209 0.237005 0.162321
O O5 0.881065 0.854795 0.535250
O O6 0.474473 0.499999 0.889944
#
# Coordination Sequence:
#
# PCOD8170814 Si02
#       3
#     4   4   4
#     4  10  20  34  58  82 108 144 186 222 268 330
#     4  10  20  34  58  82 108 144 186 222 268 330
#     4  10  20  34  58  82 108 144 186 222 268 330
#
# _framework density 17.437794
#
# number of rings (size 3 to 8) (size 9 to 14) (size 15 to 20)
#    2.000    0.000    0.000    6.000    0.000    0.000 
#    0.000    0.000    0.000   40.000    0.000    0.000 
#    0.000    0.000    0.000    0.000    0.000    0.000 
#
# Total GULP energy -148726.382090 kJ/mol
# GULP energy per Si atom -12393.865174 kJ/mol
# Density = 1.739810 g / cm^3
# Si number density = 17.437794 Si / 1000 Ang^3
#
#
#
# Elastic Constant Matrix: (Units=GPa)
#
#
# Indices 1 2 3 4 5 6 
#
# 1 50.5452 10.4452 -8.6176 0.0000 0.0000 0.0000
# 2 10.4452 113.5840 28.6664 0.0000 0.0000 0.0000
# 3 -8.6176 28.6664 71.1421 0.0000 0.0000 0.0000
# 4 0.0000 0.0000 0.0000 19.7826 0.0000 0.0000
# 5 0.0000 0.0000 0.0000 0.0000 40.9655 0.0000
# 6 0.0000 0.0000 0.0000 0.0000 0.0000 11.0642
#
#
#
# Elastic Compliance Matrix: (Units=1/GPa)
#
#
# Indices 1 2 3 4 5 6 
#
# 1 0.021007 -0.002865 0.003699 0.000000 0.000000 0.000000
# 2 -0.002865 0.010192 -0.004454 0.000000 0.000000 0.000000
# 3 0.003699 -0.004454 0.016299 0.000000 0.000000 0.000000
# 4 0.000000 0.000000 0.000000 0.050549 0.000000 0.000000
# 5 0.000000 0.000000 0.000000 0.000000 0.024411 0.000000
# 6 0.000000 0.000000 0.000000 0.000000 0.000000 0.090381
#
#
# Mechanical properties :
#
#
# Convention : Reuss Voigt Hill
#
# Bulk Modulus (GPa) = 24.83981 32.91770 28.87875
# Shear Modulus (GPa) = 21.41340 28.01428 24.71384
#
# Velocity S-wave (km/s) = 3.50807 4.01250 3.76873
# Velocity P-wave (km/s) = 5.53936 6.35492 5.96110
#
# Compressibility (1/GPa) = 0.04025796
#
# Stress axis : x y z
#
# Youngs Moduli (GPa) = 47.60290 98.11991 61.35303
#
# Poissons Ratio (x) = 0.28116 -0.22696
# Poissons Ratio (y) = 0.13640 0.27325
# Poissons Ratio (z) = -0.17610 0.43700
#
# Static dielectric constant tensor:
#      x y z
#    x 2.939000 0.000000 0.000000 
#    y 0.000000 3.099750 0.000000 
#    z 0.000000 0.000000 3.187100 
# 
# 
# High freq. dielectric constant tensor:
#      x y z
#    x 1.649700 0.000000 0.000000 
#    y 0.000000 1.659250 0.000000 
#    z 0.000000 0.000000 1.691680 
# 
# From -- ./inp_files/45.got.cif
#   From: 2010.03.12/outbox.cif.g09.slc.cpg/sg33_1_cif.got.tgz:45.got - 2010.04.14 01:49:19.
