data_PCOD8170499
_publ_section_title
;
Structure prediction by ZEFSAII (Michael W. Deem and Ramdas Pophale) SiO2 
 PCOD8170499
Probable space group: P B A 2
;
_chemical_formula_sum "Si O2"
_cell_formula_units_Z 30
_cell_length_a 17.810280
_cell_length_b 13.549378
_cell_length_c 6.636689
_cell_angle_alpha 90.000000
_cell_angle_beta 90.000000
_cell_angle_gamma 90.000000
_cell_volume 1601.553950
_symmetry_space_group_name_H-M "P B A 2"
_symmetry_group_IT_number 32
_symmetry_cell_setting 'orthorhombic'
loop_
_space_group_symop_operation_xyz
x,y,z
-x,-y,z
1/2-x,1/2+y,z
1/2+x,1/2-y,z
loop_
_atom_site_type_symbol
_atom_site_label
_atom_site_fract_x
_atom_site_fract_y
_atom_site_fract_z
Si Si1 0.973062 0.814853 0.088240
Si Si2 0.647725 0.226288 0.336203
Si Si3 0.875000 0.051778 0.573812
Si Si4 0.858846 0.180189 0.968273
Si Si5 0.871119 0.841081 0.733100
Si Si6 0.000000 0.000000 0.302847
Si Si7 0.752992 0.351124 0.051695
Si Si8 0.751018 0.054906 0.249979
O O1 0.936054 0.736851 0.243798
O O2 0.062213 0.806008 0.079280
O O3 0.950914 0.926003 0.162953
O O4 0.936833 0.796009 0.870575
O O5 0.647243 0.257754 0.568862
O O6 0.706469 0.295385 0.221954
O O7 0.675865 0.114643 0.307818
O O8 0.796405 0.042019 0.457552
O O9 0.900487 0.943775 0.646487
O O10 0.869650 0.135850 0.744127
O O11 0.944718 0.074308 0.425050
O O12 0.824101 0.289598 0.970443
O O13 0.804309 0.107864 0.088721
O O14 0.797075 0.868665 0.856252
O O15 0.778646 0.453831 0.151426
#
# Coordination Sequence:
#
# PCOD8170499 Si02
#       8
#     4   4   4   4   4   2   4   4
#     4  11  22  36  53  87 118 152 191 237 303 358
#     4  10  22  37  57  83 115 154 192 243 286 352
#     4  12  20  33  57  88 118 151 185 238 306 358
#     4  11  23  36  58  85 117 152 192 240 298 358
#     4  11  19  36  57  82 120 147 188 237 300 351
#     4  12  20  34  54  88 126 152 184 246 310 370
#     4  10  21  39  56  83 113 152 196 240 287 349
#     4  11  21  39  59  83 115 152 202 238 290 348
#
# _framework density 18.731808000000001
#
# number of rings (size 3 to 8) (size 9 to 14) (size 15 to 20)
#    0.000    1.067    5.333    3.200    0.000    0.000 
#    0.000    0.667    0.000    0.000    0.000    0.000 
#    0.000    0.000    0.000    0.000    0.000    0.000 
#
# Total GULP energy -371958.051683 kJ/mol
# GULP energy per Si atom -12398.601723 kJ/mol
# Density = 1.868917 g / cm^3
# Si number density = 18.731808 Si / 1000 Ang^3
#
#
#
# Elastic Constant Matrix: (Units=GPa)
#
#
# Indices 1 2 3 4 5 6 
#
# 1 77.8216 37.3615 24.9864 0.0000 0.0000 0.0000
# 2 37.3615 93.7503 27.8590 0.0000 0.0000 0.0000
# 3 24.9864 27.8590 95.0099 0.0000 0.0000 0.0000
# 4 0.0000 0.0000 0.0000 27.9968 0.0000 0.0000
# 5 0.0000 0.0000 0.0000 0.0000 19.9732 0.0000
# 6 0.0000 0.0000 0.0000 0.0000 0.0000 30.7255
#
#
#
# Elastic Compliance Matrix: (Units=1/GPa)
#
#
# Indices 1 2 3 4 5 6 
#
# 1 0.016472 -0.005781 -0.002637 0.000000 0.000000 0.000000
# 2 -0.005781 0.013714 -0.002501 0.000000 0.000000 0.000000
# 3 -0.002637 -0.002501 0.011952 0.000000 0.000000 0.000000
# 4 0.000000 0.000000 0.000000 0.035718 0.000000 0.000000
# 5 0.000000 0.000000 0.000000 0.000000 0.050067 0.000000
# 6 0.000000 0.000000 0.000000 0.000000 0.000000 0.032546
#
#
# Mechanical properties :
#
#
# Convention : Reuss Voigt Hill
#
# Bulk Modulus (GPa) = 49.26007 49.66618 49.46312
# Shear Modulus (GPa) = 26.44483 27.49743 26.97113
#
# Velocity S-wave (km/s) = 3.76142 3.83555 3.79866
# Velocity P-wave (km/s) = 6.72451 6.79611 6.76040
#
# Compressibility (1/GPa) = 0.02030042
#
# Stress axis : x y z
#
# Youngs Moduli (GPa) = 60.70964 72.92045 83.66823
#
# Poissons Ratio (x) = 0.42154 0.22062
# Poissons Ratio (y) = 0.35095 0.20924
# Poissons Ratio (z) = 0.16008 0.18236
#
# Static dielectric constant tensor:
#      x y z
#    x 3.392740 0.000000 0.000000 
#    y 0.000000 3.361670 0.000000 
#    z 0.000000 0.000000 3.644150 
# 
# 
# High freq. dielectric constant tensor:
#      x y z
#    x 1.717710 0.000000 0.000000 
#    y 0.000000 1.701780 0.000000 
#    z 0.000000 0.000000 1.745360 
# 
# From -- ./inp_files/1281.got.cif
#   From: 2010.03.12/outbox.cif.g09.slc.cpg/sg32_1_cif.got.tgz:1281.got - 2010.04.14 01:46:39.
