data_PCOD8170710
_publ_section_title
;
Structure prediction by ZEFSAII (Michael W. Deem and Ramdas Pophale) SiO2 
 PCOD8170710
Probable space group: P N A 21
;
_chemical_formula_sum "Si O2"
_cell_formula_units_Z 32
_cell_length_a 16.402267
_cell_length_b 11.076183
_cell_length_c 9.327141
_cell_angle_alpha 90.000000
_cell_angle_beta 90.000000
_cell_angle_gamma 90.000000
_cell_volume 1694.503779
_symmetry_space_group_name_H-M "P N A 21"
_symmetry_group_IT_number 33
_symmetry_cell_setting 'orthorhombic'
loop_
_space_group_symop_operation_xyz
x,y,z
-x,-y,1/2+z
1/2-x,1/2+y,1/2+z
1/2+x,1/2-y,z
loop_
_atom_site_type_symbol
_atom_site_label
_atom_site_fract_x
_atom_site_fract_y
_atom_site_fract_z
Si Si1 0.562816 0.449676 0.434500
Si Si2 0.409531 0.818068 0.903386
Si Si3 0.364148 0.842989 0.222892
Si Si4 0.888537 0.312187 0.816754
Si Si5 0.475814 0.975077 0.417161
Si Si6 0.342382 0.962095 0.651850
Si Si7 0.716425 0.611002 0.419431
Si Si8 0.475808 0.631329 0.246357
O O1 0.566381 0.317916 0.363830
O O2 0.650289 0.506952 0.398411
O O3 0.490733 0.530951 0.367609
O O4 0.542994 0.440874 0.601767
O O5 0.349742 0.871077 0.783984
O O6 0.496018 0.886561 0.914393
O O7 0.360322 0.829384 0.052367
O O8 0.426807 0.948563 0.270037
O O9 0.276241 0.880347 0.282840
O O10 0.398453 0.715938 0.289026
O O11 0.838400 0.398749 0.706549
O O12 0.827607 0.241312 0.923526
O O13 0.944529 0.217623 0.727042
O O14 0.943268 0.392939 0.922522
O O15 0.422105 0.945577 0.554829
O O16 0.262516 0.921582 0.566181
#
# Coordination Sequence:
#
# PCOD8170710 Si02
#       8
#     4   4   4   4   4   4   4   4
#     4  10  21  37  57  84 114 144 189 232 284 337
#     4  10  19  34  57  85 112 143 194 242 270 332
#     4   9  19  36  58  78 114 154 186 227 292 334
#     4   9  19  36  59  83 113 151 194 235 285 334
#     4   9  17  35  60  86 105 148 197 232 279 332
#     4  10  20  35  61  83 112 150 192 236 282 335
#     4  10  22  37  55  81 117 158 183 228 290 349
#     4   9  19  36  59  82 107 154 191 234 278 333
#
# _framework density 18.884585000000001
#
# number of rings (size 3 to 8) (size 9 to 14) (size 15 to 20)
#    0.000    2.500    0.000    3.000    3.500    4.000 
#    4.500    2.500    2.750    0.000    0.000    0.000 
#    0.000    0.000    0.000    0.000    0.000    0.000 
#
# Total GULP energy -396653.268079 kJ/mol
# GULP energy per Si atom -12395.414627 kJ/mol
# Density = 1.884160 g / cm^3
# Si number density = 18.884585 Si / 1000 Ang^3
#
#
#
# Elastic Constant Matrix: (Units=GPa)
#
#
# Indices 1 2 3 4 5 6 
#
# 1 95.6677 58.1246 37.4971 0.0000 0.0000 0.0000
# 2 58.1246 128.4927 56.9988 0.0000 0.0000 0.0000
# 3 37.4971 56.9988 79.9913 0.0000 0.0000 0.0000
# 4 0.0000 0.0000 0.0000 33.8673 0.0000 0.0000
# 5 0.0000 0.0000 0.0000 0.0000 23.8895 0.0000
# 6 0.0000 0.0000 0.0000 0.0000 0.0000 14.4058
#
#
#
# Elastic Compliance Matrix: (Units=1/GPa)
#
#
# Indices 1 2 3 4 5 6 
#
# 1 0.014955 -0.005345 -0.003202 0.000000 0.000000 0.000000
# 2 -0.005345 0.013290 -0.006964 0.000000 0.000000 0.000000
# 3 -0.003202 -0.006964 0.018965 0.000000 0.000000 0.000000
# 4 0.000000 0.000000 0.000000 0.029527 0.000000 0.000000
# 5 0.000000 0.000000 0.000000 0.000000 0.041859 0.000000
# 6 0.000000 0.000000 0.000000 0.000000 0.000000 0.069417
#
#
# Mechanical properties :
#
#
# Convention : Reuss Voigt Hill
#
# Bulk Modulus (GPa) = 61.77562 67.71032 64.74297
# Shear Modulus (GPa) = 22.27863 24.53459 23.40661
#
# Velocity S-wave (km/s) = 3.43844 3.60833 3.52441
# Velocity P-wave (km/s) = 6.96757 7.30019 7.13582
#
# Compressibility (1/GPa) = 0.01618762
#
# Stress axis : x y z
#
# Youngs Moduli (GPa) = 66.86666 75.24714 52.72921
#
# Poissons Ratio (x) = 0.40217 0.16884
# Poissons Ratio (y) = 0.35738 0.36722
# Poissons Ratio (z) = 0.21411 0.52404
#
# Static dielectric constant tensor:
#      x y z
#    x 3.432730 0.000000 0.000000 
#    y 0.000000 3.695560 0.000000 
#    z 0.000000 0.000000 3.396900 
# 
# 
# High freq. dielectric constant tensor:
#      x y z
#    x 1.723300 0.000000 0.000000 
#    y 0.000000 1.742690 0.000000 
#    z 0.000000 0.000000 1.722730 
# 
# From -- ./inp_files/4873.got.cif
#   From: 2010.03.12/outbox.cif.g09.slc.cpg/sg33_3_cif.got.tgz:4873.got - 2010.04.14 01:49:19.
