data_PCOD8170752
_publ_section_title
;
Structure prediction by ZEFSAII (Michael W. Deem and Ramdas Pophale) SiO2 
 PCOD8170752
Probable space group: P N A 21
;
_chemical_formula_sum "Si O2"
_cell_formula_units_Z 28
_cell_length_a 5.332128
_cell_length_b 28.846998
_cell_length_c 7.295521
_cell_angle_alpha 90.000000
_cell_angle_beta 90.000000
_cell_angle_gamma 90.000000
_cell_volume 1122.167025
_symmetry_space_group_name_H-M "P N A 21"
_symmetry_group_IT_number 33
_symmetry_cell_setting 'orthorhombic'
loop_
_space_group_symop_operation_xyz
x,y,z
-x,-y,1/2+z
1/2-x,1/2+y,1/2+z
1/2+x,1/2-y,z
loop_
_atom_site_type_symbol
_atom_site_label
_atom_site_fract_x
_atom_site_fract_y
_atom_site_fract_z
Si Si1 0.496199 0.937555 0.211590
Si Si2 0.876657 0.461016 0.106149
Si Si3 0.203082 0.233015 0.413224
Si Si4 0.388540 0.413070 0.225237
Si Si5 0.652065 0.366697 0.537304
Si Si6 0.631563 0.229118 0.819084
Si Si7 0.657786 0.635558 0.367864
O O1 0.661846 0.946929 0.393785
O O2 0.637334 0.905728 0.063594
O O3 0.244941 0.913333 0.283664
O O4 0.421367 0.984222 0.107887
O O5 0.615573 0.450105 0.207660
O O6 0.113203 0.435342 0.202671
O O7 0.438373 0.257084 0.307492
O O8 0.259377 0.178192 0.432429
O O9 0.136096 0.259905 0.603043
O O10 0.418499 0.388956 0.423703
O O11 0.432215 0.372612 0.074870
O O12 0.567301 0.347391 0.736404
O O13 0.382731 0.250107 0.913041
O O14 0.622807 0.173903 0.856430
#
# Coordination Sequence:
#
# PCOD8170752 Si02
#       7
#     4   4   4   4   4   4   4
#     4  11  25  42  72  97 133 184 220 285 337 406
#     4  11  26  47  66 100 140 167 236 277 338 400
#     4  10  20  36  62  96 127 167 220 269 322 400
#     4  11  28  45  65 103 135 175 225 285 326 415
#     4  12  24  42  73  94 135 182 221 273 346 394
#     4  10  19  36  64  93 127 170 217 268 325 398
#     4  11  24  44  68  97 135 177 225 271 344 395
#
# _framework density 24.951723000000001
#
# number of rings (size 3 to 8) (size 9 to 14) (size 15 to 20)
#    0.000    1.143    4.286    2.571    6.000    0.000 
#    0.000    1.429    0.000    0.000    0.000    0.000 
#    0.000    0.000    0.000    0.000    0.000    0.000 
#
# Total GULP energy -347140.929969 kJ/mol
# GULP energy per Si atom -12397.890356 kJ/mol
# Density = 2.489493 g / cm^3
# Si number density = 24.951723 Si / 1000 Ang^3
#
#
#
# Elastic Constant Matrix: (Units=GPa)
#
#
# Indices 1 2 3 4 5 6 
#
# 1 132.5594 17.6631 4.0570 0.0000 0.0000 0.0000
# 2 17.6631 118.0042 9.5251 0.0000 0.0000 0.0000
# 3 4.0570 9.5251 60.0887 0.0000 0.0000 0.0000
# 4 0.0000 0.0000 0.0000 16.8668 0.0000 0.0000
# 5 0.0000 0.0000 0.0000 0.0000 24.1288 0.0000
# 6 0.0000 0.0000 0.0000 0.0000 0.0000 35.9268
#
#
#
# Elastic Compliance Matrix: (Units=1/GPa)
#
#
# Indices 1 2 3 4 5 6 
#
# 1 0.007704 -0.001126 -0.000342 0.000000 0.000000 0.000000
# 2 -0.001126 0.008749 -0.001311 0.000000 0.000000 0.000000
# 3 -0.000342 -0.001311 0.016873 0.000000 0.000000 0.000000
# 4 0.000000 0.000000 0.000000 0.059288 0.000000 0.000000
# 5 0.000000 0.000000 0.000000 0.000000 0.041444 0.000000
# 6 0.000000 0.000000 0.000000 0.000000 0.000000 0.027834
#
#
# Mechanical properties :
#
#
# Convention : Reuss Voigt Hill
#
# Bulk Modulus (GPa) = 36.01085 41.46032 38.73558
# Shear Modulus (GPa) = 28.29576 34.01164 31.15370
#
# Velocity S-wave (km/s) = 3.37117 3.69602 3.53733
# Velocity P-wave (km/s) = 5.44212 5.90478 5.67816
#
# Compressibility (1/GPa) = 0.02776941
#
# Stress axis : x y z
#
# Youngs Moduli (GPa) = 129.79881 114.30453 59.26659
#
# Poissons Ratio (x) = 0.12866 0.02025
# Poissons Ratio (y) = 0.14610 0.07769
# Poissons Ratio (z) = 0.04436 0.14983
#
# Static dielectric constant tensor:
#      x y z
#    x 4.957070 0.000000 0.000000 
#    y 0.000000 4.456370 0.000000 
#    z 0.000000 0.000000 4.278120 
# 
# 
# High freq. dielectric constant tensor:
#      x y z
#    x 1.996690 0.000000 0.000000 
#    y 0.000000 1.998820 0.000000 
#    z 0.000000 0.000000 1.971810 
# 
# From -- ./inp_files/2803.got.cif
#   From: 2010.03.12/outbox.cif.g09.slc.cpg/sg33_2_cif.got.tgz:2803.got - 2010.04.14 01:49:19.
