data_PCOD8170734
_publ_section_title
;
Structure prediction by ZEFSAII (Michael W. Deem and Ramdas Pophale) SiO2 
 PCOD8170734
Probable space group: P N A 21
;
_chemical_formula_sum "Si O2"
_cell_formula_units_Z 28
_cell_length_a 18.929314
_cell_length_b 8.911965
_cell_length_c 9.235289
_cell_angle_alpha 90.000000
_cell_angle_beta 90.000000
_cell_angle_gamma 90.000000
_cell_volume 1557.969093
_symmetry_space_group_name_H-M "P N A 21"
_symmetry_group_IT_number 33
_symmetry_cell_setting 'orthorhombic'
loop_
_space_group_symop_operation_xyz
x,y,z
-x,-y,1/2+z
1/2-x,1/2+y,1/2+z
1/2+x,1/2-y,z
loop_
_atom_site_type_symbol
_atom_site_label
_atom_site_fract_x
_atom_site_fract_y
_atom_site_fract_z
Si Si1 0.248016 0.442173 0.654330
Si Si2 0.061074 0.567869 0.452388
Si Si3 0.785133 0.985222 0.961538
Si Si4 0.331914 0.241210 0.136434
Si Si5 0.339594 0.239087 0.468678
Si Si6 0.522167 0.854572 0.131376
Si Si7 0.622248 0.219850 0.538861
O O1 0.285676 0.426728 0.809656
O O2 0.228624 0.615132 0.625571
O O3 0.300429 0.387234 0.528038
O O4 0.178485 0.336236 0.659572
O O5 0.101639 0.701089 0.535288
O O6 0.033979 0.626699 0.300760
O O7 0.112416 0.422417 0.428662
O O8 0.995285 0.514365 0.553823
O O9 0.710143 0.905893 0.990890
O O10 0.798056 0.101880 0.089793
O O11 0.848747 0.864237 0.955174
O O12 0.358620 0.259886 0.300745
O O13 0.410898 0.220490 0.557721
O O14 0.453505 0.745303 0.113872
#
# Coordination Sequence:
#
# PCOD8170734 Si02
#       7
#     4   4   4   4   4   4   4
#     4   9  19  35  56  81 110 147 189 233 276 345
#     4   9  19  34  60  79 112 146 196 224 291 341
#     4  10  20  36  59  79 116 147 191 236 293 327
#     4  10  20  36  57  82 113 147 188 241 283 347
#     4  10  21  35  57  84 112 146 193 238 284 344
#     4  10  19  35  61  81 113 153 189 237 287 347
#     4   8  20  35  56  84 116 144 188 241 276 347
#
# _framework density 17.972116
#
# number of rings (size 3 to 8) (size 9 to 14) (size 15 to 20)
#    0.857    1.714    0.000    1.714    2.000    6.857 
#    0.000    2.857    6.286    0.000    0.000    0.000 
#    0.000    0.000    0.000    0.000    0.000    0.000 
#
# Total GULP energy -347050.497546 kJ/mol
# GULP energy per Si atom -12394.660627 kJ/mol
# Density = 1.793121 g / cm^3
# Si number density = 17.972116 Si / 1000 Ang^3
#
#
#
# Elastic Constant Matrix: (Units=GPa)
#
#
# Indices 1 2 3 4 5 6 
#
# 1 115.0243 30.0130 58.1096 0.0000 0.0000 0.0000
# 2 30.0130 48.3862 19.2845 0.0000 0.0000 0.0000
# 3 58.1096 19.2845 116.5811 0.0000 0.0000 0.0000
# 4 0.0000 0.0000 0.0000 25.1186 0.0000 0.0000
# 5 0.0000 0.0000 0.0000 0.0000 32.3085 0.0000
# 6 0.0000 0.0000 0.0000 0.0000 0.0000 20.6763
#
#
#
# Elastic Compliance Matrix: (Units=1/GPa)
#
#
# Indices 1 2 3 4 5 6 
#
# 1 0.013012 -0.005873 -0.005514 0.000000 0.000000 0.000000
# 2 -0.005873 0.024777 -0.001171 0.000000 0.000000 0.000000
# 3 -0.005514 -0.001171 0.011520 0.000000 0.000000 0.000000
# 4 0.000000 0.000000 0.000000 0.039811 0.000000 0.000000
# 5 0.000000 0.000000 0.000000 0.000000 0.030952 0.000000
# 6 0.000000 0.000000 0.000000 0.000000 0.000000 0.048365
#
#
# Mechanical properties :
#
#
# Convention : Reuss Voigt Hill
#
# Bulk Modulus (GPa) = 41.33647 54.97843 48.15745
# Shear Modulus (GPa) = 24.79942 27.12631 25.96286
#
# Velocity S-wave (km/s) = 3.71871 3.88926 3.80494
# Velocity P-wave (km/s) = 6.44117 7.12922 6.79391
#
# Compressibility (1/GPa) = 0.02419171
#
# Stress axis : x y z
#
# Youngs Moduli (GPa) = 76.85123 40.36021 86.80546
#
# Poissons Ratio (x) = 0.23705 0.47867
# Poissons Ratio (y) = 0.45138 0.10164
# Poissons Ratio (z) = 0.42378 0.04726
#
# Static dielectric constant tensor:
#      x y z
#    x 3.325120 0.000000 0.000000 
#    y 0.000000 3.175690 0.000000 
#    z 0.000000 0.000000 3.234350 
# 
# 
# High freq. dielectric constant tensor:
#      x y z
#    x 1.694350 0.000000 0.000000 
#    y 0.000000 1.678630 0.000000 
#    z 0.000000 0.000000 1.691680 
# 
# From -- ./inp_files/4717.got.cif
#   From: 2010.03.12/outbox.cif.g09.slc.cpg/sg33_3_cif.got.tgz:4717.got - 2010.04.14 01:49:19.
