data_PCOD8170199
_publ_section_title
;
Structure prediction by ZEFSAII (Michael W. Deem and Ramdas Pophale) SiO2 
 PCOD8170199
Probable space group: P M N 21
;
_chemical_formula_sum "Si O2"
_cell_formula_units_Z 32
_cell_length_a 8.579244
_cell_length_b 11.959026
_cell_length_c 15.014812
_cell_angle_alpha 90.000000
_cell_angle_beta 90.000000
_cell_angle_gamma 90.000000
_cell_volume 1540.510733
_symmetry_space_group_name_H-M "P M N 21"
_symmetry_group_IT_number 31
_symmetry_cell_setting 'orthorhombic'
loop_
_space_group_symop_operation_xyz
x,y,z
1/2-x,-y,1/2+z
-x,y,z
1/2+x,-y,1/2+z
loop_
_atom_site_type_symbol
_atom_site_label
_atom_site_fract_x
_atom_site_fract_y
_atom_site_fract_z
Si Si1 0.674441 0.242013 0.629630
Si Si2 0.681374 0.592429 0.535972
Si Si3 0.678417 0.529524 0.873541
Si Si4 0.679329 0.544221 0.195150
Si Si5 0.815652 0.014353 0.681985
Si Si6 0.185001 0.994004 0.883754
Si Si7 0.815889 0.148562 0.043343
Si Si8 0.825086 0.749222 0.925697
O O1 0.500000 0.246797 0.670027
O O2 0.789275 0.324017 0.682338
O O3 0.737764 0.116833 0.630940
O O4 0.669903 0.283334 0.528678
O O5 0.500000 0.577746 0.559236
O O6 0.712433 0.542810 0.438324
O O7 0.783878 0.525849 0.606946
O O8 0.731095 0.722058 0.536428
O O9 0.500000 0.508198 0.899523
O O10 0.707877 0.495170 0.772744
O O11 0.715126 0.661061 0.876995
O O12 0.500000 0.527297 0.221644
O O13 0.000000 0.024456 0.678175
O O14 0.755135 0.018242 0.783943
O O15 0.763185 0.901350 0.632155
O O16 0.247551 0.872021 0.911709
O O17 0.000000 0.994687 0.886914
O O18 0.247979 0.085940 0.954224
O O19 0.000000 0.132263 0.051971
O O20 0.000000 0.743067 0.885171
#
# Coordination Sequence:
#
# PCOD8170199 Si02
#       8
#     4   4   4   4   4   4   4   4
#     4  11  22  41  68  93 125 165 212 267 323 380
#     4  11  24  43  67  95 130 172 215 266 325 386
#     4  12  26  43  65  96 131 166 214 268 320 387
#     4  12  26  44  67  93 128 171 216 268 324 383
#     4  11  23  38  63  96 128 164 214 263 312 374
#     4   9  20  40  63  90 122 165 209 252 308 375
#     4  10  22  43  65  87 125 171 211 256 316 379
#     4  10  20  40  68  90 121 166 213 262 318 378
#
# _framework density 20.772331999999999
#
# number of rings (size 3 to 8) (size 9 to 14) (size 15 to 20)
#    0.000    1.250    2.500    3.375    3.500    1.500 
#    0.000    1.875    0.000    0.000    0.000    0.000 
#    0.000    0.000    0.000    0.000    0.000    0.000 
#
# Total GULP energy -396950.813256 kJ/mol
# GULP energy per Si atom -12404.712914 kJ/mol
# Density = 2.072505 g / cm^3
# Si number density = 20.772332 Si / 1000 Ang^3
#
#
#
# Elastic Constant Matrix: (Units=GPa)
#
#
# Indices 1 2 3 4 5 6 
#
# 1 65.9510 27.7406 14.1354 0.0000 0.0000 0.0000
# 2 27.7406 120.2418 18.3458 0.0000 0.0000 0.0000
# 3 14.1354 18.3458 83.9890 0.0000 0.0000 0.0000
# 4 0.0000 0.0000 0.0000 32.1052 0.0000 0.0000
# 5 0.0000 0.0000 0.0000 0.0000 29.0925 0.0000
# 6 0.0000 0.0000 0.0000 0.0000 0.0000 27.2151
#
#
#
# Elastic Compliance Matrix: (Units=1/GPa)
#
#
# Indices 1 2 3 4 5 6 
#
# 1 0.017140 -0.003635 -0.002091 0.000000 0.000000 0.000000
# 2 -0.003635 0.009374 -0.001436 0.000000 0.000000 0.000000
# 3 -0.002091 -0.001436 0.012572 0.000000 0.000000 0.000000
# 4 0.000000 0.000000 0.000000 0.031148 0.000000 0.000000
# 5 0.000000 0.000000 0.000000 0.000000 0.034373 0.000000
# 6 0.000000 0.000000 0.000000 0.000000 0.000000 0.036744
#
#
# Mechanical properties :
#
#
# Convention : Reuss Voigt Hill
#
# Bulk Modulus (GPa) = 40.38348 43.40282 41.89315
# Shear Modulus (GPa) = 30.50105 31.67991 31.09048
#
# Velocity S-wave (km/s) = 3.83606 3.90949 3.87295
# Velocity P-wave (km/s) = 6.25330 6.42796 6.34123
#
# Compressibility (1/GPa) = 0.02476260
#
# Stress axis : x y z
#
# Youngs Moduli (GPa) = 58.34318 106.67411 79.54310
#
# Poissons Ratio (x) = 0.38780 0.16629
# Poissons Ratio (y) = 0.21210 0.11421
# Poissons Ratio (z) = 0.12197 0.15316
#
# Static dielectric constant tensor:
#      x y z
#    x 3.542720 0.000000 0.000000 
#    y 0.000000 3.856700 0.000000 
#    z 0.000000 0.000000 3.762690 
# 
# 
# High freq. dielectric constant tensor:
#      x y z
#    x 1.799840 0.000000 0.000000 
#    y 0.000000 1.825940 0.000000 
#    z 0.000000 0.000000 1.815310 
# 
# From -- ./inp_files/4954.got.cif
#   From: 2010.03.12/outbox.cif.g09.slc.cpg/sg31_3_cif.got.tgz:4954.got - 2010.04.14 01:42:59.
