data_PCOD8170682
_publ_section_title
;
Structure prediction by ZEFSAII (Michael W. Deem and Ramdas Pophale) SiO2 
 PCOD8170682
Probable space group: P N A 21
;
_chemical_formula_sum "Si O2"
_cell_formula_units_Z 28
_cell_length_a 9.613653
_cell_length_b 17.163975
_cell_length_c 8.238596
_cell_angle_alpha 90.000000
_cell_angle_beta 90.000000
_cell_angle_gamma 90.000000
_cell_volume 1359.438366
_symmetry_space_group_name_H-M "P N A 21"
_symmetry_group_IT_number 33
_symmetry_cell_setting 'orthorhombic'
loop_
_space_group_symop_operation_xyz
x,y,z
-x,-y,1/2+z
1/2-x,1/2+y,1/2+z
1/2+x,1/2-y,z
loop_
_atom_site_type_symbol
_atom_site_label
_atom_site_fract_x
_atom_site_fract_y
_atom_site_fract_z
Si Si1 0.735745 0.957834 0.163170
Si Si2 0.495966 0.138762 0.811017
Si Si3 0.967783 0.871625 0.334196
Si Si4 0.979035 0.238049 0.553790
Si Si5 0.240336 0.884271 0.512268
Si Si6 0.761544 0.828644 0.896698
Si Si7 0.767274 0.293435 0.039214
O O1 0.599390 0.934550 0.263880
O O2 0.873500 0.941562 0.268154
O O3 0.726406 0.050592 0.145682
O O4 0.742287 0.909747 0.993323
O O5 0.536091 0.187111 0.650865
O O6 0.640129 0.107126 0.878455
O O7 0.409390 0.190965 0.940991
O O8 0.866787 0.811518 0.428838
O O9 0.046797 0.828631 0.187286
O O10 0.088412 0.907067 0.444749
O O11 0.838005 0.261131 0.464863
O O12 0.085127 0.206731 0.418842
O O13 0.238499 0.797778 0.586972
O O14 0.734744 0.843392 0.705676
#
# Coordination Sequence:
#
# PCOD8170682 Si02
#       7
#     4   4   4   4   4   4   4
#     4   9  24  43  56  87 135 163 199 257 329 365
#     4  10  21  41  65  86 124 171 208 245 313 387
#     4  10  21  41  65  86 124 171 208 245 313 387
#     4  10  18  38  60  86 116 162 202 250 302 366
#     4  12  21  38  69  91 117 165 215 250 305 372
#     4  10  23  36  59  89 125 151 205 268 301 348
#     4  11  22  39  66  97 119 157 217 267 297 367
#
# _framework density 20.596741999999999
#
# number of rings (size 3 to 8) (size 9 to 14) (size 15 to 20)
#    0.000    1.714    2.857    1.714    4.000    2.286 
#    5.143    1.429    0.000    0.000    0.000    0.000 
#    0.000    0.000    0.000    0.000    0.000    0.000 
#
# Total GULP energy -347184.278752 kJ/mol
# GULP energy per Si atom -12399.438527 kJ/mol
# Density = 2.054986 g / cm^3
# Si number density = 20.596742 Si / 1000 Ang^3
#
#
#
# Elastic Constant Matrix: (Units=GPa)
#
#
# Indices 1 2 3 4 5 6 
#
# 1 73.0224 14.1961 5.7560 0.0000 0.0000 0.0000
# 2 14.1961 99.3337 13.6393 0.0000 0.0000 0.0000
# 3 5.7560 13.6393 75.5671 0.0000 0.0000 0.0000
# 4 0.0000 0.0000 0.0000 26.6686 0.0000 0.0000
# 5 0.0000 0.0000 0.0000 0.0000 23.1471 0.0000
# 6 0.0000 0.0000 0.0000 0.0000 0.0000 15.5714
#
#
#
# Elastic Compliance Matrix: (Units=1/GPa)
#
#
# Indices 1 2 3 4 5 6 
#
# 1 0.014125 -0.001918 -0.000730 0.000000 0.000000 0.000000
# 2 -0.001918 0.010583 -0.001764 0.000000 0.000000 0.000000
# 3 -0.000730 -0.001764 0.013607 0.000000 0.000000 0.000000
# 4 0.000000 0.000000 0.000000 0.037497 0.000000 0.000000
# 5 0.000000 0.000000 0.000000 0.000000 0.043202 0.000000
# 6 0.000000 0.000000 0.000000 0.000000 0.000000 0.064220
#
#
# Mechanical properties :
#
#
# Convention : Reuss Voigt Hill
#
# Bulk Modulus (GPa) = 33.90835 35.01175 34.46005
# Shear Modulus (GPa) = 24.76597 27.36621 26.06609
#
# Velocity S-wave (km/s) = 3.47136 3.64904 3.56131
# Velocity P-wave (km/s) = 5.70665 5.89827 5.80325
#
# Compressibility (1/GPa) = 0.02949126
#
# Stress axis : x y z
#
# Youngs Moduli (GPa) = 70.79698 94.48690 73.49020
#
# Poissons Ratio (x) = 0.18127 0.05362
# Poissons Ratio (y) = 0.13582 0.12964
# Poissons Ratio (z) = 0.05166 0.16668
#
# Static dielectric constant tensor:
#      x y z
#    x 3.794020 0.000000 0.000000 
#    y 0.000000 3.414920 0.000000 
#    z 0.000000 0.000000 3.667600 
# 
# 
# High freq. dielectric constant tensor:
#      x y z
#    x 1.817410 0.000000 0.000000 
#    y 0.000000 1.784510 0.000000 
#    z 0.000000 0.000000 1.795720 
# 
# From -- ./inp_files/3321.got.cif
#   From: 2010.03.12/outbox.cif.g09.slc.cpg/sg33_2_cif.got.tgz:3321.got - 2010.04.14 01:49:19.
