data_PCOD8170720
_publ_section_title
;
Structure prediction by ZEFSAII (Michael W. Deem and Ramdas Pophale) SiO2 
 PCOD8170720
Probable space group: P N A 21
;
_chemical_formula_sum "Si O2"
_cell_formula_units_Z 32
_cell_length_a 9.753252
_cell_length_b 16.768430
_cell_length_c 10.512834
_cell_angle_alpha 90.000000
_cell_angle_beta 90.000000
_cell_angle_gamma 90.000000
_cell_volume 1719.339555
_symmetry_space_group_name_H-M "P N A 21"
_symmetry_group_IT_number 33
_symmetry_cell_setting 'orthorhombic'
loop_
_space_group_symop_operation_xyz
x,y,z
-x,-y,1/2+z
1/2-x,1/2+y,1/2+z
1/2+x,1/2-y,z
loop_
_atom_site_type_symbol
_atom_site_label
_atom_site_fract_x
_atom_site_fract_y
_atom_site_fract_z
Si Si1 0.445116 0.580545 0.357010
Si Si2 0.960241 0.840571 0.627868
Si Si3 0.884044 0.849424 0.094661
Si Si4 0.145557 0.617219 0.916253
Si Si5 0.130030 0.317653 0.459145
Si Si6 0.728301 0.746343 0.728480
Si Si7 0.146299 0.939862 0.004847
Si Si8 0.325216 0.518332 0.753748
O O1 0.470227 0.626233 0.487043
O O2 0.380352 0.638346 0.248285
O O3 0.356566 0.498865 0.381592
O O4 0.597175 0.555847 0.315339
O O5 0.108090 0.804450 0.663758
O O6 0.826362 0.783509 0.620304
O O7 0.927205 0.905283 0.738668
O O8 0.737114 0.874729 0.041757
O O9 0.910445 0.757806 0.049589
O O10 0.991333 0.912738 0.036358
O O11 0.155493 0.692498 0.823303
O O12 0.190963 0.538891 0.837477
O O13 0.989439 0.615533 0.964813
O O14 0.156620 0.298465 0.311850
O O15 0.271404 0.358062 0.499797
O O16 0.219541 0.992733 0.113203
#
# Coordination Sequence:
#
# PCOD8170720 Si02
#       8
#     4   4   4   4   4   4   4   4
#     4  10  20  38  60  84 110 158 193 236 278 373
#     4  10  20  36  60  82 115 140 193 233 290 337
#     4  10  20  36  61  85 110 149 201 233 296 344
#     4  10  19  35  57  82 112 146 188 246 282 341
#     4  11  21  35  58  86 117 143 194 247 292 342
#     4  10  19  35  57  86 106 147 184 240 284 343
#     4  10  20  37  60  82 109 154 193 238 285 350
#     4   9  19  36  59  79 109 147 196 227 277 346
#
# _framework density 18.611798
#
# number of rings (size 3 to 8) (size 9 to 14) (size 15 to 20)
#    0.000    2.000    2.500    2.250    1.750    0.000 
#    9.000    0.000    0.000    0.000    0.000    0.000 
#    0.000    0.000    0.000    0.000    0.000    0.000 
#
# Total GULP energy -396433.386834 kJ/mol
# GULP energy per Si atom -12388.543339 kJ/mol
# Density = 1.856944 g / cm^3
# Si number density = 18.611798 Si / 1000 Ang^3
#
#
#
# Elastic Constant Matrix: (Units=GPa)
#
#
# Indices 1 2 3 4 5 6 
#
# 1 65.4659 19.6751 22.1834 0.0000 0.0000 0.0000
# 2 19.6751 69.5574 33.8581 0.0000 0.0000 0.0000
# 3 22.1834 33.8581 89.5598 0.0000 0.0000 0.0000
# 4 0.0000 0.0000 0.0000 29.9006 0.0000 0.0000
# 5 0.0000 0.0000 0.0000 0.0000 15.0677 0.0000
# 6 0.0000 0.0000 0.0000 0.0000 0.0000 25.6764
#
#
#
# Elastic Compliance Matrix: (Units=1/GPa)
#
#
# Indices 1 2 3 4 5 6 
#
# 1 0.017323 -0.003445 -0.002988 0.000000 0.000000 0.000000
# 2 -0.003445 0.018304 -0.006066 0.000000 0.000000 0.000000
# 3 -0.002988 -0.006066 0.014199 0.000000 0.000000 0.000000
# 4 0.000000 0.000000 0.000000 0.033444 0.000000 0.000000
# 5 0.000000 0.000000 0.000000 0.000000 0.066367 0.000000
# 6 0.000000 0.000000 0.000000 0.000000 0.000000 0.038946
#
#
# Mechanical properties :
#
#
# Convention : Reuss Voigt Hill
#
# Bulk Modulus (GPa) = 40.27997 41.77961 41.02979
# Shear Modulus (GPa) = 22.53673 24.05338 23.29506
#
# Velocity S-wave (km/s) = 3.48355 3.59886 3.54167
# Velocity P-wave (km/s) = 6.15381 6.30600 6.23037
#
# Compressibility (1/GPa) = 0.02482623
#
# Stress axis : x y z
#
# Youngs Moduli (GPa) = 57.72599 54.63244 70.42584
#
# Poissons Ratio (x) = 0.18823 0.21045
# Poissons Ratio (y) = 0.19889 0.42724
# Poissons Ratio (z) = 0.17250 0.33143
#
# Static dielectric constant tensor:
#      x y z
#    x 3.273780 0.000000 0.000000 
#    y 0.000000 3.500740 0.000000 
#    z 0.000000 0.000000 3.474840 
# 
# 
# High freq. dielectric constant tensor:
#      x y z
#    x 1.711040 0.000000 0.000000 
#    y 0.000000 1.712430 0.000000 
#    z 0.000000 0.000000 1.718340 
# 
# From -- ./inp_files/6094.got.cif
#   From: 2010.03.12/outbox.cif.g09.slc.cpg/sg33_4_cif.got.tgz:6094.got - 2010.04.14 01:49:19.
