data_PCOD8170001
_publ_section_title
;
Structure prediction by ZEFSAII (Michael W. Deem and Ramdas Pophale) SiO2 
 PCOD8170001
Probable space group: P M N 21
;
_chemical_formula_sum "Si O2"
_cell_formula_units_Z 32
_cell_length_a 8.725095
_cell_length_b 15.314985
_cell_length_c 12.085684
_cell_angle_alpha 90.000000
_cell_angle_beta 90.000000
_cell_angle_gamma 90.000000
_cell_volume 1614.945887
_symmetry_space_group_name_H-M "P M N 21"
_symmetry_group_IT_number 31
_symmetry_cell_setting 'orthorhombic'
loop_
_space_group_symop_operation_xyz
x,y,z
1/2-x,-y,1/2+z
-x,y,z
1/2+x,-y,1/2+z
loop_
_atom_site_type_symbol
_atom_site_label
_atom_site_fract_x
_atom_site_fract_y
_atom_site_fract_z
Si Si1 0.683388 0.582346 0.879050
Si Si2 0.317660 0.605048 0.416929
Si Si3 0.672851 0.852553 0.657062
Si Si4 0.179880 0.750228 0.265037
Si Si5 0.181910 0.103012 0.914311
Si Si6 0.820522 0.910064 0.870834
Si Si7 0.681313 0.256138 0.507485
Si Si8 0.827209 0.346521 0.153141
O O1 0.500000 0.574328 0.882744
O O2 0.764216 0.493860 0.913099
O O3 0.746291 0.599930 0.754450
O O4 0.734216 0.658738 0.961455
O O5 0.500000 0.612858 0.410346
O O6 0.250710 0.663156 0.318302
O O7 0.248404 0.639886 0.533979
O O8 0.500000 0.889634 0.664683
O O9 0.735793 0.861516 0.533090
O O10 0.778750 0.904100 0.741932
O O11 0.679647 0.752607 0.692194
O O12 0.242471 0.838593 0.319594
O O13 0.223626 0.752926 0.136115
O O14 0.000000 0.746201 0.282635
O O15 0.000000 0.110290 0.899453
O O16 0.242882 0.003713 0.909949
O O17 0.000000 0.908828 0.885385
O O18 0.753780 0.830402 0.944531
O O19 0.500000 0.266918 0.489003
O O20 0.000000 0.379305 0.138137
#
# Coordination Sequence:
#
# PCOD8170001 Si02
#       8
#     4   4   4   4   4   4   4   4
#     4  11  23  40  62  92 121 153 201 249 293 355
#     4  11  23  42  64  88 121 161 197 241 305 361
#     4  10  19  38  64  86 114 156 198 244 301 354
#     4  11  24  41  62  88 121 160 204 250 296 355
#     4  10  22  40  62  87 121 160 199 245 302 359
#     4  10  22  39  60  89 120 155 200 248 296 356
#     4  10  23  42  60  84 122 164 199 243 304 357
#     4   9  19  38  62  84 114 153 194 242 295 349
#
# _framework density 19.814903000000001
#
# number of rings (size 3 to 8) (size 9 to 14) (size 15 to 20)
#    0.000    1.750    2.500    1.125    3.500    2.000 
#    0.000    1.875    0.000    0.000    0.000    0.000 
#    0.000    0.000    0.000    0.000    0.000    0.000 
#
# Total GULP energy -396762.196169 kJ/mol
# GULP energy per Si atom -12398.818630 kJ/mol
# Density = 1.976980 g / cm^3
# Si number density = 19.814903 Si / 1000 Ang^3
#
#
#
# Elastic Constant Matrix: (Units=GPa)
#
#
# Indices 1 2 3 4 5 6 
#
# 1 41.0086 32.6431 34.4191 0.0000 0.0000 0.0000
# 2 32.6431 131.9852 53.1154 0.0000 0.0000 0.0000
# 3 34.4191 53.1154 133.8662 0.0000 0.0000 0.0000
# 4 0.0000 0.0000 0.0000 31.4500 0.0000 0.0000
# 5 0.0000 0.0000 0.0000 0.0000 30.0388 0.0000
# 6 0.0000 0.0000 0.0000 0.0000 0.0000 23.8730
#
#
#
# Elastic Compliance Matrix: (Units=1/GPa)
#
#
# Indices 1 2 3 4 5 6 
#
# 1 0.034592 -0.005922 -0.006544 0.000000 0.000000 0.000000
# 2 -0.005922 0.010030 -0.002457 0.000000 0.000000 0.000000
# 3 -0.006544 -0.002457 0.010128 0.000000 0.000000 0.000000
# 4 0.000000 0.000000 0.000000 0.031796 0.000000 0.000000
# 5 0.000000 0.000000 0.000000 0.000000 0.033290 0.000000
# 6 0.000000 0.000000 0.000000 0.000000 0.000000 0.041888
#
#
# Mechanical properties :
#
#
# Convention : Reuss Voigt Hill
#
# Bulk Modulus (GPa) = 40.15592 60.80167 50.47880
# Shear Modulus (GPa) = 25.01602 29.51788 27.26695
#
# Velocity S-wave (km/s) = 3.55700 3.86383 3.71358
# Velocity P-wave (km/s) = 6.09747 7.11737 6.62707
#
# Compressibility (1/GPa) = 0.02490293
#
# Stress axis : x y z
#
# Youngs Moduli (GPa) = 28.90873 99.70076 98.73829
#
# Poissons Ratio (x) = 0.59039 0.64619
# Poissons Ratio (y) = 0.17119 0.24262
# Poissons Ratio (z) = 0.18919 0.24498
#
# Static dielectric constant tensor:
#      x y z
#    x 3.448090 0.000000 0.000000 
#    y 0.000000 3.740300 0.000000 
#    z 0.000000 0.000000 3.809990 
# 
# 
# High freq. dielectric constant tensor:
#      x y z
#    x 1.751900 0.000000 0.000000 
#    y 0.000000 1.783320 0.000000 
#    z 0.000000 0.000000 1.788580 
# 
# From -- ./inp_files/3642.got.cif
#   From: 2010.03.12/outbox.cif.g09.slc.cpg/sg31_2_cif.got.tgz:3642.got - 2010.04.14 01:42:59.
