data_PCOD8170490
_publ_section_title
;
Structure prediction by ZEFSAII (Michael W. Deem and Ramdas Pophale) SiO2 
 PCOD8170490
Probable space group: P B A 2
;
_chemical_formula_sum "Si O2"
_cell_formula_units_Z 32
_cell_length_a 13.407564
_cell_length_b 8.976942
_cell_length_c 12.222137
_cell_angle_alpha 90.000000
_cell_angle_beta 90.000000
_cell_angle_gamma 90.000000
_cell_volume 1471.043263
_symmetry_space_group_name_H-M "P B A 2"
_symmetry_group_IT_number 32
_symmetry_cell_setting 'orthorhombic'
loop_
_space_group_symop_operation_xyz
x,y,z
-x,-y,z
1/2-x,1/2+y,z
1/2+x,1/2-y,z
loop_
_atom_site_type_symbol
_atom_site_label
_atom_site_fract_x
_atom_site_fract_y
_atom_site_fract_z
Si Si1 0.697165 0.502676 0.255190
Si Si2 0.393994 0.022001 0.364726
Si Si3 0.746730 0.247511 0.112153
Si Si4 0.335380 0.870852 0.580343
Si Si5 0.102924 0.572658 0.752072
Si Si6 0.996816 0.163583 0.655275
Si Si7 0.864830 0.162093 0.456079
Si Si8 0.118430 0.500417 0.001986
O O1 0.814131 0.537629 0.278600
O O2 0.680524 0.339925 0.202162
O O3 0.674647 0.632626 0.167483
O O4 0.639858 0.520996 0.371468
O O5 0.367171 0.193482 0.381329
O O6 0.500000 0.000000 0.306165
O O7 0.399354 0.931713 0.478393
O O8 0.819567 0.364595 0.053714
O O9 0.669545 0.158659 0.032886
O O10 0.393283 0.737129 0.643761
O O11 0.229028 0.820068 0.536612
O O12 0.316243 0.005632 0.667144
O O13 0.082597 0.748164 0.732052
O O14 0.000000 0.500000 0.712791
O O15 0.132056 0.527389 0.873375
O O16 0.961219 0.145969 0.530137
O O17 0.000000 0.000000 0.709595
O O18 0.000000 0.500000 0.032338
#
# Coordination Sequence:
#
# PCOD8170490 Si02
#       8
#     4   4   4   4   4   4   4   4
#     4  10  22  38  60  89 131 159 211 282 317 387
#     4  11  19  37  63  89 124 181 219 253 323 401
#     4  10  22  44  66  95 125 161 229 289 333 411
#     4  10  21  37  60  86 132 172 211 255 313 388
#     4   9  19  42  64  90 123 172 215 259 331 407
#     4  11  23  36  57  95 135 166 213 264 308 389
#     4  11  22  36  59  91 129 174 214 254 313 388
#     4  10  23  46  74  93 128 173 218 288 359 398
#
# _framework density 21.753267999999998
#
# number of rings (size 3 to 8) (size 9 to 14) (size 15 to 20)
#    0.000    1.750    3.750    0.375    3.500    3.000 
#    0.000   11.250    0.000    0.000    0.000    0.000 
#    0.000    0.000    0.000    0.000    0.000    0.000 
#
# Total GULP energy -396541.534392 kJ/mol
# GULP energy per Si atom -12391.922950 kJ/mol
# Density = 2.170376 g / cm^3
# Si number density = 21.753268 Si / 1000 Ang^3
#
#
#
# Elastic Constant Matrix: (Units=GPa)
#
#
# Indices 1 2 3 4 5 6 
#
# 1 68.0606 29.4044 28.8314 0.0000 0.0000 0.0000
# 2 29.4044 144.4903 46.6824 0.0000 0.0000 0.0000
# 3 28.8314 46.6824 96.8905 0.0000 0.0000 0.0000
# 4 0.0000 0.0000 0.0000 35.1928 0.0000 0.0000
# 5 0.0000 0.0000 0.0000 0.0000 -411.2959 0.0000
# 6 0.0000 0.0000 0.0000 0.0000 0.0000 30.3670
#
#
#
# Elastic Compliance Matrix: (Units=1/GPa)
#
#
# Indices 1 2 3 4 5 6 
#
# 1 0.017389 -0.002211 -0.004109 0.000000 0.000000 0.000000
# 2 -0.002211 0.008478 -0.003427 0.000000 0.000000 0.000000
# 3 -0.004109 -0.003427 0.013195 0.000000 0.000000 0.000000
# 4 0.000000 0.000000 0.000000 0.028415 0.000000 0.000000
# 5 0.000000 0.000000 0.000000 0.000000 -0.002431 0.000000
# 6 0.000000 0.000000 0.000000 0.000000 0.000000 0.032930
#
#
# Mechanical properties :
#
#
# Convention : Reuss Voigt Hill
#
# Bulk Modulus (GPa) = 51.10494 57.69753 54.40124
# Shear Modulus (GPa) = 40.32528 -55.51235 -7.59353
#
# Velocity S-wave (km/s) = 4.31020 -5.05712 -1.87038
# Velocity P-wave (km/s) = 6.95086 2.74192 4.51643
#
# Compressibility (1/GPa) = 0.01956758
#
# Stress axis : x y z
#
# Youngs Moduli (GPa) = 57.50860 117.95247 75.78822
#
# Poissons Ratio (x) = 0.26081 0.31141
# Poissons Ratio (y) = 0.12716 0.25971
# Poissons Ratio (z) = 0.23630 0.40420
#
# Static dielectric constant tensor:
#      x y z
#    x 5.761750 0.000000 0.000000 
#    y 0.000000 4.205160 0.000000 
#    z 0.000000 0.000000 3.902900 
# 
# 
# High freq. dielectric constant tensor:
#      x y z
#    x 1.831910 0.000000 0.000000 
#    y 0.000000 1.865720 0.000000 
#    z 0.000000 0.000000 1.847260 
# 
# From -- ./inp_files/3944.got.cif
#   From: 2010.03.12/outbox.cif.g09.slc.cpg/sg32_2_cif.got.tgz:3944.got - 2010.04.14 01:46:39.
