data_PCOD8170457
_publ_section_title
;
Structure prediction by ZEFSAII (Michael W. Deem and Ramdas Pophale) SiO2 
 PCOD8170457
Probable space group: P B A 2
;
_chemical_formula_sum "Si O2"
_cell_formula_units_Z 22
_cell_length_a 11.393920
_cell_length_b 15.714609
_cell_length_c 5.099501
_cell_angle_alpha 90.000000
_cell_angle_beta 90.000000
_cell_angle_gamma 90.000000
_cell_volume 913.070742
_symmetry_space_group_name_H-M "P B A 2"
_symmetry_group_IT_number 32
_symmetry_cell_setting 'orthorhombic'
loop_
_space_group_symop_operation_xyz
x,y,z
-x,-y,z
1/2-x,1/2+y,z
1/2+x,1/2-y,z
loop_
_atom_site_type_symbol
_atom_site_label
_atom_site_fract_x
_atom_site_fract_y
_atom_site_fract_z
Si Si1 0.500000 0.000000 0.123420
Si Si2 0.098663 0.658831 0.391811
Si Si3 0.256797 0.463424 0.990633
Si Si4 0.763498 0.727908 0.105721
Si Si5 0.317997 0.560154 0.507302
Si Si6 0.091561 0.229494 0.600677
O O1 0.488854 0.084468 0.299566
O O2 0.617767 0.015595 0.953980
O O3 0.152466 0.708547 0.138541
O O4 0.202617 0.617531 0.561646
O O5 0.034559 0.724772 0.587266
O O6 0.283135 0.365071 0.034716
O O7 0.313815 0.518564 0.222300
O O8 0.325172 0.487618 0.726142
O O9 0.828095 0.723274 0.385709
O O10 0.854487 0.761420 0.889541
O O11 0.424232 0.628511 0.531135
#
# Coordination Sequence:
#
# PCOD8170457 Si02
#       6
#     2   4   4   4   4   4
#     4  10  20  36  64  94 122 168 222 274 336 398
#     4  10  23  40  65  97 130 176 223 285 337 415
#     4  11  22  39  62  93 133 164 222 279 339 402
#     4  11  24  40  62  96 133 172 220 282 350 410
#     4  10  23  39  62  92 128 169 219 274 336 410
#     4  11  22  41  62  92 131 174 219 278 347 408
#
# _framework density 24.094518999999998
#
# number of rings (size 3 to 8) (size 9 to 14) (size 15 to 20)
#    0.000    1.455    1.818    4.364    5.091    3.636 
#    0.000    0.909    0.000    2.182    0.000    0.000 
#    0.000    0.000    0.000    0.000    0.000    0.000 
#
# Total GULP energy -272796.943332 kJ/mol
# GULP energy per Si atom -12399.861061 kJ/mol
# Density = 2.403968 g / cm^3
# Si number density = 24.094519 Si / 1000 Ang^3
#
#
#
# Elastic Constant Matrix: (Units=GPa)
#
#
# Indices 1 2 3 4 5 6 
#
# 1 41.2401 18.7266 21.1957 0.0000 0.0000 0.0000
# 2 18.7266 126.0701 25.9457 0.0000 0.0000 0.0000
# 3 21.1957 25.9457 97.5715 0.0000 0.0000 0.0000
# 4 0.0000 0.0000 0.0000 43.6293 0.0000 0.0000
# 5 0.0000 0.0000 0.0000 0.0000 26.8909 0.0000
# 6 0.0000 0.0000 0.0000 0.0000 0.0000 39.6315
#
#
#
# Elastic Compliance Matrix: (Units=1/GPa)
#
#
# Indices 1 2 3 4 5 6 
#
# 1 0.028411 -0.003121 -0.005342 0.000000 0.000000 0.000000
# 2 -0.003121 0.008734 -0.001645 0.000000 0.000000 0.000000
# 3 -0.005342 -0.001645 0.011847 0.000000 0.000000 0.000000
# 4 0.000000 0.000000 0.000000 0.022920 0.000000 0.000000
# 5 0.000000 0.000000 0.000000 0.000000 0.037187 0.000000
# 6 0.000000 0.000000 0.000000 0.000000 0.000000 0.025232
#
#
# Mechanical properties :
#
#
# Convention : Reuss Voigt Hill
#
# Bulk Modulus (GPa) = 34.74990 44.06862 39.40926
# Shear Modulus (GPa) = 30.46205 35.29791 32.87998
#
# Velocity S-wave (km/s) = 3.55952 3.83165 3.69809
# Velocity P-wave (km/s) = 5.59886 6.15671 5.88440
#
# Compressibility (1/GPa) = 0.02877706
#
# Stress axis : x y z
#
# Youngs Moduli (GPa) = 35.19785 114.49342 84.41212
#
# Poissons Ratio (x) = 0.35731 0.45092
# Poissons Ratio (y) = 0.10985 0.13882
# Poissons Ratio (z) = 0.18802 0.18830
#
# Static dielectric constant tensor:
#      x y z
#    x 4.309960 0.000000 0.000000 
#    y 0.000000 4.748830 0.000000 
#    z 0.000000 0.000000 4.075190 
# 
# 
# High freq. dielectric constant tensor:
#      x y z
#    x 1.926050 0.000000 0.000000 
#    y 0.000000 1.979000 0.000000 
#    z 0.000000 0.000000 1.948840 
# 
# From -- ./inp_files/829.got.cif
#   From: 2010.03.12/outbox.cif.g09.slc.cpg/sg32_1_cif.got.tgz:829.got - 2010.04.14 01:46:39.
