data_PCOD8170818
_publ_section_title
;
Structure prediction by ZEFSAII (Michael W. Deem and Ramdas Pophale) SiO2 
 PCOD8170818
Probable space group: P N A 21
;
_chemical_formula_sum "Si O2"
_cell_formula_units_Z 32
_cell_length_a 13.741038
_cell_length_b 17.178850
_cell_length_c 6.072397
_cell_angle_alpha 90.000000
_cell_angle_beta 90.000000
_cell_angle_gamma 90.000000
_cell_volume 1433.421074
_symmetry_space_group_name_H-M "P N A 21"
_symmetry_group_IT_number 33
_symmetry_cell_setting 'orthorhombic'
loop_
_space_group_symop_operation_xyz
x,y,z
-x,-y,1/2+z
1/2-x,1/2+y,1/2+z
1/2+x,1/2-y,z
loop_
_atom_site_type_symbol
_atom_site_label
_atom_site_fract_x
_atom_site_fract_y
_atom_site_fract_z
Si Si1 0.929137 0.937953 0.645740
Si Si2 0.943205 0.678808 0.209683
Si Si3 0.142697 0.204675 0.414781
Si Si4 0.854838 0.043897 0.005702
Si Si5 0.799736 0.666336 0.582208
Si Si6 0.090537 0.600092 0.474854
Si Si7 0.951700 0.566831 0.833431
Si Si8 0.709205 0.405935 0.768543
O O1 0.915062 0.863173 0.796843
O O2 0.890076 0.915519 0.405343
O O3 0.043259 0.955129 0.634562
O O4 0.874080 0.012872 0.755362
O O5 0.847196 0.694792 0.354812
O O6 0.039755 0.675850 0.361739
O O7 0.945011 0.746621 0.027767
O O8 0.935848 0.597565 0.079154
O O9 0.206697 0.260221 0.251824
O O10 0.211032 0.167928 0.604607
O O11 0.805641 0.129527 0.020159
O O12 0.780538 0.984333 0.125537
O O13 0.867209 0.597926 0.675004
O O14 0.052290 0.525807 0.338762
O O15 0.206390 0.605869 0.451374
O O16 0.056538 0.593516 0.729638
#
# Coordination Sequence:
#
# PCOD8170818 Si02
#       8
#     4   4   4   4   4   4   4   4
#     4  11  24  43  67  98 134 175 235 296 344 404
#     4  10  22  41  63  92 134 176 218 270 344 408
#     4  10  24  45  64  93 140 180 226 282 347 417
#     4  11  23  41  71  99 129 178 235 288 348 406
#     4  10  22  41  67  96 129 180 224 277 342 420
#     4  11  21  35  64  98 132 170 211 272 342 405
#     4  10  20  34  60  98 133 164 211 270 332 405
#     4  11  24  42  66  98 137 173 226 289 339 413
#
# _framework density 22.324214999999999
#
# number of rings (size 3 to 8) (size 9 to 14) (size 15 to 20)
#    0.000    1.500    3.750    0.750    1.750    3.000 
#    0.000    8.750    0.000    0.000    0.000    0.000 
#    0.000    0.000    0.000    0.000    0.000    0.000 
#
# Total GULP energy -396612.998718 kJ/mol
# GULP energy per Si atom -12394.156210 kJ/mol
# Density = 2.227340 g / cm^3
# Si number density = 22.324215 Si / 1000 Ang^3
#
#
#
# Elastic Constant Matrix: (Units=GPa)
#
#
# Indices 1 2 3 4 5 6 
#
# 1 96.7600 29.5873 29.8788 0.0000 0.0000 0.0000
# 2 29.5873 98.5827 41.0512 0.0000 0.0000 0.0000
# 3 29.8788 41.0512 104.5236 0.0000 0.0000 0.0000
# 4 0.0000 0.0000 0.0000 40.1049 0.0000 0.0000
# 5 0.0000 0.0000 0.0000 0.0000 30.5719 0.0000
# 6 0.0000 0.0000 0.0000 0.0000 0.0000 19.2826
#
#
#
# Elastic Compliance Matrix: (Units=1/GPa)
#
#
# Indices 1 2 3 4 5 6 
#
# 1 0.011855 -0.002567 -0.002381 0.000000 0.000000 0.000000
# 2 -0.002567 0.012683 -0.004247 0.000000 0.000000 0.000000
# 3 -0.002381 -0.004247 0.011916 0.000000 0.000000 0.000000
# 4 0.000000 0.000000 0.000000 0.024935 0.000000 0.000000
# 5 0.000000 0.000000 0.000000 0.000000 0.032710 0.000000
# 6 0.000000 0.000000 0.000000 0.000000 0.000000 0.051860
#
#
# Mechanical properties :
#
#
# Convention : Reuss Voigt Hill
#
# Bulk Modulus (GPa) = 55.35878 55.65564 55.50721
# Shear Modulus (GPa) = 29.34807 31.28180 30.31493
#
# Velocity S-wave (km/s) = 3.62972 3.74739 3.68902
# Velocity P-wave (km/s) = 6.51290 6.61125 6.56226
#
# Compressibility (1/GPa) = 0.01806398
#
# Stress axis : x y z
#
# Youngs Moduli (GPa) = 84.35387 78.84727 83.92120
#
# Poissons Ratio (x) = 0.20237 0.19980
# Poissons Ratio (y) = 0.21650 0.35645
# Poissons Ratio (z) = 0.20083 0.33490
#
# Static dielectric constant tensor:
#      x y z
#    x 3.688170 0.000000 0.000000 
#    y 0.000000 4.031540 0.000000 
#    z 0.000000 0.000000 4.259250 
# 
# 
# High freq. dielectric constant tensor:
#      x y z
#    x 1.851320 0.000000 0.000000 
#    y 0.000000 1.877240 0.000000 
#    z 0.000000 0.000000 1.890830 
# 
# From -- ./inp_files/1515.got.cif
#   From: 2010.03.12/outbox.cif.g09.slc.cpg/sg33_1_cif.got.tgz:1515.got - 2010.04.14 01:49:19.
