data_PCOD8170958
_publ_section_title
;
Structure prediction by ZEFSAII (Michael W. Deem and Ramdas Pophale) SiO2 
 PCOD8170958
Probable space group: P N A 21
;
_chemical_formula_sum "Si O2"
_cell_formula_units_Z 32
_cell_length_a 14.818195
_cell_length_b 15.815594
_cell_length_c 6.459315
_cell_angle_alpha 90.000000
_cell_angle_beta 90.000000
_cell_angle_gamma 90.000000
_cell_volume 1513.795736
_symmetry_space_group_name_H-M "P N A 21"
_symmetry_group_IT_number 33
_symmetry_cell_setting 'orthorhombic'
loop_
_space_group_symop_operation_xyz
x,y,z
-x,-y,1/2+z
1/2-x,1/2+y,1/2+z
1/2+x,1/2-y,z
loop_
_atom_site_type_symbol
_atom_site_label
_atom_site_fract_x
_atom_site_fract_y
_atom_site_fract_z
Si Si1 0.609626 0.506668 0.760900
Si Si2 0.695307 0.984586 0.324040
Si Si3 0.536247 0.616546 0.105932
Si Si4 0.127858 0.830579 0.501624
Si Si5 0.332713 0.847050 0.570871
Si Si6 0.993017 0.745821 0.798403
Si Si7 0.381279 0.966818 0.228759
Si Si8 0.561421 0.908651 0.055466
O O1 0.704425 0.457176 0.760409
O O2 0.533275 0.436592 0.742158
O O3 0.607476 0.573748 0.574205
O O4 0.601467 0.554628 0.979345
O O5 0.666335 0.071333 0.214076
O O6 0.695593 0.006975 0.566690
O O7 0.626687 0.907845 0.259670
O O8 0.599124 0.672540 0.259481
O O9 0.478416 0.671332 0.939889
O O10 0.232958 0.807079 0.542315
O O11 0.069021 0.762155 0.625686
O O12 0.401071 0.780235 0.678966
O O13 0.365294 0.876241 0.341450
O O14 0.031056 0.680314 0.966382
O O15 0.474806 0.965248 0.105719
O O16 0.379020 0.043482 0.387220
#
# Coordination Sequence:
#
# PCOD8170958 Si02
#       8
#     4   4   4   4   4   4   4   4
#     4  10  21  41  66  92 119 158 223 265 313 377
#     4  10  21  36  64  95 122 167 210 260 308 372
#     4  11  22  42  68  89 122 166 211 273 323 368
#     4  10  23  42  64  91 123 168 212 261 321 376
#     4  10  22  40  62  91 128 167 212 255 313 389
#     4  11  25  39  62  94 132 170 202 259 327 385
#     4  11  19  36  64  87 122 170 208 247 309 366
#     4  11  21  36  58  93 128 160 204 250 310 381
#
# _framework density 21.138915000000001
#
# number of rings (size 3 to 8) (size 9 to 14) (size 15 to 20)
#    0.000    1.500    3.750    1.500    1.750    1.000 
#    0.000    2.500    0.000    0.000    0.000    0.000 
#    0.000    0.000    0.000    0.000    0.000    0.000 
#
# Total GULP energy -396679.197985 kJ/mol
# GULP energy per Si atom -12396.224937 kJ/mol
# Density = 2.109080 g / cm^3
# Si number density = 21.138915 Si / 1000 Ang^3
#
#
#
# Elastic Constant Matrix: (Units=GPa)
#
#
# Indices 1 2 3 4 5 6 
#
# 1 132.2886 34.9090 41.5086 0.0000 0.0000 0.0000
# 2 34.9090 47.2240 23.1551 0.0000 0.0000 0.0000
# 3 41.5086 23.1551 118.4454 0.0000 0.0000 0.0000
# 4 0.0000 0.0000 0.0000 28.0155 0.0000 0.0000
# 5 0.0000 0.0000 0.0000 0.0000 27.4679 0.0000
# 6 0.0000 0.0000 0.0000 0.0000 0.0000 30.4435
#
#
#
# Elastic Compliance Matrix: (Units=1/GPa)
#
#
# Indices 1 2 3 4 5 6 
#
# 1 0.009908 -0.006218 -0.002257 0.000000 0.000000 0.000000
# 2 -0.006218 0.027323 -0.003162 0.000000 0.000000 0.000000
# 3 -0.002257 -0.003162 0.009852 0.000000 0.000000 0.000000
# 4 0.000000 0.000000 0.000000 0.035695 0.000000 0.000000
# 5 0.000000 0.000000 0.000000 0.000000 0.036406 0.000000
# 6 0.000000 0.000000 0.000000 0.000000 0.000000 0.032848
#
#
# Mechanical properties :
#
#
# Convention : Reuss Voigt Hill
#
# Bulk Modulus (GPa) = 42.00134 55.23369 48.61752
# Shear Modulus (GPa) = 27.28652 30.41108 28.84880
#
# Velocity S-wave (km/s) = 3.59670 3.79704 3.69823
# Velocity P-wave (km/s) = 6.09595 6.73862 6.42533
#
# Compressibility (1/GPa) = 0.02380876
#
# Stress axis : x y z
#
# Youngs Moduli (GPa) = 100.92761 36.59986 101.50449
#
# Poissons Ratio (x) = 0.22757 0.22907
# Poissons Ratio (y) = 0.62754 0.32099
# Poissons Ratio (z) = 0.22777 0.11574
#
# Static dielectric constant tensor:
#      x y z
#    x 3.797060 0.000000 0.000000 
#    y 0.000000 3.531990 0.000000 
#    z 0.000000 0.000000 4.067350 
# 
# 
# High freq. dielectric constant tensor:
#      x y z
#    x 1.827840 0.000000 0.000000 
#    y 0.000000 1.797090 0.000000 
#    z 0.000000 0.000000 1.846080 
# 
# From -- ./inp_files/1473.got.cif
#   From: 2010.03.12/outbox.cif.g09.slc.cpg/sg33_1_cif.got.tgz:1473.got - 2010.04.14 01:49:19.
