data_PCOD8170012
_publ_section_title
;
Structure prediction by ZEFSAII (Michael W. Deem and Ramdas Pophale) SiO2 
 PCOD8170012
Probable space group: P M N 21
;
_chemical_formula_sum "Si O2"
_cell_formula_units_Z 32
_cell_length_a 9.138186
_cell_length_b 11.467254
_cell_length_c 17.557785
_cell_angle_alpha 90.000000
_cell_angle_beta 90.000000
_cell_angle_gamma 90.000000
_cell_volume 1839.878534
_symmetry_space_group_name_H-M "P M N 21"
_symmetry_group_IT_number 31
_symmetry_cell_setting 'orthorhombic'
loop_
_space_group_symop_operation_xyz
x,y,z
1/2-x,-y,1/2+z
-x,y,z
1/2+x,-y,1/2+z
loop_
_atom_site_type_symbol
_atom_site_label
_atom_site_fract_x
_atom_site_fract_y
_atom_site_fract_z
Si Si1 0.840468 0.332845 0.236330
Si Si2 0.828156 0.235349 0.861979
Si Si3 0.674765 0.227863 0.013374
Si Si4 0.325106 0.889522 0.652789
Si Si5 0.160499 0.471687 0.792764
Si Si6 0.161536 0.357053 0.628763
Si Si7 0.829614 0.119780 0.702265
Si Si8 0.337669 0.554674 0.572112
O O1 0.775168 0.204991 0.216965
O O2 0.748811 0.406878 0.297769
O O3 0.850472 0.403250 0.158155
O O4 0.000000 0.318275 0.273008
O O5 0.773318 0.367633 0.844116
O O6 0.799689 0.153531 0.789506
O O7 0.000000 0.235217 0.882923
O O8 0.730389 0.185669 0.930691
O O9 0.500000 0.224514 0.018841
O O10 0.743798 0.139121 0.074080
O O11 0.732566 0.359360 0.025381
O O12 0.500000 0.882983 0.639926
O O13 0.276720 0.014859 0.681518
O O14 0.151624 0.427770 0.706807
O O15 0.000000 0.502111 0.823252
O O16 0.215135 0.225912 0.646267
O O17 0.270793 0.423669 0.571102
O O18 0.000000 0.353630 0.591614
O O19 0.000000 0.086810 0.690819
O O20 0.500000 0.552029 0.534912
#
# Coordination Sequence:
#
# PCOD8170012 Si02
#       8
#     4   4   4   4   4   4   4   4
#     4   8  15  26  41  64  92 119 148 187 231 274
#     4   9  18  33  50  71 100 128 157 200 253 304
#     4  11  21  32  49  72  97 128 166 207 253 301
#     4  10  20  33  49  71 100 133 170 211 251 294
#     4   8  14  25  44  67  90 118 147 180 228 283
#     4   8  14  26  44  68  95 120 150 188 230 278
#     4   9  18  32  51  74 100 132 169 208 248 295
#     4   9  16  27  44  67  94 122 151 187 236 287
#
# _framework density 17.392453
#
# number of rings (size 3 to 8) (size 9 to 14) (size 15 to 20)
#    0.000    3.000    0.000    4.125    0.000    5.000 
#    0.000    2.500    0.000    1.500    0.000    7.000 
#    0.000    0.000    0.000    0.000    0.000    0.000 
#
# Total GULP energy -396554.627432 kJ/mol
# GULP energy per Si atom -12392.332107 kJ/mol
# Density = 1.735287 g / cm^3
# Si number density = 17.392453 Si / 1000 Ang^3
#
#
#
# Elastic Constant Matrix: (Units=GPa)
#
#
# Indices 1 2 3 4 5 6 
#
# 1 104.5080 56.3426 38.4758 0.0000 0.0000 0.0000
# 2 56.3426 118.6617 32.1679 0.0000 0.0000 0.0000
# 3 38.4758 32.1679 53.9051 0.0000 0.0000 0.0000
# 4 0.0000 0.0000 0.0000 13.7488 0.0000 0.0000
# 5 0.0000 0.0000 0.0000 0.0000 19.9955 0.0000
# 6 0.0000 0.0000 0.0000 0.0000 0.0000 30.7711
#
#
#
# Elastic Compliance Matrix: (Units=1/GPa)
#
#
# Indices 1 2 3 4 5 6 
#
# 1 0.015188 -0.005097 -0.007799 0.000000 0.000000 0.000000
# 2 -0.005097 0.011764 -0.003382 0.000000 0.000000 0.000000
# 3 -0.007799 -0.003382 0.026136 0.000000 0.000000 0.000000
# 4 0.000000 0.000000 0.000000 0.072733 0.000000 0.000000
# 5 0.000000 0.000000 0.000000 0.000000 0.050011 0.000000
# 6 0.000000 0.000000 0.000000 0.000000 0.000000 0.032498
#
#
# Mechanical properties :
#
#
# Convention : Reuss Voigt Hill
#
# Bulk Modulus (GPa) = 48.70501 59.00526 53.85513
# Shear Modulus (GPa) = 20.18313 22.90900 21.54606
#
# Velocity S-wave (km/s) = 3.41024 3.63324 3.52350
# Velocity P-wave (km/s) = 6.60080 7.18331 6.89821
#
# Compressibility (1/GPa) = 0.02053177
#
# Stress axis : x y z
#
# Youngs Moduli (GPa) = 65.84164 85.00171 38.26143
#
# Poissons Ratio (x) = 0.43328 0.29840
# Poissons Ratio (y) = 0.33562 0.12941
# Poissons Ratio (z) = 0.51349 0.28749
#
# Static dielectric constant tensor:
#      x y z
#    x 3.462110 0.000000 0.000000 
#    y 0.000000 3.247820 0.000000 
#    z 0.000000 0.000000 2.925630 
# 
# 
# High freq. dielectric constant tensor:
#      x y z
#    x 1.673540 0.000000 0.000000 
#    y 0.000000 1.661440 0.000000 
#    z 0.000000 0.000000 1.632220 
# 
# From -- ./inp_files/5886.got.cif
#   From: 2010.03.12/outbox.cif.g09.slc.cpg/sg31_3_cif.got.tgz:5886.got - 2010.04.14 01:42:59.
