data_PCOD8170484
_publ_section_title
;
Structure prediction by ZEFSAII (Michael W. Deem and Ramdas Pophale) SiO2 
 PCOD8170484
Probable space group: P B A 2
;
_chemical_formula_sum "Si O2"
_cell_formula_units_Z 30
_cell_length_a 9.026664
_cell_length_b 12.414220
_cell_length_c 13.736947
_cell_angle_alpha 90.000000
_cell_angle_beta 90.000000
_cell_angle_gamma 90.000000
_cell_volume 1539.348444
_symmetry_space_group_name_H-M "P B A 2"
_symmetry_group_IT_number 32
_symmetry_cell_setting 'orthorhombic'
loop_
_space_group_symop_operation_xyz
x,y,z
-x,-y,z
1/2-x,1/2+y,z
1/2+x,1/2-y,z
loop_
_atom_site_type_symbol
_atom_site_label
_atom_site_fract_x
_atom_site_fract_y
_atom_site_fract_z
Si Si1 0.000000 0.500000 0.871220
Si Si2 0.007384 0.125713 0.268079
Si Si3 0.147704 0.449641 0.565192
Si Si4 0.991419 0.618049 0.057628
Si Si5 0.966720 0.753532 0.668287
Si Si6 0.758437 0.254572 0.157285
Si Si7 0.936895 0.112763 0.486507
Si Si8 0.211877 0.609956 0.727861
O O1 0.149221 0.526554 0.808979
O O2 0.029545 0.396242 0.940692
O O3 0.163195 0.169640 0.228459
O O4 0.866878 0.182361 0.220889
O O5 0.000769 0.149093 0.383022
O O6 0.000000 0.000000 0.244613
O O7 0.123104 0.355075 0.643682
O O8 0.258228 0.405316 0.482219
O O9 0.216424 0.549541 0.624690
O O10 0.000000 0.500000 0.515329
O O11 0.849580 0.680283 0.095623
O O12 0.000000 0.500000 0.108074
O O13 0.145727 0.676902 0.080944
O O14 0.877205 0.839227 0.736478
O O15 0.019492 0.798986 0.564931
O O16 0.107754 0.715719 0.729686
O O17 0.000000 0.000000 0.521863
#
# Coordination Sequence:
#
# PCOD8170484 Si02
#       8
#     2   4   4   4   4   4   4   4
#     4  10  22  40  60  90 120 146 206 256 306 368
#     4  10  23  38  62  91 127 152 210 258 286 380
#     4  10  21  38  56  81 122 168 198 245 301 350
#     4   9  21  39  66  87 121 152 197 258 312 382
#     4  11  21  34  61  78 121 167 193 240 297 351
#     4  10  20  42  65  88 117 167 194 244 338 364
#     4  11  22  37  56  91 121 161 209 245 285 350
#     4  11  21  38  58  84 117 158 201 250 299 354
#
# _framework density 19.488764
#
# number of rings (size 3 to 8) (size 9 to 14) (size 15 to 20)
#    0.400    1.333    4.667    0.800    1.867    1.067 
#    2.400    0.667    0.000    3.200    0.000    0.000 
#    0.000    0.000    0.000    0.000    0.000    0.000 
#
# Total GULP energy -371712.903968 kJ/mol
# GULP energy per Si atom -12390.430132 kJ/mol
# Density = 1.944441 g / cm^3
# Si number density = 19.488764 Si / 1000 Ang^3
#
#
#
# Elastic Constant Matrix: (Units=GPa)
#
#
# Indices 1 2 3 4 5 6 
#
# 1 118.2279 52.3680 44.7281 0.0000 0.0000 0.0000
# 2 52.3680 96.5445 46.3250 0.0000 0.0000 0.0000
# 3 44.7281 46.3250 83.2332 0.0000 0.0000 0.0000
# 4 0.0000 0.0000 0.0000 34.5935 0.0000 0.0000
# 5 0.0000 0.0000 0.0000 0.0000 20.6366 0.0000
# 6 0.0000 0.0000 0.0000 0.0000 0.0000 32.6268
#
#
#
# Elastic Compliance Matrix: (Units=1/GPa)
#
#
# Indices 1 2 3 4 5 6 
#
# 1 0.011972 -0.004648 -0.003847 0.000000 0.000000 0.000000
# 2 -0.004648 0.015937 -0.006372 0.000000 0.000000 0.000000
# 3 -0.003847 -0.006372 0.017628 0.000000 0.000000 0.000000
# 4 0.000000 0.000000 0.000000 0.028907 0.000000 0.000000
# 5 0.000000 0.000000 0.000000 0.000000 0.048458 0.000000
# 6 0.000000 0.000000 0.000000 0.000000 0.000000 0.030650
#
#
# Mechanical properties :
#
#
# Convention : Reuss Voigt Hill
#
# Bulk Modulus (GPa) = 63.27815 64.98311 64.13063
# Shear Modulus (GPa) = 26.51769 27.87701 27.19735
#
# Velocity S-wave (km/s) = 3.69272 3.78619 3.73975
# Velocity P-wave (km/s) = 7.12188 7.24775 7.18509
#
# Compressibility (1/GPa) = 0.01580324
#
# Stress axis : x y z
#
# Youngs Moduli (GPa) = 83.52483 62.74796 56.72796
#
# Poissons Ratio (x) = 0.29168 0.21821
# Poissons Ratio (y) = 0.38826 0.36147
# Poissons Ratio (z) = 0.32129 0.39983
#
# Static dielectric constant tensor:
#      x y z
#    x 3.960380 0.000000 0.000000 
#    y 0.000000 3.721390 0.000000 
#    z 0.000000 0.000000 3.255130 
# 
# 
# High freq. dielectric constant tensor:
#      x y z
#    x 1.765550 0.000000 0.000000 
#    y 0.000000 1.773820 0.000000 
#    z 0.000000 0.000000 1.727610 
# 
# From -- ./inp_files/4124.got.cif
#   From: 2010.03.12/outbox.cif.g09.slc.cpg/sg32_3_cif.got.tgz:4124.got - 2010.04.14 01:46:39.
