data_PCOD8170739
_publ_section_title
;
Structure prediction by ZEFSAII (Michael W. Deem and Ramdas Pophale) SiO2 
 PCOD8170739
Probable space group: P N A 21
;
_chemical_formula_sum "Si O2"
_cell_formula_units_Z 32
_cell_length_a 20.040115
_cell_length_b 9.439503
_cell_length_c 8.878334
_cell_angle_alpha 90.000000
_cell_angle_beta 90.000000
_cell_angle_gamma 90.000000
_cell_volume 1679.503129
_symmetry_space_group_name_H-M "P N A 21"
_symmetry_group_IT_number 33
_symmetry_cell_setting 'orthorhombic'
loop_
_space_group_symop_operation_xyz
x,y,z
-x,-y,1/2+z
1/2-x,1/2+y,1/2+z
1/2+x,1/2-y,z
loop_
_atom_site_type_symbol
_atom_site_label
_atom_site_fract_x
_atom_site_fract_y
_atom_site_fract_z
Si Si1 0.587332 0.510472 0.554520
Si Si2 0.361230 0.742632 0.216883
Si Si3 0.500274 0.170804 0.279445
Si Si4 0.140110 0.775777 0.773434
Si Si5 0.337707 0.531395 0.478348
Si Si6 0.799159 0.481310 0.139496
Si Si7 0.950382 0.965886 0.717736
Si Si8 0.438334 0.964151 0.064387
O O1 0.637888 0.378321 0.585289
O O2 0.622967 0.654802 0.609623
O O3 0.566825 0.531640 0.381126
O O4 0.521711 0.478642 0.657865
O O5 0.359949 0.667827 0.379977
O O6 0.428428 0.836056 0.186877
O O7 0.298664 0.855221 0.203951
O O8 0.429991 0.226194 0.346079
O O9 0.549135 0.296830 0.232919
O O10 0.535517 0.081004 0.405342
O O11 0.489885 0.076068 0.131897
O O12 0.190263 0.641690 0.765733
O O13 0.173782 0.893919 0.876545
O O14 0.267287 0.562085 0.554399
O O15 0.392735 0.493364 0.601816
O O16 0.865113 0.466555 0.034014
#
# Coordination Sequence:
#
# PCOD8170739 Si02
#       8
#     4   4   4   4   4   4   4   4
#     4  10  19  37  57  87 116 149 193 249 298 347
#     4   9  20  39  61  81 116 154 193 247 290 343
#     4  10  19  36  57  89 117 151 190 252 299 350
#     4   9  21  39  58  84 121 150 196 254 293 342
#     4  11  23  37  62  85 114 160 202 234 298 358
#     4   9  21  40  56  82 117 154 190 243 284 353
#     4  11  21  34  58  86 119 152 199 240 304 354
#     4   9  20  36  61  82 122 150 191 241 300 337
#
# _framework density 19.053253999999999
#
# number of rings (size 3 to 8) (size 9 to 14) (size 15 to 20)
#    0.750    1.500    1.250    2.250    1.750    3.000 
#    2.250    2.500    0.000    0.000    0.000    0.000 
#    0.000    0.000    0.000    0.000    0.000    0.000 
#
# Total GULP energy -396443.014368 kJ/mol
# GULP energy per Si atom -12388.844199 kJ/mol
# Density = 1.900989 g / cm^3
# Si number density = 19.053254 Si / 1000 Ang^3
#
#
#
# Elastic Constant Matrix: (Units=GPa)
#
#
# Indices 1 2 3 4 5 6 
#
# 1 57.3532 22.4159 23.8241 0.0000 0.0000 0.0000
# 2 22.4159 64.8064 8.9621 0.0000 0.0000 0.0000
# 3 23.8241 8.9621 71.1542 0.0000 0.0000 0.0000
# 4 0.0000 0.0000 0.0000 27.0667 0.0000 0.0000
# 5 0.0000 0.0000 0.0000 0.0000 24.3166 0.0000
# 6 0.0000 0.0000 0.0000 0.0000 0.0000 10.6861
#
#
#
# Elastic Compliance Matrix: (Units=1/GPa)
#
#
# Indices 1 2 3 4 5 6 
#
# 1 0.023011 -0.007016 -0.006821 0.000000 0.000000 0.000000
# 2 -0.007016 0.017843 0.000102 0.000000 0.000000 0.000000
# 3 -0.006821 0.000102 0.016325 0.000000 0.000000 0.000000
# 4 0.000000 0.000000 0.000000 0.036946 0.000000 0.000000
# 5 0.000000 0.000000 0.000000 0.000000 0.041124 0.000000
# 6 0.000000 0.000000 0.000000 0.000000 0.000000 0.093579
#
#
# Mechanical properties :
#
#
# Convention : Reuss Voigt Hill
#
# Bulk Modulus (GPa) = 33.66002 33.74646 33.70324
# Shear Modulus (GPa) = 18.78265 21.62132 20.20199
#
# Velocity S-wave (km/s) = 3.14315 3.37231 3.25974
# Velocity P-wave (km/s) = 5.55672 5.73702 5.64759
#
# Compressibility (1/GPa) = 0.02970884
#
# Stress axis : x y z
#
# Youngs Moduli (GPa) = 43.45664 56.04339 61.25559
#
# Poissons Ratio (x) = 0.39321 0.41783
# Poissons Ratio (y) = 0.30490 -0.00623
# Poissons Ratio (z) = 0.29642 -0.00570
#
# Static dielectric constant tensor:
#      x y z
#    x 3.281320 0.000000 0.000000 
#    y 0.000000 3.684570 0.000000 
#    z 0.000000 0.000000 3.238560 
# 
# 
# High freq. dielectric constant tensor:
#      x y z
#    x 1.717480 0.000000 0.000000 
#    y 0.000000 1.756340 0.000000 
#    z 0.000000 0.000000 1.719020 
# 
# From -- ./inp_files/5192.got.cif
#   From: 2010.03.12/outbox.cif.g09.slc.cpg/sg33_3_cif.got.tgz:5192.got - 2010.04.14 01:49:19.
