data_PCOD8170913
_publ_section_title
;
Structure prediction by ZEFSAII (Michael W. Deem and Ramdas Pophale) SiO2 
 PCOD8170913
Probable space group: P N A 21
;
_chemical_formula_sum "Si O2"
_cell_formula_units_Z 28
_cell_length_a 16.679936
_cell_length_b 8.608441
_cell_length_c 8.787373
_cell_angle_alpha 90.000000
_cell_angle_beta 90.000000
_cell_angle_gamma 90.000000
_cell_volume 1261.763467
_symmetry_space_group_name_H-M "P N A 21"
_symmetry_group_IT_number 33
_symmetry_cell_setting 'orthorhombic'
loop_
_space_group_symop_operation_xyz
x,y,z
-x,-y,1/2+z
1/2-x,1/2+y,1/2+z
1/2+x,1/2-y,z
loop_
_atom_site_type_symbol
_atom_site_label
_atom_site_fract_x
_atom_site_fract_y
_atom_site_fract_z
Si Si1 0.447446 0.576669 0.323300
Si Si2 0.629048 0.539809 0.251493
Si Si3 0.287016 0.983614 0.393605
Si Si4 0.125726 0.779278 0.954427
Si Si5 0.914112 0.630811 0.172912
Si Si6 0.383715 0.760684 0.596359
Si Si7 0.021496 0.420681 0.360394
O O1 0.538814 0.516338 0.313279
O O2 0.386459 0.431292 0.346722
O O3 0.420792 0.678992 0.174919
O O4 0.441396 0.694197 0.465084
O O5 0.693101 0.564004 0.386919
O O6 0.662656 0.384834 0.168645
O O7 0.632585 0.679919 0.131994
O O8 0.328925 0.925348 0.237946
O O9 0.322768 0.891662 0.538049
O O10 0.298183 0.171126 0.410162
O O11 0.048835 0.672640 0.940579
O O12 0.985493 0.576699 0.287766
O O13 0.918021 0.555942 0.003338
O O14 0.439822 0.829236 0.724251
#
# Coordination Sequence:
#
# PCOD8170913 Si02
#       7
#     4   4   4   4   4   4   4
#     4  10  20  40  69  96 124 169 234 276 327 394
#     4  11  22  43  65  97 133 170 219 284 339 397
#     4  10  24  45  62  95 141 174 218 270 352 409
#     4  10  21  40  68  93 129 170 224 277 328 402
#     4  10  21  37  66  95 131 173 219 274 326 405
#     4  10  23  42  65  96 133 172 227 277 325 412
#     4  11  19  39  65  98 125 174 231 270 325 393
#
# _framework density 22.191163
#
# number of rings (size 3 to 8) (size 9 to 14) (size 15 to 20)
#    0.000    1.714    2.857    2.571    0.000    1.143 
#    7.714    4.286    0.000    0.000    0.000    0.000 
#    0.000    0.000    0.000    0.000    0.000    0.000 
#
# Total GULP energy -346996.421175 kJ/mol
# GULP energy per Si atom -12392.729328 kJ/mol
# Density = 2.214066 g / cm^3
# Si number density = 22.191163 Si / 1000 Ang^3
#
#
#
# Elastic Constant Matrix: (Units=GPa)
#
#
# Indices 1 2 3 4 5 6 
#
# 1 68.6387 23.5869 20.5230 0.0000 0.0000 0.0000
# 2 23.5869 108.5201 37.3015 0.0000 0.0000 0.0000
# 3 20.5230 37.3015 64.1563 0.0000 0.0000 0.0000
# 4 0.0000 0.0000 0.0000 28.7041 0.0000 0.0000
# 5 0.0000 0.0000 0.0000 0.0000 16.3208 0.0000
# 6 0.0000 0.0000 0.0000 0.0000 0.0000 17.7998
#
#
#
# Elastic Compliance Matrix: (Units=1/GPa)
#
#
# Indices 1 2 3 4 5 6 
#
# 1 0.016526 -0.002218 -0.003997 0.000000 0.000000 0.000000
# 2 -0.002218 0.011814 -0.006159 0.000000 0.000000 0.000000
# 3 -0.003997 -0.006159 0.020447 0.000000 0.000000 0.000000
# 4 0.000000 0.000000 0.000000 0.034838 0.000000 0.000000
# 5 0.000000 0.000000 0.000000 0.000000 0.061271 0.000000
# 6 0.000000 0.000000 0.000000 0.000000 0.000000 0.056180
#
#
# Mechanical properties :
#
#
# Convention : Reuss Voigt Hill
#
# Bulk Modulus (GPa) = 41.60041 44.90423 43.25232
# Shear Modulus (GPa) = 21.38223 23.22518 22.30370
#
# Velocity S-wave (km/s) = 3.10747 3.23862 3.17373
# Velocity P-wave (km/s) = 5.62692 5.85355 5.74135
#
# Compressibility (1/GPa) = 0.02403822
#
# Stress axis : x y z
#
# Youngs Moduli (GPa) = 60.50933 84.64422 48.90772
#
# Poissons Ratio (x) = 0.18775 0.19548
# Poissons Ratio (y) = 0.13422 0.30124
# Poissons Ratio (z) = 0.24185 0.52135
#
# Static dielectric constant tensor:
#      x y z
#    x 3.697990 0.000000 0.000000 
#    y 0.000000 4.463490 0.000000 
#    z 0.000000 0.000000 4.142890 
# 
# 
# High freq. dielectric constant tensor:
#      x y z
#    x 1.843640 0.000000 0.000000 
#    y 0.000000 1.887220 0.000000 
#    z 0.000000 0.000000 1.869260 
# 
# From -- ./inp_files/4773.got.cif
#   From: 2010.03.12/outbox.cif.g09.slc.cpg/sg33_3_cif.got.tgz:4773.got - 2010.04.14 01:49:19.
