data_PCOD8170960
_publ_section_title
;
Structure prediction by ZEFSAII (Michael W. Deem and Ramdas Pophale) SiO2 
 PCOD8170960
Probable space group: P N A 21
;
_chemical_formula_sum "Si O2"
_cell_formula_units_Z 24
_cell_length_a 15.470376
_cell_length_b 12.621799
_cell_length_c 5.022736
_cell_angle_alpha 90.000000
_cell_angle_beta 90.000000
_cell_angle_gamma 90.000000
_cell_volume 980.759403
_symmetry_space_group_name_H-M "P N A 21"
_symmetry_group_IT_number 33
_symmetry_cell_setting 'orthorhombic'
loop_
_space_group_symop_operation_xyz
x,y,z
-x,-y,1/2+z
1/2-x,1/2+y,1/2+z
1/2+x,1/2-y,z
loop_
_atom_site_type_symbol
_atom_site_label
_atom_site_fract_x
_atom_site_fract_y
_atom_site_fract_z
Si Si1 0.478990 0.829329 0.406720
Si Si2 0.657621 0.918916 0.337301
Si Si3 0.366897 0.850434 0.898992
Si Si4 0.747725 0.349584 0.300990
Si Si5 0.888284 0.018986 0.619984
Si Si6 0.057896 0.883794 0.610997
O O1 0.554924 0.904781 0.296723
O O2 0.418807 0.882463 0.629785
O O3 0.513013 0.728149 0.568142
O O4 0.423919 0.803773 0.141703
O O5 0.679220 0.835278 0.574869
O O6 0.677270 0.036081 0.461485
O O7 0.713018 0.897846 0.071519
O O8 0.293931 0.763571 0.852480
O O9 0.680649 0.425331 0.143444
O O10 0.881386 0.099785 0.370073
O O11 0.876336 0.095680 0.870512
O O12 0.983905 0.971723 0.620891
#
# Coordination Sequence:
#
# PCOD8170960 Si02
#       6
#     4   4   4   4   4   4
#     4  12  24  46  75 104 139 190 246 296 346 432
#     4  12  28  46  71 108 141 184 246 301 355 428
#     4  12  26  48  76  99 140 195 237 292 362 433
#     4  12  26  46  71 102 147 190 230 296 378 421
#     4  10  21  38  62 102 138 176 226 279 352 421
#     4  10  21  36  67 101 133 175 233 288 335 413
#
# _framework density 24.470835000000001
#
# number of rings (size 3 to 8) (size 9 to 14) (size 15 to 20)
#    0.000    0.667    1.667    6.000    4.667    4.000 
#    0.000    0.000    0.000    0.000    0.000    0.000 
#    0.000    0.000    0.000    0.000    0.000    0.000 
#
# Total GULP energy -297471.832399 kJ/mol
# GULP energy per Si atom -12394.659683 kJ/mol
# Density = 2.441514 g / cm^3
# Si number density = 24.470835 Si / 1000 Ang^3
#
#
#
# Elastic Constant Matrix: (Units=GPa)
#
#
# Indices 1 2 3 4 5 6 
#
# 1 68.8403 34.2800 49.1924 0.0000 0.0000 0.0000
# 2 34.2800 104.2866 41.8474 0.0000 0.0000 0.0000
# 3 49.1924 41.8474 167.6603 0.0000 0.0000 0.0000
# 4 0.0000 0.0000 0.0000 33.1144 0.0000 0.0000
# 5 0.0000 0.0000 0.0000 0.0000 47.3440 0.0000
# 6 0.0000 0.0000 0.0000 0.0000 0.0000 22.0198
#
#
#
# Elastic Compliance Matrix: (Units=1/GPa)
#
#
# Indices 1 2 3 4 5 6 
#
# 1 0.020305 -0.004761 -0.004769 0.000000 0.000000 0.000000
# 2 -0.004761 0.011772 -0.001542 0.000000 0.000000 0.000000
# 3 -0.004769 -0.001542 0.007749 0.000000 0.000000 0.000000
# 4 0.000000 0.000000 0.000000 0.030198 0.000000 0.000000
# 5 0.000000 0.000000 0.000000 0.000000 0.021122 0.000000
# 6 0.000000 0.000000 0.000000 0.000000 0.000000 0.045414
#
#
# Mechanical properties :
#
#
# Convention : Reuss Voigt Hill
#
# Bulk Modulus (GPa) = 56.55172 65.71409 61.13291
# Shear Modulus (GPa) = 30.37709 34.86012 32.61860
#
# Velocity S-wave (km/s) = 3.52711 3.77843 3.65493
# Velocity P-wave (km/s) = 6.30455 6.77847 6.54580
#
# Compressibility (1/GPa) = 0.01768293
#
# Stress axis : x y z
#
# Youngs Moduli (GPa) = 49.24857 84.94434 129.05597
#
# Poissons Ratio (x) = 0.40439 0.61552
# Poissons Ratio (y) = 0.23446 0.19895
# Poissons Ratio (z) = 0.23489 0.13095
#
# Static dielectric constant tensor:
#      x y z
#    x 4.497760 0.000000 0.000000 
#    y 0.000000 4.171540 0.000000 
#    z 0.000000 0.000000 4.765460 
# 
# 
# High freq. dielectric constant tensor:
#      x y z
#    x 1.974980 0.000000 0.000000 
#    y 0.000000 1.971220 0.000000 
#    z 0.000000 0.000000 1.991450 
# 
# From -- ./inp_files/1341.got.cif
#   From: 2010.03.12/outbox.cif.g09.slc.cpg/sg33_1_cif.got.tgz:1341.got - 2010.04.14 01:49:19.
