data_PCOD8170622
_publ_section_title
;
Structure prediction by ZEFSAII (Michael W. Deem and Ramdas Pophale) SiO2 
 PCOD8170622
Probable space group: P B A 2
;
_chemical_formula_sum "Si O2"
_cell_formula_units_Z 22
_cell_length_a 16.158765
_cell_length_b 9.493105
_cell_length_c 6.205198
_cell_angle_alpha 90.000000
_cell_angle_beta 90.000000
_cell_angle_gamma 90.000000
_cell_volume 951.857844
_symmetry_space_group_name_H-M "P B A 2"
_symmetry_group_IT_number 32
_symmetry_cell_setting 'orthorhombic'
loop_
_space_group_symop_operation_xyz
x,y,z
-x,-y,z
1/2-x,1/2+y,z
1/2+x,1/2-y,z
loop_
_atom_site_type_symbol
_atom_site_label
_atom_site_fract_x
_atom_site_fract_y
_atom_site_fract_z
Si Si1 0.000000 0.000000 0.682160
Si Si2 0.074389 0.218797 0.377745
Si Si3 0.785792 0.325881 0.818796
Si Si4 0.304884 0.535468 0.186932
Si Si5 0.570932 0.679478 0.051252
Si Si6 0.806935 0.584064 0.547686
O O1 0.062358 0.086724 0.534836
O O2 0.958803 0.122188 0.822280
O O3 0.098733 0.361111 0.505458
O O4 0.002326 0.245208 0.200082
O O5 0.166319 0.185309 0.282545
O O6 0.823331 0.428093 0.639303
O O7 0.743366 0.188871 0.709998
O O8 0.723192 0.428537 0.945515
O O9 0.856526 0.289141 0.994746
O O10 0.391490 0.450260 0.182163
O O11 0.241012 0.443080 0.323636
#
# Coordination Sequence:
#
# PCOD8170622 Si02
#       6
#     2   4   4   4   4   4
#     4  12  22  44  74 102 148 196 246 284 388 442
#     4  12  25  43  74 109 148 193 246 309 371 443
#     4  12  27  46  78 109 146 194 257 307 374 453
#     4  12  23  48  77 106 142 198 252 310 369 448
#     4  12  25  43  74 109 148 193 246 309 371 443
#     4  12  27  46  78 109 146 194 257 307 374 453
#
# _framework density 23.112698000000002
#
# number of rings (size 3 to 8) (size 9 to 14) (size 15 to 20)
#    0.000    0.000    7.273    3.273    0.000    0.000 
#    0.000    5.455    0.000    0.000    0.000    0.000 
#    0.000    0.000    0.000    0.000    0.000    0.000 
#
# Total GULP energy -272599.816387 kJ/mol
# GULP energy per Si atom -12390.900745 kJ/mol
# Density = 2.306009 g / cm^3
# Si number density = 23.112698 Si / 1000 Ang^3
#
#
#
# Elastic Constant Matrix: (Units=GPa)
#
#
# Indices 1 2 3 4 5 6 
#
# 1 89.7994 21.9799 29.4025 0.0000 0.0000 0.0000
# 2 21.9799 82.5202 24.0364 0.0000 0.0000 0.0000
# 3 29.4025 24.0364 99.0837 0.0000 0.0000 0.0000
# 4 0.0000 0.0000 0.0000 39.7401 0.0000 0.0000
# 5 0.0000 0.0000 0.0000 0.0000 35.7828 0.0000
# 6 0.0000 0.0000 0.0000 0.0000 0.0000 36.1676
#
#
#
# Elastic Compliance Matrix: (Units=1/GPa)
#
#
# Indices 1 2 3 4 5 6 
#
# 1 0.012788 -0.002476 -0.003194 0.000000 0.000000 0.000000
# 2 -0.002476 0.013519 -0.002545 0.000000 0.000000 0.000000
# 3 -0.003194 -0.002545 0.011658 0.000000 0.000000 0.000000
# 4 0.000000 0.000000 0.000000 0.025163 0.000000 0.000000
# 5 0.000000 0.000000 0.000000 0.000000 0.027946 0.000000
# 6 0.000000 0.000000 0.000000 0.000000 0.000000 0.027649
#
#
# Mechanical properties :
#
#
# Convention : Reuss Voigt Hill
#
# Bulk Modulus (GPa) = 46.43615 46.91564 46.67589
# Shear Modulus (GPa) = 35.12939 35.40374 35.26657
#
# Velocity S-wave (km/s) = 3.90284 3.91805 3.91045
# Velocity P-wave (km/s) = 6.35959 6.38834 6.37398
#
# Compressibility (1/GPa) = 0.02153495
#
# Stress axis : x y z
#
# Youngs Moduli (GPa) = 78.19995 73.97032 85.78056
#
# Poissons Ratio (x) = 0.18313 0.27399
# Poissons Ratio (y) = 0.19360 0.21830
# Poissons Ratio (z) = 0.24978 0.18824
#
# Static dielectric constant tensor:
#      x y z
#    x 4.046050 0.000000 0.000000 
#    y 0.000000 4.107920 0.000000 
#    z 0.000000 0.000000 4.296250 
# 
# 
# High freq. dielectric constant tensor:
#      x y z
#    x 1.905630 0.000000 0.000000 
#    y 0.000000 1.913650 0.000000 
#    z 0.000000 0.000000 1.929800 
# 
# From -- ./inp_files/840.got.cif
#   From: 2010.03.12/outbox.cif.g09.slc.cpg/sg32_1_cif.got.tgz:840.got - 2010.04.14 01:46:39.
