data_PCOD8170409
_publ_section_title
;
Structure prediction by ZEFSAII (Michael W. Deem and Ramdas Pophale) SiO2 
 PCOD8170409
Probable space group: P B A 2
;
_chemical_formula_sum "Si O2"
_cell_formula_units_Z 26
_cell_length_a 15.641690
_cell_length_b 11.594823
_cell_length_c 6.795371
_cell_angle_alpha 90.000000
_cell_angle_beta 90.000000
_cell_angle_gamma 90.000000
_cell_volume 1232.426336
_symmetry_space_group_name_H-M "P B A 2"
_symmetry_group_IT_number 32
_symmetry_cell_setting 'orthorhombic'
loop_
_space_group_symop_operation_xyz
x,y,z
-x,-y,z
1/2-x,1/2+y,z
1/2+x,1/2-y,z
loop_
_atom_site_type_symbol
_atom_site_label
_atom_site_fract_x
_atom_site_fract_y
_atom_site_fract_z
Si Si1 0.624396 0.540398 0.227620
Si Si2 0.500000 0.500000 0.571442
Si Si3 0.900410 0.874204 0.883299
Si Si4 0.167502 0.718113 0.101256
Si Si5 0.317925 0.011479 0.353547
Si Si6 0.212611 0.547988 0.795784
Si Si7 0.162663 0.338286 0.060014
O O1 0.576627 0.545458 0.435859
O O2 0.613312 0.664839 0.119599
O O3 0.722268 0.509229 0.271441
O O4 0.581957 0.447954 0.081137
O O5 0.529467 0.395958 0.714590
O O6 0.809937 0.909217 0.784679
O O7 0.907858 0.738242 0.944093
O O8 0.144015 0.632386 0.279164
O O9 0.267969 0.744266 0.127488
O O10 0.154658 0.649686 0.893928
O O11 0.325099 0.013359 0.585887
O O12 0.372823 0.905625 0.254871
O O13 0.208113 0.431131 0.919593
#
# Coordination Sequence:
#
# PCOD8170409 Si02
#       7
#     4   2   4   4   4   4   4
#     4  11  21  37  53  80 121 148 193 228 280 347
#     4  12  26  36  52  78 114 172 190 218 272 360
#     4  11  21  37  53  80 121 148 193 228 280 347
#     4   9  18  33  54  82 116 142 173 240 293 325
#     4  10  18  32  57  89 114 139 182 241 299 331
#     4  10  18  32  57  89 114 139 182 241 299 331
#     4   9  18  33  54  82 116 142 173 240 293 325
#
# _framework density 21.096595000000001
#
# number of rings (size 3 to 8) (size 9 to 14) (size 15 to 20)
#    0.000    1.846    7.692    0.462    0.000    7.385 
#    0.000    0.000    0.000    0.000    0.000   44.154 
#    0.000    0.000    0.000    0.000    0.000    0.000 
#
# Total GULP energy -322196.185421 kJ/mol
# GULP energy per Si atom -12392.160978 kJ/mol
# Density = 2.104858 g / cm^3
# Si number density = 21.096595 Si / 1000 Ang^3
#
#
#
# Elastic Constant Matrix: (Units=GPa)
#
#
# Indices 1 2 3 4 5 6 
#
# 1 16.7491 12.5219 10.6531 0.0000 0.0000 0.0000
# 2 12.5219 133.1751 47.6964 0.0000 0.0000 0.0000
# 3 10.6531 47.6964 148.3718 0.0000 0.0000 0.0000
# 4 0.0000 0.0000 0.0000 24.6015 0.0000 0.0000
# 5 0.0000 0.0000 0.0000 0.0000 23.2310 0.0000
# 6 0.0000 0.0000 0.0000 0.0000 0.0000 11.9338
#
#
#
# Elastic Compliance Matrix: (Units=1/GPa)
#
#
# Indices 1 2 3 4 5 6 
#
# 1 0.065437 -0.005052 -0.003074 0.000000 0.000000 0.000000
# 2 -0.005052 0.008876 -0.002491 0.000000 0.000000 0.000000
# 3 -0.003074 -0.002491 0.007761 0.000000 0.000000 0.000000
# 4 0.000000 0.000000 0.000000 0.040648 0.000000 0.000000
# 5 0.000000 0.000000 0.000000 0.000000 0.043046 0.000000
# 6 0.000000 0.000000 0.000000 0.000000 0.000000 0.083796
#
#
# Mechanical properties :
#
#
# Convention : Reuss Voigt Hill
#
# Bulk Modulus (GPa) = 16.43636 48.89320 32.66478
# Shear Modulus (GPa) = 17.17756 27.11488 22.14622
#
# Velocity S-wave (km/s) = 2.85657 3.58896 3.24350
# Velocity P-wave (km/s) = 4.32295 6.35613 5.43545
#
# Compressibility (1/GPa) = 0.06084073
#
# Stress axis : x y z
#
# Youngs Moduli (GPa) = 15.28187 112.66462 128.84595
#
# Poissons Ratio (x) = 0.56915 0.39613
# Poissons Ratio (y) = 0.07720 0.32090
# Poissons Ratio (z) = 0.04698 0.28060
#
# Static dielectric constant tensor:
#      x y z
#    x 3.321760 0.000000 0.000000 
#    y 0.000000 4.083510 0.000000 
#    z 0.000000 0.000000 3.940800 
# 
# 
# High freq. dielectric constant tensor:
#      x y z
#    x 1.770250 0.000000 0.000000 
#    y 0.000000 1.837440 0.000000 
#    z 0.000000 0.000000 1.832320 
# 
# From -- ./inp_files/1432.got.cif
#   From: 2010.03.12/outbox.cif.g09.slc.cpg/sg32_1_cif.got.tgz:1432.got - 2010.04.14 01:46:39.
