data_PCOD8170383
_publ_section_title
;
Structure prediction by ZEFSAII (Michael W. Deem and Ramdas Pophale) SiO2 
 PCOD8170383
Probable space group: P M N 21
;
_chemical_formula_sum "Si O2"
_cell_formula_units_Z 32
_cell_length_a 8.363952
_cell_length_b 15.359657
_cell_length_c 12.177285
_cell_angle_alpha 90.000000
_cell_angle_beta 90.000000
_cell_angle_gamma 90.000000
_cell_volume 1564.384556
_symmetry_space_group_name_H-M "P M N 21"
_symmetry_group_IT_number 31
_symmetry_cell_setting 'orthorhombic'
loop_
_space_group_symop_operation_xyz
x,y,z
1/2-x,-y,1/2+z
-x,y,z
1/2+x,-y,1/2+z
loop_
_atom_site_type_symbol
_atom_site_label
_atom_site_fract_x
_atom_site_fract_y
_atom_site_fract_z
Si Si1 0.687576 0.416979 0.658090
Si Si2 0.313660 0.397186 0.196619
Si Si3 0.186711 0.908300 0.159052
Si Si4 0.811622 0.903059 0.698322
Si Si5 0.810989 0.843953 0.931916
Si Si6 0.187093 0.253302 0.792274
Si Si7 0.810899 0.653418 0.931294
Si Si8 0.312861 0.751345 0.545859
O O1 0.500000 0.436637 0.667236
O O2 0.788962 0.499938 0.692493
O O3 0.723774 0.331865 0.730509
O O4 0.742983 0.406476 0.531799
O O5 0.500000 0.374007 0.188726
O O6 0.237343 0.373147 0.314504
O O7 0.226486 0.341468 0.102207
O O8 0.276136 0.840371 0.238343
O O9 0.000000 0.885893 0.167763
O O10 0.219363 0.007168 0.187069
O O11 0.248446 0.902232 0.033180
O O12 0.741483 0.870917 0.814558
O O13 0.774383 0.831869 0.605281
O O14 0.000000 0.920692 0.699019
O O15 0.747861 0.748598 0.961230
O O16 0.000000 0.846505 0.921305
O O17 0.000000 0.272109 0.785404
O O18 0.244351 0.251779 0.919234
O O19 0.000000 0.651522 0.920071
O O20 0.500000 0.769251 0.552589
#
# Coordination Sequence:
#
# PCOD8170383 Si02
#       8
#     4   4   4   4   4   4   4   4
#     4  11  23  41  65  93 125 163 206 254 312 373
#     4  11  23  41  65  93 125 163 206 254 312 373
#     4  11  23  41  65  93 125 163 206 254 312 373
#     4  11  23  41  65  93 125 163 206 254 312 373
#     4   9  18  38  64  87 118 159 198 248 311 365
#     4  11  25  44  63  88 126 169 210 259 316 366
#     4   9  18  38  64  87 118 159 198 248 311 365
#     4  11  25  44  63  88 126 169 210 259 316 366
#
# _framework density 20.455328999999999
#
# number of rings (size 3 to 8) (size 9 to 14) (size 15 to 20)
#    0.000    1.500    2.500    2.250    3.500    2.000 
#    0.000    5.000    0.000    0.000    0.000    0.000 
#    0.000    0.000    0.000    0.000    0.000    0.000 
#
# Total GULP energy -396705.201735 kJ/mol
# GULP energy per Si atom -12397.037554 kJ/mol
# Density = 2.040877 g / cm^3
# Si number density = 20.455329 Si / 1000 Ang^3
#
#
#
# Elastic Constant Matrix: (Units=GPa)
#
#
# Indices 1 2 3 4 5 6 
#
# 1 38.0283 0.2408 23.0136 0.0000 0.0000 0.0000
# 2 0.2408 103.7732 34.7215 0.0000 0.0000 0.0000
# 3 23.0136 34.7215 151.8742 0.0000 0.0000 0.0000
# 4 0.0000 0.0000 0.0000 27.4143 0.0000 0.0000
# 5 0.0000 0.0000 0.0000 0.0000 24.5631 0.0000
# 6 0.0000 0.0000 0.0000 0.0000 0.0000 34.2806
#
#
#
# Elastic Compliance Matrix: (Units=1/GPa)
#
#
# Indices 1 2 3 4 5 6 
#
# 1 0.029173 0.001528 -0.004770 0.000000 0.000000 0.000000
# 2 0.001528 0.010515 -0.002635 0.000000 0.000000 0.000000
# 3 -0.004770 -0.002635 0.007910 0.000000 0.000000 0.000000
# 4 0.000000 0.000000 0.000000 0.036477 0.000000 0.000000
# 5 0.000000 0.000000 0.000000 0.000000 0.040711 0.000000
# 6 0.000000 0.000000 0.000000 0.000000 0.000000 0.029171
#
#
# Mechanical properties :
#
#
# Convention : Reuss Voigt Hill
#
# Bulk Modulus (GPa) = 27.89929 45.51416 36.70673
# Shear Modulus (GPa) = 28.14375 32.96493 30.55434
#
# Velocity S-wave (km/s) = 3.71329 4.01878 3.86905
# Velocity P-wave (km/s) = 5.66157 6.62064 6.15980
#
# Compressibility (1/GPa) = 0.03584321
#
# Stress axis : x y z
#
# Youngs Moduli (GPa) = 34.27807 95.10538 126.42675
#
# Poissons Ratio (x) = -0.14535 0.60306
# Poissons Ratio (y) = -0.05239 0.33319
# Poissons Ratio (z) = 0.16351 0.25065
#
# Static dielectric constant tensor:
#      x y z
#    x 3.476460 0.000000 0.000000 
#    y 0.000000 3.662300 0.000000 
#    z 0.000000 0.000000 4.146440 
# 
# 
# High freq. dielectric constant tensor:
#      x y z
#    x 1.782980 0.000000 0.000000 
#    y 0.000000 1.808320 0.000000 
#    z 0.000000 0.000000 1.819420 
# 
# From -- ./inp_files/3752.got.cif
#   From: 2010.03.12/outbox.cif.g09.slc.cpg/sg31_2_cif.got.tgz:3752.got - 2010.04.14 01:42:59.
