data_PCOD8170605
_publ_section_title
;
Structure prediction by ZEFSAII (Michael W. Deem and Ramdas Pophale) SiO2 
 PCOD8170605
Probable space group: P B A 2
;
_chemical_formula_sum "Si O2"
_cell_formula_units_Z 32
_cell_length_a 8.789206
_cell_length_b 14.760801
_cell_length_c 11.303552
_cell_angle_alpha 90.000000
_cell_angle_beta 90.000000
_cell_angle_gamma 90.000000
_cell_volume 1466.474465
_symmetry_space_group_name_H-M "P B A 2"
_symmetry_group_IT_number 32
_symmetry_cell_setting 'orthorhombic'
loop_
_space_group_symop_operation_xyz
x,y,z
-x,-y,z
1/2-x,1/2+y,z
1/2+x,1/2-y,z
loop_
_atom_site_type_symbol
_atom_site_label
_atom_site_fract_x
_atom_site_fract_y
_atom_site_fract_z
Si Si1 0.335844 0.652672 0.895190
Si Si2 0.046960 0.853052 0.258052
Si Si3 0.330533 0.993755 0.007275
Si Si4 0.335844 0.652672 0.620914
Si Si5 0.830533 0.506244 0.508829
Si Si6 0.847961 0.188571 0.009190
Si Si7 0.847961 0.188571 0.506914
Si Si8 0.236489 0.035799 0.258052
O O1 0.286166 0.550829 0.927351
O O2 0.309921 0.672148 0.758052
O O3 0.229918 0.719479 0.969489
O O4 0.512594 0.664096 0.924229
O O5 0.090730 0.795811 0.142275
O O6 0.090730 0.795810 0.373829
O O7 0.866386 0.873280 0.258052
O O8 0.129498 0.948714 0.258053
O O9 0.500000 0.000000 0.953571
O O10 0.277020 0.890328 0.004115
O O11 0.338083 0.034119 0.140308
O O12 0.286166 0.550829 0.588753
O O13 0.229918 0.719479 0.546614
O O14 0.512594 0.664096 0.591876
O O15 0.777020 0.609672 0.511989
O O16 0.838083 0.465880 0.375796
O O17 0.000000 0.500000 0.562533
#
# Coordination Sequence:
#
# PCOD8170605 Si02
#       8
#     4   4   4   4   4   4   4   4
#     4  12  26  43  65  93 132 180 226 274 324 392
#     4   9  18  37  67  96 127 168 208 268 338 395
#     4  11  23  41  68  99 132 173 219 273 338 398
#     4  12  26  43  65  93 132 180 226 274 324 392
#     4  11  23  41  68  99 132 173 219 273 338 398
#     4  11  24  43  66  97 131 171 222 278 337 395
#     4  11  24  43  66  97 131 171 222 278 337 395
#     4   9  17  37  65  98 131 161 208 269 335 399
#
# _framework density 21.82104
#
# number of rings (size 3 to 8) (size 9 to 14) (size 15 to 20)
#    0.000    1.250    2.500    3.375    0.000    5.500 
#    0.000    2.500    0.000    0.000    0.000    0.000 
#    0.000    0.000    0.000    0.000    0.000    0.000 
#
# Total GULP energy -396979.887125 kJ/mol
# GULP energy per Si atom -12405.621473 kJ/mol
# Density = 2.177137 g / cm^3
# Si number density = 21.821040 Si / 1000 Ang^3
#
#
#
# Elastic Constant Matrix: (Units=GPa)
#
#
# Indices 1 2 3 4 5 6 
#
# 1 81.9182 -2.0943 1.8877 0.0000 0.0000 0.0000
# 2 -2.0943 44.3387 26.1326 0.0000 0.0000 0.0000
# 3 1.8877 26.1326 121.4725 0.0000 0.0000 0.0000
# 4 0.0000 0.0000 0.0000 2.5632 0.0000 0.0000
# 5 0.0000 0.0000 0.0000 0.0000 19.1615 0.0000
# 6 0.0000 0.0000 0.0000 0.0000 0.0000 36.7557
#
#
#
# Elastic Compliance Matrix: (Units=1/GPa)
#
#
# Indices 1 2 3 4 5 6 
#
# 1 0.012236 0.000790 -0.000360 0.000000 0.000000 0.000000
# 2 0.000790 0.025880 -0.005580 0.000000 0.000000 0.000000
# 3 -0.000360 -0.005580 0.009438 0.000000 0.000000 0.000000
# 4 0.000000 0.000000 0.000000 0.390139 0.000000 0.000000
# 5 0.000000 0.000000 0.000000 0.000000 0.052188 0.000000
# 6 0.000000 0.000000 0.000000 0.000000 0.000000 0.027207
#
#
# Mechanical properties :
#
#
# Convention : Reuss Voigt Hill
#
# Bulk Modulus (GPa) = 26.84256 33.28681 30.06468
# Shear Modulus (GPa) = 9.26260 26.48296 17.87278
#
# Velocity S-wave (km/s) = 2.06253 3.48752 2.86503
# Velocity P-wave (km/s) = 4.24264 5.61290 4.97517
#
# Compressibility (1/GPa) = 0.03725427
#
# Stress axis : x y z
#
# Youngs Moduli (GPa) = 81.72734 38.64045 105.95122
#
# Poissons Ratio (x) = -0.03053 0.03816
# Poissons Ratio (y) = -0.06458 0.59119
# Poissons Ratio (z) = 0.02943 0.21561
#
# Static dielectric constant tensor:
#      x y z
#    x 3.839320 0.000000 0.000000 
#    y 0.000000 3.736030 0.000000 
#    z 0.000000 0.000000 4.021800 
# 
# 
# High freq. dielectric constant tensor:
#      x y z
#    x 1.864090 0.000000 0.000000 
#    y 0.000000 1.850960 0.000000 
#    z 0.000000 0.000000 1.857370 
# 
# From -- ./inp_files/3756.got.cif
#   From: 2010.03.12/outbox.cif.g09.slc.cpg/sg32_2_cif.got.tgz:3756.got - 2010.04.14 01:46:39.
