data_PCOD8170795
_publ_section_title
;
Structure prediction by ZEFSAII (Michael W. Deem and Ramdas Pophale) SiO2 
 PCOD8170795
Probable space group: P N A 21
;
_chemical_formula_sum "Si O2"
_cell_formula_units_Z 32
_cell_length_a 14.276726
_cell_length_b 11.226935
_cell_length_c 8.605783
_cell_angle_alpha 90.000000
_cell_angle_beta 90.000000
_cell_angle_gamma 90.000000
_cell_volume 1379.368245
_symmetry_space_group_name_H-M "P N A 21"
_symmetry_group_IT_number 33
_symmetry_cell_setting 'orthorhombic'
loop_
_space_group_symop_operation_xyz
x,y,z
-x,-y,1/2+z
1/2-x,1/2+y,1/2+z
1/2+x,1/2-y,z
loop_
_atom_site_type_symbol
_atom_site_label
_atom_site_fract_x
_atom_site_fract_y
_atom_site_fract_z
Si Si1 0.990557 0.323290 0.054020
Si Si2 0.880741 0.874871 0.990973
Si Si3 0.750015 0.081049 0.981295
Si Si4 0.651373 0.277548 0.832271
Si Si5 0.444291 0.281665 0.372065
Si Si6 0.180675 0.578654 0.389655
Si Si7 0.408262 0.065426 0.567992
Si Si8 0.730665 0.174292 0.326051
O O1 0.026606 0.452637 0.105648
O O2 0.982817 0.236427 0.198889
O O3 0.057180 0.261647 0.923969
O O4 0.882668 0.345099 0.006401
O O5 0.872530 0.812005 0.157626
O O6 0.850019 0.014495 0.986968
O O7 0.823828 0.795311 0.865988
O O8 0.989771 0.883914 0.944507
O O9 0.726744 0.151959 0.140869
O O10 0.676945 0.973445 0.956933
O O11 0.730288 0.171029 0.838770
O O12 0.709109 0.387628 0.906551
O O13 0.465531 0.164566 0.475181
O O14 0.337331 0.320019 0.383179
O O15 0.137768 0.616663 0.223630
O O16 0.178241 0.435752 0.411984
#
# Coordination Sequence:
#
# PCOD8170795 Si02
#       8
#     4   4   4   4   4   4   4   4
#     4  11  24  39  69 104 135 176 244 284 337 422
#     4  12  23  45  70  97 140 182 226 288 349 416
#     4  10  22  44  68  94 140 173 230 284 337 417
#     4  11  23  44  68 101 136 187 231 285 349 414
#     4  12  24  41  66 104 139 177 229 291 350 421
#     4  11  22  44  69  94 136 183 227 293 349 405
#     4  10  19  41  65  94 130 175 228 286 331 401
#     4  11  23  46  69 100 140 179 229 291 354 410
#
# _framework density 23.199027000000001
#
# number of rings (size 3 to 8) (size 9 to 14) (size 15 to 20)
#    0.000    1.000    3.750    5.250    0.000    3.000 
#    9.000    0.000    0.000    0.000    0.000    0.000 
#    0.000    0.000    0.000    0.000    0.000    0.000 
#
# Total GULP energy -396580.615056 kJ/mol
# GULP energy per Si atom -12393.144221 kJ/mol
# Density = 2.314623 g / cm^3
# Si number density = 23.199027 Si / 1000 Ang^3
#
#
#
# Elastic Constant Matrix: (Units=GPa)
#
#
# Indices 1 2 3 4 5 6 
#
# 1 106.4896 -6.9661 22.5422 0.0000 0.0000 0.0000
# 2 -6.9661 37.8488 26.6883 0.0000 0.0000 0.0000
# 3 22.5422 26.6883 66.3883 0.0000 0.0000 0.0000
# 4 0.0000 0.0000 0.0000 25.3333 0.0000 0.0000
# 5 0.0000 0.0000 0.0000 0.0000 34.8843 0.0000
# 6 0.0000 0.0000 0.0000 0.0000 0.0000 39.5133
#
#
#
# Elastic Compliance Matrix: (Units=1/GPa)
#
#
# Indices 1 2 3 4 5 6 
#
# 1 0.011190 0.006614 -0.006458 0.000000 0.000000 0.000000
# 2 0.006614 0.040782 -0.018640 0.000000 0.000000 0.000000
# 3 -0.006458 -0.018640 0.024749 0.000000 0.000000 0.000000
# 4 0.000000 0.000000 0.000000 0.039474 0.000000 0.000000
# 5 0.000000 0.000000 0.000000 0.000000 0.028666 0.000000
# 6 0.000000 0.000000 0.000000 0.000000 0.000000 0.025308
#
#
# Mechanical properties :
#
#
# Convention : Reuss Voigt Hill
#
# Bulk Modulus (GPa) = 25.15618 32.80618 28.98118
# Shear Modulus (GPa) = 22.68709 31.17700 26.93205
#
# Velocity S-wave (km/s) = 3.13058 3.66989 3.41091
# Velocity P-wave (km/s) = 4.89230 5.66828 5.29452
#
# Compressibility (1/GPa) = 0.03975166
#
# Stress axis : x y z
#
# Youngs Moduli (GPa) = 89.36253 24.52072 40.40526
#
# Poissons Ratio (x) = -0.16217 0.26095
# Poissons Ratio (y) = -0.59101 0.75316
# Poissons Ratio (z) = 0.57714 0.45707
#
# Static dielectric constant tensor:
#      x y z
#    x 4.445600 0.000000 0.000000 
#    y 0.000000 4.202000 0.000000 
#    z 0.000000 0.000000 4.029410 
# 
# 
# High freq. dielectric constant tensor:
#      x y z
#    x 1.930460 0.000000 0.000000 
#    y 0.000000 1.909470 0.000000 
#    z 0.000000 0.000000 1.900920 
# 
# From -- ./inp_files/4442.got.cif
#   From: 2010.03.12/outbox.cif.g09.slc.cpg/sg33_3_cif.got.tgz:4442.got - 2010.04.14 01:49:19.
