data_PCOD8170328
_publ_section_title
;
Structure prediction by ZEFSAII (Michael W. Deem and Ramdas Pophale) SiO2 
 PCOD8170328
Probable space group: P M N 21
;
_chemical_formula_sum "Si O2"
_cell_formula_units_Z 32
_cell_length_a 8.878552
_cell_length_b 14.354426
_cell_length_c 12.413905
_cell_angle_alpha 90.000000
_cell_angle_beta 90.000000
_cell_angle_gamma 90.000000
_cell_volume 1582.108963
_symmetry_space_group_name_H-M "P M N 21"
_symmetry_group_IT_number 31
_symmetry_cell_setting 'orthorhombic'
loop_
_space_group_symop_operation_xyz
x,y,z
1/2-x,-y,1/2+z
-x,y,z
1/2+x,-y,1/2+z
loop_
_atom_site_type_symbol
_atom_site_label
_atom_site_fract_x
_atom_site_fract_y
_atom_site_fract_z
Si Si1 0.826919 0.144784 0.048950
Si Si2 0.668702 0.452168 0.779921
Si Si3 0.825266 0.938849 0.989351
Si Si4 0.323221 0.829035 0.792181
Si Si5 0.328357 0.363754 0.331833
Si Si6 0.822274 0.743722 0.372620
Si Si7 0.175536 0.174840 0.668134
Si Si8 0.665634 0.340901 0.573895
O O1 0.778607 0.132739 0.173813
O O2 0.000000 0.176262 0.044092
O O3 0.729919 0.225772 0.991535
O O4 0.800773 0.049527 0.983066
O O5 0.500000 0.479761 0.817658
O O6 0.778546 0.539378 0.781030
O O7 0.727259 0.363367 0.849970
O O8 0.670940 0.426345 0.654856
O O9 0.757892 0.890013 0.883551
O O10 0.000000 0.911934 0.994428
O O11 0.747401 0.909445 0.101196
O O12 0.500000 0.836587 0.814053
O O13 0.274423 0.721615 0.794897
O O14 0.500000 0.342045 0.298868
O O15 0.308036 0.382530 0.457557
O O16 0.749169 0.813815 0.285594
O O17 0.000000 0.752271 0.360579
O O18 0.203917 0.267062 0.597656
O O19 0.000000 0.156339 0.683242
O O20 0.500000 0.291626 0.582145
#
# Coordination Sequence:
#
# PCOD8170328 Si02
#       8
#     4   4   4   4   4   4   4   4
#     4  10  25  44  63  91 129 168 208 256 314 378
#     4   9  20  38  59  86 120 162 208 257 313 373
#     4  11  23  41  63  91 124 161 206 258 311 371
#     4  11  24  43  64  92 127 165 208 259 315 376
#     4  11  22  37  61  90 121 161 207 261 316 372
#     4  10  22  41  64  90 125 165 208 259 314 368
#     4  11  21  35  61  91 118 156 204 255 310 366
#     4   9  19  37  57  81 116 158 203 257 313 362
#
# _framework density 20.226167
#
# number of rings (size 3 to 8) (size 9 to 14) (size 15 to 20)
#    0.000    1.750    1.250    3.375    1.750    6.000 
#    0.000    3.750    0.000    0.000    0.000    0.000 
#    0.000    0.000    0.000    0.000    0.000    0.000 
#
# Total GULP energy -396781.560578 kJ/mol
# GULP energy per Si atom -12399.423768 kJ/mol
# Density = 2.018013 g / cm^3
# Si number density = 20.226167 Si / 1000 Ang^3
#
#
#
# Elastic Constant Matrix: (Units=GPa)
#
#
# Indices 1 2 3 4 5 6 
#
# 1 98.7232 37.0407 39.4102 0.0000 0.0000 0.0000
# 2 37.0407 93.2948 40.7285 0.0000 0.0000 0.0000
# 3 39.4102 40.7285 85.9081 0.0000 0.0000 0.0000
# 4 0.0000 0.0000 0.0000 26.5864 0.0000 0.0000
# 5 0.0000 0.0000 0.0000 0.0000 35.2211 0.0000
# 6 0.0000 0.0000 0.0000 0.0000 0.0000 27.6910
#
#
#
# Elastic Compliance Matrix: (Units=1/GPa)
#
#
# Indices 1 2 3 4 5 6 
#
# 1 0.013142 -0.003261 -0.004483 0.000000 0.000000 0.000000
# 2 -0.003261 0.014325 -0.005296 0.000000 0.000000 0.000000
# 3 -0.004483 -0.005296 0.016208 0.000000 0.000000 0.000000
# 4 0.000000 0.000000 0.000000 0.037613 0.000000 0.000000
# 5 0.000000 0.000000 0.000000 0.000000 0.028392 0.000000
# 6 0.000000 0.000000 0.000000 0.000000 0.000000 0.036113
#
#
# Mechanical properties :
#
#
# Convention : Reuss Voigt Hill
#
# Bulk Modulus (GPa) = 56.83062 56.92053 56.87558
# Shear Modulus (GPa) = 28.13135 28.61615 28.37375
#
# Velocity S-wave (km/s) = 3.73344 3.76547 3.74949
# Velocity P-wave (km/s) = 6.83691 6.86354 6.85024
#
# Compressibility (1/GPa) = 0.01759615
#
# Stress axis : x y z
#
# Youngs Moduli (GPa) = 76.08940 69.80723 61.69951
#
# Poissons Ratio (x) = 0.22763 0.27661
# Poissons Ratio (y) = 0.24811 0.32674
# Poissons Ratio (z) = 0.34112 0.36967
#
# Static dielectric constant tensor:
#      x y z
#    x 3.734070 0.000000 0.000000 
#    y 0.000000 3.514930 0.000000 
#    z 0.000000 0.000000 3.802380 
# 
# 
# High freq. dielectric constant tensor:
#      x y z
#    x 1.792550 0.000000 0.000000 
#    y 0.000000 1.783040 0.000000 
#    z 0.000000 0.000000 1.795810 
# 
# From -- ./inp_files/3688.got.cif
#   From: 2010.03.12/outbox.cif.g09.slc.cpg/sg31_2_cif.got.tgz:3688.got - 2010.04.14 01:42:59.
