data_PCOD8170585
_publ_section_title
;
Structure prediction by ZEFSAII (Michael W. Deem and Ramdas Pophale) SiO2 
 PCOD8170585
Probable space group: P B A 2
;
_chemical_formula_sum "Si O2"
_cell_formula_units_Z 14
_cell_length_a 10.053178
_cell_length_b 10.449003
_cell_length_c 4.990589
_cell_angle_alpha 90.000000
_cell_angle_beta 90.000000
_cell_angle_gamma 90.000000
_cell_volume 524.239850
_symmetry_space_group_name_H-M "P B A 2"
_symmetry_group_IT_number 32
_symmetry_cell_setting 'orthorhombic'
loop_
_space_group_symop_operation_xyz
x,y,z
-x,-y,z
1/2-x,1/2+y,z
1/2+x,1/2-y,z
loop_
_atom_site_type_symbol
_atom_site_label
_atom_site_fract_x
_atom_site_fract_y
_atom_site_fract_z
Si Si1 0.854599 0.885820 0.965570
Si Si2 0.888116 0.249016 0.831023
Si Si3 0.284855 0.455579 0.453898
Si Si4 0.000000 0.500000 0.591857
O O1 0.743539 0.773985 0.017101
O O2 0.004027 0.833951 0.992837
O O3 0.828661 0.935450 0.665106
O O4 0.842941 0.005387 0.166392
O O5 0.843367 0.179897 0.554208
O O6 0.954760 0.384647 0.778761
O O7 0.124760 0.450916 0.417176
#
# Coordination Sequence:
#
# PCOD8170585 Si02
#       4
#     4   4   4   2
#     4  11  27  47  82 115 161 216 268 340 414 485
#     4  11  24  53  79 120 165 210 274 343 412 497
#     4  11  26  48  80 118 159 211 279 335 413 487
#     4  10  24  50  78 120 160 214 266 338 412 492
#
# _framework density 26.705333
#
# number of rings (size 3 to 8) (size 9 to 14) (size 15 to 20)
#    0.000    1.143    2.857    0.857    0.000   18.286 
#    0.000    0.000    0.000    0.000    0.000    0.000 
#    0.000    0.000    0.000    0.000    0.000    0.000 
#
# Total GULP energy -173613.084603 kJ/mol
# GULP energy per Si atom -12400.934615 kJ/mol
# Density = 2.664455 g / cm^3
# Si number density = 26.705333 Si / 1000 Ang^3
#
#
#
# Elastic Constant Matrix: (Units=GPa)
#
#
# Indices 1 2 3 4 5 6 
#
# 1 217.0557 83.7442 57.1336 0.0000 0.0000 0.0000
# 2 83.7442 121.3359 22.8532 0.0000 0.0000 0.0000
# 3 57.1336 22.8532 74.5499 0.0000 0.0000 0.0000
# 4 0.0000 0.0000 0.0000 42.1624 0.0000 0.0000
# 5 0.0000 0.0000 0.0000 0.0000 24.0308 0.0000
# 6 0.0000 0.0000 0.0000 0.0000 0.0000 63.5667
#
#
#
# Elastic Compliance Matrix: (Units=1/GPa)
#
#
# Indices 1 2 3 4 5 6 
#
# 1 0.007413 -0.004294 -0.004365 0.000000 0.000000 0.000000
# 2 -0.004294 0.011234 -0.000153 0.000000 0.000000 0.000000
# 3 -0.004365 -0.000153 0.016806 0.000000 0.000000 0.000000
# 4 0.000000 0.000000 0.000000 0.023718 0.000000 0.000000
# 5 0.000000 0.000000 0.000000 0.000000 0.041613 0.000000
# 6 0.000000 0.000000 0.000000 0.000000 0.000000 0.015732
#
#
# Mechanical properties :
#
#
# Convention : Reuss Voigt Hill
#
# Bulk Modulus (GPa) = 56.08753 82.26706 69.17730
# Shear Modulus (GPa) = 35.69357 42.56601 39.12979
#
# Velocity S-wave (km/s) = 3.65988 3.99672 3.83200
# Velocity P-wave (km/s) = 6.23760 7.22293 6.74827
#
# Compressibility (1/GPa) = 0.01782927
#
# Stress axis : x y z
#
# Youngs Moduli (GPa) = 134.90354 89.01475 59.50379
#
# Poissons Ratio (x) = 0.38224 0.25971
# Poissons Ratio (y) = 0.57929 0.00910
# Poissons Ratio (z) = 0.58880 0.01361
#
# Static dielectric constant tensor:
#      x y z
#    x 5.761350 0.000000 0.000000 
#    y 0.000000 5.137010 0.000000 
#    z 0.000000 0.000000 4.104270 
# 
# 
# High freq. dielectric constant tensor:
#      x y z
#    x 2.106050 0.000000 0.000000 
#    y 0.000000 2.088890 0.000000 
#    z 0.000000 0.000000 2.034560 
# 
# From -- ./inp_files/287.got.cif
#   From: 2010.03.12/outbox.cif.g09.slc.cpg/sg32_1_cif.got.tgz:287.got - 2010.04.14 01:46:39.
