data_PCOD8170274
_publ_section_title
;
Structure prediction by ZEFSAII (Michael W. Deem and Ramdas Pophale) SiO2 
 PCOD8170274
Probable space group: P M N 21
;
_chemical_formula_sum "Si O2"
_cell_formula_units_Z 24
_cell_length_a 8.492737
_cell_length_b 11.917861
_cell_length_c 11.832677
_cell_angle_alpha 90.000000
_cell_angle_beta 90.000000
_cell_angle_gamma 90.000000
_cell_volume 1197.647468
_symmetry_space_group_name_H-M "P M N 21"
_symmetry_group_IT_number 31
_symmetry_cell_setting 'orthorhombic'
loop_
_space_group_symop_operation_xyz
x,y,z
1/2-x,-y,1/2+z
-x,y,z
1/2+x,-y,1/2+z
loop_
_atom_site_type_symbol
_atom_site_label
_atom_site_fract_x
_atom_site_fract_y
_atom_site_fract_z
Si Si1 0.315130 0.660421 0.166460
Si Si2 0.314735 0.268459 0.903367
Si Si3 0.318289 0.918373 0.547671
Si Si4 0.319295 0.849525 0.987414
Si Si5 0.815427 0.582698 0.605440
Si Si6 0.817683 0.791121 0.752279
O O1 0.500000 0.654232 0.193858
O O2 0.224151 0.702368 0.275892
O O3 0.243046 0.539308 0.131606
O O4 0.276820 0.743724 0.064690
O O5 0.500000 0.251192 0.919600
O O6 0.230866 0.151991 0.936726
O O7 0.251084 0.366838 0.987008
O O8 0.500000 0.897662 0.575665
O O9 0.214881 0.882011 0.654963
O O10 0.291576 0.048624 0.523064
O O11 0.500000 0.885847 0.002165
O O12 0.290857 0.814966 0.858787
O O13 0.773161 0.667424 0.706961
O O14 0.000000 0.567758 0.593160
O O15 0.000000 0.799139 0.786995
#
# Coordination Sequence:
#
# PCOD8170274 Si02
#       6
#     4   4   4   4   4   4
#     4  10  22  39  60  88 123 159 200 243 294 354
#     4  10  21  39  63  89 121 156 199 248 301 354
#     4  11  23  41  64  87 118 158 203 247 302 358
#     4  11  24  39  60  89 123 158 201 248 298 355
#     4   8  18  38  61  86 119 158 194 243 297 353
#     4  10  21  40  64  89 122 157 199 247 300 354
#
# _framework density 20.039285
#
# number of rings (size 3 to 8) (size 9 to 14) (size 15 to 20)
#    0.000    2.000    0.000    4.000    4.667    1.333 
#    0.000    4.167    0.000    0.000    0.000    0.000 
#    0.000    0.000    0.000    0.000    0.000    0.000 
#
# Total GULP energy -297686.537244 kJ/mol
# GULP energy per Si atom -12403.605719 kJ/mol
# Density = 1.999368 g / cm^3
# Si number density = 20.039285 Si / 1000 Ang^3
#
#
#
# Elastic Constant Matrix: (Units=GPa)
#
#
# Indices 1 2 3 4 5 6 
#
# 1 53.4277 27.6626 14.3929 0.0000 0.0000 0.0000
# 2 27.6626 136.1891 45.8501 0.0000 0.0000 0.0000
# 3 14.3929 45.8501 101.9678 0.0000 0.0000 0.0000
# 4 0.0000 0.0000 0.0000 23.4272 0.0000 0.0000
# 5 0.0000 0.0000 0.0000 0.0000 34.6805 0.0000
# 6 0.0000 0.0000 0.0000 0.0000 0.0000 22.1092
#
#
#
# Elastic Compliance Matrix: (Units=1/GPa)
#
#
# Indices 1 2 3 4 5 6 
#
# 1 0.021048 -0.003859 -0.001236 0.000000 0.000000 0.000000
# 2 -0.003859 0.009360 -0.003664 0.000000 0.000000 0.000000
# 3 -0.001236 -0.003664 0.011629 0.000000 0.000000 0.000000
# 4 0.000000 0.000000 0.000000 0.042685 0.000000 0.000000
# 5 0.000000 0.000000 0.000000 0.000000 0.028835 0.000000
# 6 0.000000 0.000000 0.000000 0.000000 0.000000 0.045230
#
#
# Mechanical properties :
#
#
# Convention : Reuss Voigt Hill
#
# Bulk Modulus (GPa) = 40.78442 51.93287 46.35864
# Shear Modulus (GPa) = 27.10348 29.62199 28.36273
#
# Velocity S-wave (km/s) = 3.68165 3.84890 3.76620
# Velocity P-wave (km/s) = 6.20235 6.76194 6.48818
#
# Compressibility (1/GPa) = 0.02451917
#
# Stress axis : x y z
#
# Youngs Moduli (GPa) = 47.51069 106.83541 85.99194
#
# Poissons Ratio (x) = 0.41230 0.10625
# Poissons Ratio (y) = 0.18336 0.31508
# Poissons Ratio (z) = 0.05870 0.39146
#
# Static dielectric constant tensor:
#      x y z
#    x 3.445460 0.000000 0.000000 
#    y 0.000000 3.871830 0.000000 
#    z 0.000000 0.000000 3.600300 
# 
# 
# High freq. dielectric constant tensor:
#      x y z
#    x 1.771410 0.000000 0.000000 
#    y 0.000000 1.790290 0.000000 
#    z 0.000000 0.000000 1.785660 
# 
# From -- ./inp_files/3440.got.cif
#   From: 2010.03.12/outbox.cif.g09.slc.cpg/sg31_2_cif.got.tgz:3440.got - 2010.04.14 01:42:59.
