data_PCOD8170708
_publ_section_title
;
Structure prediction by ZEFSAII (Michael W. Deem and Ramdas Pophale) SiO2 
 PCOD8170708
Probable space group: P N A 21
;
_chemical_formula_sum "Si O2"
_cell_formula_units_Z 32
_cell_length_a 17.047404
_cell_length_b 17.541216
_cell_length_c 4.920457
_cell_angle_alpha 90.000000
_cell_angle_beta 90.000000
_cell_angle_gamma 90.000000
_cell_volume 1471.375061
_symmetry_space_group_name_H-M "P N A 21"
_symmetry_group_IT_number 33
_symmetry_cell_setting 'orthorhombic'
loop_
_space_group_symop_operation_xyz
x,y,z
-x,-y,1/2+z
1/2-x,1/2+y,1/2+z
1/2+x,1/2-y,z
loop_
_atom_site_type_symbol
_atom_site_label
_atom_site_fract_x
_atom_site_fract_y
_atom_site_fract_z
Si Si1 0.005718 0.109818 0.713520
Si Si2 0.048972 0.586609 0.462344
Si Si3 0.890595 0.896677 0.729144
Si Si4 0.661631 0.551123 0.098174
Si Si5 0.753557 0.596820 0.573750
Si Si6 0.873400 0.725146 0.682553
Si Si7 0.605442 0.993122 0.971853
Si Si8 0.022149 0.279236 0.681425
O O1 0.077622 0.082410 0.526960
O O2 0.983065 0.197086 0.642148
O O3 0.931843 0.059337 0.628426
O O4 0.034676 0.103402 0.023765
O O5 0.086611 0.577098 0.762800
O O6 0.959813 0.558018 0.434212
O O7 0.045692 0.670026 0.324923
O O8 0.105608 0.536047 0.278323
O O9 0.850226 0.812672 0.748778
O O10 0.825157 0.960478 0.658185
O O11 0.699687 0.611141 0.310675
O O12 0.695350 0.565949 0.801991
O O13 0.797147 0.671046 0.692334
O O14 0.811188 0.532974 0.444982
O O15 0.902671 0.723934 0.375262
O O16 0.942120 0.693234 0.888132
#
# Coordination Sequence:
#
# PCOD8170708 Si02
#       8
#     4   4   4   4   4   4   4   4
#     4  10  21  39  64  92 116 148 205 268 307 342
#     4  10  19  33  56  84 113 150 202 249 286 328
#     4  10  21  41  66  89 115 152 211 255 297 352
#     4  12  24  39  62  90 122 161 194 253 314 366
#     4  12  24  39  58  86 128 163 201 232 301 391
#     4  10  21  37  61  87 114 157 196 243 291 361
#     4  10  21  33  53  81 117 157 196 244 284 342
#     4  10  19  35  62  89 115 146 199 256 300 344
#
# _framework density 21.748365
#
# number of rings (size 3 to 8) (size 9 to 14) (size 15 to 20)
#    0.000    1.500    1.250    4.500    3.500    0.000 
#    0.000    3.750    0.000    0.000    0.000    0.000 
#    0.000    0.000    0.000    0.000    0.000    0.000 
#
# Total GULP energy -396600.830072 kJ/mol
# GULP energy per Si atom -12393.775940 kJ/mol
# Density = 2.169886 g / cm^3
# Si number density = 21.748365 Si / 1000 Ang^3
#
#
#
# Elastic Constant Matrix: (Units=GPa)
#
#
# Indices 1 2 3 4 5 6 
#
# 1 50.9330 25.5119 15.2947 0.0000 0.0000 0.0000
# 2 25.5119 80.3099 1.8132 0.0000 0.0000 0.0000
# 3 15.2947 1.8132 88.6934 0.0000 0.0000 0.0000
# 4 0.0000 0.0000 0.0000 21.3757 0.0000 0.0000
# 5 0.0000 0.0000 0.0000 0.0000 32.7167 0.0000
# 6 0.0000 0.0000 0.0000 0.0000 0.0000 21.8945
#
#
#
# Elastic Compliance Matrix: (Units=1/GPa)
#
#
# Indices 1 2 3 4 5 6 
#
# 1 0.024762 -0.007773 -0.004111 0.000000 0.000000 0.000000
# 2 -0.007773 0.014898 0.001036 0.000000 0.000000 0.000000
# 3 -0.004111 0.001036 0.011963 0.000000 0.000000 0.000000
# 4 0.000000 0.000000 0.000000 0.046782 0.000000 0.000000
# 5 0.000000 0.000000 0.000000 0.000000 0.030565 0.000000
# 6 0.000000 0.000000 0.000000 0.000000 0.000000 0.045673
#
#
# Mechanical properties :
#
#
# Convention : Reuss Voigt Hill
#
# Bulk Modulus (GPa) = 33.41679 33.90846 33.66262
# Shear Modulus (GPa) = 24.23482 27.01850 25.62666
#
# Velocity S-wave (km/s) = 3.34178 3.52848 3.43640
# Velocity P-wave (km/s) = 5.50350 5.67674 5.59079
#
# Compressibility (1/GPa) = 0.02992507
#
# Stress axis : x y z
#
# Youngs Moduli (GPa) = 40.38496 67.12459 83.59416
#
# Poissons Ratio (x) = 0.52177 0.34367
# Poissons Ratio (y) = 0.31392 -0.08659
# Poissons Ratio (z) = 0.16603 -0.06953
#
# Static dielectric constant tensor:
#      x y z
#    x 3.467640 0.000000 0.000000 
#    y 0.000000 4.070490 0.000000 
#    z 0.000000 0.000000 4.042710 
# 
# 
# High freq. dielectric constant tensor:
#      x y z
#    x 1.813650 0.000000 0.000000 
#    y 0.000000 1.854800 0.000000 
#    z 0.000000 0.000000 1.875430 
# 
# From -- ./inp_files/1895.got.cif
#   From: 2010.03.12/outbox.cif.g09.slc.cpg/sg33_1_cif.got.tgz:1895.got - 2010.04.14 01:49:19.
