data_PCOD8170909
_publ_section_title
;
Structure prediction by ZEFSAII (Michael W. Deem and Ramdas Pophale) SiO2 
 PCOD8170909
Probable space group: P N A 21
;
_chemical_formula_sum "Si O2"
_cell_formula_units_Z 24
_cell_length_a 8.639791
_cell_length_b 15.239573
_cell_length_c 8.825690
_cell_angle_alpha 90.000000
_cell_angle_beta 90.000000
_cell_angle_gamma 90.000000
_cell_volume 1162.049704
_symmetry_space_group_name_H-M "P N A 21"
_symmetry_group_IT_number 33
_symmetry_cell_setting 'orthorhombic'
loop_
_space_group_symop_operation_xyz
x,y,z
-x,-y,1/2+z
1/2-x,1/2+y,1/2+z
1/2+x,1/2-y,z
loop_
_atom_site_type_symbol
_atom_site_label
_atom_site_fract_x
_atom_site_fract_y
_atom_site_fract_z
Si Si1 0.165013 0.416241 0.402350
Si Si2 0.947163 0.680457 0.167722
Si Si3 0.686028 0.436308 0.069186
Si Si4 0.657269 0.535400 0.632044
Si Si5 0.213259 0.148789 0.768416
Si Si6 0.853154 0.510042 0.336926
O O1 0.110203 0.328473 0.491403
O O2 0.299108 0.466949 0.494785
O O3 0.233144 0.399517 0.233782
O O4 0.020650 0.483275 0.397373
O O5 0.908020 0.774743 0.234671
O O6 0.861809 0.604791 0.260217
O O7 0.130809 0.668545 0.176845
O O8 0.508359 0.419212 0.114047
O O9 0.792966 0.435325 0.219693
O O10 0.739633 0.360405 0.950410
O O11 0.637594 0.441847 0.713855
O O12 0.732347 0.519583 0.470705
#
# Coordination Sequence:
#
# PCOD8170909 Si02
#       6
#     4   4   4   4   4   4
#     4  10  20  40  64  91 121 172 220 253 320 394
#     4  11  24  40  64  91 126 168 215 270 327 386
#     4  10  22  37  64  97 125 164 220 263 317 391
#     4  11  21  39  68  96 126 164 219 268 316 390
#     4  11  24  42  62  94 129 167 216 269 332 385
#     4  11  19  40  68  89 123 171 212 265 314 394
#
# _framework density 20.653161999999998
#
# number of rings (size 3 to 8) (size 9 to 14) (size 15 to 20)
#    0.000    1.333    5.000    3.000    7.000    0.000 
#    0.000    1.667    0.000    0.000    0.000    0.000 
#    0.000    0.000    0.000    0.000    0.000    0.000 
#
# Total GULP energy -297553.307699 kJ/mol
# GULP energy per Si atom -12398.054487 kJ/mol
# Density = 2.060615 g / cm^3
# Si number density = 20.653162 Si / 1000 Ang^3
#
#
#
# Elastic Constant Matrix: (Units=GPa)
#
#
# Indices 1 2 3 4 5 6 
#
# 1 91.6872 13.3852 19.6633 0.0000 0.0000 0.0000
# 2 13.3852 56.6845 26.4510 0.0000 0.0000 0.0000
# 3 19.6633 26.4510 99.4190 0.0000 0.0000 0.0000
# 4 0.0000 0.0000 0.0000 30.1526 0.0000 0.0000
# 5 0.0000 0.0000 0.0000 0.0000 40.1959 0.0000
# 6 0.0000 0.0000 0.0000 0.0000 0.0000 18.4341
#
#
#
# Elastic Compliance Matrix: (Units=1/GPa)
#
#
# Indices 1 2 3 4 5 6 
#
# 1 0.011566 -0.001900 -0.001782 0.000000 0.000000 0.000000
# 2 -0.001900 0.020454 -0.005066 0.000000 0.000000 0.000000
# 3 -0.001782 -0.005066 0.011759 0.000000 0.000000 0.000000
# 4 0.000000 0.000000 0.000000 0.033165 0.000000 0.000000
# 5 0.000000 0.000000 0.000000 0.000000 0.024878 0.000000
# 6 0.000000 0.000000 0.000000 0.000000 0.000000 0.054247
#
#
# Mechanical properties :
#
#
# Convention : Reuss Voigt Hill
#
# Bulk Modulus (GPa) = 38.04715 40.75440 39.40078
# Shear Modulus (GPa) = 27.42337 30.30927 28.86632
#
# Velocity S-wave (km/s) = 3.64786 3.83500 3.74260
# Velocity P-wave (km/s) = 6.01701 6.27577 6.14775
#
# Compressibility (1/GPa) = 0.02628318
#
# Stress axis : x y z
#
# Youngs Moduli (GPa) = 86.45904 48.88990 85.04252
#
# Poissons Ratio (x) = 0.09287 0.15156
# Poissons Ratio (y) = 0.16423 0.43085
# Poissons Ratio (z) = 0.15409 0.24769
#
# Static dielectric constant tensor:
#      x y z
#    x 3.758390 0.000000 0.000000 
#    y 0.000000 3.411210 0.000000 
#    z 0.000000 0.000000 4.211760 
# 
# 
# High freq. dielectric constant tensor:
#      x y z
#    x 1.817260 0.000000 0.000000 
#    y 0.000000 1.757830 0.000000 
#    z 0.000000 0.000000 1.824490 
# 
# From -- ./inp_files/3107.got.cif
#   From: 2010.03.12/outbox.cif.g09.slc.cpg/sg33_2_cif.got.tgz:3107.got - 2010.04.14 01:49:19.
