data_PCOD8170329
_publ_section_title
;
Structure prediction by ZEFSAII (Michael W. Deem and Ramdas Pophale) SiO2 
 PCOD8170329
Probable space group: P M N 21
;
_chemical_formula_sum "Si O2"
_cell_formula_units_Z 32
_cell_length_a 8.654356
_cell_length_b 15.992168
_cell_length_c 10.828399
_cell_angle_alpha 90.000000
_cell_angle_beta 90.000000
_cell_angle_gamma 90.000000
_cell_volume 1498.671159
_symmetry_space_group_name_H-M "P M N 21"
_symmetry_group_IT_number 31
_symmetry_cell_setting 'orthorhombic'
loop_
_space_group_symop_operation_xyz
x,y,z
1/2-x,-y,1/2+z
-x,y,z
1/2+x,-y,1/2+z
loop_
_atom_site_type_symbol
_atom_site_label
_atom_site_fract_x
_atom_site_fract_y
_atom_site_fract_z
Si Si1 0.321223 0.986427 0.478980
Si Si2 0.678199 0.257191 0.600549
Si Si3 0.676579 0.143716 0.154604
Si Si4 0.170915 0.150167 0.790179
Si Si5 0.317894 0.538433 0.435656
Si Si6 0.328326 0.721181 0.511468
Si Si7 0.682361 0.567968 0.159031
Si Si8 0.677675 0.851213 0.910832
O O1 0.500000 0.012782 0.486905
O O2 0.286511 0.922962 0.589212
O O3 0.285887 0.939697 0.348441
O O4 0.211595 0.067131 0.495162
O O5 0.500000 0.266884 0.565684
O O6 0.700350 0.178558 0.692826
O O7 0.739957 0.341376 0.661853
O O8 0.776911 0.234936 0.478859
O O9 0.500000 0.123503 0.122969
O O10 0.705559 0.137260 0.298655
O O11 0.716467 0.238582 0.113652
O O12 0.165980 0.219340 0.895023
O O13 0.000000 0.146225 0.727274
O O14 0.500000 0.525615 0.452050
O O15 0.263655 0.631501 0.470587
O O16 0.272249 0.522196 0.290138
O O17 0.234044 0.478528 0.533927
O O18 0.500000 0.711560 0.568497
O O19 0.500000 0.580550 0.155819
O O20 0.500000 0.847097 0.869616
#
# Coordination Sequence:
#
# PCOD8170329 Si02
#       8
#     4   4   4   4   4   4   4   4
#     4  10  22  41  64  91 124 164 211 260 315 377
#     4  12  25  41  64  93 127 166 214 265 322 388
#     4  11  23  40  61  91 128 162 208 263 320 385
#     4   9  18  37  64  90 121 160 202 252 307 367
#     4  10  22  42  67  97 133 173 219 274 330 396
#     4   9  18  38  65  89 121 163 207 255 312 375
#     4  11  24  44  68  97 135 175 220 274 337 403
#     4  12  26  43  63  88 125 169 215 265 325 385
#
# _framework density 21.352250000000002
#
# number of rings (size 3 to 8) (size 9 to 14) (size 15 to 20)
#    0.000    1.500    1.250    4.875    1.750    5.000 
#    0.000    2.500    0.000    0.000    0.000    0.000 
#    0.000    0.000    0.000    0.000    0.000    0.000 
#
# Total GULP energy -396745.010439 kJ/mol
# GULP energy per Si atom -12398.281576 kJ/mol
# Density = 2.130365 g / cm^3
# Si number density = 21.352250 Si / 1000 Ang^3
#
#
#
# Elastic Constant Matrix: (Units=GPa)
#
#
# Indices 1 2 3 4 5 6 
#
# 1 100.3739 30.5409 30.6919 0.0000 0.0000 0.0000
# 2 30.5409 70.5310 28.5595 0.0000 0.0000 0.0000
# 3 30.6919 28.5595 95.8916 0.0000 0.0000 0.0000
# 4 0.0000 0.0000 0.0000 29.5859 0.0000 0.0000
# 5 0.0000 0.0000 0.0000 0.0000 33.3706 0.0000
# 6 0.0000 0.0000 0.0000 0.0000 0.0000 32.0048
#
#
#
# Elastic Compliance Matrix: (Units=1/GPa)
#
#
# Indices 1 2 3 4 5 6 
#
# 1 0.012024 -0.004149 -0.002613 0.000000 0.000000 0.000000
# 2 -0.004149 0.017554 -0.003900 0.000000 0.000000 0.000000
# 3 -0.002613 -0.003900 0.012426 0.000000 0.000000 0.000000
# 4 0.000000 0.000000 0.000000 0.033800 0.000000 0.000000
# 5 0.000000 0.000000 0.000000 0.000000 0.029966 0.000000
# 6 0.000000 0.000000 0.000000 0.000000 0.000000 0.031245
#
#
# Mechanical properties :
#
#
# Convention : Reuss Voigt Hill
#
# Bulk Modulus (GPa) = 48.35413 49.59788 48.97601
# Shear Modulus (GPa) = 30.26033 30.79256 30.52644
#
# Velocity S-wave (km/s) = 3.76865 3.80165 3.78519
# Velocity P-wave (km/s) = 6.45229 6.52295 6.48772
#
# Compressibility (1/GPa) = 0.02068076
#
# Stress axis : x y z
#
# Youngs Moduli (GPa) = 83.16704 56.96769 80.47397
#
# Poissons Ratio (x) = 0.23633 0.21027
# Poissons Ratio (y) = 0.34502 0.31387
# Poissons Ratio (z) = 0.21731 0.22219
#
# Static dielectric constant tensor:
#      x y z
#    x 3.725830 0.000000 0.000000 
#    y 0.000000 3.969830 0.000000 
#    z 0.000000 0.000000 3.938840 
# 
# 
# High freq. dielectric constant tensor:
#      x y z
#    x 1.832610 0.000000 0.000000 
#    y 0.000000 1.833700 0.000000 
#    z 0.000000 0.000000 1.838790 
# 
# From -- ./inp_files/3702.got.cif
#   From: 2010.03.12/outbox.cif.g09.slc.cpg/sg31_2_cif.got.tgz:3702.got - 2010.04.14 01:42:59.
