data_PCOD8170554
_publ_section_title
;
Structure prediction by ZEFSAII (Michael W. Deem and Ramdas Pophale) SiO2 
 PCOD8170554
Probable space group: P B A 2
;
_chemical_formula_sum "Si O2"
_cell_formula_units_Z 24
_cell_length_a 5.043286
_cell_length_b 17.364899
_cell_length_c 12.454370
_cell_angle_alpha 90.000000
_cell_angle_beta 90.000000
_cell_angle_gamma 90.000000
_cell_volume 1090.705800
_symmetry_space_group_name_H-M "P B A 2"
_symmetry_group_IT_number 32
_symmetry_cell_setting 'orthorhombic'
loop_
_space_group_symop_operation_xyz
x,y,z
-x,-y,z
1/2-x,1/2+y,z
1/2+x,1/2-y,z
loop_
_atom_site_type_symbol
_atom_site_label
_atom_site_fract_x
_atom_site_fract_y
_atom_site_fract_z
Si Si1 0.251619 0.946619 0.290310
Si Si2 0.024768 0.412899 0.735032
Si Si3 0.777241 0.699873 0.142201
Si Si4 0.764891 0.200320 0.893788
Si Si5 0.866069 0.803249 0.653116
Si Si6 0.129607 0.917132 0.525360
O O1 0.236124 0.877817 0.206717
O O2 0.265880 0.910268 0.409383
O O3 0.500000 0.000000 0.266161
O O4 0.000000 0.000000 0.275353
O O5 0.147523 0.405862 0.615941
O O6 0.000000 0.500000 0.773165
O O7 0.218264 0.374466 0.822124
O O8 0.734209 0.371856 0.732726
O O9 0.558434 0.763330 0.171949
O O10 0.760685 0.676985 0.017496
O O11 0.056555 0.231883 0.864491
O O12 0.657952 0.734024 0.669070
O O13 0.907609 0.848687 0.539046
O O14 0.000000 0.000000 0.540939
#
# Coordination Sequence:
#
# PCOD8170554 Si02
#       6
#     4   4   4   4   4   4
#     4  11  25  43  71  99 135 178 223 279 338 401
#     4  12  24  41  66  97 136 177 223 272 329 405
#     4  10  22  46  70  97 132 172 222 281 341 400
#     4  10  24  43  67  94 131 174 217 277 340 391
#     4  12  25  40  62  92 128 172 222 267 318 388
#     4  11  25  43  66  94 139 180 220 271 335 393
#
# _framework density 22.004103000000001
#
# number of rings (size 3 to 8) (size 9 to 14) (size 15 to 20)
#    0.000    1.000    3.333    2.500    4.667    2.000 
#    0.000    0.833    0.000    0.000    0.000    0.000 
#    0.000    0.000    0.000    0.000    0.000    0.000 
#
# Total GULP energy -297468.645197 kJ/mol
# GULP energy per Si atom -12394.526883 kJ/mol
# Density = 2.195402 g / cm^3
# Si number density = 22.004103 Si / 1000 Ang^3
#
#
#
# Elastic Constant Matrix: (Units=GPa)
#
#
# Indices 1 2 3 4 5 6 
#
# 1 111.8813 43.3273 45.0517 0.0000 0.0000 0.0000
# 2 43.3273 149.6533 71.8598 0.0000 0.0000 0.0000
# 3 45.0517 71.8598 114.2155 0.0000 0.0000 0.0000
# 4 0.0000 0.0000 0.0000 33.6699 0.0000 0.0000
# 5 0.0000 0.0000 0.0000 0.0000 29.1349 0.0000
# 6 0.0000 0.0000 0.0000 0.0000 0.0000 35.7485
#
#
#
# Elastic Compliance Matrix: (Units=1/GPa)
#
#
# Indices 1 2 3 4 5 6 
#
# 1 0.010874 -0.001560 -0.003308 0.000000 0.000000 0.000000
# 2 -0.001560 0.009798 -0.005549 0.000000 0.000000 0.000000
# 3 -0.003308 -0.005549 0.013552 0.000000 0.000000 0.000000
# 4 0.000000 0.000000 0.000000 0.029700 0.000000 0.000000
# 5 0.000000 0.000000 0.000000 0.000000 0.034323 0.000000
# 6 0.000000 0.000000 0.000000 0.000000 0.000000 0.027973
#
#
# Mechanical properties :
#
#
# Convention : Reuss Voigt Hill
#
# Bulk Modulus (GPa) = 74.68379 77.35862 76.02120
# Shear Modulus (GPa) = 32.99931 34.07808 33.53870
#
# Velocity S-wave (km/s) = 3.87678 3.93964 3.90834
# Velocity P-wave (km/s) = 7.35213 7.47844 7.41556
#
# Compressibility (1/GPa) = 0.01338979
#
# Stress axis : x y z
#
# Youngs Moduli (GPa) = 91.96157 102.05673 73.79181
#
# Poissons Ratio (x) = 0.15920 0.24409
# Poissons Ratio (y) = 0.14345 0.40951
# Poissons Ratio (z) = 0.30419 0.56636
#
# Static dielectric constant tensor:
#      x y z
#    x 4.263230 0.000000 0.000000 
#    y 0.000000 4.266900 0.000000 
#    z 0.000000 0.000000 4.205240 
# 
# 
# High freq. dielectric constant tensor:
#      x y z
#    x 1.884980 0.000000 0.000000 
#    y 0.000000 1.878360 0.000000 
#    z 0.000000 0.000000 1.856760 
# 
# From -- ./inp_files/3532.got.cif
#   From: 2010.03.12/outbox.cif.g09.slc.cpg/sg32_2_cif.got.tgz:3532.got - 2010.04.14 01:46:39.
