data_PCOD8170037
_publ_section_title
;
Structure prediction by ZEFSAII (Michael W. Deem and Ramdas Pophale) SiO2 
 PCOD8170037
Probable space group: P M N 21
;
_chemical_formula_sum "Si O2"
_cell_formula_units_Z 32
_cell_length_a 13.234585
_cell_length_b 11.676974
_cell_length_c 11.754989
_cell_angle_alpha 90.000000
_cell_angle_beta 90.000000
_cell_angle_gamma 90.000000
_cell_volume 1816.614883
_symmetry_space_group_name_H-M "P M N 21"
_symmetry_group_IT_number 31
_symmetry_cell_setting 'orthorhombic'
loop_
_space_group_symop_operation_xyz
x,y,z
1/2-x,-y,1/2+z
-x,y,z
1/2+x,-y,1/2+z
loop_
_atom_site_type_symbol
_atom_site_label
_atom_site_fract_x
_atom_site_fract_y
_atom_site_fract_z
Si Si1 0.616443 0.919150 0.589010
Si Si2 0.694325 0.126684 0.723169
Si Si3 0.613859 0.216911 0.283636
Si Si4 0.248177 0.306259 0.092781
Si Si5 0.387305 0.959936 0.332398
Si Si6 0.615803 0.317142 0.874511
Si Si7 0.612781 0.486343 0.669432
Si Si8 0.384266 0.270279 0.528255
O O1 0.500000 0.893928 0.612638
O O2 0.671614 0.798259 0.583188
O O3 0.633911 0.979816 0.466741
O O4 0.656323 0.998497 0.692741
O O5 0.807954 0.124772 0.772874
O O6 0.625367 0.190751 0.817274
O O7 0.691411 0.199697 0.608189
O O8 0.500000 0.260115 0.282082
O O9 0.664699 0.277572 0.179449
O O10 0.661804 0.258085 0.402652
O O11 0.621923 0.080858 0.269716
O O12 0.191136 0.414467 0.144256
O O13 0.302567 0.333605 0.973801
O O14 0.500000 0.907955 0.315875
O O15 0.500000 0.328328 0.918091
O O16 0.641523 0.415427 0.782692
O O17 0.500000 0.537769 0.682728
O O18 0.615593 0.402755 0.561171
O O19 0.500000 0.219950 0.537423
#
# Coordination Sequence:
#
# PCOD8170037 Si02
#       8
#     4   4   4   4   4   4   4   4
#     4  11  21  34  54  83 114 146 185 227 274 333
#     4  11  18  35  60  83 106 149 189 223 276 331
#     4  10  20  34  53  81 112 145 182 222 269 330
#     4  12  22  34  58  83 114 148 179 231 290 335
#     4  10  20  34  52  81 120 147 175 226 279 332
#     4  10  22  39  58  84 114 147 190 237 278 334
#     4   9  21  39  57  78 105 143 190 235 276 323
#     4   9  18  35  60  79 101 141 192 231 258 322
#
# _framework density 17.615179999999999
#
# number of rings (size 3 to 8) (size 9 to 14) (size 15 to 20)
#    0.000    1.750    3.750    2.625    1.750    0.000 
#    0.000    0.000    0.000    7.500    0.000    0.000 
#    0.000    0.000    0.000    0.000    0.000    0.000 
#
# Total GULP energy -396717.585205 kJ/mol
# GULP energy per Si atom -12397.424538 kJ/mol
# Density = 1.757509 g / cm^3
# Si number density = 17.615180 Si / 1000 Ang^3
#
#
#
# Elastic Constant Matrix: (Units=GPa)
#
#
# Indices 1 2 3 4 5 6 
#
# 1 95.0152 47.2073 47.4219 0.0000 0.0000 0.0000
# 2 47.2073 80.0531 31.3477 0.0000 0.0000 0.0000
# 3 47.4219 31.3477 91.7649 0.0000 0.0000 0.0000
# 4 0.0000 0.0000 0.0000 23.9849 0.0000 0.0000
# 5 0.0000 0.0000 0.0000 0.0000 31.3759 0.0000
# 6 0.0000 0.0000 0.0000 0.0000 0.0000 31.4130
#
#
#
# Elastic Compliance Matrix: (Units=1/GPa)
#
#
# Indices 1 2 3 4 5 6 
#
# 1 0.017654 -0.007894 -0.006427 0.000000 0.000000 0.000000
# 2 -0.007894 0.017951 -0.002053 0.000000 0.000000 0.000000
# 3 -0.006427 -0.002053 0.014920 0.000000 0.000000 0.000000
# 4 0.000000 0.000000 0.000000 0.041693 0.000000 0.000000
# 5 0.000000 0.000000 0.000000 0.000000 0.031872 0.000000
# 6 0.000000 0.000000 0.000000 0.000000 0.000000 0.031834
#
#
# Mechanical properties :
#
#
# Convention : Reuss Voigt Hill
#
# Bulk Modulus (GPa) = 56.24945 57.64301 56.94623
# Shear Modulus (GPa) = 25.69430 26.74518 26.21974
#
# Velocity S-wave (km/s) = 3.82336 3.90077 3.86226
# Velocity P-wave (km/s) = 7.17583 7.28577 7.23101
#
# Compressibility (1/GPa) = 0.01777795
#
# Stress axis : x y z
#
# Youngs Moduli (GPa) = 56.64356 55.70831 67.02544
#
# Poissons Ratio (x) = 0.43977 0.43075
# Poissons Ratio (y) = 0.44715 0.13758
# Poissons Ratio (z) = 0.36403 0.11435
#
# Static dielectric constant tensor:
#      x y z
#    x 3.274870 0.000000 0.000000 
#    y 0.000000 3.196190 0.000000 
#    z 0.000000 0.000000 3.338400 
# 
# 
# High freq. dielectric constant tensor:
#      x y z
#    x 1.677350 0.000000 0.000000 
#    y 0.000000 1.671120 0.000000 
#    z 0.000000 0.000000 1.682850 
# 
# From -- ./inp_files/4061.got.cif
#   From: 2010.03.12/outbox.cif.g09.slc.cpg/sg31_3_cif.got.tgz:4061.got - 2010.04.14 01:42:59.
