data_PCOD8170794
_publ_section_title
;
Structure prediction by ZEFSAII (Michael W. Deem and Ramdas Pophale) SiO2 
 PCOD8170794
Probable space group: P N A 21
;
_chemical_formula_sum "Si O2"
_cell_formula_units_Z 28
_cell_length_a 10.652794
_cell_length_b 14.531729
_cell_length_c 8.955670
_cell_angle_alpha 90.000000
_cell_angle_beta 90.000000
_cell_angle_gamma 90.000000
_cell_volume 1386.369200
_symmetry_space_group_name_H-M "P N A 21"
_symmetry_group_IT_number 33
_symmetry_cell_setting 'orthorhombic'
loop_
_space_group_symop_operation_xyz
x,y,z
-x,-y,1/2+z
1/2-x,1/2+y,1/2+z
1/2+x,1/2-y,z
loop_
_atom_site_type_symbol
_atom_site_label
_atom_site_fract_x
_atom_site_fract_y
_atom_site_fract_z
Si Si1 0.976916 0.720044 0.354260
Si Si2 0.463081 0.429446 0.894458
Si Si3 0.229589 0.361218 0.069494
Si Si4 0.526986 0.072145 0.271543
Si Si5 0.911931 0.595894 0.108109
Si Si6 0.162360 0.997065 0.102090
Si Si7 0.335893 0.173976 0.095739
O O1 0.861067 0.671029 0.436320
O O2 0.958925 0.692289 0.179256
O O3 0.973289 0.830406 0.361916
O O4 0.107849 0.683404 0.426552
O O5 0.419873 0.482257 0.748161
O O6 0.344849 0.419250 0.004543
O O7 0.566761 0.497406 0.964358
O O8 0.164587 0.424376 0.196033
O O9 0.275322 0.268567 0.150802
O O10 0.525193 0.077915 0.449321
O O11 0.451056 0.159141 0.208599
O O12 0.457407 0.978992 0.228006
O O13 0.761043 0.587410 0.086826
O O14 0.236360 0.092963 0.107301
#
# Coordination Sequence:
#
# PCOD8170794 Si02
#       7
#     4   4   4   4   4   4   4
#     4  10  20  43  67  88 117 171 214 256 310 371
#     4  11  24  40  63  92 129 166 204 256 320 373
#     4  10  19  41  64  86 125 170 204 253 312 374
#     4  10  22  37  65  92 121 162 209 264 304 369
#     4  11  22  42  65  92 122 160 220 261 309 371
#     4  11  23  40  61  91 128 162 204 259 316 376
#     4   9  20  39  65  89 122 163 211 251 311 372
#
# _framework density 20.196639999999999
#
# number of rings (size 3 to 8) (size 9 to 14) (size 15 to 20)
#    0.000    1.714    2.857    2.571    4.000    0.000 
#    5.143    0.000    0.000    0.000    0.000    0.000 
#    0.000    0.000    0.000    0.000    0.000    0.000 
#
# Total GULP energy -347143.956404 kJ/mol
# GULP energy per Si atom -12397.998443 kJ/mol
# Density = 2.015067 g / cm^3
# Si number density = 20.196640 Si / 1000 Ang^3
#
#
#
# Elastic Constant Matrix: (Units=GPa)
#
#
# Indices 1 2 3 4 5 6 
#
# 1 94.6123 28.6385 38.8639 0.0000 0.0000 0.0000
# 2 28.6385 53.1945 26.7003 0.0000 0.0000 0.0000
# 3 38.8639 26.7003 122.3698 0.0000 0.0000 0.0000
# 4 0.0000 0.0000 0.0000 29.9964 0.0000 0.0000
# 5 0.0000 0.0000 0.0000 0.0000 29.0300 0.0000
# 6 0.0000 0.0000 0.0000 0.0000 0.0000 23.6172
#
#
#
# Elastic Compliance Matrix: (Units=1/GPa)
#
#
# Indices 1 2 3 4 5 6 
#
# 1 0.013570 -0.005775 -0.003050 0.000000 0.000000 0.000000
# 2 -0.005775 0.023569 -0.003308 0.000000 0.000000 0.000000
# 3 -0.003050 -0.003308 0.009862 0.000000 0.000000 0.000000
# 4 0.000000 0.000000 0.000000 0.033337 0.000000 0.000000
# 5 0.000000 0.000000 0.000000 0.000000 0.034447 0.000000
# 6 0.000000 0.000000 0.000000 0.000000 0.000000 0.042342
#
#
# Mechanical properties :
#
#
# Convention : Reuss Voigt Hill
#
# Bulk Modulus (GPa) = 43.98523 50.95354 47.46939
# Shear Modulus (GPa) = 26.45886 28.26033 27.35960
#
# Velocity S-wave (km/s) = 3.62341 3.74473 3.68456
# Velocity P-wave (km/s) = 6.27146 6.63180 6.45414
#
# Compressibility (1/GPa) = 0.02273490
#
# Stress axis : x y z
#
# Youngs Moduli (GPa) = 73.69053 42.42914 101.39515
#
# Poissons Ratio (x) = 0.24503 0.30923
# Poissons Ratio (y) = 0.42557 0.33546
# Poissons Ratio (z) = 0.22474 0.14037
#
# Static dielectric constant tensor:
#      x y z
#    x 3.976220 0.000000 0.000000 
#    y 0.000000 3.576860 0.000000 
#    z 0.000000 0.000000 3.544020 
# 
# 
# High freq. dielectric constant tensor:
#      x y z
#    x 1.803670 0.000000 0.000000 
#    y 0.000000 1.774130 0.000000 
#    z 0.000000 0.000000 1.776030 
# 
# From -- ./inp_files/3889.got.cif
#   From: 2010.03.12/outbox.cif.g09.slc.cpg/sg33_2_cif.got.tgz:3889.got - 2010.04.14 01:49:19.
