data_PCOD8170948
_publ_section_title
;
Structure prediction by ZEFSAII (Michael W. Deem and Ramdas Pophale) SiO2 
 PCOD8170948
Probable space group: P N A 21
;
_chemical_formula_sum "Si O2"
_cell_formula_units_Z 32
_cell_length_a 15.348921
_cell_length_b 10.288429
_cell_length_c 8.973379
_cell_angle_alpha 90.000000
_cell_angle_beta 90.000000
_cell_angle_gamma 90.000000
_cell_volume 1417.042666
_symmetry_space_group_name_H-M "P N A 21"
_symmetry_group_IT_number 33
_symmetry_cell_setting 'orthorhombic'
loop_
_space_group_symop_operation_xyz
x,y,z
-x,-y,1/2+z
1/2-x,1/2+y,1/2+z
1/2+x,1/2-y,z
loop_
_atom_site_type_symbol
_atom_site_label
_atom_site_fract_x
_atom_site_fract_y
_atom_site_fract_z
Si Si1 0.754441 0.845027 0.656130
Si Si2 0.477607 0.886121 0.392956
Si Si3 0.644199 0.892513 0.933492
Si Si4 0.261275 0.943089 0.675096
Si Si5 0.638406 0.042343 0.474775
Si Si6 0.941917 0.867824 0.560846
Si Si7 0.567776 0.490145 0.744864
Si Si8 0.488891 0.763548 0.092220
O O1 0.714320 0.830758 0.821676
O O2 0.747711 0.696841 0.591488
O O3 0.708283 0.957634 0.562886
O O4 0.854028 0.893535 0.654321
O O5 0.551785 0.957395 0.483242
O O6 0.437773 0.778699 0.502089
O O7 0.519953 0.830932 0.244389
O O8 0.401370 0.986711 0.350469
O O9 0.570297 0.785191 0.978607
O O10 0.696863 0.946232 0.073718
O O11 0.326351 0.921836 0.812608
O O12 0.170699 0.000636 0.731838
O O13 0.605867 0.179118 0.544130
O O14 0.954337 0.961754 0.417028
O O15 0.019972 0.880615 0.682135
O O16 0.526978 0.386051 0.629271
#
# Coordination Sequence:
#
# PCOD8170948 Si02
#       8
#     4   4   4   4   4   4   4   4
#     4  12  26  45  73 104 140 185 238 294 352 424
#     4  10  20  45  69  98 135 180 227 286 349 412
#     4  11  24  43  72 102 136 182 238 290 355 416
#     4  12  26  45  69 104 139 185 241 294 352 429
#     4  11  23  44  69 100 136 179 235 293 339 424
#     4  11  25  47  68 100 145 183 231 291 358 428
#     4  11  27  46  68 102 147 184 229 291 364 424
#     4  10  23  43  70 100 138 180 229 287 353 423
#
# _framework density 22.582239999999999
#
# number of rings (size 3 to 8) (size 9 to 14) (size 15 to 20)
#    0.000    1.000    5.000    0.750    5.250    0.000 
#    2.250    0.000    0.000    0.000    0.000    0.000 
#    0.000    0.000    0.000    0.000    0.000    0.000 
#
# Total GULP energy -396695.461669 kJ/mol
# GULP energy per Si atom -12396.733177 kJ/mol
# Density = 2.253084 g / cm^3
# Si number density = 22.582240 Si / 1000 Ang^3
#
#
#
# Elastic Constant Matrix: (Units=GPa)
#
#
# Indices 1 2 3 4 5 6 
#
# 1 114.1647 12.4514 38.2597 0.0000 0.0000 0.0000
# 2 12.4514 38.8087 19.9348 0.0000 0.0000 0.0000
# 3 38.2597 19.9348 70.3361 0.0000 0.0000 0.0000
# 4 0.0000 0.0000 0.0000 19.8588 0.0000 0.0000
# 5 0.0000 0.0000 0.0000 0.0000 47.7702 0.0000
# 6 0.0000 0.0000 0.0000 0.0000 0.0000 27.8106
#
#
#
# Elastic Compliance Matrix: (Units=1/GPa)
#
#
# Indices 1 2 3 4 5 6 
#
# 1 0.010721 -0.000520 -0.005684 0.000000 0.000000 0.000000
# 2 -0.000520 0.030183 -0.008272 0.000000 0.000000 0.000000
# 3 -0.005684 -0.008272 0.019654 0.000000 0.000000 0.000000
# 4 0.000000 0.000000 0.000000 0.050355 0.000000 0.000000
# 5 0.000000 0.000000 0.000000 0.000000 0.020934 0.000000
# 6 0.000000 0.000000 0.000000 0.000000 0.000000 0.035957
#
#
# Mechanical properties :
#
#
# Convention : Reuss Voigt Hill
#
# Bulk Modulus (GPa) = 31.63958 40.51127 36.07543
# Shear Modulus (GPa) = 24.12058 29.26551 26.69305
#
# Velocity S-wave (km/s) = 3.27176 3.60384 3.44181
# Velocity P-wave (km/s) = 5.32107 5.94098 5.63955
#
# Compressibility (1/GPa) = 0.03160598
#
# Stress axis : x y z
#
# Youngs Moduli (GPa) = 93.27516 33.13108 50.88044
#
# Poissons Ratio (x) = 0.01722 0.28923
# Poissons Ratio (y) = 0.04849 0.42087
# Poissons Ratio (z) = 0.53021 0.27405
#
# Static dielectric constant tensor:
#      x y z
#    x 4.137250 0.000000 0.000000 
#    y 0.000000 4.133010 0.000000 
#    z 0.000000 0.000000 4.004390 
# 
# 
# High freq. dielectric constant tensor:
#      x y z
#    x 1.897640 0.000000 0.000000 
#    y 0.000000 1.894460 0.000000 
#    z 0.000000 0.000000 1.887240 
# 
# From -- ./inp_files/4401.got.cif
#   From: 2010.03.12/outbox.cif.g09.slc.cpg/sg33_3_cif.got.tgz:4401.got - 2010.04.14 01:49:19.
