data_PCOD8170626
_publ_section_title
;
Structure prediction by ZEFSAII (Michael W. Deem and Ramdas Pophale) SiO2 
 PCOD8170626
Probable space group: P B A 2
;
_chemical_formula_sum "Si O2"
_cell_formula_units_Z 20
_cell_length_a 9.408238
_cell_length_b 12.763910
_cell_length_c 7.513291
_cell_angle_alpha 90.000000
_cell_angle_beta 90.000000
_cell_angle_gamma 90.000000
_cell_volume 902.240335
_symmetry_space_group_name_H-M "P B A 2"
_symmetry_group_IT_number 32
_symmetry_cell_setting 'orthorhombic'
loop_
_space_group_symop_operation_xyz
x,y,z
-x,-y,z
1/2-x,1/2+y,z
1/2+x,1/2-y,z
loop_
_atom_site_type_symbol
_atom_site_label
_atom_site_fract_x
_atom_site_fract_y
_atom_site_fract_z
Si Si1 0.719421 0.638529 0.738910
Si Si2 0.748964 0.647911 0.140286
Si Si3 0.066890 0.197275 0.591338
Si Si4 0.738782 0.485555 0.426525
Si Si5 0.557040 0.825444 0.280826
O O1 0.805501 0.745469 0.696099
O O2 0.549346 0.652164 0.726386
O O3 0.776632 0.547305 0.608509
O O4 0.738641 0.603200 0.941656
O O5 0.677543 0.568679 0.282985
O O6 0.670223 0.758915 0.165539
O O7 0.916154 0.661209 0.167645
O O8 0.125718 0.104376 0.467949
O O9 0.978813 0.274781 0.468693
O O10 0.877641 0.437697 0.332691
#
# Coordination Sequence:
#
# PCOD8170626 Si02
#       5
#     4   4   4   4   4
#     4  12  27  46  73 110 141 185 240 295 353 426
#     4  12  27  46  73 110 141 185 240 295 353 426
#     4  12  23  49  73  97 147 191 227 292 361 419
#     4  12  24  46  74 100 144 188 238 290 356 418
#     4  12  23  49  73  97 147 191 227 292 361 419
#
# _framework density 22.167045000000002
#
# number of rings (size 3 to 8) (size 9 to 14) (size 15 to 20)
#    0.000    0.000    8.000    2.400    0.000    1.600 
#   14.400    0.000    0.000    0.000    0.000    0.000 
#    0.000    0.000    0.000    0.000    0.000    0.000 
#
# Total GULP energy -248040.899342 kJ/mol
# GULP energy per Si atom -12402.044967 kJ/mol
# Density = 2.211659 g / cm^3
# Si number density = 22.167045 Si / 1000 Ang^3
#
#
#
# Elastic Constant Matrix: (Units=GPa)
#
#
# Indices 1 2 3 4 5 6 
#
# 1 122.0802 16.6294 17.9811 0.0000 0.0000 0.0000
# 2 16.6294 73.9177 22.3627 0.0000 0.0000 0.0000
# 3 17.9811 22.3627 149.7231 0.0000 0.0000 0.0000
# 4 0.0000 0.0000 0.0000 13.3540 0.0000 0.0000
# 5 0.0000 0.0000 0.0000 0.0000 36.7280 0.0000
# 6 0.0000 0.0000 0.0000 0.0000 0.0000 33.6243
#
#
#
# Elastic Compliance Matrix: (Units=1/GPa)
#
#
# Indices 1 2 3 4 5 6 
#
# 1 0.008535 -0.001686 -0.000773 0.000000 0.000000 0.000000
# 2 -0.001686 0.014502 -0.001964 0.000000 0.000000 0.000000
# 3 -0.000773 -0.001964 0.007065 0.000000 0.000000 0.000000
# 4 0.000000 0.000000 0.000000 0.074884 0.000000 0.000000
# 5 0.000000 0.000000 0.000000 0.000000 0.027227 0.000000
# 6 0.000000 0.000000 0.000000 0.000000 0.000000 0.029740
#
#
# Mechanical properties :
#
#
# Convention : Reuss Voigt Hill
#
# Bulk Modulus (GPa) = 47.04503 51.07415 49.05959
# Shear Modulus (GPa) = 28.10815 35.99113 32.04964
#
# Velocity S-wave (km/s) = 3.56478 4.03380 3.80652
# Velocity P-wave (km/s) = 6.18163 6.69224 6.44200
#
# Compressibility (1/GPa) = 0.02125623
#
# Stress axis : x y z
#
# Youngs Moduli (GPa) = 117.16590 68.95628 141.54044
#
# Poissons Ratio (x) = 0.11627 0.10943
# Poissons Ratio (y) = 0.19757 0.27792
# Poissons Ratio (z) = 0.09059 0.13540
#
# Static dielectric constant tensor:
#      x y z
#    x 4.402760 0.000000 0.000000 
#    y 0.000000 4.221710 0.000000 
#    z 0.000000 0.000000 3.840210 
# 
# 
# High freq. dielectric constant tensor:
#      x y z
#    x 1.886140 0.000000 0.000000 
#    y 0.000000 1.878440 0.000000 
#    z 0.000000 0.000000 1.863760 
# 
# From -- ./inp_files/2194.got.cif
#   From: 2010.03.12/outbox.cif.g09.slc.cpg/sg32_2_cif.got.tgz:2194.got - 2010.04.14 01:46:39.
