data_PCOD8170087
_publ_section_title
;
Structure prediction by ZEFSAII (Michael W. Deem and Ramdas Pophale) SiO2 
 PCOD8170087
Probable space group: P M N 21
;
_chemical_formula_sum "Si O2"
_cell_formula_units_Z 32
_cell_length_a 8.422938
_cell_length_b 11.371752
_cell_length_c 16.391419
_cell_angle_alpha 90.000000
_cell_angle_beta 90.000000
_cell_angle_gamma 90.000000
_cell_volume 1570.028499
_symmetry_space_group_name_H-M "P M N 21"
_symmetry_group_IT_number 31
_symmetry_cell_setting 'orthorhombic'
loop_
_space_group_symop_operation_xyz
x,y,z
1/2-x,-y,1/2+z
-x,y,z
1/2+x,-y,1/2+z
loop_
_atom_site_type_symbol
_atom_site_label
_atom_site_fract_x
_atom_site_fract_y
_atom_site_fract_z
Si Si1 0.180663 0.779461 0.929730
Si Si2 0.186758 0.563078 0.250529
Si Si3 0.183439 0.831725 0.225567
Si Si4 0.311886 0.048959 0.289344
Si Si5 0.686124 0.165568 0.125175
Si Si6 0.819391 0.077109 0.564605
Si Si7 0.183541 0.470505 0.423122
Si Si8 0.689014 0.424345 0.092758
O O1 0.241352 0.873149 0.864926
O O2 0.294536 0.668390 0.927108
O O3 0.000000 0.738519 0.915178
O O4 0.194585 0.845390 0.015399
O O5 0.230565 0.700278 0.249798
O O6 0.258218 0.516160 0.337135
O O7 0.260453 0.500133 0.171407
O O8 0.000000 0.540596 0.246569
O O9 0.302812 0.878364 0.156686
O O10 0.000000 0.837975 0.198806
O O11 0.220681 0.923548 0.298873
O O12 0.500000 0.028161 0.286635
O O13 0.246504 0.121932 0.211665
O O14 0.500000 0.183329 0.134821
O O15 0.759380 0.291702 0.100410
O O16 0.722719 0.062615 0.058996
O O17 0.000000 0.099016 0.535587
O O18 0.258519 0.525564 0.506573
O O19 0.000000 0.504058 0.422015
O O20 0.500000 0.426370 0.089777
#
# Coordination Sequence:
#
# PCOD8170087 Si02
#       8
#     4   4   4   4   4   4   4   4
#     4  11  22  36  55  80 110 141 180 229 276 324
#     4  10  22  38  55  80 115 149 182 227 280 330
#     4  10  20  35  56  81 109 141 180 226 275 327
#     4   9  19  35  54  77 106 139 176 223 276 331
#     4   8  16  33  55  77 101 134 178 222 268 324
#     4  10  20  35  56  80 109 145 181 221 272 330
#     4  10  22  38  56  81 111 145 188 232 277 337
#     4  10  20  36  59  82 107 146 191 230 272 327
#
# _framework density 20.381796000000001
#
# number of rings (size 3 to 8) (size 9 to 14) (size 15 to 20)
#    0.000    2.250    0.000    3.375    0.000    7.000 
#    0.000    6.875    0.000    0.000    0.000    0.000 
#    0.000    0.000    0.000    0.000    0.000    0.000 
#
# Total GULP energy -396618.956464 kJ/mol
# GULP energy per Si atom -12394.342389 kJ/mol
# Density = 2.033541 g / cm^3
# Si number density = 20.381796 Si / 1000 Ang^3
#
#
#
# Elastic Constant Matrix: (Units=GPa)
#
#
# Indices 1 2 3 4 5 6 
#
# 1 26.4272 23.2762 15.1457 0.0000 0.0000 0.0000
# 2 23.2762 173.1459 67.7526 0.0000 0.0000 0.0000
# 3 15.1457 67.7526 121.6803 0.0000 0.0000 0.0000
# 4 0.0000 0.0000 0.0000 32.2171 0.0000 0.0000
# 5 0.0000 0.0000 0.0000 0.0000 24.7698 0.0000
# 6 0.0000 0.0000 0.0000 0.0000 0.0000 25.3289
#
#
#
# Elastic Compliance Matrix: (Units=1/GPa)
#
#
# Indices 1 2 3 4 5 6 
#
# 1 0.043639 -0.004783 -0.002769 0.000000 0.000000 0.000000
# 2 -0.004783 0.007909 -0.003808 0.000000 0.000000 0.000000
# 3 -0.002769 -0.003808 0.010683 0.000000 0.000000 0.000000
# 4 0.000000 0.000000 0.000000 0.031039 0.000000 0.000000
# 5 0.000000 0.000000 0.000000 0.000000 0.040372 0.000000
# 6 0.000000 0.000000 0.000000 0.000000 0.000000 0.039481
#
#
# Mechanical properties :
#
#
# Convention : Reuss Voigt Hill
#
# Bulk Modulus (GPa) = 25.30913 59.28914 42.29913
# Shear Modulus (GPa) = 23.92190 30.80174 27.36182
#
# Velocity S-wave (km/s) = 3.42963 3.89168 3.66794
# Velocity P-wave (km/s) = 5.30355 7.02467 6.22389
#
# Compressibility (1/GPa) = 0.03951144
#
# Stress axis : x y z
#
# Youngs Moduli (GPa) = 22.91511 126.44370 93.60383
#
# Poissons Ratio (x) = 0.60480 0.25915
# Poissons Ratio (y) = 0.10961 0.35647
# Poissons Ratio (z) = 0.06344 0.48153
#
# Static dielectric constant tensor:
#      x y z
#    x 3.318020 0.000000 0.000000 
#    y 0.000000 3.970660 0.000000 
#    z 0.000000 0.000000 3.853990 
# 
# 
# High freq. dielectric constant tensor:
#      x y z
#    x 1.768980 0.000000 0.000000 
#    y 0.000000 1.811870 0.000000 
#    z 0.000000 0.000000 1.794230 
# 
# From -- ./inp_files/4917.got.cif
#   From: 2010.03.12/outbox.cif.g09.slc.cpg/sg31_3_cif.got.tgz:4917.got - 2010.04.14 01:42:59.
