data_PCOD8170093
_publ_section_title
;
Structure prediction by ZEFSAII (Michael W. Deem and Ramdas Pophale) SiO2 
 PCOD8170093
Probable space group: P M N 21
;
_chemical_formula_sum "Si O2"
_cell_formula_units_Z 32
_cell_length_a 9.038948
_cell_length_b 11.239770
_cell_length_c 15.825726
_cell_angle_alpha 90.000000
_cell_angle_beta 90.000000
_cell_angle_gamma 90.000000
_cell_volume 1607.825657
_symmetry_space_group_name_H-M "P M N 21"
_symmetry_group_IT_number 31
_symmetry_cell_setting 'orthorhombic'
loop_
_space_group_symop_operation_xyz
x,y,z
1/2-x,-y,1/2+z
-x,y,z
1/2+x,-y,1/2+z
loop_
_atom_site_type_symbol
_atom_site_label
_atom_site_fract_x
_atom_site_fract_y
_atom_site_fract_z
Si Si1 0.671354 0.514782 0.611200
Si Si2 0.664313 0.066724 0.975423
Si Si3 0.670342 0.793755 0.610996
Si Si4 0.834291 0.829116 0.290422
Si Si5 0.833919 0.850457 0.926059
Si Si6 0.665669 0.046463 0.239962
Si Si7 0.176414 0.418236 0.777040
Si Si8 0.824517 0.582384 0.930809
O O1 0.500000 0.479704 0.623589
O O2 0.695594 0.654355 0.614169
O O3 0.766046 0.457340 0.685692
O O4 0.731204 0.469301 0.520435
O O5 0.500000 0.064804 0.015364
O O6 0.656605 0.108192 0.880047
O O7 0.731331 0.933633 0.984549
O O8 0.769121 0.159230 0.022494
O O9 0.500000 0.828688 0.619454
O O10 0.759419 0.849944 0.687292
O O11 0.737075 0.711703 0.297451
O O12 0.000000 0.800059 0.257111
O O13 0.755707 0.923426 0.228032
O O14 0.837595 0.907957 0.834630
O O15 0.766301 0.717653 0.922485
O O16 0.000000 0.846657 0.964184
O O17 0.500000 0.023633 0.206865
O O18 0.236353 0.505760 0.851338
O O19 0.000000 0.414688 0.775469
O O20 0.000000 0.578001 0.926710
#
# Coordination Sequence:
#
# PCOD8170093 Si02
#       8
#     4   4   4   4   4   4   4   4
#     4  10  22  39  58  83 115 152 196 240 284 344
#     4  10  21  36  56  82 112 145 185 236 286 339
#     4  11  22  36  56  81 112 150 189 233 288 345
#     4  10  21  38  58  82 113 149 189 233 286 344
#     4   9  18  35  58  81 107 143 187 233 286 344
#     4  10  20  35  57  83 110 142 185 238 289 341
#     4  11  22  38  61  87 117 154 195 240 290 343
#     4   9  19  37  60  83 112 153 194 233 281 340
#
# _framework density 19.902654999999999
#
# number of rings (size 3 to 8) (size 9 to 14) (size 15 to 20)
#    0.000    2.000    0.000    3.375    0.000    6.000 
#    0.000    6.875    0.000    0.000    0.000    0.000 
#    0.000    0.000    0.000    0.000    0.000    0.000 
#
# Total GULP energy -396810.942263 kJ/mol
# GULP energy per Si atom -12400.341946 kJ/mol
# Density = 1.985736 g / cm^3
# Si number density = 19.902655 Si / 1000 Ang^3
#
#
#
# Elastic Constant Matrix: (Units=GPa)
#
#
# Indices 1 2 3 4 5 6 
#
# 1 97.3220 55.6695 27.3403 0.0000 0.0000 0.0000
# 2 55.6695 122.3494 28.2470 0.0000 0.0000 0.0000
# 3 27.3403 28.2470 61.8438 0.0000 0.0000 0.0000
# 4 0.0000 0.0000 0.0000 22.0361 0.0000 0.0000
# 5 0.0000 0.0000 0.0000 0.0000 28.5157 0.0000
# 6 0.0000 0.0000 0.0000 0.0000 0.0000 31.8980
#
#
#
# Elastic Compliance Matrix: (Units=1/GPa)
#
#
# Indices 1 2 3 4 5 6 
#
# 1 0.014663 -0.005785 -0.003840 0.000000 0.000000 0.000000
# 2 -0.005785 0.011419 -0.002658 0.000000 0.000000 0.000000
# 3 -0.003840 -0.002658 0.019081 0.000000 0.000000 0.000000
# 4 0.000000 0.000000 0.000000 0.045380 0.000000 0.000000
# 5 0.000000 0.000000 0.000000 0.000000 0.035068 0.000000
# 6 0.000000 0.000000 0.000000 0.000000 0.000000 0.031350
#
#
# Mechanical properties :
#
#
# Convention : Reuss Voigt Hill
#
# Bulk Modulus (GPa) = 48.55036 56.00320 52.27678
# Shear Modulus (GPa) = 26.54001 27.84054 27.19028
#
# Velocity S-wave (km/s) = 3.65566 3.74416 3.70017
# Velocity P-wave (km/s) = 6.50118 6.84772 6.67670
#
# Compressibility (1/GPa) = 0.02059717
#
# Stress axis : x y z
#
# Youngs Moduli (GPa) = 68.19812 87.57085 52.40684
#
# Poissons Ratio (x) = 0.50662 0.20124
# Poissons Ratio (y) = 0.39454 0.13931
# Poissons Ratio (z) = 0.26188 0.23278
#
# Static dielectric constant tensor:
#      x y z
#    x 3.887180 0.000000 0.000000 
#    y 0.000000 3.791520 0.000000 
#    z 0.000000 0.000000 3.594640 
# 
# 
# High freq. dielectric constant tensor:
#      x y z
#    x 1.772020 0.000000 0.000000 
#    y 0.000000 1.789100 0.000000 
#    z 0.000000 0.000000 1.772320 
# 
# From -- ./inp_files/5104.got.cif
#   From: 2010.03.12/outbox.cif.g09.slc.cpg/sg31_3_cif.got.tgz:5104.got - 2010.04.14 01:42:59.
