data_PCOD8170621
_publ_section_title
;
Structure prediction by ZEFSAII (Michael W. Deem and Ramdas Pophale) SiO2 
 PCOD8170621
Probable space group: P B A 2
;
_chemical_formula_sum "Si O2"
_cell_formula_units_Z 24
_cell_length_a 9.287329
_cell_length_b 16.315884
_cell_length_c 7.575450
_cell_angle_alpha 90.000000
_cell_angle_beta 90.000000
_cell_angle_gamma 90.000000
_cell_volume 1147.915382
_symmetry_space_group_name_H-M "P B A 2"
_symmetry_group_IT_number 32
_symmetry_cell_setting 'orthorhombic'
loop_
_space_group_symop_operation_xyz
x,y,z
-x,-y,z
1/2-x,1/2+y,z
1/2+x,1/2-y,z
loop_
_atom_site_type_symbol
_atom_site_label
_atom_site_fract_x
_atom_site_fract_y
_atom_site_fract_z
Si Si1 0.551523 0.209220 0.950020
Si Si2 0.852009 0.040270 0.801429
Si Si3 0.308673 0.707145 0.615237
Si Si4 0.328514 0.328749 0.095773
Si Si5 0.890198 0.149143 0.480601
Si Si6 0.101488 0.571062 0.736781
O O1 0.631996 0.268527 0.808781
O O2 0.502172 0.123951 0.861905
O O3 0.417316 0.247934 0.049527
O O4 0.660704 0.193685 0.111213
O O5 0.855474 0.068690 0.596077
O O6 0.723967 0.977492 0.844551
O O7 0.839148 0.118656 0.920645
O O8 0.000000 0.000000 0.855484
O O9 0.228826 0.782599 0.524215
O O10 0.447036 0.679732 0.505257
O O11 0.190107 0.633569 0.611763
O O12 0.377706 0.373872 0.274072
O O13 0.000000 0.500000 0.643750
#
# Coordination Sequence:
#
# PCOD8170621 Si02
#       6
#     4   4   4   4   4   4
#     4  12  21  44  72  97 130 184 229 279 337 410
#     4  12  24  43  68  94 136 180 222 280 356 414
#     4  12  21  44  71  96 131 181 232 279 337 408
#     4  12  25  43  70  99 134 174 234 284 337 406
#     4  12  25  43  70 100 132 180 235 285 337 409
#     4  12  22  39  73  97 135 183 224 281 352 411
#
# _framework density 20.907463
#
# number of rings (size 3 to 8) (size 9 to 14) (size 15 to 20)
#    0.000    0.000   10.000    1.000    0.000    0.667 
#    0.000    0.000    3.667    0.000    0.000    0.000 
#    0.000    0.000    0.000    0.000    0.000    0.000 
#
# Total GULP energy -297440.118068 kJ/mol
# GULP energy per Si atom -12393.338253 kJ/mol
# Density = 2.085988 g / cm^3
# Si number density = 20.907463 Si / 1000 Ang^3
#
#
#
# Elastic Constant Matrix: (Units=GPa)
#
#
# Indices 1 2 3 4 5 6 
#
# 1 139.3841 28.3072 17.4408 0.0000 0.0000 0.0000
# 2 28.3072 72.1073 -1.1115 0.0000 0.0000 0.0000
# 3 17.4408 -1.1115 75.0441 0.0000 0.0000 0.0000
# 4 0.0000 0.0000 0.0000 28.2316 0.0000 0.0000
# 5 0.0000 0.0000 0.0000 0.0000 31.5966 0.0000
# 6 0.0000 0.0000 0.0000 0.0000 0.0000 51.6767
#
#
#
# Elastic Compliance Matrix: (Units=1/GPa)
#
#
# Indices 1 2 3 4 5 6 
#
# 1 0.008064 -0.003195 -0.001921 0.000000 0.000000 0.000000
# 2 -0.003195 0.015137 0.000967 0.000000 0.000000 0.000000
# 3 -0.001921 0.000967 0.013786 0.000000 0.000000 0.000000
# 4 0.000000 0.000000 0.000000 0.035421 0.000000 0.000000
# 5 0.000000 0.000000 0.000000 0.000000 0.031649 0.000000
# 6 0.000000 0.000000 0.000000 0.000000 0.000000 0.019351
#
#
# Mechanical properties :
#
#
# Convention : Reuss Voigt Hill
#
# Bulk Modulus (GPa) = 34.85782 41.75649 38.30716
# Shear Modulus (GPa) = 35.39292 38.42758 36.91025
#
# Velocity S-wave (km/s) = 4.11887 4.29182 4.20624
# Velocity P-wave (km/s) = 6.27127 6.67646 6.47703
#
# Compressibility (1/GPa) = 0.02868797
#
# Stress axis : x y z
#
# Youngs Moduli (GPa) = 124.01175 66.06123 72.53543
#
# Poissons Ratio (x) = 0.21108 0.13937
# Poissons Ratio (y) = 0.39624 -0.07013
# Poissons Ratio (z) = 0.23828 -0.06387
#
# Static dielectric constant tensor:
#      x y z
#    x 4.192060 0.000000 0.000000 
#    y 0.000000 3.908790 0.000000 
#    z 0.000000 0.000000 3.514810 
# 
# 
# High freq. dielectric constant tensor:
#      x y z
#    x 1.857200 0.000000 0.000000 
#    y 0.000000 1.823670 0.000000 
#    z 0.000000 0.000000 1.776990 
# 
# From -- ./inp_files/2398.got.cif
#   From: 2010.03.12/outbox.cif.g09.slc.cpg/sg32_2_cif.got.tgz:2398.got - 2010.04.14 01:46:39.
