data_PCOD8170893
_publ_section_title
;
Structure prediction by ZEFSAII (Michael W. Deem and Ramdas Pophale) SiO2 
 PCOD8170893
Probable space group: P N A 21
;
_chemical_formula_sum "Si O2"
_cell_formula_units_Z 24
_cell_length_a 18.510434
_cell_length_b 7.334696
_cell_length_c 6.726112
_cell_angle_alpha 90.000000
_cell_angle_beta 90.000000
_cell_angle_gamma 90.000000
_cell_volume 913.193506
_symmetry_space_group_name_H-M "P N A 21"
_symmetry_group_IT_number 33
_symmetry_cell_setting 'orthorhombic'
loop_
_space_group_symop_operation_xyz
x,y,z
-x,-y,1/2+z
1/2-x,1/2+y,1/2+z
1/2+x,1/2-y,z
loop_
_atom_site_type_symbol
_atom_site_label
_atom_site_fract_x
_atom_site_fract_y
_atom_site_fract_z
Si Si1 0.396836 0.322241 0.476070
Si Si2 0.214519 0.102381 0.838280
Si Si3 0.643087 0.052799 0.443836
Si Si4 0.314432 0.978743 0.521545
Si Si5 0.563383 0.705562 0.406185
Si Si6 0.451054 0.650172 0.106871
O O1 0.361912 0.500821 0.372954
O O2 0.383492 0.335540 0.717199
O O3 0.484306 0.313747 0.443673
O O4 0.358210 0.135752 0.400377
O O5 0.275345 0.019011 0.990662
O O6 0.241107 0.069542 0.611427
O O7 0.204771 0.317618 0.871478
O O8 0.637601 0.097301 0.206929
O O9 0.620904 0.231576 0.567783
O O10 0.583649 0.899522 0.499862
O O11 0.572961 0.561018 0.584329
O O12 0.480339 0.698382 0.327167
#
# Coordination Sequence:
#
# PCOD8170893 Si02
#       6
#     4   4   4   4   4   4
#     4   9  21  39  59  86 122 161 197 257 315 354
#     4  10  20  39  59  86 116 165 203 253 311 379
#     4   9  21  39  59  85 124 162 197 255 318 357
#     4   9  21  39  59  83 124 160 202 261 315 367
#     4   9  21  39  59  85 120 161 196 251 311 361
#     4  10  20  39  61  87 118 161 201 249 306 370
#
# _framework density 26.281393999999999
#
# number of rings (size 3 to 8) (size 9 to 14) (size 15 to 20)
#    2.000    0.667    0.000    1.000    0.000    5.333 
#    9.000    0.000    0.000    0.000    0.000    0.000 
#    0.000    0.000    0.000    0.000    0.000    0.000 
#
# Total GULP energy -297437.965470 kJ/mol
# GULP energy per Si atom -12393.248561 kJ/mol
# Density = 2.622158 g / cm^3
# Si number density = 26.281394 Si / 1000 Ang^3
#
#
#
# Elastic Constant Matrix: (Units=GPa)
#
#
# Indices 1 2 3 4 5 6 
#
# 1 122.7191 29.6448 2.7085 0.0000 0.0000 0.0000
# 2 29.6448 124.5467 8.0688 0.0000 0.0000 0.0000
# 3 2.7085 8.0688 45.0430 0.0000 0.0000 0.0000
# 4 0.0000 0.0000 0.0000 18.5445 0.0000 0.0000
# 5 0.0000 0.0000 0.0000 0.0000 33.5818 0.0000
# 6 0.0000 0.0000 0.0000 0.0000 0.0000 50.1037
#
#
#
# Elastic Compliance Matrix: (Units=1/GPa)
#
#
# Indices 1 2 3 4 5 6 
#
# 1 0.008647 -0.002048 -0.000153 0.000000 0.000000 0.000000
# 2 -0.002048 0.008609 -0.001419 0.000000 0.000000 0.000000
# 3 -0.000153 -0.001419 0.022464 0.000000 0.000000 0.000000
# 4 0.000000 0.000000 0.000000 0.053924 0.000000 0.000000
# 5 0.000000 0.000000 0.000000 0.000000 0.029778 0.000000
# 6 0.000000 0.000000 0.000000 0.000000 0.000000 0.019959
#
#
# Mechanical properties :
#
#
# Convention : Reuss Voigt Hill
#
# Bulk Modulus (GPa) = 30.78875 41.46146 36.12511
# Shear Modulus (GPa) = 30.96979 37.23846 34.10412
#
# Velocity S-wave (km/s) = 3.43650 3.76827 3.60620
# Velocity P-wave (km/s) = 5.24275 5.89435 5.57808
#
# Compressibility (1/GPa) = 0.03247939
#
# Stress axis : x y z
#
# Youngs Moduli (GPa) = 115.64907 116.16342 44.51493
#
# Poissons Ratio (x) = 0.23793 0.00681
# Poissons Ratio (y) = 0.23688 0.06316
# Poissons Ratio (z) = 0.01770 0.16483
#
# Static dielectric constant tensor:
#      x y z
#    x 4.620970 0.000000 0.000000 
#    y 0.000000 4.291420 0.000000 
#    z 0.000000 0.000000 4.148900 
# 
# 
# High freq. dielectric constant tensor:
#      x y z
#    x 2.055290 0.000000 0.000000 
#    y 0.000000 2.043970 0.000000 
#    z 0.000000 0.000000 2.034780 
# 
# From -- ./inp_files/7105.got.cif
#   From: 2010.03.12/outbox.cif.g09.slc.cpg/sg33_4_cif.got.tgz:7105.got - 2010.04.14 01:49:19.
