data_PCOD8170228
_publ_section_title
;
Structure prediction by ZEFSAII (Michael W. Deem and Ramdas Pophale) SiO2 
 PCOD8170228
Probable space group: P M N 21
;
_chemical_formula_sum "Si O2"
_cell_formula_units_Z 28
_cell_length_a 10.551766
_cell_length_b 16.787042
_cell_length_c 7.403807
_cell_angle_alpha 90.000000
_cell_angle_beta 90.000000
_cell_angle_gamma 90.000000
_cell_volume 1311.458094
_symmetry_space_group_name_H-M "P M N 21"
_symmetry_group_IT_number 31
_symmetry_cell_setting 'orthorhombic'
loop_
_space_group_symop_operation_xyz
x,y,z
1/2-x,-y,1/2+z
-x,y,z
1/2+x,-y,1/2+z
loop_
_atom_site_type_symbol
_atom_site_label
_atom_site_fract_x
_atom_site_fract_y
_atom_site_fract_z
Si Si1 0.359523 0.534968 0.622390
Si Si2 0.638171 0.040323 0.882336
Si Si3 0.702892 0.103937 0.513380
Si Si4 0.643731 0.586327 0.215959
Si Si5 0.139423 0.293808 0.209020
Si Si6 0.142484 0.820625 0.644302
Si Si7 0.362289 0.757104 0.109923
O O1 0.500000 0.498369 0.669030
O O2 0.362852 0.571127 0.425146
O O3 0.245861 0.472332 0.626705
O O4 0.330207 0.612343 0.746819
O O5 0.500000 0.019125 0.957864
O O6 0.621184 0.061741 0.669342
O O7 0.691419 0.110452 0.010238
O O8 0.719163 0.961260 0.903015
O O9 0.630851 0.151767 0.355076
O O10 0.780581 0.164451 0.643193
O O11 0.500000 0.576416 0.131709
O O12 0.696731 0.675847 0.190321
O O13 0.256916 0.250966 0.107640
O O14 0.126031 0.249502 0.396063
O O15 0.000000 0.286699 0.109600
O O16 0.000000 0.791975 0.590335
O O17 0.500000 0.770434 0.198210
#
# Coordination Sequence:
#
# PCOD8170228 Si02
#       7
#     4   4   4   4   4   4   4
#     4  10  21  37  59  88 119 155 200 244 291 355
#     4  11  23  39  59  87 121 156 203 251 303 366
#     4  11  21  40  62  87 119 164 202 250 306 364
#     4  10  21  37  58  86 119 154 197 246 296 352
#     4   9  19  37  60  85 116 153 195 240 294 357
#     4  10  22  40  59  88 124 158 200 252 304 357
#     4   9  19  36  59  85 115 152 196 247 297 355
#
# _framework density 21.350280000000001
#
# number of rings (size 3 to 8) (size 9 to 14) (size 15 to 20)
#    0.000    2.000    1.429    1.714    2.000    2.857 
#    0.000    5.714    0.000    0.000    0.000    0.000 
#    0.000    0.000    0.000    0.000    0.000    0.000 
#
# Total GULP energy -346867.740244 kJ/mol
# GULP energy per Si atom -12388.133580 kJ/mol
# Density = 2.130169 g / cm^3
# Si number density = 21.350280 Si / 1000 Ang^3
#
#
#
# Elastic Constant Matrix: (Units=GPa)
#
#
# Indices 1 2 3 4 5 6 
#
# 1 119.7676 63.1255 3.3242 0.0000 0.0000 0.0000
# 2 63.1255 95.0715 3.0407 0.0000 0.0000 0.0000
# 3 3.3242 3.0407 49.7932 0.0000 0.0000 0.0000
# 4 0.0000 0.0000 0.0000 29.8510 0.0000 0.0000
# 5 0.0000 0.0000 0.0000 0.0000 19.4383 0.0000
# 6 0.0000 0.0000 0.0000 0.0000 0.0000 7.9644
#
#
#
# Elastic Compliance Matrix: (Units=1/GPa)
#
#
# Indices 1 2 3 4 5 6 
#
# 1 0.012850 -0.008522 -0.000338 0.000000 0.000000 0.000000
# 2 -0.008522 0.016190 -0.000420 0.000000 0.000000 0.000000
# 3 -0.000338 -0.000420 0.020131 0.000000 0.000000 0.000000
# 4 0.000000 0.000000 0.000000 0.033500 0.000000 0.000000
# 5 0.000000 0.000000 0.000000 0.000000 0.051445 0.000000
# 6 0.000000 0.000000 0.000000 0.000000 0.000000 0.125559
#
#
# Mechanical properties :
#
#
# Convention : Reuss Voigt Hill
#
# Bulk Modulus (GPa) = 32.66496 44.84592 38.75544
# Shear Modulus (GPa) = 17.33480 24.46020 20.89750
#
# Velocity S-wave (km/s) = 2.85252 3.38843 3.13196
# Velocity P-wave (km/s) = 5.11683 6.02985 5.59200
#
# Compressibility (1/GPa) = 0.03061384
#
# Stress axis : x y z
#
# Youngs Moduli (GPa) = 77.81930 61.76676 49.67407
#
# Poissons Ratio (x) = 0.52635 0.01677
# Poissons Ratio (y) = 0.66314 0.02085
# Poissons Ratio (z) = 0.02626 0.02593
#
# Static dielectric constant tensor:
#      x y z
#    x 4.722130 0.000000 0.000000 
#    y 0.000000 3.944040 0.000000 
#    z 0.000000 0.000000 3.721690 
# 
# 
# High freq. dielectric constant tensor:
#      x y z
#    x 1.831690 0.000000 0.000000 
#    y 0.000000 1.831200 0.000000 
#    z 0.000000 0.000000 1.835930 
# 
# From -- ./inp_files/2268.got.cif
#   From: 2010.03.12/outbox.cif.g09.slc.cpg/sg31_2_cif.got.tgz:2268.got - 2010.04.14 01:42:59.
