data_PCOD8170943
_publ_section_title
;
Structure prediction by ZEFSAII (Michael W. Deem and Ramdas Pophale) SiO2 
 PCOD8170943
Probable space group: P N A 21
;
_chemical_formula_sum "Si O2"
_cell_formula_units_Z 32
_cell_length_a 11.008356
_cell_length_b 13.355368
_cell_length_c 9.904839
_cell_angle_alpha 90.000000
_cell_angle_beta 90.000000
_cell_angle_gamma 90.000000
_cell_volume 1456.215823
_symmetry_space_group_name_H-M "P N A 21"
_symmetry_group_IT_number 33
_symmetry_cell_setting 'orthorhombic'
loop_
_space_group_symop_operation_xyz
x,y,z
-x,-y,1/2+z
1/2-x,1/2+y,1/2+z
1/2+x,1/2-y,z
loop_
_atom_site_type_symbol
_atom_site_label
_atom_site_fract_x
_atom_site_fract_y
_atom_site_fract_z
Si Si1 0.593694 0.479064 0.202100
Si Si2 0.448129 0.397995 0.957332
Si Si3 0.185708 0.397810 0.071988
Si Si4 0.358311 0.033590 0.188973
Si Si5 0.386307 0.184608 0.412142
Si Si6 0.140596 0.241465 0.299209
Si Si7 0.454423 0.167051 0.963064
Si Si8 0.906308 0.410909 0.683820
O O1 0.530291 0.555165 0.308512
O O2 0.727948 0.517875 0.161034
O O3 0.615474 0.373996 0.273849
O O4 0.512379 0.468292 0.068492
O O5 0.492622 0.283764 0.966145
O O6 0.306503 0.393237 0.987542
O O7 0.156250 0.300365 0.160402
O O8 0.184493 0.494851 0.168865
O O9 0.077742 0.398991 0.961572
O O10 0.370059 0.076571 0.340744
O O11 0.456171 0.948227 0.161593
O O12 0.374471 0.132049 0.091748
O O13 0.270844 0.255772 0.375420
O O14 0.520987 0.224367 0.379341
O O15 0.377977 0.172111 0.572387
O O16 0.381316 0.140333 0.827422
#
# Coordination Sequence:
#
# PCOD8170943 Si02
#       8
#     4   4   4   4   4   4   4   4
#     4  11  24  43  65  95 136 178 218 272 333 411
#     4  12  25  44  64  98 138 177 217 274 341 400
#     4  11  22  42  73  93 126 176 226 273 334 399
#     4  10  20  43  70  92 126 174 226 266 333 403
#     4  11  22  41  66  98 133 172 219 279 335 397
#     4  11  21  42  69  94 130 181 229 267 338 412
#     4  11  23  42  70  98 127 172 229 272 325 395
#     4  11  23  41  67 102 128 162 226 285 323 383
#
# _framework density 21.974765000000001
#
# number of rings (size 3 to 8) (size 9 to 14) (size 15 to 20)
#    0.000    1.000    3.750    6.000    0.000    2.000 
#    6.750    0.000    0.000    0.000    0.000    0.000 
#    0.000    0.000    0.000    0.000    0.000    0.000 
#
# Total GULP energy -396718.604604 kJ/mol
# GULP energy per Si atom -12397.456394 kJ/mol
# Density = 2.192475 g / cm^3
# Si number density = 21.974765 Si / 1000 Ang^3
#
#
#
# Elastic Constant Matrix: (Units=GPa)
#
#
# Indices 1 2 3 4 5 6 
#
# 1 99.6827 0.2805 8.4553 0.0000 0.0000 0.0000
# 2 0.2805 51.1024 18.4899 0.0000 0.0000 0.0000
# 3 8.4553 18.4899 92.5331 0.0000 0.0000 0.0000
# 4 0.0000 0.0000 0.0000 32.5047 0.0000 0.0000
# 5 0.0000 0.0000 0.0000 0.0000 14.0873 0.0000
# 6 0.0000 0.0000 0.0000 0.0000 0.0000 19.5246
#
#
#
# Elastic Compliance Matrix: (Units=1/GPa)
#
#
# Indices 1 2 3 4 5 6 
#
# 1 0.010114 0.000301 -0.000984 0.000000 0.000000 0.000000
# 2 0.000301 0.021103 -0.004244 0.000000 0.000000 0.000000
# 3 -0.000984 -0.004244 0.011745 0.000000 0.000000 0.000000
# 4 0.000000 0.000000 0.000000 0.030765 0.000000 0.000000
# 5 0.000000 0.000000 0.000000 0.000000 0.070986 0.000000
# 6 0.000000 0.000000 0.000000 0.000000 0.000000 0.051217
#
#
# Mechanical properties :
#
#
# Convention : Reuss Voigt Hill
#
# Bulk Modulus (GPa) = 30.20576 33.08553 31.64565
# Shear Modulus (GPa) = 23.06048 27.62948 25.34498
#
# Velocity S-wave (km/s) = 3.24297 3.54973 3.39981
# Velocity P-wave (km/s) = 5.27238 5.64709 5.46295
#
# Compressibility (1/GPa) = 0.03310627
#
# Stress axis : x y z
#
# Youngs Moduli (GPa) = 98.86825 47.38764 85.14298
#
# Poissons Ratio (x) = -0.01425 0.08381
# Poissons Ratio (y) = -0.02972 0.36136
# Poissons Ratio (z) = 0.09731 0.20112
#
# Static dielectric constant tensor:
#      x y z
#    x 4.268290 0.000000 0.000000 
#    y 0.000000 3.880820 0.000000 
#    z 0.000000 0.000000 3.883250 
# 
# 
# High freq. dielectric constant tensor:
#      x y z
#    x 1.869210 0.000000 0.000000 
#    y 0.000000 1.851230 0.000000 
#    z 0.000000 0.000000 1.861220 
# 
# From -- ./inp_files/3986.got.cif
#   From: 2010.03.12/outbox.cif.g09.slc.cpg/sg33_2_cif.got.tgz:3986.got - 2010.04.14 01:49:19.
