data_PCOD8170294
_publ_section_title
;
Structure prediction by ZEFSAII (Michael W. Deem and Ramdas Pophale) SiO2 
 PCOD8170294
Probable space group: P M N 21
;
_chemical_formula_sum "Si O2"
_cell_formula_units_Z 24
_cell_length_a 20.887712
_cell_length_b 9.829860
_cell_length_c 5.495643
_cell_angle_alpha 90.000000
_cell_angle_beta 90.000000
_cell_angle_gamma 90.000000
_cell_volume 1128.383472
_symmetry_space_group_name_H-M "P M N 21"
_symmetry_group_IT_number 31
_symmetry_cell_setting 'orthorhombic'
loop_
_space_group_symop_operation_xyz
x,y,z
1/2-x,-y,1/2+z
-x,y,z
1/2+x,-y,1/2+z
loop_
_atom_site_type_symbol
_atom_site_label
_atom_site_fract_x
_atom_site_fract_y
_atom_site_fract_z
Si Si1 0.072517 0.247192 0.925060
Si Si2 0.856389 0.595337 0.276195
Si Si3 0.781581 0.833120 0.443322
Si Si4 0.186266 0.303280 0.282085
Si Si5 0.427382 0.457027 0.269834
Si Si6 0.665716 0.918018 0.165427
O O1 0.076134 0.378767 0.748664
O O2 0.096525 0.111041 0.785642
O O3 0.000000 0.223733 0.018360
O O4 0.119499 0.267958 0.150397
O O5 0.813860 0.731639 0.249479
O O6 0.810337 0.465407 0.316758
O O7 0.898899 0.607559 0.522683
O O8 0.894716 0.588637 0.023092
O O9 0.752059 0.737059 0.650492
O O10 0.724245 0.931213 0.355023
O O11 0.837314 0.939092 0.524848
O O12 0.184834 0.220370 0.529337
O O13 0.500000 0.406498 0.286811
#
# Coordination Sequence:
#
# PCOD8170294 Si02
#       6
#     4   4   4   4   4   4
#     4   9  20  38  63  91 118 160 214 262 305 376
#     4  11  24  39  65  97 123 169 216 269 320 378
#     4  11  25  37  64  89 133 165 211 261 327 384
#     4  10  22  38  60  90 124 160 212 257 318 375
#     4  10  21  41  65  93 127 165 215 270 324 375
#     4  11  21  41  59  90 122 169 202 255 322 382
#
# _framework density 21.269363999999999
#
# number of rings (size 3 to 8) (size 9 to 14) (size 15 to 20)
#    0.000    1.667    3.333    0.500    4.667    1.333 
#    0.000    1.667    0.000    0.000    0.000    0.000 
#    0.000    0.000    0.000    0.000    0.000    0.000 
#
# Total GULP energy -297425.735188 kJ/mol
# GULP energy per Si atom -12392.738966 kJ/mol
# Density = 2.122095 g / cm^3
# Si number density = 21.269364 Si / 1000 Ang^3
#
#
#
# Elastic Constant Matrix: (Units=GPa)
#
#
# Indices 1 2 3 4 5 6 
#
# 1 89.3240 35.0605 14.9212 0.0000 0.0000 0.0000
# 2 35.0605 109.7938 11.2642 0.0000 0.0000 0.0000
# 3 14.9212 11.2642 79.1174 0.0000 0.0000 0.0000
# 4 0.0000 0.0000 0.0000 30.4864 0.0000 0.0000
# 5 0.0000 0.0000 0.0000 0.0000 26.2529 0.0000
# 6 0.0000 0.0000 0.0000 0.0000 0.0000 22.7559
#
#
#
# Elastic Compliance Matrix: (Units=1/GPa)
#
#
# Indices 1 2 3 4 5 6 
#
# 1 0.013075 -0.003980 -0.001899 0.000000 0.000000 0.000000
# 2 -0.003980 0.010455 -0.000738 0.000000 0.000000 0.000000
# 3 -0.001899 -0.000738 0.013103 0.000000 0.000000 0.000000
# 4 0.000000 0.000000 0.000000 0.032802 0.000000 0.000000
# 5 0.000000 0.000000 0.000000 0.000000 0.038091 0.000000
# 6 0.000000 0.000000 0.000000 0.000000 0.000000 0.043945
#
#
# Mechanical properties :
#
#
# Convention : Reuss Voigt Hill
#
# Bulk Modulus (GPa) = 42.73947 44.52523 43.63235
# Shear Modulus (GPa) = 28.98497 30.36498 29.67498
#
# Velocity S-wave (km/s) = 3.69556 3.78251 3.73929
# Velocity P-wave (km/s) = 6.19254 6.32898 6.26113
#
# Compressibility (1/GPa) = 0.02339758
#
# Stress axis : x y z
#
# Youngs Moduli (GPa) = 76.48319 95.65063 76.32038
#
# Poissons Ratio (x) = 0.38072 0.14494
# Poissons Ratio (y) = 0.30443 0.05631
# Poissons Ratio (z) = 0.14525 0.07057
#
# Static dielectric constant tensor:
#      x y z
#    x 3.894740 0.000000 0.000000 
#    y 0.000000 3.740190 0.000000 
#    z 0.000000 0.000000 3.763690 
# 
# 
# High freq. dielectric constant tensor:
#      x y z
#    x 1.825980 0.000000 0.000000 
#    y 0.000000 1.823010 0.000000 
#    z 0.000000 0.000000 1.832190 
# 
# From -- ./inp_files/1084.got.cif
#   From: 2010.03.12/outbox.cif.g09.slc.cpg/sg31_1_cif.got.tgz:1084.got - 2010.04.14 01:42:59.
