data_PCOD8170126
_publ_section_title
;
Structure prediction by ZEFSAII (Michael W. Deem and Ramdas Pophale) SiO2 
 PCOD8170126
Probable space group: P M N 21
;
_chemical_formula_sum "Si O2"
_cell_formula_units_Z 32
_cell_length_a 8.887834
_cell_length_b 7.798672
_cell_length_c 24.049973
_cell_angle_alpha 90.000000
_cell_angle_beta 90.000000
_cell_angle_gamma 90.000000
_cell_volume 1666.983045
_symmetry_space_group_name_H-M "P M N 21"
_symmetry_group_IT_number 31
_symmetry_cell_setting 'orthorhombic'
loop_
_space_group_symop_operation_xyz
x,y,z
1/2-x,-y,1/2+z
-x,y,z
1/2+x,-y,1/2+z
loop_
_atom_site_type_symbol
_atom_site_label
_atom_site_fract_x
_atom_site_fract_y
_atom_site_fract_z
Si Si1 0.676516 0.952678 0.862360
Si Si2 0.321459 0.260906 0.941714
Si Si3 0.678542 0.760405 0.561258
Si Si4 0.324707 0.577724 0.873201
Si Si5 0.322780 0.932253 0.254314
Si Si6 0.824017 0.546206 0.135785
Si Si7 0.321873 0.068311 0.639326
Si Si8 0.675896 0.427426 0.759476
O O1 0.500000 0.966772 0.848956
O O2 0.715455 0.770622 0.892126
O O3 0.729923 0.103521 0.902859
O O4 0.765549 0.950389 0.804612
O O5 0.500000 0.263744 0.949042
O O6 0.253724 0.435465 0.914386
O O7 0.247384 0.235587 0.000816
O O8 0.500000 0.748811 0.557316
O O9 0.746668 0.595934 0.594602
O O10 0.727342 0.936350 0.591533
O O11 0.500000 0.542182 0.876547
O O12 0.275430 0.555297 0.808719
O O13 0.500000 0.945738 0.249043
O O14 0.250225 0.996017 0.196764
O O15 0.273416 0.740738 0.268567
O O16 0.762449 0.739358 0.124057
O O17 0.787198 0.490322 0.199333
O O18 0.000000 0.546664 0.125274
O O19 0.500000 0.070881 0.648185
O O20 0.500000 0.375893 0.762554
#
# Coordination Sequence:
#
# PCOD8170126 Si02
#       8
#     4   4   4   4   4   4   4   4
#     4  10  20  36  59  81 107 148 192 229 269 327
#     4  10  21  38  55  79 113 145 182 228 275 326
#     4  10  21  36  57  81 105 144 189 226 271 324
#     4   9  18  33  58  85 103 137 190 230 267 323
#     4  11  21  33  53  84 120 147 176 225 286 335
#     4   8  16  31  53  81 105 131 177 228 266 312
#     4   9  19  36  57  78 106 145 187 227 269 326
#     4   9  16  33  58  81 109 143 181 225 271 329
#
# _framework density 19.196356000000002
#
# number of rings (size 3 to 8) (size 9 to 14) (size 15 to 20)
#    0.000    2.500    1.250    1.875    1.750    2.000 
#    0.000    3.750    0.000    0.000    0.000    0.000 
#    0.000    0.000    0.000    0.000    0.000    0.000 
#
# Total GULP energy -396657.408695 kJ/mol
# GULP energy per Si atom -12395.544022 kJ/mol
# Density = 1.915266 g / cm^3
# Si number density = 19.196356 Si / 1000 Ang^3
#
#
#
# Elastic Constant Matrix: (Units=GPa)
#
#
# Indices 1 2 3 4 5 6 
#
# 1 33.3291 26.2982 29.3357 0.0000 0.0000 0.0000
# 2 26.2982 126.8732 72.8739 0.0000 0.0000 0.0000
# 3 29.3357 72.8739 139.1069 0.0000 0.0000 0.0000
# 4 0.0000 0.0000 0.0000 25.5341 0.0000 0.0000
# 5 0.0000 0.0000 0.0000 0.0000 30.6350 0.0000
# 6 0.0000 0.0000 0.0000 0.0000 0.0000 5.5965
#
#
#
# Elastic Compliance Matrix: (Units=1/GPa)
#
#
# Indices 1 2 3 4 5 6 
#
# 1 0.038766 -0.004777 -0.005673 0.000000 0.000000 0.000000
# 2 -0.004777 0.011863 -0.005207 0.000000 0.000000 0.000000
# 3 -0.005673 -0.005207 0.011113 0.000000 0.000000 0.000000
# 4 0.000000 0.000000 0.000000 0.039163 0.000000 0.000000
# 5 0.000000 0.000000 0.000000 0.000000 0.032642 0.000000
# 6 0.000000 0.000000 0.000000 0.000000 0.000000 0.178683
#
#
# Mechanical properties :
#
#
# Convention : Reuss Voigt Hill
#
# Bulk Modulus (GPa) = 32.86446 61.81386 47.33916
# Shear Modulus (GPa) = 14.13676 23.73987 18.93832
#
# Velocity S-wave (km/s) = 2.71667 3.52047 3.14436
# Velocity P-wave (km/s) = 5.19593 6.98539 6.15603
#
# Compressibility (1/GPa) = 0.03042800
#
# Stress axis : x y z
#
# Youngs Moduli (GPa) = 25.79574 84.29531 89.98523
#
# Poissons Ratio (x) = 0.40269 0.51045
# Poissons Ratio (y) = 0.12323 0.46858
# Poissons Ratio (z) = 0.14633 0.43895
#
# Static dielectric constant tensor:
#      x y z
#    x 3.092980 0.000000 0.000000 
#    y 0.000000 3.809820 0.000000 
#    z 0.000000 0.000000 3.592910 
# 
# 
# High freq. dielectric constant tensor:
#      x y z
#    x 1.703740 0.000000 0.000000 
#    y 0.000000 1.755590 0.000000 
#    z 0.000000 0.000000 1.746450 
# 
# From -- ./inp_files/6501.got.cif
#   From: 2010.03.12/outbox.cif.g09.slc.cpg/sg31_4_cif.got.tgz:6501.got - 2010.04.14 01:42:59.
