data_PCOD8170687
_publ_section_title
;
Structure prediction by ZEFSAII (Michael W. Deem and Ramdas Pophale) SiO2 
 PCOD8170687
Probable space group: P N A 21
;
_chemical_formula_sum "Si O2"
_cell_formula_units_Z 32
_cell_length_a 14.092033
_cell_length_b 10.924880
_cell_length_c 9.115845
_cell_angle_alpha 90.000000
_cell_angle_beta 90.000000
_cell_angle_gamma 90.000000
_cell_volume 1403.418700
_symmetry_space_group_name_H-M "P N A 21"
_symmetry_group_IT_number 33
_symmetry_cell_setting 'orthorhombic'
loop_
_space_group_symop_operation_xyz
x,y,z
-x,-y,1/2+z
1/2-x,1/2+y,1/2+z
1/2+x,1/2-y,z
loop_
_atom_site_type_symbol
_atom_site_label
_atom_site_fract_x
_atom_site_fract_y
_atom_site_fract_z
Si Si1 0.611858 0.933962 0.125000
Si Si2 0.720035 0.172797 0.175317
Si Si3 0.085829 0.160993 0.653556
Si Si4 0.070080 0.208854 0.981912
Si Si5 0.975326 0.465230 0.918333
Si Si6 0.690703 0.122050 0.502613
Si Si7 0.613941 0.587957 0.516907
Si Si8 0.633611 0.661814 0.183675
O O1 0.530244 0.970903 0.242728
O O2 0.661246 0.805782 0.167129
O O3 0.691578 0.037230 0.120978
O O4 0.554650 0.936030 0.970430
O O5 0.714878 0.188660 0.349115
O O6 0.654443 0.274623 0.097565
O O7 0.827523 0.184123 0.117362
O O8 0.110172 0.160275 0.826938
O O9 0.124468 0.288420 0.594902
O O10 0.973046 0.150214 0.625035
O O11 0.136436 0.050261 0.568306
O O12 0.005579 0.329795 0.964920
O O13 0.997819 0.108500 0.046112
O O14 0.869483 0.497830 0.978542
O O15 0.789383 0.088988 0.585094
O O16 0.642750 0.611119 0.348088
#
# Coordination Sequence:
#
# PCOD8170687 Si02
#       8
#     4   4   4   4   4   4   4   4
#     4  10  19  39  66  93 123 170 215 281 333 401
#     4  10  24  39  64 101 133 170 232 282 341 412
#     4  11  23  44  68  96 134 186 228 279 346 418
#     4  10  22  44  70  92 134 185 227 289 341 404
#     4  10  18  40  67  95 123 166 229 276 337 394
#     4  11  23  39  65 102 135 171 227 288 344 420
#     4  11  24  44  64  96 135 187 231 273 350 420
#     4  11  23  43  66  95 139 181 223 278 356 409
#
# _framework density 22.801463999999999
#
# number of rings (size 3 to 8) (size 9 to 14) (size 15 to 20)
#    0.000    1.500    3.750    1.500    0.000    6.000 
#    6.750    0.000    0.000    0.000    0.000    0.000 
#    0.000    0.000    0.000    0.000    0.000    0.000 
#
# Total GULP energy -396725.545629 kJ/mol
# GULP energy per Si atom -12397.673301 kJ/mol
# Density = 2.274957 g / cm^3
# Si number density = 22.801464 Si / 1000 Ang^3
#
#
#
# Elastic Constant Matrix: (Units=GPa)
#
#
# Indices 1 2 3 4 5 6 
#
# 1 64.5526 -11.4891 39.7295 0.0000 0.0000 0.0000
# 2 -11.4891 51.0942 15.4344 0.0000 0.0000 0.0000
# 3 39.7295 15.4344 106.7674 0.0000 0.0000 0.0000
# 4 0.0000 0.0000 0.0000 36.2411 0.0000 0.0000
# 5 0.0000 0.0000 0.0000 0.0000 33.7015 0.0000
# 6 0.0000 0.0000 0.0000 0.0000 0.0000 23.5484
#
#
#
# Elastic Compliance Matrix: (Units=1/GPa)
#
#
# Indices 1 2 3 4 5 6 
#
# 1 0.022888 0.008072 -0.009684 0.000000 0.000000 0.000000
# 2 0.008072 0.023312 -0.006374 0.000000 0.000000 0.000000
# 3 -0.009684 -0.006374 0.013891 0.000000 0.000000 0.000000
# 4 0.000000 0.000000 0.000000 0.027593 0.000000 0.000000
# 5 0.000000 0.000000 0.000000 0.000000 0.029672 0.000000
# 6 0.000000 0.000000 0.000000 0.000000 0.000000 0.042466
#
#
# Mechanical properties :
#
#
# Convention : Reuss Voigt Hill
#
# Bulk Modulus (GPa) = 22.66556 34.41819 28.54187
# Shear Modulus (GPa) = 26.24678 30.61415 28.43047
#
# Velocity S-wave (km/s) = 3.39647 3.66818 3.53494
# Velocity P-wave (km/s) = 5.03421 5.75050 5.40424
#
# Compressibility (1/GPa) = 0.04411980
#
# Stress axis : x y z
#
# Youngs Moduli (GPa) = 43.69136 42.89622 71.98923
#
# Poissons Ratio (x) = -0.34625 0.69712
# Poissons Ratio (y) = -0.35267 0.45883
# Poissons Ratio (z) = 0.42309 0.27341
#
# Static dielectric constant tensor:
#      x y z
#    x 4.162850 0.000000 0.000000 
#    y 0.000000 3.952600 0.000000 
#    z 0.000000 0.000000 4.105080 
# 
# 
# High freq. dielectric constant tensor:
#      x y z
#    x 1.907290 0.000000 0.000000 
#    y 0.000000 1.884390 0.000000 
#    z 0.000000 0.000000 1.896430 
# 
# From -- ./inp_files/4391.got.cif
#   From: 2010.03.12/outbox.cif.g09.slc.cpg/sg33_3_cif.got.tgz:4391.got - 2010.04.14 01:49:19.
