data_PCOD8170310
_publ_section_title
;
Structure prediction by ZEFSAII (Michael W. Deem and Ramdas Pophale) SiO2 
 PCOD8170310
Probable space group: P M N 21
;
_chemical_formula_sum "Si O2"
_cell_formula_units_Z 32
_cell_length_a 10.974159
_cell_length_b 11.300000
_cell_length_c 12.806795
_cell_angle_alpha 90.000000
_cell_angle_beta 90.000000
_cell_angle_gamma 90.000000
_cell_volume 1588.144992
_symmetry_space_group_name_H-M "P M N 21"
_symmetry_group_IT_number 31
_symmetry_cell_setting 'orthorhombic'
loop_
_space_group_symop_operation_xyz
x,y,z
1/2-x,-y,1/2+z
-x,y,z
1/2+x,-y,1/2+z
loop_
_atom_site_type_symbol
_atom_site_label
_atom_site_fract_x
_atom_site_fract_y
_atom_site_fract_z
Si Si1 0.637297 0.429909 0.510960
Si Si2 0.271858 0.682497 0.198294
Si Si3 0.642428 0.230825 0.896404
Si Si4 0.637904 0.917581 0.116119
Si Si5 0.780092 0.328228 0.089372
Si Si6 0.861045 0.560312 0.775152
Si Si7 0.862846 0.029866 0.392113
Si Si8 0.861243 0.088862 0.169623
O O1 0.500000 0.382858 0.508402
O O2 0.712498 0.343818 0.586069
O O3 0.635207 0.562111 0.558371
O O4 0.692157 0.428397 0.393181
O O5 0.171084 0.706340 0.286458
O O6 0.354105 0.799129 0.183994
O O7 0.355627 0.575045 0.235972
O O8 0.500000 0.229535 0.911474
O O9 0.704325 0.098880 0.898322
O O10 0.690316 0.306852 0.993238
O O11 0.500000 0.971640 0.135657
O O12 0.750838 0.005143 0.134395
O O13 0.654405 0.888280 0.993388
O O14 0.709948 0.354221 0.196960
O O15 0.861472 0.212649 0.109298
O O16 0.000000 0.601098 0.774663
O O17 0.828463 0.108122 0.291759
O O18 0.000000 0.987536 0.379379
O O19 0.000000 0.035630 0.154295
#
# Coordination Sequence:
#
# PCOD8170310 Si02
#       8
#     4   4   4   4   4   4   4   4
#     4  10  22  40  60  85 120 157 201 261 313 353
#     4  11  22  38  62  88 119 159 209 247 305 365
#     4  11  20  36  61  88 121 165 204 245 299 374
#     4  11  23  40  64  92 125 160 205 252 308 368
#     4  11  22  38  62  88 119 159 209 247 305 365
#     4  10  22  40  60  85 120 157 201 261 313 353
#     4   9  20  38  57  84 123 163 194 243 305 366
#     4  11  23  40  64  92 125 160 205 252 308 368
#
# _framework density 20.149293
#
# number of rings (size 3 to 8) (size 9 to 14) (size 15 to 20)
#    0.000    1.500    3.750    1.500    1.750    1.000 
#    0.000    1.875    0.000    0.000    0.000    0.000 
#    0.000    0.000    0.000    0.000    0.000    0.000 
#
# Total GULP energy -396501.843683 kJ/mol
# GULP energy per Si atom -12390.682615 kJ/mol
# Density = 2.010343 g / cm^3
# Si number density = 20.149293 Si / 1000 Ang^3
#
#
#
# Elastic Constant Matrix: (Units=GPa)
#
#
# Indices 1 2 3 4 5 6 
#
# 1 89.3320 19.6523 31.7724 0.0000 0.0000 0.0000
# 2 19.6523 66.4705 22.0656 0.0000 0.0000 0.0000
# 3 31.7724 22.0656 136.2992 0.0000 0.0000 0.0000
# 4 0.0000 0.0000 0.0000 35.8439 0.0000 0.0000
# 5 0.0000 0.0000 0.0000 0.0000 21.4706 0.0000
# 6 0.0000 0.0000 0.0000 0.0000 0.0000 20.9052
#
#
#
# Elastic Compliance Matrix: (Units=1/GPa)
#
#
# Indices 1 2 3 4 5 6 
#
# 1 0.012726 -0.002935 -0.002491 0.000000 0.000000 0.000000
# 2 -0.002935 0.016576 -0.001999 0.000000 0.000000 0.000000
# 3 -0.002491 -0.001999 0.008241 0.000000 0.000000 0.000000
# 4 0.000000 0.000000 0.000000 0.027899 0.000000 0.000000
# 5 0.000000 0.000000 0.000000 0.000000 0.046575 0.000000
# 6 0.000000 0.000000 0.000000 0.000000 0.000000 0.047835
#
#
# Mechanical properties :
#
#
# Convention : Reuss Voigt Hill
#
# Bulk Modulus (GPa) = 44.07021 48.78693 46.42857
# Shear Modulus (GPa) = 27.43215 30.21803 28.82509
#
# Velocity S-wave (km/s) = 3.69378 3.87681 3.78640
# Velocity P-wave (km/s) = 6.33335 6.65618 6.49677
#
# Compressibility (1/GPa) = 0.02269106
#
# Stress axis : x y z
#
# Youngs Moduli (GPa) = 78.57892 60.32891 121.34161
#
# Poissons Ratio (x) = 0.17710 0.30230
# Poissons Ratio (y) = 0.23067 0.24258
# Poissons Ratio (z) = 0.19576 0.12061
#
# Static dielectric constant tensor:
#      x y z
#    x 3.434420 0.000000 0.000000 
#    y 0.000000 3.556820 0.000000 
#    z 0.000000 0.000000 4.046540 
# 
# 
# High freq. dielectric constant tensor:
#      x y z
#    x 1.770690 0.000000 0.000000 
#    y 0.000000 1.775240 0.000000 
#    z 0.000000 0.000000 1.806390 
# 
# From -- ./inp_files/4080.got.cif
#   From: 2010.03.12/outbox.cif.g09.slc.cpg/sg31_3_cif.got.tgz:4080.got - 2010.04.14 01:42:59.
