data_PCOD8170977
_publ_section_title
;
Structure prediction by ZEFSAII (Michael W. Deem and Ramdas Pophale) SiO2 
 PCOD8170977
Probable space group: P N A 21
;
_chemical_formula_sum "Si O2"
_cell_formula_units_Z 32
_cell_length_a 8.675320
_cell_length_b 9.779399
_cell_length_c 17.096246
_cell_angle_alpha 90.000000
_cell_angle_beta 90.000000
_cell_angle_gamma 90.000000
_cell_volume 1450.435522
_symmetry_space_group_name_H-M "P N A 21"
_symmetry_group_IT_number 33
_symmetry_cell_setting 'orthorhombic'
loop_
_space_group_symop_operation_xyz
x,y,z
-x,-y,1/2+z
1/2-x,1/2+y,1/2+z
1/2+x,1/2-y,z
loop_
_atom_site_type_symbol
_atom_site_label
_atom_site_fract_x
_atom_site_fract_y
_atom_site_fract_z
Si Si1 0.068708 0.083817 0.082590
Si Si2 0.431292 0.583817 0.404983
Si Si3 0.702861 0.653384 0.173284
Si Si4 0.031632 0.569062 0.160975
Si Si5 0.256483 0.844747 0.354156
Si Si6 0.468368 0.069062 0.326598
Si Si7 0.297139 0.346616 0.314289
Si Si8 0.743517 0.155253 0.133417
O O1 0.181333 0.191764 0.124548
O O2 0.893585 0.136359 0.080559
O O3 0.078142 0.944141 0.131935
O O4 0.123081 0.060441 0.993786
O O5 0.318667 0.691764 0.363025
O O6 0.606415 0.636359 0.407014
O O7 0.421858 0.444141 0.355638
O O8 0.867750 0.626423 0.130434
O O9 0.654951 0.809601 0.163452
O O10 0.709659 0.622231 0.265182
O O11 1.000000 0.500000 0.243786
O O12 0.108598 0.451269 0.106720
O O13 0.391402 0.951269 0.380853
O O14 0.345049 0.190399 0.324120
O O15 0.632249 0.126423 0.357139
O O16 0.290341 0.377769 0.222391
#
# Coordination Sequence:
#
# PCOD8170977 Si02
#       8
#     4   4   4   4   4   4   4   4
#     4  12  25  41  63  97 135 173 218 281 344 399
#     4  12  25  41  63  97 135 173 218 281 344 399
#     4  11  21  40  65  94 127 169 221 269 322 395
#     4  10  21  37  64  96 122 160 214 268 315 373
#     4  11  21  40  66  93 127 170 219 266 328 405
#     4  10  21  37  64  96 122 160 214 268 315 373
#     4  11  21  40  65  94 127 169 221 269 322 395
#     4  11  21  40  66  93 127 170 219 266 328 405
#
# _framework density 22.062338
#
# number of rings (size 3 to 8) (size 9 to 14) (size 15 to 20)
#    0.000    1.000    0.000   10.500    0.000    0.000 
#    0.000    7.500    0.000    0.000    0.000    0.000 
#    0.000    0.000    0.000    0.000    0.000    0.000 
#
# Total GULP energy -396803.991975 kJ/mol
# GULP energy per Si atom -12400.124749 kJ/mol
# Density = 2.201212 g / cm^3
# Si number density = 22.062338 Si / 1000 Ang^3
#
#
#
# Elastic Constant Matrix: (Units=GPa)
#
#
# Indices 1 2 3 4 5 6 
#
# 1 87.4632 19.4243 18.0846 0.0000 0.0000 0.0000
# 2 19.4243 129.1863 34.7336 0.0000 0.0000 0.0000
# 3 18.0846 34.7336 88.9006 0.0000 0.0000 0.0000
# 4 0.0000 0.0000 0.0000 18.4369 0.0000 0.0000
# 5 0.0000 0.0000 0.0000 0.0000 19.5706 0.0000
# 6 0.0000 0.0000 0.0000 0.0000 0.0000 59.1463
#
#
#
# Elastic Compliance Matrix: (Units=1/GPa)
#
#
# Indices 1 2 3 4 5 6 
#
# 1 0.012127 -0.001296 -0.001960 0.000000 0.000000 0.000000
# 2 -0.001296 0.008788 -0.003170 0.000000 0.000000 0.000000
# 3 -0.001960 -0.003170 0.012886 0.000000 0.000000 0.000000
# 4 0.000000 0.000000 0.000000 0.054239 0.000000 0.000000
# 5 0.000000 0.000000 0.000000 0.000000 0.051097 0.000000
# 6 0.000000 0.000000 0.000000 0.000000 0.000000 0.016907
#
#
# Mechanical properties :
#
#
# Convention : Reuss Voigt Hill
#
# Bulk Modulus (GPa) = 47.73859 50.00389 48.87124
# Shear Modulus (GPa) = 28.42865 34.98461 31.70663
#
# Velocity S-wave (km/s) = 3.59355 3.98643 3.79507
# Velocity P-wave (km/s) = 6.23724 6.62592 6.43451
#
# Compressibility (1/GPa) = 0.02094742
#
# Stress axis : x y z
#
# Youngs Moduli (GPa) = 82.46329 113.79293 77.60523
#
# Poissons Ratio (x) = 0.14750 0.15214
# Poissons Ratio (y) = 0.10689 0.24599
# Poissons Ratio (z) = 0.16166 0.36069
#
# Static dielectric constant tensor:
#      x y z
#    x 4.527420 0.000000 0.000000 
#    y 0.000000 4.164620 0.000000 
#    z 0.000000 0.000000 3.506260 
# 
# 
# High freq. dielectric constant tensor:
#      x y z
#    x 1.887120 0.000000 0.000000 
#    y 0.000000 1.883780 0.000000 
#    z 0.000000 0.000000 1.821400 
# 
# From -- ./inp_files/8971.got.cif
#   From: 2010.03.12/outbox.cif.g09.slc.cpg/sg33_5_cif.got.tgz:8971.got - 2010.04.14 01:49:19.
