data_PCOD8170342
_publ_section_title
;
Structure prediction by ZEFSAII (Michael W. Deem and Ramdas Pophale) SiO2 
 PCOD8170342
Probable space group: P M N 21
;
_chemical_formula_sum "Si O2"
_cell_formula_units_Z 18
_cell_length_a 10.553908
_cell_length_b 11.076560
_cell_length_c 7.134817
_cell_angle_alpha 90.000000
_cell_angle_beta 90.000000
_cell_angle_gamma 90.000000
_cell_volume 834.067208
_symmetry_space_group_name_H-M "P M N 21"
_symmetry_group_IT_number 31
_symmetry_cell_setting 'orthorhombic'
loop_
_space_group_symop_operation_xyz
x,y,z
1/2-x,-y,1/2+z
-x,y,z
1/2+x,-y,1/2+z
loop_
_atom_site_type_symbol
_atom_site_label
_atom_site_fract_x
_atom_site_fract_y
_atom_site_fract_z
Si Si1 0.744218 0.348853 0.493150
Si Si2 0.644061 0.597226 0.362020
Si Si3 0.000000 0.877884 0.707162
Si Si4 0.000000 0.761770 0.080235
Si Si5 0.000000 0.027684 0.052220
Si Si6 0.267086 0.802459 0.631493
O O1 0.715832 0.470660 0.380500
O O2 0.857133 0.367019 0.642028
O O3 0.626766 0.311299 0.630475
O O4 0.779065 0.244311 0.345593
O O5 0.500000 0.586922 0.432594
O O6 0.715749 0.695127 0.486475
O O7 0.000000 0.765026 0.851376
O O8 0.129894 0.864508 0.588150
O O9 0.000000 0.003308 0.826658
O O10 0.000000 0.898654 0.162014
O O11 0.125858 0.097543 0.107468
#
# Coordination Sequence:
#
# PCOD8170342 Si02
#       6
#     4   4   2   2   2   4
#     4  11  23  42  70 100 136 184 218 287 352 412
#     4  12  25  41  71 104 137 175 236 285 346 422
#     4   8  22  45  68  92 137 182 225 277 346 402
#     4   8  20  44  63  89 139 173 227 274 333 416
#     4  10  22  43  71  99 136 179 236 289 325 412
#     4  11  23  46  70 102 140 181 230 290 342 411
#
# _framework density 21.580995999999999
#
# number of rings (size 3 to 8) (size 9 to 14) (size 15 to 20)
#    0.667    0.889    4.444    0.000    1.556    2.667 
#    2.000    1.111    0.000    0.000    0.000    0.000 
#    0.000    0.000    0.000    0.000    0.000    0.000 
#
# Total GULP energy -223122.437755 kJ/mol
# GULP energy per Si atom -12395.690986 kJ/mol
# Density = 2.153188 g / cm^3
# Si number density = 21.580996 Si / 1000 Ang^3
#
#
#
# Elastic Constant Matrix: (Units=GPa)
#
#
# Indices 1 2 3 4 5 6 
#
# 1 137.9683 40.2782 40.1368 0.0000 0.0000 0.0000
# 2 40.2782 104.4546 39.0293 0.0000 0.0000 0.0000
# 3 40.1368 39.0293 69.4911 0.0000 0.0000 0.0000
# 4 0.0000 0.0000 0.0000 33.8778 0.0000 0.0000
# 5 0.0000 0.0000 0.0000 0.0000 26.3690 0.0000
# 6 0.0000 0.0000 0.0000 0.0000 0.0000 19.0281
#
#
#
# Elastic Compliance Matrix: (Units=1/GPa)
#
#
# Indices 1 2 3 4 5 6 
#
# 1 0.009011 -0.001936 -0.004117 0.000000 0.000000 0.000000
# 2 -0.001936 0.012532 -0.005920 0.000000 0.000000 0.000000
# 3 -0.004117 -0.005920 0.020093 0.000000 0.000000 0.000000
# 4 0.000000 0.000000 0.000000 0.029518 0.000000 0.000000
# 5 0.000000 0.000000 0.000000 0.000000 0.037923 0.000000
# 6 0.000000 0.000000 0.000000 0.000000 0.000000 0.052554
#
#
# Mechanical properties :
#
#
# Convention : Reuss Voigt Hill
#
# Bulk Modulus (GPa) = 56.53140 61.20028 58.86584
# Shear Modulus (GPa) = 26.11299 28.68630 27.39965
#
# Velocity S-wave (km/s) = 3.48228 3.64983 3.56704
# Velocity P-wave (km/s) = 6.51308 6.79571 6.65589
#
# Compressibility (1/GPa) = 0.01768928
#
# Stress axis : x y z
#
# Youngs Moduli (GPa) = 110.97484 79.79373 49.76761
#
# Poissons Ratio (x) = 0.15451 0.20490
# Poissons Ratio (y) = 0.21489 0.29464
# Poissons Ratio (z) = 0.45689 0.47240
#
# Static dielectric constant tensor:
#      x y z
#    x 3.982170 0.000000 0.000000 
#    y 0.000000 3.840830 0.000000 
#    z 0.000000 0.000000 3.592500 
# 
# 
# High freq. dielectric constant tensor:
#      x y z
#    x 1.853480 0.000000 0.000000 
#    y 0.000000 1.848420 0.000000 
#    z 0.000000 0.000000 1.825800 
# 
# From -- ./inp_files/1613.got.cif
#   From: 2010.03.12/outbox.cif.g09.slc.cpg/sg31_1_cif.got.tgz:1613.got - 2010.04.14 01:42:59.
