data_PCOD8170339
_publ_section_title
;
Structure prediction by ZEFSAII (Michael W. Deem and Ramdas Pophale) SiO2 
 PCOD8170339
Probable space group: P M N 21
;
_chemical_formula_sum "Si O2"
_cell_formula_units_Z 32
_cell_length_a 8.674213
_cell_length_b 11.829247
_cell_length_c 14.349990
_cell_angle_alpha 90.000000
_cell_angle_beta 90.000000
_cell_angle_gamma 90.000000
_cell_volume 1472.443980
_symmetry_space_group_name_H-M "P M N 21"
_symmetry_group_IT_number 31
_symmetry_cell_setting 'orthorhombic'
loop_
_space_group_symop_operation_xyz
x,y,z
1/2-x,-y,1/2+z
-x,y,z
1/2+x,-y,1/2+z
loop_
_atom_site_type_symbol
_atom_site_label
_atom_site_fract_x
_atom_site_fract_y
_atom_site_fract_z
Si Si1 0.179424 0.411682 0.965070
Si Si2 0.681494 0.329490 0.145078
Si Si3 0.821403 0.121093 0.567948
Si Si4 0.828947 0.702716 0.188012
Si Si5 0.820074 0.048058 0.371351
Si Si6 0.817526 0.094215 0.167107
Si Si7 0.326891 0.198331 0.882813
Si Si8 0.682844 0.519707 0.791752
O O1 0.208115 0.287599 0.923881
O O2 0.247599 0.506492 0.895430
O O3 0.000000 0.434140 0.978885
O O4 0.261310 0.417253 0.065745
O O5 0.500000 0.335196 0.153835
O O6 0.736045 0.202462 0.119358
O O7 0.756656 0.365850 0.244003
O O8 0.779349 0.243842 0.608853
O O9 0.784579 0.131718 0.457223
O O10 0.000000 0.094058 0.585221
O O11 0.723544 0.020470 0.613535
O O12 0.836583 0.792396 0.271523
O O13 0.761565 0.584741 0.226771
O O14 0.000000 0.683978 0.146093
O O15 0.750453 0.090160 0.273393
O O16 0.000000 0.031015 0.353400
O O17 0.757408 0.925162 0.403553
O O18 0.000000 0.113024 0.163597
O O19 0.500000 0.218568 0.925182
O O20 0.500000 0.520672 0.802029
#
# Coordination Sequence:
#
# PCOD8170339 Si02
#       8
#     4   4   4   4   4   4   4   4
#     4  11  22  38  63  96 124 159 208 257 307 369
#     4  12  25  43  64  92 126 163 207 259 314 372
#     4  11  21  34  57  90 123 158 201 249 303 365
#     4   9  18  35  59  83 112 152 195 244 301 357
#     4   9  19  35  55  81 118 161 198 239 301 367
#     4  11  22  41  63  86 121 166 208 252 309 370
#     4   9  16  33  58  82 115 158 202 250 300 351
#     4  10  22  43  67  90 119 161 207 260 315 365
#
# _framework density 21.732576000000002
#
# number of rings (size 3 to 8) (size 9 to 14) (size 15 to 20)
#    0.000    1.750    1.250    4.875    0.000    3.500 
#    2.250    3.125    0.000    0.000    0.000    0.000 
#    0.000    0.000    0.000    0.000    0.000    0.000 
#
# Total GULP energy -396787.035880 kJ/mol
# GULP energy per Si atom -12399.594871 kJ/mol
# Density = 2.168311 g / cm^3
# Si number density = 21.732576 Si / 1000 Ang^3
#
#
#
# Elastic Constant Matrix: (Units=GPa)
#
#
# Indices 1 2 3 4 5 6 
#
# 1 89.7169 11.6675 23.9367 0.0000 0.0000 0.0000
# 2 11.6675 33.1164 -3.1623 0.0000 0.0000 0.0000
# 3 23.9367 -3.1623 85.2858 0.0000 0.0000 0.0000
# 4 0.0000 0.0000 0.0000 33.5189 0.0000 0.0000
# 5 0.0000 0.0000 0.0000 0.0000 28.2589 0.0000
# 6 0.0000 0.0000 0.0000 0.0000 0.0000 21.1994
#
#
#
# Elastic Compliance Matrix: (Units=1/GPa)
#
#
# Indices 1 2 3 4 5 6 
#
# 1 0.012784 -0.004864 -0.003768 0.000000 0.000000 0.000000
# 2 -0.004864 0.032154 0.002557 0.000000 0.000000 0.000000
# 3 -0.003768 0.002557 0.012878 0.000000 0.000000 0.000000
# 4 0.000000 0.000000 0.000000 0.029834 0.000000 0.000000
# 5 0.000000 0.000000 0.000000 0.000000 0.035387 0.000000
# 6 0.000000 0.000000 0.000000 0.000000 0.000000 0.047171
#
#
# Mechanical properties :
#
#
# Convention : Reuss Voigt Hill
#
# Bulk Modulus (GPa) = 21.89794 30.33366 26.11580
# Shear Modulus (GPa) = 25.30613 28.30724 26.80668
#
# Velocity S-wave (km/s) = 3.41608 3.61297 3.51590
# Velocity P-wave (km/s) = 5.06532 5.60292 5.34089
#
# Compressibility (1/GPa) = 0.04566639
#
# Stress axis : x y z
#
# Youngs Moduli (GPa) = 78.22190 31.09993 77.65323
#
# Poissons Ratio (x) = 0.15127 0.29263
# Poissons Ratio (y) = 0.38047 -0.19859
# Poissons Ratio (z) = 0.29477 -0.07953
#
# Static dielectric constant tensor:
#      x y z
#    x 3.634460 0.000000 0.000000 
#    y 0.000000 3.741340 0.000000 
#    z 0.000000 0.000000 4.079570 
# 
# 
# High freq. dielectric constant tensor:
#      x y z
#    x 1.835990 0.000000 0.000000 
#    y 0.000000 1.840130 0.000000 
#    z 0.000000 0.000000 1.860420 
# 
# From -- ./inp_files/4977.got.cif
#   From: 2010.03.12/outbox.cif.g09.slc.cpg/sg31_3_cif.got.tgz:4977.got - 2010.04.14 01:42:59.
