data_PCOD8170327
_publ_section_title
;
Structure prediction by ZEFSAII (Michael W. Deem and Ramdas Pophale) SiO2 
 PCOD8170327
Probable space group: P M N 21
;
_chemical_formula_sum "Si O2"
_cell_formula_units_Z 32
_cell_length_a 8.678869
_cell_length_b 12.004709
_cell_length_c 15.294939
_cell_angle_alpha 90.000000
_cell_angle_beta 90.000000
_cell_angle_gamma 90.000000
_cell_volume 1593.538349
_symmetry_space_group_name_H-M "P M N 21"
_symmetry_group_IT_number 31
_symmetry_cell_setting 'orthorhombic'
loop_
_space_group_symop_operation_xyz
x,y,z
1/2-x,-y,1/2+z
-x,y,z
1/2+x,-y,1/2+z
loop_
_atom_site_type_symbol
_atom_site_label
_atom_site_fract_x
_atom_site_fract_y
_atom_site_fract_z
Si Si1 0.817898 0.993755 0.786640
Si Si2 0.317406 0.990956 0.483511
Si Si3 0.176052 0.536418 0.482189
Si Si4 0.317638 0.854195 0.128486
Si Si5 0.319509 0.389916 0.630405
Si Si6 0.178822 0.250175 0.043399
Si Si7 0.179114 0.752836 0.723837
Si Si8 0.823197 0.453423 0.289414
O O1 0.765163 0.870526 0.760446
O O2 0.000000 0.004773 0.789360
O O3 0.752320 0.012774 0.884238
O O4 0.752417 0.081580 0.715033
O O5 0.500000 0.007387 0.484127
O O6 0.264974 0.875067 0.526212
O O7 0.245614 0.090972 0.539468
O O8 0.280008 0.458568 0.543308
O O9 0.225659 0.665011 0.484475
O O10 0.201185 0.508019 0.382271
O O11 0.000000 0.522253 0.512432
O O12 0.500000 0.863573 0.125710
O O13 0.269710 0.726336 0.132193
O O14 0.500000 0.364287 0.631710
O O15 0.267715 0.460445 0.714963
O O16 0.214371 0.280453 0.142787
O O17 0.000000 0.265196 0.022036
O O18 0.214677 0.655691 0.792793
O O19 0.000000 0.755619 0.697727
O O20 0.000000 0.418797 0.273269
#
# Coordination Sequence:
#
# PCOD8170327 Si02
#       8
#     4   4   4   4   4   4   4   4
#     4   9  21  40  61  89 122 158 202 249 299 359
#     4  10  22  41  63  89 122 162 204 247 299 364
#     4  11  24  42  64  92 123 160 204 254 307 364
#     4  11  23  41  63  90 124 160 201 253 302 358
#     4  11  24  43  63  88 124 165 202 248 305 368
#     4  11  22  38  63  91 122 160 204 256 309 359
#     4  11  21  38  65  90 119 160 206 254 306 361
#     4  10  24  43  62  89 126 159 201 255 307 363
#
# _framework density 20.081097
#
# number of rings (size 3 to 8) (size 9 to 14) (size 15 to 20)
#    0.000    1.500    2.500    1.875    3.500    2.000 
#    0.000    1.875    0.000    0.000    0.000    0.000 
#    0.000    0.000    0.000    0.000    0.000    0.000 
#
# Total GULP energy -396882.164159 kJ/mol
# GULP energy per Si atom -12402.567630 kJ/mol
# Density = 2.003539 g / cm^3
# Si number density = 20.081097 Si / 1000 Ang^3
#
#
#
# Elastic Constant Matrix: (Units=GPa)
#
#
# Indices 1 2 3 4 5 6 
#
# 1 38.7947 26.3658 33.7376 0.0000 0.0000 0.0000
# 2 26.3658 124.4971 38.4568 0.0000 0.0000 0.0000
# 3 33.7376 38.4568 105.5541 0.0000 0.0000 0.0000
# 4 0.0000 0.0000 0.0000 30.6532 0.0000 0.0000
# 5 0.0000 0.0000 0.0000 0.0000 26.5353 0.0000
# 6 0.0000 0.0000 0.0000 0.0000 0.0000 35.0712
#
#
#
# Elastic Compliance Matrix: (Units=1/GPa)
#
#
# Indices 1 2 3 4 5 6 
#
# 1 0.038141 -0.004859 -0.010421 0.000000 0.000000 0.000000
# 2 -0.004859 0.009670 -0.001970 0.000000 0.000000 0.000000
# 3 -0.010421 -0.001970 0.013522 0.000000 0.000000 0.000000
# 4 0.000000 0.000000 0.000000 0.032623 0.000000 0.000000
# 5 0.000000 0.000000 0.000000 0.000000 0.037686 0.000000
# 6 0.000000 0.000000 0.000000 0.000000 0.000000 0.028513
#
#
# Mechanical properties :
#
#
# Convention : Reuss Voigt Hill
#
# Bulk Modulus (GPa) = 37.26555 51.77403 44.51979
# Shear Modulus (GPa) = 24.55814 29.80431 27.18122
#
# Velocity S-wave (km/s) = 3.50086 3.85671 3.68308
# Velocity P-wave (km/s) = 5.91094 6.75801 6.34862
#
# Compressibility (1/GPa) = 0.02683444
#
# Stress axis : x y z
#
# Youngs Moduli (GPa) = 26.21857 103.41456 73.95205
#
# Poissons Ratio (x) = 0.50244 0.77063
# Poissons Ratio (y) = 0.12738 0.14569
# Poissons Ratio (z) = 0.27321 0.20374
#
# Static dielectric constant tensor:
#      x y z
#    x 3.502030 0.000000 0.000000 
#    y 0.000000 3.784890 0.000000 
#    z 0.000000 0.000000 3.810590 
# 
# 
# High freq. dielectric constant tensor:
#      x y z
#    x 1.772750 0.000000 0.000000 
#    y 0.000000 1.797970 0.000000 
#    z 0.000000 0.000000 1.791960 
# 
# From -- ./inp_files/4923.got.cif
#   From: 2010.03.12/outbox.cif.g09.slc.cpg/sg31_3_cif.got.tgz:4923.got - 2010.04.14 01:42:59.
