data_PCOD8170240
_publ_section_title
;
Structure prediction by ZEFSAII (Michael W. Deem and Ramdas Pophale) SiO2 
 PCOD8170240
Probable space group: P M N 21
;
_chemical_formula_sum "Si O2"
_cell_formula_units_Z 32
_cell_length_a 8.951766
_cell_length_b 7.481795
_cell_length_c 24.539471
_cell_angle_alpha 90.000000
_cell_angle_beta 90.000000
_cell_angle_gamma 90.000000
_cell_volume 1643.537895
_symmetry_space_group_name_H-M "P M N 21"
_symmetry_group_IT_number 31
_symmetry_cell_setting 'orthorhombic'
loop_
_space_group_symop_operation_xyz
x,y,z
1/2-x,-y,1/2+z
-x,y,z
1/2+x,-y,1/2+z
loop_
_atom_site_type_symbol
_atom_site_label
_atom_site_fract_x
_atom_site_fract_y
_atom_site_fract_z
Si Si1 0.322626 0.685981 0.004650
Si Si2 0.677337 0.724014 0.223843
Si Si3 0.175434 0.307235 0.005201
Si Si4 0.322864 0.017590 0.307855
Si Si5 0.175852 0.679337 0.730164
Si Si6 0.176417 0.974618 0.931122
Si Si7 0.835599 0.294509 0.124126
Si Si8 0.667122 0.282682 0.614931
O O1 0.500000 0.686371 0.007949
O O2 0.257507 0.767845 0.060624
O O3 0.267499 0.485515 0.992329
O O4 0.266378 0.809973 0.955848
O O5 0.500000 0.730084 0.216041
O O6 0.733457 0.846809 0.273503
O O7 0.733684 0.523183 0.237511
O O8 0.750779 0.796951 0.168048
O O9 0.000000 0.357073 0.004664
O O10 0.216839 0.159724 0.960667
O O11 0.218983 0.225512 0.064789
O O12 0.500000 0.018025 0.307792
O O13 0.262207 0.199454 0.279580
O O14 0.264636 0.005363 0.369350
O O15 0.227215 0.765392 0.672662
O O16 0.000000 0.684188 0.729405
O O17 0.000000 0.934301 0.934633
O O18 0.838847 0.506506 0.119932
O O19 0.000000 0.219345 0.137533
O O20 0.500000 0.201638 0.610799
#
# Coordination Sequence:
#
# PCOD8170240 Si02
#       8
#     4   4   4   4   4   4   4   4
#     4  11  22  36  56  82 113 145 177 223 279 329
#     4   9  17  31  51  76 105 135 169 214 268 318
#     4   9  19  36  58  82 108 141 181 225 272 324
#     4   9  19  34  52  76 103 135 180 224 260 312
#     4   9  17  30  50  75 102 132 165 205 256 312
#     4  10  21  38  58  79 107 146 192 233 268 319
#     4   8  15  29  49  75 104 131 165 210 261 317
#     4   9  17  32  54  79 106 137 175 216 264 327
#
# _framework density 19.470192999999998
#
# number of rings (size 3 to 8) (size 9 to 14) (size 15 to 20)
#    0.000    2.750    0.000    2.250    0.000    5.500 
#    0.000    8.125    0.000    3.000    0.000    0.000 
#    0.000    0.000    0.000    0.000    0.000    0.000 
#
# Total GULP energy -396704.587999 kJ/mol
# GULP energy per Si atom -12397.018375 kJ/mol
# Density = 1.942588 g / cm^3
# Si number density = 19.470193 Si / 1000 Ang^3
#
#
#
# Elastic Constant Matrix: (Units=GPa)
#
#
# Indices 1 2 3 4 5 6 
#
# 1 60.2376 29.5155 34.8356 0.0000 0.0000 0.0000
# 2 29.5155 82.4105 59.8210 0.0000 0.0000 0.0000
# 3 34.8356 59.8210 166.4534 0.0000 0.0000 0.0000
# 4 0.0000 0.0000 0.0000 35.2022 0.0000 0.0000
# 5 0.0000 0.0000 0.0000 0.0000 27.5916 0.0000
# 6 0.0000 0.0000 0.0000 0.0000 0.0000 11.8333
#
#
#
# Elastic Compliance Matrix: (Units=1/GPa)
#
#
# Indices 1 2 3 4 5 6 
#
# 1 0.020745 -0.005788 -0.002261 0.000000 0.000000 0.000000
# 2 -0.005788 0.018032 -0.005269 0.000000 0.000000 0.000000
# 3 -0.002261 -0.005269 0.008375 0.000000 0.000000 0.000000
# 4 0.000000 0.000000 0.000000 0.028407 0.000000 0.000000
# 5 0.000000 0.000000 0.000000 0.000000 0.036243 0.000000
# 6 0.000000 0.000000 0.000000 0.000000 0.000000 0.084507
#
#
# Mechanical properties :
#
#
# Convention : Reuss Voigt Hill
#
# Bulk Modulus (GPa) = 48.74682 61.93841 55.34262
# Shear Modulus (GPa) = 21.75946 27.25403 24.50674
#
# Velocity S-wave (km/s) = 3.34665 3.74543 3.55164
# Velocity P-wave (km/s) = 6.32648 7.11233 6.73089
#
# Compressibility (1/GPa) = 0.02051416
#
# Stress axis : x y z
#
# Youngs Moduli (GPa) = 48.20481 55.45589 119.40881
#
# Poissons Ratio (x) = 0.32100 0.27001
# Poissons Ratio (y) = 0.27903 0.62919
# Poissons Ratio (z) = 0.10900 0.29221
#
# Static dielectric constant tensor:
#      x y z
#    x 3.391290 0.000000 0.000000 
#    y 0.000000 3.558520 0.000000 
#    z 0.000000 0.000000 3.908200 
# 
# 
# High freq. dielectric constant tensor:
#      x y z
#    x 1.732560 0.000000 0.000000 
#    y 0.000000 1.754240 0.000000 
#    z 0.000000 0.000000 1.761470 
# 
# From -- ./inp_files/6468.got.cif
#   From: 2010.03.12/outbox.cif.g09.slc.cpg/sg31_4_cif.got.tgz:6468.got - 2010.04.14 01:42:59.
