data_PCOD8170548
_publ_section_title
;
Structure prediction by ZEFSAII (Michael W. Deem and Ramdas Pophale) SiO2 
 PCOD8170548
Probable space group: P B A 2
;
_chemical_formula_sum "Si O2"
_cell_formula_units_Z 20
_cell_length_a 16.674928
_cell_length_b 10.964299
_cell_length_c 5.153234
_cell_angle_alpha 90.000000
_cell_angle_beta 90.000000
_cell_angle_gamma 90.000000
_cell_volume 942.160085
_symmetry_space_group_name_H-M "P B A 2"
_symmetry_group_IT_number 32
_symmetry_cell_setting 'orthorhombic'
loop_
_space_group_symop_operation_xyz
x,y,z
-x,-y,z
1/2-x,1/2+y,z
1/2+x,1/2-y,z
loop_
_atom_site_type_symbol
_atom_site_label
_atom_site_fract_x
_atom_site_fract_y
_atom_site_fract_z
Si Si1 0.590747 0.985309 0.954190
Si Si2 0.032792 0.866845 0.397245
Si Si3 0.382289 0.790238 0.256348
Si Si4 0.379264 0.293409 0.911166
Si Si5 0.699511 0.176638 0.762010
O O1 0.616412 0.846814 0.999904
O O2 0.500000 0.000000 0.844969
O O3 0.655329 0.044189 0.754301
O O4 0.597829 0.064665 0.221888
O O5 0.964555 0.778816 0.292142
O O6 0.061384 0.814629 0.671752
O O7 0.000000 0.000000 0.451493
O O8 0.099595 0.871628 0.168837
O O9 0.319604 0.761631 0.486521
O O10 0.339621 0.741761 0.992558
O O11 0.293333 0.336890 0.809732
#
# Coordination Sequence:
#
# PCOD8170548 Si02
#       5
#     4   4   4   4   4
#     4  10  22  42  73  96 135 175 239 285 336 426
#     4  12  26  44  70  97 144 187 235 278 352 435
#     4  10  22  44  65  99 131 184 226 286 343 415
#     4  12  25  44  69 105 133 187 231 292 361 405
#     4  10  24  41  65 104 137 171 226 296 352 401
#
# _framework density 21.227817000000002
#
# number of rings (size 3 to 8) (size 9 to 14) (size 15 to 20)
#    1.200    0.000    2.000    4.200    2.800    4.000 
#    0.000    0.000    0.000    0.000    0.000    0.000 
#    0.000    0.000    0.000    0.000    0.000    0.000 
#
# Total GULP energy -247861.636142 kJ/mol
# GULP energy per Si atom -12393.081807 kJ/mol
# Density = 2.117950 g / cm^3
# Si number density = 21.227817 Si / 1000 Ang^3
#
#
#
# Elastic Constant Matrix: (Units=GPa)
#
#
# Indices 1 2 3 4 5 6 
#
# 1 94.2032 43.8751 14.6488 0.0000 0.0000 0.0000
# 2 43.8751 89.0517 34.4196 0.0000 0.0000 0.0000
# 3 14.6488 34.4196 131.3688 0.0000 0.0000 0.0000
# 4 0.0000 0.0000 0.0000 16.9858 0.0000 0.0000
# 5 0.0000 0.0000 0.0000 0.0000 -24.8817 0.0000
# 6 0.0000 0.0000 0.0000 0.0000 0.0000 26.1754
#
#
#
# Elastic Compliance Matrix: (Units=1/GPa)
#
#
# Indices 1 2 3 4 5 6 
#
# 1 0.013785 -0.006896 0.000270 0.000000 0.000000 0.000000
# 2 -0.006896 0.015945 -0.003409 0.000000 0.000000 0.000000
# 3 0.000270 -0.003409 0.008475 0.000000 0.000000 0.000000
# 4 0.000000 0.000000 0.000000 0.058873 0.000000 0.000000
# 5 0.000000 0.000000 0.000000 0.000000 -0.040190 0.000000
# 6 0.000000 0.000000 0.000000 0.000000 0.000000 0.038204
#
#
# Mechanical properties :
#
#
# Convention : Reuss Voigt Hill
#
# Bulk Modulus (GPa) = 55.14244 55.61229 55.37736
# Shear Modulus (GPa) = 41.25190 18.43457 29.84323
#
# Velocity S-wave (km/s) = 4.41306 2.95009 3.75354
# Velocity P-wave (km/s) = 7.21108 6.15294 6.70293
#
# Compressibility (1/GPa) = 0.01813485
#
# Stress axis : x y z
#
# Youngs Moduli (GPa) = 72.54109 62.71722 117.99169
#
# Poissons Ratio (x) = 0.43251 -0.03182
# Poissons Ratio (y) = 0.50025 0.40219
# Poissons Ratio (z) = -0.01956 0.21378
#
# Static dielectric constant tensor:
#      x y z
#    x 4.319340 0.000000 0.000000 
#    y 0.000000 3.602960 0.000000 
#    z 0.000000 0.000000 3.960110 
# 
# 
# High freq. dielectric constant tensor:
#      x y z
#    x 1.839400 0.000000 0.000000 
#    y 0.000000 1.808050 0.000000 
#    z 0.000000 0.000000 1.840290 
# 
# From -- ./inp_files/1131.got.cif
#   From: 2010.03.12/outbox.cif.g09.slc.cpg/sg32_1_cif.got.tgz:1131.got - 2010.04.14 01:46:39.
