data_PCOD8170137
_publ_section_title
;
Structure prediction by ZEFSAII (Michael W. Deem and Ramdas Pophale) SiO2 
 PCOD8170137
Probable space group: P M N 21
;
_chemical_formula_sum "Si O2"
_cell_formula_units_Z 32
_cell_length_a 8.586240
_cell_length_b 14.283774
_cell_length_c 12.411354
_cell_angle_alpha 90.000000
_cell_angle_beta 90.000000
_cell_angle_gamma 90.000000
_cell_volume 1522.177004
_symmetry_space_group_name_H-M "P M N 21"
_symmetry_group_IT_number 31
_symmetry_cell_setting 'orthorhombic'
loop_
_space_group_symop_operation_xyz
x,y,z
1/2-x,-y,1/2+z
-x,y,z
1/2+x,-y,1/2+z
loop_
_atom_site_type_symbol
_atom_site_label
_atom_site_fract_x
_atom_site_fract_y
_atom_site_fract_z
Si Si1 0.818131 0.557262 0.295990
Si Si2 0.680084 0.368039 0.376267
Si Si3 0.682206 0.054845 0.512110
Si Si4 0.680620 0.249310 0.896049
Si Si5 0.171971 0.164600 0.699551
Si Si6 0.671787 0.634681 0.096347
Si Si7 0.319458 0.129799 0.091973
Si Si8 0.683043 0.824748 0.815920
O O1 0.776345 0.460473 0.350816
O O2 0.764461 0.643885 0.372873
O O3 0.730938 0.558162 0.181390
O O4 0.000000 0.563380 0.273503
O O5 0.500000 0.381292 0.347553
O O6 0.702743 0.352066 0.502761
O O7 0.745266 0.279125 0.311834
O O8 0.500000 0.038344 0.496522
O O9 0.711546 0.105586 0.625919
O O10 0.744108 0.115059 0.412008
O O11 0.771755 0.956609 0.515967
O O12 0.500000 0.238908 0.868464
O O13 0.766930 0.172664 0.821430
O O14 0.713594 0.223343 0.020946
O O15 0.160132 0.268143 0.655731
O O16 0.000000 0.117372 0.699378
O O17 0.500000 0.605081 0.052787
O O18 0.500000 0.123045 0.124274
O O19 0.217772 0.128665 0.200587
O O20 0.500000 0.818217 0.836599
#
# Coordination Sequence:
#
# PCOD8170137 Si02
#       8
#     4   4   4   4   4   4   4   4
#     4  10  21  39  63  93 128 170 219 272 330 393
#     4  12  24  40  64  94 129 172 218 270 331 394
#     4  12  25  42  66  95 128 169 217 268 326 391
#     4   9  21  41  65  92 128 169 215 267 325 389
#     4  10  20  36  63  92 123 161 208 266 321 378
#     4  10  20  37  60  89 123 162 212 268 325 385
#     4  11  25  45  67  95 133 176 219 269 332 397
#     4  12  26  46  68  96 132 171 220 276 334 393
#
# _framework density 21.022523
#
# number of rings (size 3 to 8) (size 9 to 14) (size 15 to 20)
#    0.000    1.250    1.250    4.875    1.750    3.500 
#    0.000    3.750    0.000    0.000    0.000    0.000 
#    0.000    0.000    0.000    0.000    0.000    0.000 
#
# Total GULP energy -396857.882522 kJ/mol
# GULP energy per Si atom -12401.808829 kJ/mol
# Density = 2.097467 g / cm^3
# Si number density = 21.022523 Si / 1000 Ang^3
#
#
#
# Elastic Constant Matrix: (Units=GPa)
#
#
# Indices 1 2 3 4 5 6 
#
# 1 77.4044 18.6605 22.0500 0.0000 0.0000 0.0000
# 2 18.6605 88.6780 32.5693 0.0000 0.0000 0.0000
# 3 22.0500 32.5693 85.5326 0.0000 0.0000 0.0000
# 4 0.0000 0.0000 0.0000 15.7124 0.0000 0.0000
# 5 0.0000 0.0000 0.0000 0.0000 35.6655 0.0000
# 6 0.0000 0.0000 0.0000 0.0000 0.0000 32.1207
#
#
#
# Elastic Compliance Matrix: (Units=1/GPa)
#
#
# Indices 1 2 3 4 5 6 
#
# 1 0.014217 -0.001913 -0.002937 0.000000 0.000000 0.000000
# 2 -0.001913 0.013368 -0.004597 0.000000 0.000000 0.000000
# 3 -0.002937 -0.004597 0.014199 0.000000 0.000000 0.000000
# 4 0.000000 0.000000 0.000000 0.063644 0.000000 0.000000
# 5 0.000000 0.000000 0.000000 0.000000 0.028038 0.000000
# 6 0.000000 0.000000 0.000000 0.000000 0.000000 0.031133
#
#
# Mechanical properties :
#
#
# Convention : Reuss Voigt Hill
#
# Bulk Modulus (GPa) = 43.68690 44.24162 43.96426
# Shear Modulus (GPa) = 26.16132 28.58872 27.37502
#
# Velocity S-wave (km/s) = 3.53149 3.69170 3.61248
# Velocity P-wave (km/s) = 6.12002 6.26594 6.19341
#
# Compressibility (1/GPa) = 0.02289016
#
# Stress axis : x y z
#
# Youngs Moduli (GPa) = 70.33874 74.80718 70.42780
#
# Poissons Ratio (x) = 0.14312 0.20682
# Poissons Ratio (y) = 0.13457 0.32376
# Poissons Ratio (z) = 0.20656 0.34389
#
# Static dielectric constant tensor:
#      x y z
#    x 4.011320 0.000000 0.000000 
#    y 0.000000 3.860980 0.000000 
#    z 0.000000 0.000000 3.871630 
# 
# 
# High freq. dielectric constant tensor:
#      x y z
#    x 1.833100 0.000000 0.000000 
#    y 0.000000 1.821780 0.000000 
#    z 0.000000 0.000000 1.824350 
# 
# From -- ./inp_files/3662.got.cif
#   From: 2010.03.12/outbox.cif.g09.slc.cpg/sg31_2_cif.got.tgz:3662.got - 2010.04.14 01:42:59.
