data_PCOD8170658
_publ_section_title
;
Structure prediction by ZEFSAII (Michael W. Deem and Ramdas Pophale) SiO2 
 PCOD8170658
Probable space group: P N A 21
;
_chemical_formula_sum "Si O2"
_cell_formula_units_Z 32
_cell_length_a 20.684156
_cell_length_b 9.010215
_cell_length_c 9.194670
_cell_angle_alpha 90.000000
_cell_angle_beta 90.000000
_cell_angle_gamma 90.000000
_cell_volume 1713.598627
_symmetry_space_group_name_H-M "P N A 21"
_symmetry_group_IT_number 33
_symmetry_cell_setting 'orthorhombic'
loop_
_space_group_symop_operation_xyz
x,y,z
-x,-y,1/2+z
1/2-x,1/2+y,1/2+z
1/2+x,1/2-y,z
loop_
_atom_site_type_symbol
_atom_site_label
_atom_site_fract_x
_atom_site_fract_y
_atom_site_fract_z
Si Si1 0.072810 0.184423 0.945160
Si Si2 0.680638 0.158416 0.777039
Si Si3 0.573552 0.356765 0.279302
Si Si4 0.568659 0.619810 0.776285
Si Si5 0.796108 0.177697 0.981314
Si Si6 0.806576 0.310674 0.278525
Si Si7 0.931759 0.149015 0.945125
Si Si8 0.310825 0.673559 0.977370
O O1 0.117130 0.307255 0.870602
O O2 0.998318 0.240996 0.928020
O O3 0.081982 0.025009 0.871292
O O4 0.092917 0.169465 0.112788
O O5 0.678625 0.243521 0.626904
O O6 0.683666 0.984224 0.753000
O O7 0.743711 0.217653 0.861167
O O8 0.500283 0.301508 0.314757
O O9 0.572454 0.531714 0.314461
O O10 0.628342 0.278266 0.376868
O O11 0.624597 0.737116 0.813251
O O12 0.567533 0.572220 0.606089
O O13 0.773562 0.245012 0.133844
O O14 0.866353 0.249044 0.936293
O O15 0.808329 0.002430 0.000509
O O16 0.756997 0.274648 0.408152
#
# Coordination Sequence:
#
# PCOD8170658 Si02
#       8
#     4   4   4   4   4   4   4   4
#     4  10  18  31  56  79 103 136 172 212 256 303
#     4  11  22  34  52  79 105 134 170 212 262 310
#     4   9  17  32  55  80 101 135 181 215 245 297
#     4   9  18  34  56  79 105 136 172 216 258 301
#     4   9  19  37  55  73 101 135 173 213 252 302
#     4  10  21  36  54  77 106 134 167 215 266 310
#     4   8  16  32  54  77 100 131 177 218 246 292
#     4  10  21  36  54  76 103 135 178 217 249 305
#
# _framework density 18.674151999999999
#
# number of rings (size 3 to 8) (size 9 to 14) (size 15 to 20)
#    0.000    2.500    0.000    3.000    0.000    6.000 
#    0.000    3.750    0.000    3.000    0.000    0.000 
#    0.000    0.000    0.000    0.000    0.000    0.000 
#
# Total GULP energy -396609.998442 kJ/mol
# GULP energy per Si atom -12394.062451 kJ/mol
# Density = 1.863165 g / cm^3
# Si number density = 18.674152 Si / 1000 Ang^3
#
#
#
# Elastic Constant Matrix: (Units=GPa)
#
#
# Indices 1 2 3 4 5 6 
#
# 1 135.2628 29.2746 48.3452 0.0000 0.0000 0.0000
# 2 29.2746 37.0345 27.5322 0.0000 0.0000 0.0000
# 3 48.3452 27.5322 97.4574 0.0000 0.0000 0.0000
# 4 0.0000 0.0000 0.0000 25.6155 0.0000 0.0000
# 5 0.0000 0.0000 0.0000 0.0000 31.9915 0.0000
# 6 0.0000 0.0000 0.0000 0.0000 0.0000 25.7152
#
#
#
# Elastic Compliance Matrix: (Units=1/GPa)
#
#
# Indices 1 2 3 4 5 6 
#
# 1 0.009714 -0.005185 -0.003354 0.000000 0.000000 0.000000
# 2 -0.005185 0.036948 -0.007866 0.000000 0.000000 0.000000
# 3 -0.003354 -0.007866 0.014147 0.000000 0.000000 0.000000
# 4 0.000000 0.000000 0.000000 0.039039 0.000000 0.000000
# 5 0.000000 0.000000 0.000000 0.000000 0.031258 0.000000
# 6 0.000000 0.000000 0.000000 0.000000 0.000000 0.038887
#
#
# Mechanical properties :
#
#
# Convention : Reuss Voigt Hill
#
# Bulk Modulus (GPa) = 35.71555 53.33987 44.52771
# Shear Modulus (GPa) = 23.56974 27.63798 25.60386
#
# Velocity S-wave (km/s) = 3.55654 3.85127 3.70683
# Velocity P-wave (km/s) = 6.00271 6.95714 6.49747
#
# Compressibility (1/GPa) = 0.02799901
#
# Stress axis : x y z
#
# Youngs Moduli (GPa) = 102.94442 27.06492 70.68741
#
# Poissons Ratio (x) = 0.14034 0.23708
# Poissons Ratio (y) = 0.53379 0.55602
# Poissons Ratio (z) = 0.34527 0.21289
#
# Static dielectric constant tensor:
#      x y z
#    x 3.994860 0.000000 0.000000 
#    y 0.000000 2.980600 0.000000 
#    z 0.000000 0.000000 3.483690 
# 
# 
# High freq. dielectric constant tensor:
#      x y z
#    x 1.754280 0.000000 0.000000 
#    y 0.000000 1.675710 0.000000 
#    z 0.000000 0.000000 1.732110 
# 
# From -- ./inp_files/5048.got.cif
#   From: 2010.03.12/outbox.cif.g09.slc.cpg/sg33_3_cif.got.tgz:5048.got - 2010.04.14 01:49:19.
