data_PCOD8170545
_publ_section_title
;
Structure prediction by ZEFSAII (Michael W. Deem and Ramdas Pophale) SiO2 
 PCOD8170545
Probable space group: P B A 2
;
_chemical_formula_sum "Si O2"
_cell_formula_units_Z 24
_cell_length_a 15.999603
_cell_length_b 7.674598
_cell_length_c 8.501010
_cell_angle_alpha 90.000000
_cell_angle_beta 90.000000
_cell_angle_gamma 90.000000
_cell_volume 1043.843448
_symmetry_space_group_name_H-M "P B A 2"
_symmetry_group_IT_number 32
_symmetry_cell_setting 'orthorhombic'
loop_
_space_group_symop_operation_xyz
x,y,z
-x,-y,z
1/2-x,1/2+y,z
1/2+x,1/2-y,z
loop_
_atom_site_type_symbol
_atom_site_label
_atom_site_fract_x
_atom_site_fract_y
_atom_site_fract_z
Si Si1 0.372413 0.209277 0.707070
Si Si2 0.000000 0.500000 0.519030
Si Si3 0.127221 0.246695 0.384872
Si Si4 0.000000 0.000000 0.253041
Si Si5 0.771239 0.518706 0.206818
Si Si6 0.247161 0.442678 0.562130
Si Si7 0.372905 0.292009 0.066446
O O1 0.458626 0.151308 0.626544
O O2 0.337237 0.386847 0.628167
O O3 0.302289 0.059617 0.687929
O O4 0.391186 0.249865 0.887019
O O5 0.067774 0.414792 0.406377
O O6 0.180118 0.293818 0.225192
O O7 0.190135 0.263548 0.536994
O O8 0.073180 0.072872 0.365905
O O9 0.039282 0.847264 0.145689
O O10 0.738911 0.467599 0.386331
O O11 0.693931 0.549752 0.088362
O O12 0.837148 0.378476 0.149248
#
# Coordination Sequence:
#
# PCOD8170545 Si02
#       7
#     4   2   4   2   4   4   4
#     4  11  23  42  67  97 139 172 223 277 344 405
#     4  10  22  42  64 100 136 186 218 280 356 394
#     4   9  22  37  66  99 130 174 236 281 332 386
#     4  12  26  38  64 104 142 180 222 280 346 408
#     4  10  22  43  71  97 128 175 239 280 329 403
#     4   9  22  41  68  97 121 177 234 274 325 391
#     4  12  25  42  68 101 139 178 221 282 350 407
#
# _framework density 22.991952999999999
#
# number of rings (size 3 to 8) (size 9 to 14) (size 15 to 20)
#    1.000    0.667    0.000    4.000    4.667    1.333 
#    0.000    7.500    0.000    0.000    0.000    0.000 
#    0.000    0.000    0.000    0.000    0.000    0.000 
#
# Total GULP energy -297446.301230 kJ/mol
# GULP energy per Si atom -12393.595885 kJ/mol
# Density = 2.293962 g / cm^3
# Si number density = 22.991953 Si / 1000 Ang^3
#
#
#
# Elastic Constant Matrix: (Units=GPa)
#
#
# Indices 1 2 3 4 5 6 
#
# 1 77.3570 -3.1616 10.9593 0.0000 0.0000 0.0000
# 2 -3.1616 41.7019 11.6911 0.0000 0.0000 0.0000
# 3 10.9593 11.6911 89.3490 0.0000 0.0000 0.0000
# 4 0.0000 0.0000 0.0000 40.1644 0.0000 0.0000
# 5 0.0000 0.0000 0.0000 0.0000 21.9410 0.0000
# 6 0.0000 0.0000 0.0000 0.0000 0.0000 51.6163
#
#
#
# Elastic Compliance Matrix: (Units=1/GPa)
#
#
# Indices 1 2 3 4 5 6 
#
# 1 0.013247 0.001515 -0.001823 0.000000 0.000000 0.000000
# 2 0.001515 0.025066 -0.003466 0.000000 0.000000 0.000000
# 3 -0.001823 -0.003466 0.011869 0.000000 0.000000 0.000000
# 4 0.000000 0.000000 0.000000 0.024898 0.000000 0.000000
# 5 0.000000 0.000000 0.000000 0.000000 0.045577 0.000000
# 6 0.000000 0.000000 0.000000 0.000000 0.000000 0.019374
#
#
# Mechanical properties :
#
#
# Convention : Reuss Voigt Hill
#
# Bulk Modulus (GPa) = 23.45445 27.48726 25.47086
# Shear Modulus (GPa) = 30.90430 35.33893 33.12162
#
# Velocity S-wave (km/s) = 3.67022 3.92473 3.79961
# Velocity P-wave (km/s) = 5.30886 5.70255 5.50923
#
# Compressibility (1/GPa) = 0.04263583
#
# Stress axis : x y z
#
# Youngs Moduli (GPa) = 75.48701 39.89430 84.25189
#
# Poissons Ratio (x) = -0.06046 0.15361
# Poissons Ratio (y) = -0.11440 0.29199
# Poissons Ratio (z) = 0.13763 0.13826
#
# Static dielectric constant tensor:
#      x y z
#    x 4.458710 0.000000 0.000000 
#    y 0.000000 4.206600 0.000000 
#    z 0.000000 0.000000 3.762490 
# 
# 
# High freq. dielectric constant tensor:
#      x y z
#    x 1.925710 0.000000 0.000000 
#    y 0.000000 1.926700 0.000000 
#    z 0.000000 0.000000 1.870480 
# 
# From -- ./inp_files/3016.got.cif
#   From: 2010.03.12/outbox.cif.g09.slc.cpg/sg32_2_cif.got.tgz:3016.got - 2010.04.14 01:46:39.
