data_PCOD8170559
_publ_section_title
;
Structure prediction by ZEFSAII (Michael W. Deem and Ramdas Pophale) SiO2 
 PCOD8170559
Probable space group: P B A 2
;
_chemical_formula_sum "Si O2"
_cell_formula_units_Z 32
_cell_length_a 30.255748
_cell_length_b 8.445552
_cell_length_c 5.165053
_cell_angle_alpha 90.000000
_cell_angle_beta 90.000000
_cell_angle_gamma 90.000000
_cell_volume 1319.807879
_symmetry_space_group_name_H-M "P B A 2"
_symmetry_group_IT_number 32
_symmetry_cell_setting 'orthorhombic'
loop_
_space_group_symop_operation_xyz
x,y,z
-x,-y,z
1/2-x,1/2+y,z
1/2+x,1/2-y,z
loop_
_atom_site_type_symbol
_atom_site_label
_atom_site_fract_x
_atom_site_fract_y
_atom_site_fract_z
Si Si1 0.376214 0.972721 0.239770
Si Si2 0.683023 0.239971 0.573396
Si Si3 0.242432 0.760279 0.239037
Si Si4 0.373239 0.514611 0.843828
Si Si5 0.531278 0.352027 0.778586
Si Si6 0.645335 0.688465 0.355135
Si Si7 0.292016 0.004991 0.937707
Si Si8 0.029760 0.350072 0.255629
O O1 0.358176 0.828427 0.414522
O O2 0.423860 0.916758 0.148717
O O3 0.380043 0.143947 0.378842
O O4 0.344673 0.004111 0.993697
O O5 0.719311 0.335490 0.401255
O O6 0.664579 0.349535 0.807205
O O7 0.712532 0.089271 0.672565
O O8 0.197369 0.778277 0.402711
O O9 0.265983 0.924531 0.175680
O O10 0.229294 0.679622 0.959097
O O11 0.420867 0.592851 0.880825
O O12 0.374895 0.415446 0.581295
O O13 0.361554 0.404614 0.086031
O O14 0.500000 0.500000 0.719303
O O15 0.534921 0.251327 0.516457
O O16 0.510010 0.251836 0.016522
O O17 0.000000 0.500000 0.322939
#
# Coordination Sequence:
#
# PCOD8170559 Si02
#       8
#     4   4   4   4   4   4   4   4
#     4  10  25  46  69 105 142 188 245 293 370 429
#     4  11  24  44  74  95 142 197 240 301 368 434
#     4  10  24  42  61 106 135 188 250 298 358 425
#     4  12  27  47  75 104 148 195 243 296 380 438
#     4  12  28  50  78 114 152 189 247 306 375 446
#     4  11  28  44  71 107 146 193 244 307 353 438
#     4  10  23  40  69  92 142 182 241 299 356 423
#     4  12  27  49  80 111 148 193 243 301 372 451
#
# _framework density 24.245954000000001
#
# number of rings (size 3 to 8) (size 9 to 14) (size 15 to 20)
#    0.000    1.000    1.250    3.000   14.000    2.000 
#    0.000    0.000    0.000    0.000    0.000    0.000 
#    0.000    0.000    0.000    0.000    0.000    0.000 
#
# Total GULP energy -396645.825578 kJ/mol
# GULP energy per Si atom -12395.182049 kJ/mol
# Density = 2.419077 g / cm^3
# Si number density = 24.245954 Si / 1000 Ang^3
#
#
#
# Elastic Constant Matrix: (Units=GPa)
#
#
# Indices 1 2 3 4 5 6 
#
# 1 112.2731 45.4198 22.2306 0.0000 0.0000 0.0000
# 2 45.4198 103.7214 26.6541 0.0000 0.0000 0.0000
# 3 22.2306 26.6541 99.2668 0.0000 0.0000 0.0000
# 4 0.0000 0.0000 0.0000 45.1073 0.0000 0.0000
# 5 0.0000 0.0000 0.0000 0.0000 19.5895 0.0000
# 6 0.0000 0.0000 0.0000 0.0000 0.0000 32.3857
#
#
#
# Elastic Compliance Matrix: (Units=1/GPa)
#
#
# Indices 1 2 3 4 5 6 
#
# 1 0.010968 -0.004481 -0.001253 0.000000 0.000000 0.000000
# 2 -0.004481 0.012186 -0.002269 0.000000 0.000000 0.000000
# 3 -0.001253 -0.002269 0.010964 0.000000 0.000000 0.000000
# 4 0.000000 0.000000 0.000000 0.022169 0.000000 0.000000
# 5 0.000000 0.000000 0.000000 0.000000 0.051048 0.000000
# 6 0.000000 0.000000 0.000000 0.000000 0.000000 0.030878
#
#
# Mechanical properties :
#
#
# Convention : Reuss Voigt Hill
#
# Bulk Modulus (GPa) = 55.21010 55.98560 55.59785
# Shear Modulus (GPa) = 31.20027 34.14697 32.67362
#
# Velocity S-wave (km/s) = 3.59112 3.75688 3.67494
# Velocity P-wave (km/s) = 6.32576 6.47763 6.40214
#
# Compressibility (1/GPa) = 0.01811263
#
# Stress axis : x y z
#
# Youngs Moduli (GPa) = 91.17735 82.05909 91.21047
#
# Poissons Ratio (x) = 0.36769 0.11429
# Poissons Ratio (y) = 0.40854 0.20693
# Poissons Ratio (z) = 0.11425 0.18617
#
# Static dielectric constant tensor:
#      x y z
#    x 4.314260 0.000000 0.000000 
#    y 0.000000 4.747070 0.000000 
#    z 0.000000 0.000000 4.110700 
# 
# 
# High freq. dielectric constant tensor:
#      x y z
#    x 1.957580 0.000000 0.000000 
#    y 0.000000 1.979760 0.000000 
#    z 0.000000 0.000000 1.959750 
# 
# From -- ./inp_files/1819.got.cif
#   From: 2010.03.12/outbox.cif.g09.slc.cpg/sg32_1_cif.got.tgz:1819.got - 2010.04.14 01:46:39.
