data_PCOD8170857
_publ_section_title
;
Structure prediction by ZEFSAII (Michael W. Deem and Ramdas Pophale) SiO2 
 PCOD8170857
Probable space group: P N A 21
;
_chemical_formula_sum "Si O2"
_cell_formula_units_Z 32
_cell_length_a 18.090143
_cell_length_b 5.112671
_cell_length_c 13.653555
_cell_angle_alpha 90.000000
_cell_angle_beta 90.000000
_cell_angle_gamma 90.000000
_cell_volume 1262.802959
_symmetry_space_group_name_H-M "P N A 21"
_symmetry_group_IT_number 33
_symmetry_cell_setting 'orthorhombic'
loop_
_space_group_symop_operation_xyz
x,y,z
-x,-y,1/2+z
1/2-x,1/2+y,1/2+z
1/2+x,1/2-y,z
loop_
_atom_site_type_symbol
_atom_site_label
_atom_site_fract_x
_atom_site_fract_y
_atom_site_fract_z
Si Si1 0.069885 0.047139 0.500000
Si Si2 0.127074 0.810491 0.909889
Si Si3 0.128196 0.984328 0.701978
Si Si4 0.624425 0.551389 0.118011
Si Si5 0.773687 0.522903 0.195896
Si Si6 0.708324 0.330961 0.377432
Si Si7 0.598193 0.063395 0.239728
Si Si8 0.501067 0.045614 0.910894
O O1 0.066638 0.973103 0.615941
O O2 0.154949 0.042688 0.459817
O O3 0.019818 0.836945 0.443109
O O4 0.038073 0.336078 0.483154
O O5 0.098669 0.977022 0.814499
O O6 0.215491 0.784335 0.920942
O O7 0.089088 0.520324 0.908045
O O8 0.095531 0.958713 0.006227
O O9 0.184056 0.747744 0.694276
O O10 0.169850 0.249111 0.676933
O O11 0.712472 0.503076 0.111614
O O12 0.582662 0.330424 0.180077
O O13 0.613519 0.837483 0.162780
O O14 0.730890 0.558300 0.300018
O O15 0.665757 0.103586 0.316339
O O16 0.524566 0.996019 0.299083
#
# Coordination Sequence:
#
# PCOD8170857 Si02
#       8
#     4   4   4   4   4   4   4   4
#     4  11  24  46  69  91 128 181 217 249 319 403
#     4  11  26  41  65 102 134 162 214 279 321 361
#     4  11  24  40  62  93 133 170 211 263 321 380
#     4  11  22  39  65  94 127 169 213 263 322 380
#     4  10  20  37  62  96 128 164 212 266 320 373
#     4   9  21  41  69  97 128 168 216 265 315 381
#     4  10  22  44  67  89 126 175 215 252 319 403
#     4  11  25  44  67  96 128 169 218 267 321 381
#
# _framework density 25.340453
#
# number of rings (size 3 to 8) (size 9 to 14) (size 15 to 20)
#    0.000    1.500    0.000    6.000    0.000   11.000 
#    0.000    0.000    0.000    0.000    0.000    0.000 
#    0.000    0.000    0.000    0.000    0.000    0.000 
#
# Total GULP energy -396673.959452 kJ/mol
# GULP energy per Si atom -12396.061233 kJ/mol
# Density = 2.528278 g / cm^3
# Si number density = 25.340453 Si / 1000 Ang^3
#
#
#
# Elastic Constant Matrix: (Units=GPa)
#
#
# Indices 1 2 3 4 5 6 
#
# 1 63.0617 2.4103 17.4397 0.0000 0.0000 0.0000
# 2 2.4103 109.9181 26.2794 0.0000 0.0000 0.0000
# 3 17.4397 26.2794 169.8398 0.0000 0.0000 0.0000
# 4 0.0000 0.0000 0.0000 25.6248 0.0000 0.0000
# 5 0.0000 0.0000 0.0000 0.0000 25.1866 0.0000
# 6 0.0000 0.0000 0.0000 0.0000 0.0000 22.6644
#
#
#
# Elastic Compliance Matrix: (Units=1/GPa)
#
#
# Indices 1 2 3 4 5 6 
#
# 1 0.016321 0.000044 -0.001683 0.000000 0.000000 0.000000
# 2 0.000044 0.009447 -0.001466 0.000000 0.000000 0.000000
# 3 -0.001683 -0.001466 0.006288 0.000000 0.000000 0.000000
# 4 0.000000 0.000000 0.000000 0.039025 0.000000 0.000000
# 5 0.000000 0.000000 0.000000 0.000000 0.039704 0.000000
# 6 0.000000 0.000000 0.000000 0.000000 0.000000 0.044122
#
#
# Mechanical properties :
#
#
# Convention : Reuss Voigt Hill
#
# Bulk Modulus (GPa) = 38.68974 48.34203 43.51588
# Shear Modulus (GPa) = 29.45834 34.47453 31.96643
#
# Velocity S-wave (km/s) = 3.41325 3.69243 3.55558
# Velocity P-wave (km/s) = 5.55291 6.10714 5.83661
#
# Compressibility (1/GPa) = 0.02584665
#
# Stress axis : x y z
#
# Youngs Moduli (GPa) = 61.27012 105.85051 159.04366
#
# Poissons Ratio (x) = -0.00470 0.26764
# Poissons Ratio (y) = -0.00272 0.23321
# Poissons Ratio (z) = 0.10310 0.15521
#
# Static dielectric constant tensor:
#      x y z
#    x 4.700690 0.000000 0.000000 
#    y 0.000000 4.294130 0.000000 
#    z 0.000000 0.000000 5.024990 
# 
# 
# High freq. dielectric constant tensor:
#      x y z
#    x 2.016650 0.000000 0.000000 
#    y 0.000000 2.003320 0.000000 
#    z 0.000000 0.000000 2.017450 
# 
# From -- ./inp_files/8281.got.cif
#   From: 2010.03.12/outbox.cif.g09.slc.cpg/sg33_5_cif.got.tgz:8281.got - 2010.04.14 01:49:19.
