data_PCOD8170076
_publ_section_title
;
Structure prediction by ZEFSAII (Michael W. Deem and Ramdas Pophale) SiO2 
 PCOD8170076
Probable space group: P M N 21
;
_chemical_formula_sum "Si O2"
_cell_formula_units_Z 32
_cell_length_a 9.329186
_cell_length_b 14.355722
_cell_length_c 13.943292
_cell_angle_alpha 90.000000
_cell_angle_beta 90.000000
_cell_angle_gamma 90.000000
_cell_volume 1867.386066
_symmetry_space_group_name_H-M "P M N 21"
_symmetry_group_IT_number 31
_symmetry_cell_setting 'orthorhombic'
loop_
_space_group_symop_operation_xyz
x,y,z
1/2-x,-y,1/2+z
-x,y,z
1/2+x,-y,1/2+z
loop_
_atom_site_type_symbol
_atom_site_label
_atom_site_fract_x
_atom_site_fract_y
_atom_site_fract_z
Si Si1 0.831214 0.144051 0.594480
Si Si2 0.667062 0.335909 0.597876
Si Si3 0.834948 0.014169 0.767568
Si Si4 0.338219 0.477493 0.757606
Si Si5 0.166834 0.133143 0.157118
Si Si6 0.165786 0.587874 0.892985
Si Si7 0.338852 0.679720 0.744860
Si Si8 0.832975 0.009133 0.984468
O O1 0.764306 0.245715 0.591318
O O2 0.759565 0.081172 0.512059
O O3 0.000000 0.150255 0.574696
O O4 0.796317 0.100803 0.698963
O O5 0.500000 0.307699 0.605572
O O6 0.718841 0.394990 0.690115
O O7 0.692127 0.401288 0.505722
O O8 0.745484 0.923476 0.740267
O O9 0.797559 0.041426 0.876668
O O10 0.000000 0.986800 0.755815
O O11 0.500000 0.455412 0.790979
O O12 0.240549 0.492269 0.853150
O O13 0.334301 0.575913 0.697657
O O14 0.210298 0.241957 0.168280
O O15 0.000000 0.117065 0.173060
O O16 0.211916 0.096116 0.052079
O O17 0.235490 0.677718 0.838559
O O18 0.000000 0.583236 0.866566
O O19 0.500000 0.702860 0.780505
O O20 0.000000 0.983201 0.996673
#
# Coordination Sequence:
#
# PCOD8170076 Si02
#       8
#     4   4   4   4   4   4   4   4
#     4  10  21  34  50  77 105 133 171 214 254 296
#     4  10  20  35  54  75 103 139 171 204 251 306
#     4   9  19  34  49  70 102 133 164 208 256 294
#     4   8  17  34  51  70 100 132 162 203 251 299
#     4   9  17  30  50  73  95 126 167 203 246 301
#     4   9  18  31  50  76  99 124 164 206 246 292
#     4   8  16  31  49  70  96 125 158 201 247 294
#     4   9  18  33  51  71  98 134 169 205 251 306
#
# _framework density 17.136253
#
# number of rings (size 3 to 8) (size 9 to 14) (size 15 to 20)
#    0.750    2.250    0.000    0.375    1.750    3.000 
#    0.000    1.250    0.000    4.500    0.000    0.000 
#    0.000    0.000    0.000    0.000    0.000    0.000 
#
# Total GULP energy -396507.942473 kJ/mol
# GULP energy per Si atom -12390.873202 kJ/mol
# Density = 1.709725 g / cm^3
# Si number density = 17.136253 Si / 1000 Ang^3
#
#
#
# Elastic Constant Matrix: (Units=GPa)
#
#
# Indices 1 2 3 4 5 6 
#
# 1 63.5384 26.2667 34.0080 0.0000 0.0000 0.0000
# 2 26.2667 45.3120 16.4666 0.0000 0.0000 0.0000
# 3 34.0080 16.4666 81.4200 0.0000 0.0000 0.0000
# 4 0.0000 0.0000 0.0000 19.4690 0.0000 0.0000
# 5 0.0000 0.0000 0.0000 0.0000 24.8207 0.0000
# 6 0.0000 0.0000 0.0000 0.0000 0.0000 19.0545
#
#
#
# Elastic Compliance Matrix: (Units=1/GPa)
#
#
# Indices 1 2 3 4 5 6 
#
# 1 0.024765 -0.011437 -0.008031 0.000000 0.000000 0.000000
# 2 -0.011437 0.029102 -0.001108 0.000000 0.000000 0.000000
# 3 -0.008031 -0.001108 0.015861 0.000000 0.000000 0.000000
# 4 0.000000 0.000000 0.000000 0.051364 0.000000 0.000000
# 5 0.000000 0.000000 0.000000 0.000000 0.040289 0.000000
# 6 0.000000 0.000000 0.000000 0.000000 0.000000 0.052481
#
#
# Mechanical properties :
#
#
# Convention : Reuss Voigt Hill
#
# Bulk Modulus (GPa) = 34.99660 38.19478 36.59569
# Shear Modulus (GPa) = 18.90073 20.23744 19.56908
#
# Velocity S-wave (km/s) = 3.32470 3.44026 3.38297
# Velocity P-wave (km/s) = 5.93338 6.17396 6.05487
#
# Compressibility (1/GPa) = 0.02857421
#
# Stress axis : x y z
#
# Youngs Moduli (GPa) = 40.37929 34.36175 63.04942
#
# Poissons Ratio (x) = 0.39301 0.50634
# Poissons Ratio (y) = 0.46184 0.06989
# Poissons Ratio (z) = 0.32428 0.03809
#
# Static dielectric constant tensor:
#      x y z
#    x 3.216880 0.000000 0.000000 
#    y 0.000000 3.114120 0.000000 
#    z 0.000000 0.000000 3.153790 
# 
# 
# High freq. dielectric constant tensor:
#      x y z
#    x 1.663810 0.000000 0.000000 
#    y 0.000000 1.646310 0.000000 
#    z 0.000000 0.000000 1.647510 
# 
# From -- ./inp_files/5128.got.cif
#   From: 2010.03.12/outbox.cif.g09.slc.cpg/sg31_3_cif.got.tgz:5128.got - 2010.04.14 01:42:59.
