data_PCOD8170268
_publ_section_title
;
Structure prediction by ZEFSAII (Michael W. Deem and Ramdas Pophale) SiO2 
 PCOD8170268
Probable space group: P M N 21
;
_chemical_formula_sum "Si O2"
_cell_formula_units_Z 16
_cell_length_a 18.762024
_cell_length_b 4.900355
_cell_length_c 8.034470
_cell_angle_alpha 90.000000
_cell_angle_beta 90.000000
_cell_angle_gamma 90.000000
_cell_volume 738.693817
_symmetry_space_group_name_H-M "P M N 21"
_symmetry_group_IT_number 31
_symmetry_cell_setting 'orthorhombic'
loop_
_space_group_symop_operation_xyz
x,y,z
1/2-x,-y,1/2+z
-x,y,z
1/2+x,-y,1/2+z
loop_
_atom_site_type_symbol
_atom_site_label
_atom_site_fract_x
_atom_site_fract_y
_atom_site_fract_z
Si Si1 0.920245 0.041594 0.401870
Si Si2 0.289392 0.638453 0.481851
Si Si3 0.579424 0.449549 0.677523
Si Si4 0.711396 0.862939 0.111511
O O1 0.920586 0.343486 0.330177
O O2 0.866608 0.031126 0.557244
O O3 0.000000 0.958775 0.462698
O O4 0.894637 0.837090 0.255443
O O5 0.368192 0.538766 0.530561
O O6 0.290486 0.751768 0.296866
O O7 0.236604 0.379506 0.489169
O O8 0.264379 0.878641 0.605563
O O9 0.500000 0.423558 0.600081
#
# Coordination Sequence:
#
# PCOD8170268 Si02
#       4
#     4   4   4   4
#     4  10  21  39  62  87 119 157 196 242 298 356
#     4  12  24  39  61  89 122 158 201 249 297 353
#     4  10  21  39  62  87 119 157 196 242 298 356
#     4  12  24  39  61  89 122 158 201 249 297 353
#
# _framework density 21.659853999999999
#
# number of rings (size 3 to 8) (size 9 to 14) (size 15 to 20)
#    0.000    1.000    0.000    9.000    0.000    1.000 
#    0.000    0.000    0.000   15.000    0.000    0.000 
#    0.000    0.000    0.000    0.000    0.000    0.000 
#
# Total GULP energy -198472.133080 kJ/mol
# GULP energy per Si atom -12404.508318 kJ/mol
# Density = 2.161055 g / cm^3
# Si number density = 21.659854 Si / 1000 Ang^3
#
#
#
# Elastic Constant Matrix: (Units=GPa)
#
#
# Indices 1 2 3 4 5 6 
#
# 1 145.9387 53.2411 68.4588 0.0000 0.0000 0.0000
# 2 53.2411 109.2005 20.3147 0.0000 0.0000 0.0000
# 3 68.4588 20.3147 87.7528 0.0000 0.0000 0.0000
# 4 0.0000 0.0000 0.0000 35.6681 0.0000 0.0000
# 5 0.0000 0.0000 0.0000 0.0000 27.1612 0.0000
# 6 0.0000 0.0000 0.0000 0.0000 0.0000 33.3629
#
#
#
# Elastic Compliance Matrix: (Units=1/GPa)
#
#
# Indices 1 2 3 4 5 6 
#
# 1 0.012634 -0.004521 -0.008810 0.000000 0.000000 0.000000
# 2 -0.004521 0.011187 0.000937 0.000000 0.000000 0.000000
# 3 -0.008810 0.000937 0.018051 0.000000 0.000000 0.000000
# 4 0.000000 0.000000 0.000000 0.028036 0.000000 0.000000
# 5 0.000000 0.000000 0.000000 0.000000 0.036817 0.000000
# 6 0.000000 0.000000 0.000000 0.000000 0.000000 0.029973
#
#
# Mechanical properties :
#
#
# Convention : Reuss Voigt Hill
#
# Bulk Modulus (GPa) = 58.52822 69.65792 64.09307
# Shear Modulus (GPa) = 29.90753 32.63025 31.26889
#
# Velocity S-wave (km/s) = 3.71992 3.88556 3.80364
# Velocity P-wave (km/s) = 6.74763 7.23601 6.99608
#
# Compressibility (1/GPa) = 0.01708578
#
# Stress axis : x y z
#
# Youngs Moduli (GPa) = 79.15130 89.38680 55.39740
#
# Poissons Ratio (x) = 0.40411 0.48803
# Poissons Ratio (y) = 0.35784 -0.05191
# Poissons Ratio (z) = 0.69729 -0.08376
#
# Static dielectric constant tensor:
#      x y z
#    x 4.280880 0.000000 0.000000 
#    y 0.000000 4.307200 0.000000 
#    z 0.000000 0.000000 3.372150 
# 
# 
# High freq. dielectric constant tensor:
#      x y z
#    x 1.866910 0.000000 0.000000 
#    y 0.000000 1.877100 0.000000 
#    z 0.000000 0.000000 1.816900 
# 
# From -- ./inp_files/2646.got.cif
#   From: 2010.03.12/outbox.cif.g09.slc.cpg/sg31_2_cif.got.tgz:2646.got - 2010.04.14 01:42:59.
