data_PCOD8170643
_publ_section_title
;
Structure prediction by ZEFSAII (Michael W. Deem and Ramdas Pophale) SiO2 
 PCOD8170643
Probable space group: P N A 21
;
_chemical_formula_sum "Si O2"
_cell_formula_units_Z 28
_cell_length_a 5.261584
_cell_length_b 6.790204
_cell_length_c 33.005759
_cell_angle_alpha 90.000000
_cell_angle_beta 90.000000
_cell_angle_gamma 90.000000
_cell_volume 1179.204301
_symmetry_space_group_name_H-M "P N A 21"
_symmetry_group_IT_number 33
_symmetry_cell_setting 'orthorhombic'
loop_
_space_group_symop_operation_xyz
x,y,z
-x,-y,1/2+z
1/2-x,1/2+y,1/2+z
1/2+x,1/2-y,z
loop_
_atom_site_type_symbol
_atom_site_label
_atom_site_fract_x
_atom_site_fract_y
_atom_site_fract_z
Si Si1 0.542485 0.036994 0.476360
Si Si2 0.959630 0.622815 0.393080
Si Si3 0.513486 0.381677 0.098299
Si Si4 0.542888 0.473890 0.510787
Si Si5 0.966431 0.518708 0.218355
Si Si6 0.036605 0.627658 0.305431
Si Si7 0.466848 0.537998 0.183894
O O1 0.585295 0.252809 0.494613
O O2 0.805253 0.923821 0.487595
O O3 0.309509 0.921897 0.498380
O O4 0.500235 0.040640 0.427892
O O5 0.675546 0.709139 0.397351
O O6 0.991791 0.519457 0.348772
O O7 0.285639 0.224916 0.099425
O O8 0.496270 0.518403 0.058753
O O9 0.493086 0.535382 0.135393
O O10 0.988775 0.489596 0.266759
O O11 0.704139 0.419455 0.203644
O O12 0.945479 0.745062 0.202906
O O13 0.210264 0.421084 0.196627
O O14 0.828488 0.802267 0.302878
#
# Coordination Sequence:
#
# PCOD8170643 Si02
#       7
#     4   4   4   4   4   4   4
#     4  10  21  39  59  89 112 159 195 241 297 356
#     4  10  21  32  55  89 126 154 190 245 296 338
#     4  12  26  42  57  86 116 154 203 253 311 351
#     4  10  23  40  63  80 115 157 198 253 294 362
#     4  10  17  32  57  88 110 147 193 233 291 338
#     4  10  16  30  50  86 123 148 190 240 281 330
#     4  10  20  33  57  84 114 147 187 247 284 353
#
# _framework density 23.744821999999999
#
# number of rings (size 3 to 8) (size 9 to 14) (size 15 to 20)
#    0.000    1.714    2.857    2.571    0.000    8.000 
#    0.000    0.000    0.000    0.000   22.286    0.000 
#    0.000    0.000    0.000    0.000    0.000    0.000 
#
# Total GULP energy -346893.684881 kJ/mol
# GULP energy per Si atom -12389.060174 kJ/mol
# Density = 2.369078 g / cm^3
# Si number density = 23.744822 Si / 1000 Ang^3
#
#
#
# Elastic Constant Matrix: (Units=GPa)
#
#
# Indices 1 2 3 4 5 6 
#
# 1 189.9888 -25.6324 0.6308 0.0000 0.0000 0.0000
# 2 -25.6324 43.6601 5.6755 0.0000 0.0000 0.0000
# 3 0.6308 5.6755 179.5843 0.0000 0.0000 0.0000
# 4 0.0000 0.0000 0.0000 21.5647 0.0000 0.0000
# 5 0.0000 0.0000 0.0000 0.0000 40.7671 0.0000
# 6 0.0000 0.0000 0.0000 0.0000 0.0000 -13.4449
#
#
#
# Elastic Compliance Matrix: (Units=1/GPa)
#
#
# Indices 1 2 3 4 5 6 
#
# 1 0.005719 0.003374 -0.000127 0.000000 0.000000 0.000000
# 2 0.003374 0.024989 -0.000802 0.000000 0.000000 0.000000
# 3 -0.000127 -0.000802 0.005594 0.000000 0.000000 0.000000
# 4 0.000000 0.000000 0.000000 0.046372 0.000000 0.000000
# 5 0.000000 0.000000 0.000000 0.000000 0.024530 0.000000
# 6 0.000000 0.000000 0.000000 0.000000 0.000000 -0.074377
#
#
# Mechanical properties :
#
#
# Convention : Reuss Voigt Hill
#
# Bulk Modulus (GPa) = 24.27528 41.62011 32.94769
# Shear Modulus (GPa) = 119.99997 38.61466 79.30732
#
# Velocity S-wave (km/s) = 7.11667 4.03704 5.78553
# Velocity P-wave (km/s) = 8.81901 6.26868 7.65086
#
# Compressibility (1/GPa) = 0.04119418
#
# Stress axis : x y z
#
# Youngs Moduli (GPa) = 174.85244 40.01710 178.75670
#
# Poissons Ratio (x) = -0.13502 0.02265
# Poissons Ratio (y) = -0.58997 0.14329
# Poissons Ratio (z) = 0.02216 0.03208
#
# Static dielectric constant tensor:
#      x y z
#    x 6.768370 0.000000 0.000000 
#    y 0.000000 3.760830 0.000000 
#    z 0.000000 0.000000 4.610520 
# 
# 
# High freq. dielectric constant tensor:
#      x y z
#    x 1.988320 0.000000 0.000000 
#    y 0.000000 1.884290 0.000000 
#    z 0.000000 0.000000 1.955090 
# 
# From -- ./inp_files/9328.got.cif
#   From: 2010.03.12/outbox.cif.g09.slc.cpg/sg33_5_cif.got.tgz:9328.got - 2010.04.14 01:49:19.
