data_PCOD8170147
_publ_section_title
;
Structure prediction by ZEFSAII (Michael W. Deem and Ramdas Pophale) SiO2 
 PCOD8170147
Probable space group: P M N 21
;
_chemical_formula_sum "Si O2"
_cell_formula_units_Z 32
_cell_length_a 8.787738
_cell_length_b 16.430460
_cell_length_c 10.258831
_cell_angle_alpha 90.000000
_cell_angle_beta 90.000000
_cell_angle_gamma 90.000000
_cell_volume 1481.237499
_symmetry_space_group_name_H-M "P M N 21"
_symmetry_group_IT_number 31
_symmetry_cell_setting 'orthorhombic'
loop_
_space_group_symop_operation_xyz
x,y,z
1/2-x,-y,1/2+z
-x,y,z
1/2+x,-y,1/2+z
loop_
_atom_site_type_symbol
_atom_site_label
_atom_site_fract_x
_atom_site_fract_y
_atom_site_fract_z
Si Si1 0.177099 0.340915 0.628840
Si Si2 0.822866 0.820923 0.129742
Si Si3 0.675743 0.069302 0.870194
Si Si4 0.820811 0.491189 0.203178
Si Si5 0.678715 0.819103 0.582174
Si Si6 0.331218 0.344191 0.097214
Si Si7 0.321481 0.880792 0.865587
Si Si8 0.168611 0.622846 0.879234
O O1 0.234137 0.256759 0.691861
O O2 0.273065 0.416617 0.680690
O O3 0.216296 0.332081 0.475911
O O4 0.000000 0.354926 0.654674
O O5 0.788265 0.894987 0.226998
O O6 0.000000 0.799143 0.122079
O O7 0.767471 0.840176 0.984525
O O8 0.500000 0.082798 0.906239
O O9 0.720908 0.975587 0.863291
O O10 0.774632 0.110844 0.982221
O O11 0.762105 0.429850 0.086927
O O12 0.741862 0.464338 0.339057
O O13 0.000000 0.483432 0.215159
O O14 0.500000 0.808504 0.578444
O O15 0.749834 0.733312 0.532424
O O16 0.731973 0.843014 0.727844
O O17 0.500000 0.356074 0.035924
O O18 0.344233 0.321499 0.250830
O O19 0.500000 0.866956 0.888363
O O20 0.000000 0.608373 0.941227
#
# Coordination Sequence:
#
# PCOD8170147 Si02
#       8
#     4   4   4   4   4   4   4   4
#     4  12  23  38  60  88 123 164 209 260 318 380
#     4  11  24  42  65  95 130 170 215 266 322 388
#     4  10  23  43  63  89 128 167 207 259 324 391
#     4  10  20  37  59  85 118 156 201 254 309 368
#     4  11  22  37  62  93 125 161 210 264 318 382
#     4   9  19  36  57  84 118 154 201 252 306 367
#     4  10  22  41  66  94 124 163 210 262 321 389
#     4   9  19  36  58  84 114 153 205 257 308 371
#
# _framework density 21.603559000000001
#
# number of rings (size 3 to 8) (size 9 to 14) (size 15 to 20)
#    0.750    1.000    0.000    4.875    0.000    5.500 
#    2.250    0.000    0.000    0.000    0.000    0.000 
#    0.000    0.000    0.000    0.000    0.000    0.000 
#
# Total GULP energy -396637.188075 kJ/mol
# GULP energy per Si atom -12394.912127 kJ/mol
# Density = 2.155439 g / cm^3
# Si number density = 21.603559 Si / 1000 Ang^3
#
#
#
# Elastic Constant Matrix: (Units=GPa)
#
#
# Indices 1 2 3 4 5 6 
#
# 1 112.6897 39.3691 19.4733 0.0000 0.0000 0.0000
# 2 39.3691 125.1297 8.2823 0.0000 0.0000 0.0000
# 3 19.4733 8.2823 55.5081 0.0000 0.0000 0.0000
# 4 0.0000 0.0000 0.0000 29.5872 0.0000 0.0000
# 5 0.0000 0.0000 0.0000 0.0000 28.4490 0.0000
# 6 0.0000 0.0000 0.0000 0.0000 0.0000 36.3797
#
#
#
# Elastic Compliance Matrix: (Units=1/GPa)
#
#
# Indices 1 2 3 4 5 6 
#
# 1 0.010512 -0.003094 -0.003226 0.000000 0.000000 0.000000
# 2 -0.003094 0.008982 -0.000255 0.000000 0.000000 0.000000
# 3 -0.003226 -0.000255 0.019185 0.000000 0.000000 0.000000
# 4 0.000000 0.000000 0.000000 0.033798 0.000000 0.000000
# 5 0.000000 0.000000 0.000000 0.000000 0.035151 0.000000
# 6 0.000000 0.000000 0.000000 0.000000 0.000000 0.027488
#
#
# Mechanical properties :
#
#
# Convention : Reuss Voigt Hill
#
# Bulk Modulus (GPa) = 39.17022 47.50855 43.33939
# Shear Modulus (GPa) = 31.89257 33.96336 32.92797
#
# Velocity S-wave (km/s) = 3.84639 3.96930 3.90833
# Velocity P-wave (km/s) = 6.15605 6.56094 6.36172
#
# Compressibility (1/GPa) = 0.02552960
#
# Stress axis : x y z
#
# Youngs Moduli (GPa) = 95.12647 111.33378 52.12343
#
# Poissons Ratio (x) = 0.34446 0.16816
# Poissons Ratio (y) = 0.29431 0.01328
# Poissons Ratio (z) = 0.30690 0.02837
#
# Static dielectric constant tensor:
#      x y z
#    x 3.945150 0.000000 0.000000 
#    y 0.000000 4.046440 0.000000 
#    z 0.000000 0.000000 3.729040 
# 
# 
# High freq. dielectric constant tensor:
#      x y z
#    x 1.851770 0.000000 0.000000 
#    y 0.000000 1.858020 0.000000 
#    z 0.000000 0.000000 1.830220 
# 
# From -- ./inp_files/3745.got.cif
#   From: 2010.03.12/outbox.cif.g09.slc.cpg/sg31_2_cif.got.tgz:3745.got - 2010.04.14 01:42:59.
