data_PCOD8170197
_publ_section_title
;
Structure prediction by ZEFSAII (Michael W. Deem and Ramdas Pophale) SiO2 
 PCOD8170197
Probable space group: P M N 21
;
_chemical_formula_sum "Si O2"
_cell_formula_units_Z 32
_cell_length_a 8.726732
_cell_length_b 11.959013
_cell_length_c 15.159629
_cell_angle_alpha 90.000000
_cell_angle_beta 90.000000
_cell_angle_gamma 90.000000
_cell_volume 1582.105899
_symmetry_space_group_name_H-M "P M N 21"
_symmetry_group_IT_number 31
_symmetry_cell_setting 'orthorhombic'
loop_
_space_group_symop_operation_xyz
x,y,z
1/2-x,-y,1/2+z
-x,y,z
1/2+x,-y,1/2+z
loop_
_atom_site_type_symbol
_atom_site_label
_atom_site_fract_x
_atom_site_fract_y
_atom_site_fract_z
Si Si1 0.676376 0.966251 0.665890
Si Si2 0.681301 0.646055 0.986781
Si Si3 0.171730 0.733769 0.393503
Si Si4 0.678202 0.951413 0.337931
Si Si5 0.818398 0.508586 0.644107
Si Si6 0.173016 0.754497 0.595508
Si Si7 0.821001 0.888819 0.995296
Si Si8 0.319762 0.509316 0.342933
O O1 0.500000 0.977394 0.695004
O O2 0.790126 0.990146 0.745616
O O3 0.715862 0.050475 0.586941
O O4 0.708264 0.839186 0.638895
O O5 0.500000 0.635388 0.983109
O O6 0.746773 0.581651 0.073651
O O7 0.727785 0.774574 0.992000
O O8 0.745953 0.592236 0.897172
O O9 0.233504 0.833963 0.333697
O O10 0.173308 0.778446 0.492296
O O11 0.279396 0.626429 0.387483
O O12 0.000000 0.701341 0.363416
O O13 0.500000 0.925892 0.350465
O O14 0.736894 0.031515 0.416339
O O15 0.764124 0.630882 0.614421
O O16 0.755350 0.486951 0.742646
O O17 0.000000 0.500473 0.643020
O O18 0.000000 0.769963 0.633187
O O19 0.000000 0.862029 0.984754
O O20 0.500000 0.490015 0.343361
#
# Coordination Sequence:
#
# PCOD8170197 Si02
#       8
#     4   4   4   4   4   4   4   4
#     4  11  24  42  63  94 127 157 207 262 309 367
#     4  11  23  42  64  90 124 162 207 256 307 367
#     4  11  22  40  66  93 123 159 209 266 312 362
#     4  11  24  43  65  90 125 168 209 251 312 377
#     4   9  21  41  62  88 121 161 204 247 300 368
#     4  10  20  40  66  88 119 162 206 254 313 370
#     4  10  24  44  62  87 126 166 204 254 310 370
#     4  11  23  40  64  92 125 165 208 252 309 373
#
# _framework density 20.226206999999999
#
# number of rings (size 3 to 8) (size 9 to 14) (size 15 to 20)
#    0.000    1.500    2.500    1.875    3.500    2.500 
#    0.000    2.500    0.000    0.000    0.000    0.000 
#    0.000    0.000    0.000    0.000    0.000    0.000 
#
# Total GULP energy -396922.137270 kJ/mol
# GULP energy per Si atom -12403.816790 kJ/mol
# Density = 2.018017 g / cm^3
# Si number density = 20.226207 Si / 1000 Ang^3
#
#
#
# Elastic Constant Matrix: (Units=GPa)
#
#
# Indices 1 2 3 4 5 6 
#
# 1 54.8895 30.8169 33.4020 0.0000 0.0000 0.0000
# 2 30.8169 113.5687 28.9817 0.0000 0.0000 0.0000
# 3 33.4020 28.9817 102.4294 0.0000 0.0000 0.0000
# 4 0.0000 0.0000 0.0000 28.9724 0.0000 0.0000
# 5 0.0000 0.0000 0.0000 0.0000 29.4108 0.0000
# 6 0.0000 0.0000 0.0000 0.0000 0.0000 32.7734
#
#
#
# Elastic Compliance Matrix: (Units=1/GPa)
#
#
# Indices 1 2 3 4 5 6 
#
# 1 0.025211 -0.005112 -0.006775 0.000000 0.000000 0.000000
# 2 -0.005112 0.010527 -0.001311 0.000000 0.000000 0.000000
# 3 -0.006775 -0.001311 0.012343 0.000000 0.000000 0.000000
# 4 0.000000 0.000000 0.000000 0.034516 0.000000 0.000000
# 5 0.000000 0.000000 0.000000 0.000000 0.034001 0.000000
# 6 0.000000 0.000000 0.000000 0.000000 0.000000 0.030513
#
#
# Mechanical properties :
#
#
# Convention : Reuss Voigt Hill
#
# Bulk Modulus (GPa) = 46.11603 50.80985 48.46294
# Shear Modulus (GPa) = 27.66465 30.07715 28.87090
#
# Velocity S-wave (km/s) = 3.70234 3.86040 3.78219
# Velocity P-wave (km/s) = 6.41296 6.71160 6.56398
#
# Compressibility (1/GPa) = 0.02168443
#
# Stress axis : x y z
#
# Youngs Moduli (GPa) = 39.66478 94.99279 81.01646
#
# Poissons Ratio (x) = 0.48562 0.54888
# Poissons Ratio (y) = 0.20277 0.10625
# Poissons Ratio (z) = 0.26872 0.12458
#
# Static dielectric constant tensor:
#      x y z
#    x 3.513630 0.000000 0.000000 
#    y 0.000000 3.654080 0.000000 
#    z 0.000000 0.000000 3.856670 
# 
# 
# High freq. dielectric constant tensor:
#      x y z
#    x 1.779020 0.000000 0.000000 
#    y 0.000000 1.799850 0.000000 
#    z 0.000000 0.000000 1.797700 
# 
# From -- ./inp_files/4955.got.cif
#   From: 2010.03.12/outbox.cif.g09.slc.cpg/sg31_3_cif.got.tgz:4955.got - 2010.04.14 01:42:59.
