data_PCOD8170023
_publ_section_title
;
Structure prediction by ZEFSAII (Michael W. Deem and Ramdas Pophale) SiO2 
 PCOD8170023
Probable space group: P M N 21
;
_chemical_formula_sum "Si O2"
_cell_formula_units_Z 32
_cell_length_a 14.572025
_cell_length_b 12.040385
_cell_length_c 8.388780
_cell_angle_alpha 90.000000
_cell_angle_beta 90.000000
_cell_angle_gamma 90.000000
_cell_volume 1471.834866
_symmetry_space_group_name_H-M "P M N 21"
_symmetry_group_IT_number 31
_symmetry_cell_setting 'orthorhombic'
loop_
_space_group_symop_operation_xyz
x,y,z
1/2-x,-y,1/2+z
-x,y,z
1/2+x,-y,1/2+z
loop_
_atom_site_type_symbol
_atom_site_label
_atom_site_fract_x
_atom_site_fract_y
_atom_site_fract_z
Si Si1 0.399186 0.323481 0.038030
Si Si2 0.754582 0.659146 0.979131
Si Si3 0.393444 0.767884 0.786104
Si Si4 0.743647 0.954302 0.707151
Si Si5 0.817475 0.487485 0.734543
Si Si6 0.734345 0.160781 0.884692
Si Si7 0.897919 0.306248 0.941934
Si Si8 0.104384 0.819277 0.855929
O O1 0.500000 0.333553 0.961888
O O2 0.367342 0.446908 0.089859
O O3 0.400575 0.248272 0.193325
O O4 0.334588 0.264923 0.906568
O O5 0.659355 0.722541 0.941212
O O6 0.757753 0.570694 0.837011
O O7 0.844121 0.738871 0.982849
O O8 0.748487 0.603978 0.152767
O O9 0.500000 0.783586 0.829216
O O10 0.348443 0.886037 0.744709
O O11 0.378635 0.686335 0.632757
O O12 0.774644 0.927844 0.528080
O O13 0.830430 0.925777 0.824412
O O14 0.717944 0.085226 0.726995
O O15 0.885915 0.426092 0.858067
O O16 0.834363 0.212879 0.864165
O O17 0.000000 0.263342 0.912251
O O18 0.000000 0.850590 0.912228
#
# Coordination Sequence:
#
# PCOD8170023 Si02
#       8
#     4   4   4   4   4   4   4   4
#     4   9  18  33  53  77 107 142 181 223 268 324
#     4  10  20  33  53  81 111 145 185 233 282 335
#     4   9  19  37  56  79 113 149 188 234 285 339
#     4   9  19  34  55  78 106 146 184 227 280 330
#     4  11  20  35  56  80 111 148 186 232 285 337
#     4  10  20  36  55  81 113 144 185 232 279 335
#     4  10  21  37  57  79 108 148 190 233 283 339
#     4   8  16  33  54  75 101 138 182 222 265 323
#
# _framework density 21.741569999999999
#
# number of rings (size 3 to 8) (size 9 to 14) (size 15 to 20)
#    0.000    2.500    0.000    4.125    0.000    4.500 
#    0.000    0.625    0.000    3.750    0.000    0.000 
#    0.000    0.000    0.000    0.000    0.000    0.000 
#
# Total GULP energy -396582.578638 kJ/mol
# GULP energy per Si atom -12393.205582 kJ/mol
# Density = 2.169208 g / cm^3
# Si number density = 21.741570 Si / 1000 Ang^3
#
#
#
# Elastic Constant Matrix: (Units=GPa)
#
#
# Indices 1 2 3 4 5 6 
#
# 1 146.4994 34.8183 23.8330 0.0000 0.0000 0.0000
# 2 34.8183 68.8105 21.3689 0.0000 0.0000 0.0000
# 3 23.8330 21.3689 37.9461 0.0000 0.0000 0.0000
# 4 0.0000 0.0000 0.0000 48.2098 0.0000 0.0000
# 5 0.0000 0.0000 0.0000 0.0000 16.9723 0.0000
# 6 0.0000 0.0000 0.0000 0.0000 0.0000 17.9241
#
#
#
# Elastic Compliance Matrix: (Units=1/GPa)
#
#
# Indices 1 2 3 4 5 6 
#
# 1 0.008099 -0.003052 -0.003368 0.000000 0.000000 0.000000
# 2 -0.003052 0.018763 -0.008649 0.000000 0.000000 0.000000
# 3 -0.003368 -0.008649 0.033339 0.000000 0.000000 0.000000
# 4 0.000000 0.000000 0.000000 0.020743 0.000000 0.000000
# 5 0.000000 0.000000 0.000000 0.000000 0.058920 0.000000
# 6 0.000000 0.000000 0.000000 0.000000 0.000000 0.055791
#
#
# Mechanical properties :
#
#
# Convention : Reuss Voigt Hill
#
# Bulk Modulus (GPa) = 33.26399 45.92184 39.59292
# Shear Modulus (GPa) = 21.20308 28.17028 24.68668
#
# Velocity S-wave (km/s) = 3.12626 3.60347 3.37331
# Velocity P-wave (km/s) = 5.32581 6.20329 5.78123
#
# Compressibility (1/GPa) = 0.03006254
#
# Stress axis : x y z
#
# Youngs Moduli (GPa) = 123.46676 53.29606 29.99471
#
# Poissons Ratio (x) = 0.16268 0.10103
# Poissons Ratio (y) = 0.37686 0.25943
# Poissons Ratio (z) = 0.41585 0.46096
#
# Static dielectric constant tensor:
#      x y z
#    x 4.131910 0.000000 0.000000 
#    y 0.000000 3.915080 0.000000 
#    z 0.000000 0.000000 3.718950 
# 
# 
# High freq. dielectric constant tensor:
#      x y z
#    x 1.846890 0.000000 0.000000 
#    y 0.000000 1.849410 0.000000 
#    z 0.000000 0.000000 1.834800 
# 
# From -- ./inp_files/2580.got.cif
#   From: 2010.03.12/outbox.cif.g09.slc.cpg/sg31_2_cif.got.tgz:2580.got - 2010.04.14 01:42:59.
