data_PCOD8170453
_publ_section_title
;
Structure prediction by ZEFSAII (Michael W. Deem and Ramdas Pophale) SiO2 
 PCOD8170453
Probable space group: P B A 2
;
_chemical_formula_sum "Si O2"
_cell_formula_units_Z 32
_cell_length_a 13.400085
_cell_length_b 16.887245
_cell_length_c 7.407200
_cell_angle_alpha 90.000000
_cell_angle_beta 90.000000
_cell_angle_gamma 90.000000
_cell_volume 1676.179128
_symmetry_space_group_name_H-M "P B A 2"
_symmetry_group_IT_number 32
_symmetry_cell_setting 'orthorhombic'
loop_
_space_group_symop_operation_xyz
x,y,z
-x,-y,z
1/2-x,1/2+y,z
1/2+x,1/2-y,z
loop_
_atom_site_type_symbol
_atom_site_label
_atom_site_fract_x
_atom_site_fract_y
_atom_site_fract_z
Si Si1 0.768203 0.267875 0.617600
Si Si2 0.542654 0.844576 0.778778
Si Si3 0.677581 0.982327 0.924636
Si Si4 0.833666 0.607935 0.226223
Si Si5 0.835036 0.605289 0.627297
Si Si6 0.026450 0.254361 0.117680
Si Si7 0.194096 0.157184 0.958865
Si Si8 0.311026 0.260701 0.219212
O O1 0.880811 0.294355 0.658411
O O2 0.741988 0.177003 0.662408
O O3 0.693019 0.320435 0.743361
O O4 0.758807 0.276893 0.399546
O O5 0.450028 0.872448 0.658726
O O6 0.590287 0.921322 0.874460
O O7 0.500571 0.784792 0.922772
O O8 0.703240 0.035428 0.753352
O O9 0.779142 0.935604 0.978374
O O10 0.641010 0.037834 0.088220
O O11 0.828865 0.571248 0.425050
O O12 0.729068 0.650772 0.179186
O O13 0.915866 0.677514 0.225385
O O14 0.930582 0.230811 0.236694
O O15 0.095178 0.177500 0.073098
O O16 0.286713 0.205805 0.047073
#
# Coordination Sequence:
#
# PCOD8170453 Si02
#       8
#     4   4   4   4   4   4   4   4
#     4  10  20  36  59  83 113 151 193 238 280 337
#     4  11  21  35  60  86 114 145 190 242 280 338
#     4  11  22  37  52  86 119 149 183 235 294 353
#     4  10  23  37  59  82 121 156 183 238 288 347
#     4  11  21  39  58  85 119 153 188 231 295 345
#     4  11  19  38  62  84 109 149 200 240 282 334
#     4  10  21  37  57  84 115 147 190 246 281 341
#     4  10  20  37  60  83 109 154 198 233 286 337
#
# _framework density 19.091038000000001
#
# number of rings (size 3 to 8) (size 9 to 14) (size 15 to 20)
#    0.000    1.500    5.000    1.875    0.000    2.000 
#    4.500    0.625    0.000    0.000    0.000    0.000 
#    0.000    0.000    0.000    0.000    0.000    0.000 
#
# Total GULP energy -396604.880369 kJ/mol
# GULP energy per Si atom -12393.902512 kJ/mol
# Density = 1.904759 g / cm^3
# Si number density = 19.091038 Si / 1000 Ang^3
#
#
#
# Elastic Constant Matrix: (Units=GPa)
#
#
# Indices 1 2 3 4 5 6 
#
# 1 98.6699 53.2944 24.8266 0.0000 0.0000 0.0000
# 2 53.2944 98.0772 40.1769 0.0000 0.0000 0.0000
# 3 24.8266 40.1769 94.5958 0.0000 0.0000 0.0000
# 4 0.0000 0.0000 0.0000 17.0230 0.0000 0.0000
# 5 0.0000 0.0000 0.0000 0.0000 24.9866 0.0000
# 6 0.0000 0.0000 0.0000 0.0000 0.0000 20.3728
#
#
#
# Elastic Compliance Matrix: (Units=1/GPa)
#
#
# Indices 1 2 3 4 5 6 
#
# 1 0.014369 -0.007582 -0.000551 0.000000 0.000000 0.000000
# 2 -0.007582 0.016345 -0.004952 0.000000 0.000000 0.000000
# 3 -0.000551 -0.004952 0.012819 0.000000 0.000000 0.000000
# 4 0.000000 0.000000 0.000000 0.058744 0.000000 0.000000
# 5 0.000000 0.000000 0.000000 0.000000 0.040021 0.000000
# 6 0.000000 0.000000 0.000000 0.000000 0.000000 0.049085
#
#
# Mechanical properties :
#
#
# Convention : Reuss Voigt Hill
#
# Bulk Modulus (GPa) = 57.59515 58.65987 58.12751
# Shear Modulus (GPa) = 22.38732 24.01281 23.20007
#
# Velocity S-wave (km/s) = 3.42813 3.55040 3.48980
# Velocity P-wave (km/s) = 6.77522 6.89929 6.83754
#
# Compressibility (1/GPa) = 0.01736257
#
# Stress axis : x y z
#
# Youngs Moduli (GPa) = 69.59530 61.18156 78.00882
#
# Poissons Ratio (x) = 0.46390 0.04296
# Poissons Ratio (y) = 0.52769 0.38630
# Poissons Ratio (z) = 0.03833 0.30297
#
# Static dielectric constant tensor:
#      x y z
#    x 4.017220 0.000000 0.000000 
#    y 0.000000 3.415480 0.000000 
#    z 0.000000 0.000000 3.679900 
# 
# 
# High freq. dielectric constant tensor:
#      x y z
#    x 1.732540 0.000000 0.000000 
#    y 0.000000 1.723940 0.000000 
#    z 0.000000 0.000000 1.755160 
# 
# From -- ./inp_files/2847.got.cif
#   From: 2010.03.12/outbox.cif.g09.slc.cpg/sg32_2_cif.got.tgz:2847.got - 2010.04.14 01:46:39.
