data_PCOD8170063
_publ_section_title
;
Structure prediction by ZEFSAII (Michael W. Deem and Ramdas Pophale) SiO2 
 PCOD8170063
Probable space group: P M N 21
;
_chemical_formula_sum "Si O2"
_cell_formula_units_Z 32
_cell_length_a 9.076943
_cell_length_b 7.695138
_cell_length_c 23.741185
_cell_angle_alpha 90.000000
_cell_angle_beta 90.000000
_cell_angle_gamma 90.000000
_cell_volume 1658.282101
_symmetry_space_group_name_H-M "P M N 21"
_symmetry_group_IT_number 31
_symmetry_cell_setting 'orthorhombic'
loop_
_space_group_symop_operation_xyz
x,y,z
1/2-x,-y,1/2+z
-x,y,z
1/2+x,-y,1/2+z
loop_
_atom_site_type_symbol
_atom_site_label
_atom_site_fract_x
_atom_site_fract_y
_atom_site_fract_z
Si Si1 0.326001 0.248950 0.068740
Si Si2 0.327919 0.445747 0.765901
Si Si3 0.830894 0.943135 0.003921
Si Si4 0.174830 0.248767 0.188396
Si Si5 0.173518 0.943513 0.271416
Si Si6 0.170138 0.400371 0.505267
Si Si7 0.169969 0.574587 0.391318
Si Si8 0.168491 0.074005 0.883483
O O1 0.500000 0.224779 0.072479
O O2 0.256772 0.239409 0.129937
O O3 0.283043 0.432442 0.041236
O O4 0.261845 0.097441 0.030559
O O5 0.500000 0.447597 0.755099
O O6 0.260034 0.585185 0.722591
O O7 0.267887 0.250006 0.755193
O O8 0.291956 0.504979 0.829946
O O9 0.768662 0.759889 0.026117
O O10 0.000000 0.961532 0.023191
O O11 0.815163 0.945071 0.936311
O O12 0.000000 0.260305 0.179007
O O13 0.217590 0.074910 0.222270
O O14 0.245247 0.004687 0.330144
O O15 0.000000 0.940847 0.281953
O O16 0.201969 0.433156 0.439167
O O17 0.000000 0.353448 0.515214
O O18 0.268618 0.741517 0.403148
O O19 0.000000 0.635969 0.393487
O O20 0.000000 0.099074 0.865783
#
# Coordination Sequence:
#
# PCOD8170063 Si02
#       8
#     4   4   4   4   4   4   4   4
#     4  11  24  43  62  85 119 158 201 248 297 353
#     4   8  16  32  54  82 111 142 187 236 280 336
#     4  11  24  39  59  88 121 159 199 245 301 358
#     4  10  21  37  59  84 112 153 198 241 289 347
#     4   9  19  35  57  83 114 153 196 237 285 347
#     4  10  22  38  61  89 116 154 202 248 298 354
#     4   9  17  34  59  85 116 154 194 240 292 350
#     4  10  20  34  55  86 123 155 189 239 300 353
#
# _framework density 19.297079
#
# number of rings (size 3 to 8) (size 9 to 14) (size 15 to 20)
#    0.000    2.250    1.250    1.875    1.750    4.500 
#    0.000    3.750    0.000    0.000    0.000    0.000 
#    0.000    0.000    0.000    0.000    0.000    0.000 
#
# Total GULP energy -396786.575430 kJ/mol
# GULP energy per Si atom -12399.580482 kJ/mol
# Density = 1.925316 g / cm^3
# Si number density = 19.297079 Si / 1000 Ang^3
#
#
#
# Elastic Constant Matrix: (Units=GPa)
#
#
# Indices 1 2 3 4 5 6 
#
# 1 63.2612 46.0009 44.2145 0.0000 0.0000 0.0000
# 2 46.0009 106.3623 49.3484 0.0000 0.0000 0.0000
# 3 44.2145 49.3484 110.3837 0.0000 0.0000 0.0000
# 4 0.0000 0.0000 0.0000 16.4308 0.0000 0.0000
# 5 0.0000 0.0000 0.0000 0.0000 31.4533 0.0000
# 6 0.0000 0.0000 0.0000 0.0000 0.0000 21.4291
#
#
#
# Elastic Compliance Matrix: (Units=1/GPa)
#
#
# Indices 1 2 3 4 5 6 
#
# 1 0.026747 -0.008324 -0.006992 0.000000 0.000000 0.000000
# 2 -0.008324 0.014453 -0.003127 0.000000 0.000000 0.000000
# 3 -0.006992 -0.003127 0.013258 0.000000 0.000000 0.000000
# 4 0.000000 0.000000 0.000000 0.060861 0.000000 0.000000
# 5 0.000000 0.000000 0.000000 0.000000 0.031793 0.000000
# 6 0.000000 0.000000 0.000000 0.000000 0.000000 0.046666
#
#
# Mechanical properties :
#
#
# Convention : Reuss Voigt Hill
#
# Bulk Modulus (GPa) = 56.91051 62.12609 59.51830
# Shear Modulus (GPa) = 21.13966 23.22552 22.18259
#
# Velocity S-wave (km/s) = 3.31340 3.47302 3.39415
# Velocity P-wave (km/s) = 6.64785 6.95320 6.80224
#
# Compressibility (1/GPa) = 0.01757145
#
# Stress axis : x y z
#
# Youngs Moduli (GPa) = 37.38692 69.19137 75.42505
#
# Poissons Ratio (x) = 0.57593 0.52741
# Poissons Ratio (y) = 0.31120 0.23587
# Poissons Ratio (z) = 0.26143 0.21637
#
# Static dielectric constant tensor:
#      x y z
#    x 3.378280 0.000000 0.000000 
#    y 0.000000 3.619670 0.000000 
#    z 0.000000 0.000000 3.589280 
# 
# 
# High freq. dielectric constant tensor:
#      x y z
#    x 1.735240 0.000000 0.000000 
#    y 0.000000 1.752270 0.000000 
#    z 0.000000 0.000000 1.751540 
# 
# From -- ./inp_files/6498.got.cif
#   From: 2010.03.12/outbox.cif.g09.slc.cpg/sg31_4_cif.got.tgz:6498.got - 2010.04.14 01:42:59.
