data_PCOD8170569
_publ_section_title
;
Structure prediction by ZEFSAII (Michael W. Deem and Ramdas Pophale) SiO2 
 PCOD8170569
Probable space group: P B A 2
;
_chemical_formula_sum "Si O2"
_cell_formula_units_Z 16
_cell_length_a 7.808459
_cell_length_b 16.186736
_cell_length_c 4.881780
_cell_angle_alpha 90.000000
_cell_angle_beta 90.000000
_cell_angle_gamma 90.000000
_cell_volume 617.025087
_symmetry_space_group_name_H-M "P B A 2"
_symmetry_group_IT_number 32
_symmetry_cell_setting 'orthorhombic'
loop_
_space_group_symop_operation_xyz
x,y,z
-x,-y,z
1/2-x,1/2+y,z
1/2+x,1/2-y,z
loop_
_atom_site_type_symbol
_atom_site_label
_atom_site_fract_x
_atom_site_fract_y
_atom_site_fract_z
Si Si1 0.250000 0.930192 0.168190
Si Si2 0.750000 0.457459 0.668403
Si Si3 0.061346 0.161065 0.999567
Si Si4 0.938654 0.338935 0.999567
O O1 0.078808 0.875382 0.211701
O O2 0.250001 0.012025 0.355911
O O3 0.421192 0.875382 0.211701
O O4 0.250001 0.961235 0.856802
O O5 0.917931 0.401003 0.737746
O O6 0.582069 0.401003 0.737747
O O7 1.000000 0.250000 0.890357
O O8 0.250000 0.168466 0.146215
#
# Coordination Sequence:
#
# PCOD8170569 Si02
#       4
#     4   4   4   4
#     4  12  23  52  73 114 157 192 271 320 377 472
#     4  10  27  44  79 114 145 210 255 318 395 448
#     4  10  23  48  79 115 158 208 258 322 398 464
#     4  10  23  48  79 115 158 208 258 322 398 464
#
# _framework density 25.930872999999998
#
# number of rings (size 3 to 8) (size 9 to 14) (size 15 to 20)
#    1.500    0.000    2.500    1.500    0.000    8.000 
#    4.500   15.000    0.000    0.000    0.000    0.000 
#    0.000    0.000    0.000    0.000    0.000    0.000 
#
# Total GULP energy -198218.597114 kJ/mol
# GULP energy per Si atom -12388.662320 kJ/mol
# Density = 2.587185 g / cm^3
# Si number density = 25.930873 Si / 1000 Ang^3
#
#
#
# Elastic Constant Matrix: (Units=GPa)
#
#
# Indices 1 2 3 4 5 6 
#
# 1 246.8647 86.3821 43.8466 0.0000 0.0000 0.0000
# 2 86.3821 150.1420 33.5579 0.0000 0.0000 0.0000
# 3 43.8466 33.5579 56.2543 0.0000 0.0000 0.0000
# 4 0.0000 0.0000 0.0000 32.4097 0.0000 0.0000
# 5 0.0000 0.0000 0.0000 0.0000 14.2400 0.0000
# 6 0.0000 0.0000 0.0000 0.0000 0.0000 64.5269
#
#
#
# Elastic Compliance Matrix: (Units=1/GPa)
#
#
# Indices 1 2 3 4 5 6 
#
# 1 0.005411 -0.002504 -0.002723 0.000000 0.000000 0.000000
# 2 -0.002504 0.008844 -0.003324 0.000000 0.000000 0.000000
# 3 -0.002723 -0.003324 0.021882 0.000000 0.000000 0.000000
# 4 0.000000 0.000000 0.000000 0.030855 0.000000 0.000000
# 5 0.000000 0.000000 0.000000 0.000000 0.070225 0.000000
# 6 0.000000 0.000000 0.000000 0.000000 0.000000 0.015497
#
#
# Mechanical properties :
#
#
# Convention : Reuss Voigt Hill
#
# Bulk Modulus (GPa) = 52.53868 86.75935 69.64901
# Shear Modulus (GPa) = 28.38299 41.53362 34.95831
#
# Velocity S-wave (km/s) = 3.31201 4.00647 3.67568
# Velocity P-wave (km/s) = 5.91024 7.41168 6.70313
#
# Compressibility (1/GPa) = 0.01903360
#
# Stress axis : x y z
#
# Youngs Moduli (GPa) = 184.81437 113.06957 45.69960
#
# Poissons Ratio (x) = 0.28316 0.12446
# Poissons Ratio (y) = 0.46284 0.15190
# Poissons Ratio (z) = 0.50334 0.37583
#
# Static dielectric constant tensor:
#      x y z
#    x 4.967720 0.000000 0.000000 
#    y 0.000000 4.688740 0.000000 
#    z 0.000000 0.000000 3.637110 
# 
# 
# High freq. dielectric constant tensor:
#      x y z
#    x 2.058600 0.000000 0.000000 
#    y 0.000000 2.052260 0.000000 
#    z 0.000000 0.000000 1.967250 
# 
# From -- ./inp_files/360.got.cif
#   From: 2010.03.12/outbox.cif.g09.slc.cpg/sg32_1_cif.got.tgz:360.got - 2010.04.14 01:46:39.
