data_PCOD8170563
_publ_section_title
;
Structure prediction by ZEFSAII (Michael W. Deem and Ramdas Pophale) SiO2 
 PCOD8170563
Probable space group: P B A 2
;
_chemical_formula_sum "Si O2"
_cell_formula_units_Z 22
_cell_length_a 14.555382
_cell_length_b 7.809805
_cell_length_c 8.426169
_cell_angle_alpha 90.000000
_cell_angle_beta 90.000000
_cell_angle_gamma 90.000000
_cell_volume 957.842192
_symmetry_space_group_name_H-M "P B A 2"
_symmetry_group_IT_number 32
_symmetry_cell_setting 'orthorhombic'
loop_
_space_group_symop_operation_xyz
x,y,z
-x,-y,z
1/2-x,1/2+y,z
1/2+x,1/2-y,z
loop_
_atom_site_type_symbol
_atom_site_label
_atom_site_fract_x
_atom_site_fract_y
_atom_site_fract_z
Si Si1 0.845795 0.244178 0.227290
Si Si2 0.941355 0.751045 0.885565
Si Si3 0.861531 0.382958 0.878824
Si Si4 0.500000 0.500000 0.148774
Si Si5 0.291080 0.953874 0.417677
Si Si6 0.308253 0.668248 0.645787
O O1 0.748380 0.162273 0.275934
O O2 0.862543 0.408841 0.342928
O O3 0.928433 0.108865 0.254128
O O4 0.833936 0.300092 0.046322
O O5 0.873724 0.587136 0.904492
O O6 0.894200 0.878079 0.757288
O O7 0.041561 0.697348 0.825478
O O8 0.944137 0.860307 0.046252
O O9 0.786435 0.330108 0.748255
O O10 0.335331 0.850420 0.564233
O O11 0.201759 0.041612 0.498444
#
# Coordination Sequence:
#
# PCOD8170563 Si02
#       6
#     4   4   4   2   4   4
#     4  10  24  44  65 100 136 180 229 287 340 420
#     4  10  23  41  69 103 128 173 235 295 326 407
#     4  10  23  42  72  98 136 176 240 282 343 402
#     4  10  24  44  68 104 134 178 244 288 342 400
#     4  10  24  41  65  99 140 178 224 270 363 415
#     4  11  22  43  68  98 136 185 224 283 346 414
#
# _framework density 22.968294
#
# number of rings (size 3 to 8) (size 9 to 14) (size 15 to 20)
#    0.000    1.818    1.818    0.000   10.182    1.455 
#    6.545    0.000    0.000    0.000    0.000    0.000 
#    0.000    0.000    0.000    0.000    0.000    0.000 
#
# Total GULP energy -272620.512810 kJ/mol
# GULP energy per Si atom -12391.841491 kJ/mol
# Density = 2.291602 g / cm^3
# Si number density = 22.968294 Si / 1000 Ang^3
#
#
#
# Elastic Constant Matrix: (Units=GPa)
#
#
# Indices 1 2 3 4 5 6 
#
# 1 79.3568 20.2348 44.0160 0.0000 0.0000 0.0000
# 2 20.2348 78.7457 23.6865 0.0000 0.0000 0.0000
# 3 44.0160 23.6865 93.1219 0.0000 0.0000 0.0000
# 4 0.0000 0.0000 0.0000 38.6477 0.0000 0.0000
# 5 0.0000 0.0000 0.0000 0.0000 34.4374 0.0000
# 6 0.0000 0.0000 0.0000 0.0000 0.0000 35.1758
#
#
#
# Elastic Compliance Matrix: (Units=1/GPa)
#
#
# Indices 1 2 3 4 5 6 
#
# 1 0.017413 -0.002164 -0.007680 0.000000 0.000000 0.000000
# 2 -0.002164 0.014020 -0.002543 0.000000 0.000000 0.000000
# 3 -0.007680 -0.002543 0.015016 0.000000 0.000000 0.000000
# 4 0.000000 0.000000 0.000000 0.025875 0.000000 0.000000
# 5 0.000000 0.000000 0.000000 0.000000 0.029038 0.000000
# 6 0.000000 0.000000 0.000000 0.000000 0.000000 0.028429
#
#
# Mechanical properties :
#
#
# Convention : Reuss Voigt Hill
#
# Bulk Modulus (GPa) = 46.13893 47.45545 46.79719
# Shear Modulus (GPa) = 30.90419 32.53799 31.72109
#
# Velocity S-wave (km/s) = 3.67211 3.76792 3.72032
# Velocity P-wave (km/s) = 6.17340 6.29570 6.23485
#
# Compressibility (1/GPa) = 0.02167367
#
# Stress axis : x y z
#
# Youngs Moduli (GPa) = 57.42820 71.32543 66.59717
#
# Poissons Ratio (x) = 0.15437 0.51147
# Poissons Ratio (y) = 0.12430 0.16937
# Poissons Ratio (z) = 0.44106 0.18139
#
# Static dielectric constant tensor:
#      x y z
#    x 3.815030 0.000000 0.000000 
#    y 0.000000 4.634890 0.000000 
#    z 0.000000 0.000000 4.087200 
# 
# 
# High freq. dielectric constant tensor:
#      x y z
#    x 1.876970 0.000000 0.000000 
#    y 0.000000 1.925150 0.000000 
#    z 0.000000 0.000000 1.908960 
# 
# From -- ./inp_files/2268.got.cif
#   From: 2010.03.12/outbox.cif.g09.slc.cpg/sg32_2_cif.got.tgz:2268.got - 2010.04.14 01:46:39.
