data_PCOD8170898
_publ_section_title
;
Structure prediction by ZEFSAII (Michael W. Deem and Ramdas Pophale) SiO2 
 PCOD8170898
Probable space group: P N A 21
;
_chemical_formula_sum "Si O2"
_cell_formula_units_Z 32
_cell_length_a 10.816208
_cell_length_b 15.871335
_cell_length_c 8.324552
_cell_angle_alpha 90.000000
_cell_angle_beta 90.000000
_cell_angle_gamma 90.000000
_cell_volume 1429.056367
_symmetry_space_group_name_H-M "P N A 21"
_symmetry_group_IT_number 33
_symmetry_cell_setting 'orthorhombic'
loop_
_space_group_symop_operation_xyz
x,y,z
-x,-y,1/2+z
1/2-x,1/2+y,1/2+z
1/2+x,1/2-y,z
loop_
_atom_site_type_symbol
_atom_site_label
_atom_site_fract_x
_atom_site_fract_y
_atom_site_fract_z
Si Si1 0.757080 0.090419 0.713510
Si Si2 0.015423 0.384399 0.884217
Si Si3 0.193007 0.722049 0.299832
Si Si4 0.416793 0.814212 0.715320
Si Si5 0.570270 0.545185 0.482338
Si Si6 0.344872 0.968842 0.898977
Si Si7 0.651758 0.716654 0.645767
Si Si8 0.144259 0.070144 0.749359
O O1 0.617848 0.076848 0.770256
O O2 0.803373 0.186998 0.718875
O O3 0.755457 0.060635 0.530468
O O4 0.843418 0.032655 0.825487
O O5 0.936125 0.325015 0.762610
O O6 0.934153 0.458033 0.965988
O O7 0.084261 0.333695 0.025004
O O8 0.185503 0.725289 0.493944
O O9 0.310584 0.667386 0.238775
O O10 0.432047 0.895464 0.828499
O O11 0.533809 0.752442 0.747283
O O12 0.277341 0.779968 0.753805
O O13 0.617681 0.622081 0.592249
O O14 0.434467 0.563072 0.413310
O O15 0.569694 0.459315 0.589383
O O16 0.262788 0.008773 0.756573
#
# Coordination Sequence:
#
# PCOD8170898 Si02
#       8
#     4   4   4   4   4   4   4   4
#     4  11  22  40  63  92 124 167 207 265 318 386
#     4  10  20  39  65  87 118 169 215 255 319 385
#     4   9  21  37  64  88 120 166 214 255 315 397
#     4  11  20  41  64  93 126 170 217 274 318 394
#     4  11  22  39  65  90 130 167 213 262 323 389
#     4  11  23  40  62  93 130 160 215 269 326 384
#     4  10  20  39  69  91 127 175 221 260 331 400
#     4  11  22  41  62  94 125 168 212 264 318 389
#
# _framework density 22.392399999999999
#
# number of rings (size 3 to 8) (size 9 to 14) (size 15 to 20)
#    0.000    1.500    3.750    2.250    3.500    1.000 
#    4.500    1.250    0.000    0.000    0.000    0.000 
#    0.000    0.000    0.000    0.000    0.000    0.000 
#
# Total GULP energy -396643.046125 kJ/mol
# GULP energy per Si atom -12395.095191 kJ/mol
# Density = 2.234143 g / cm^3
# Si number density = 22.392400 Si / 1000 Ang^3
#
#
#
# Elastic Constant Matrix: (Units=GPa)
#
#
# Indices 1 2 3 4 5 6 
#
# 1 110.6311 26.7859 3.4103 0.0000 0.0000 0.0000
# 2 26.7859 70.1252 14.5915 0.0000 0.0000 0.0000
# 3 3.4103 14.5915 37.0614 0.0000 0.0000 0.0000
# 4 0.0000 0.0000 0.0000 21.7622 0.0000 0.0000
# 5 0.0000 0.0000 0.0000 0.0000 26.0097 0.0000
# 6 0.0000 0.0000 0.0000 0.0000 0.0000 29.3537
#
#
#
# Elastic Compliance Matrix: (Units=1/GPa)
#
#
# Indices 1 2 3 4 5 6 
#
# 1 0.009974 -0.003942 0.000634 0.000000 0.000000 0.000000
# 2 -0.003942 0.017090 -0.006366 0.000000 0.000000 0.000000
# 3 0.000634 -0.006366 0.029430 0.000000 0.000000 0.000000
# 4 0.000000 0.000000 0.000000 0.045951 0.000000 0.000000
# 5 0.000000 0.000000 0.000000 0.000000 0.038447 0.000000
# 6 0.000000 0.000000 0.000000 0.000000 0.000000 0.034067
#
#
# Mechanical properties :
#
#
# Convention : Reuss Voigt Hill
#
# Bulk Modulus (GPa) = 26.91973 34.15478 30.53726
# Shear Modulus (GPa) = 24.19083 26.96045 25.57564
#
# Velocity S-wave (km/s) = 3.29038 3.47363 3.38325
# Velocity P-wave (km/s) = 5.14620 5.60126 5.37855
#
# Compressibility (1/GPa) = 0.03714747
#
# Stress axis : x y z
#
# Youngs Moduli (GPa) = 100.26212 58.51221 33.97859
#
# Poissons Ratio (x) = 0.23064 -0.02155
# Poissons Ratio (y) = 0.39520 0.21631
# Poissons Ratio (z) = -0.06358 0.37249
#
# Static dielectric constant tensor:
#      x y z
#    x 4.249920 0.000000 0.000000 
#    y 0.000000 3.974230 0.000000 
#    z 0.000000 0.000000 3.550770 
# 
# 
# High freq. dielectric constant tensor:
#      x y z
#    x 1.900480 0.000000 0.000000 
#    y 0.000000 1.874390 0.000000 
#    z 0.000000 0.000000 1.842650 
# 
# From -- ./inp_files/4095.got.cif
#   From: 2010.03.12/outbox.cif.g09.slc.cpg/sg33_3_cif.got.tgz:4095.got - 2010.04.14 01:49:19.
