data_PCOD8170765
_publ_section_title
;
Structure prediction by ZEFSAII (Michael W. Deem and Ramdas Pophale) SiO2 
 PCOD8170765
Probable space group: P N A 21
;
_chemical_formula_sum "Si O2"
_cell_formula_units_Z 32
_cell_length_a 8.684288
_cell_length_b 14.058799
_cell_length_c 11.901964
_cell_angle_alpha 90.000000
_cell_angle_beta 90.000000
_cell_angle_gamma 90.000000
_cell_volume 1453.118634
_symmetry_space_group_name_H-M "P N A 21"
_symmetry_group_IT_number 33
_symmetry_cell_setting 'orthorhombic'
loop_
_space_group_symop_operation_xyz
x,y,z
-x,-y,1/2+z
1/2-x,1/2+y,1/2+z
1/2+x,1/2-y,z
loop_
_atom_site_type_symbol
_atom_site_label
_atom_site_fract_x
_atom_site_fract_y
_atom_site_fract_z
Si Si1 0.610969 0.828595 0.982260
Si Si2 0.444472 0.332126 0.155028
Si Si3 0.060707 0.506850 0.424947
Si Si4 0.845667 0.775477 0.341093
Si Si5 0.887847 0.659802 0.561207
Si Si6 0.451592 0.646543 0.908230
Si Si7 0.058670 0.644671 0.233542
Si Si8 0.088550 0.047852 0.965910
O O1 0.545788 0.721782 0.983661
O O2 0.771572 0.830483 0.917038
O O3 0.490811 0.897294 0.919148
O O4 0.626560 0.867458 0.109875
O O5 0.263348 0.355405 0.138328
O O6 0.483065 0.222453 0.124970
O O7 0.486163 0.348502 0.283121
O O8 0.551541 0.403818 0.084823
O O9 0.029730 0.544814 0.297617
O O10 0.237235 0.510373 0.462947
O O11 0.962018 0.560550 0.521376
O O12 0.830820 0.712809 0.451029
O O13 0.671442 0.799646 0.315973
O O14 0.938371 0.873874 0.366780
O O15 0.910572 0.714445 0.235967
O O16 0.473620 0.539983 0.952718
#
# Coordination Sequence:
#
# PCOD8170765 Si02
#       8
#     4   4   4   4   4   4   4   4
#     4  12  26  43  60  89 125 164 211 259 315 381
#     4  11  22  39  65  92 127 168 203 261 320 363
#     4  10  23  41  64  94 124 161 213 260 310 379
#     4   9  18  36  62  93 121 153 204 251 303 369
#     4  10  19  37  64  95 124 159 209 258 310 376
#     4  12  27  43  61  90 126 166 213 260 313 381
#     4  10  21  38  64  89 122 162 195 254 313 356
#     4  10  22  41  62  92 123 159 210 259 308 379
#
# _framework density 22.021599999999999
#
# number of rings (size 3 to 8) (size 9 to 14) (size 15 to 20)
#    0.000    1.500    0.000    6.750    0.000    8.000 
#    0.000    0.000    0.000    0.000    0.000    0.000 
#    0.000    0.000    0.000    0.000    0.000    0.000 
#
# Total GULP energy -396796.911190 kJ/mol
# GULP energy per Si atom -12399.903475 kJ/mol
# Density = 2.197148 g / cm^3
# Si number density = 22.021600 Si / 1000 Ang^3
#
#
#
# Elastic Constant Matrix: (Units=GPa)
#
#
# Indices 1 2 3 4 5 6 
#
# 1 69.6282 0.7740 1.6968 0.0000 0.0000 0.0000
# 2 0.7740 73.7670 10.0876 0.0000 0.0000 0.0000
# 3 1.6968 10.0876 89.1237 0.0000 0.0000 0.0000
# 4 0.0000 0.0000 0.0000 15.6489 0.0000 0.0000
# 5 0.0000 0.0000 0.0000 0.0000 35.4007 0.0000
# 6 0.0000 0.0000 0.0000 0.0000 0.0000 38.6013
#
#
#
# Elastic Compliance Matrix: (Units=1/GPa)
#
#
# Indices 1 2 3 4 5 6 
#
# 1 0.014370 -0.000115 -0.000261 0.000000 0.000000 0.000000
# 2 -0.000115 0.013770 -0.001556 0.000000 0.000000 0.000000
# 3 -0.000261 -0.001556 0.011401 0.000000 0.000000 0.000000
# 4 0.000000 0.000000 0.000000 0.063902 0.000000 0.000000
# 5 0.000000 0.000000 0.000000 0.000000 0.028248 0.000000
# 6 0.000000 0.000000 0.000000 0.000000 0.000000 0.025906
#
#
# Mechanical properties :
#
#
# Convention : Reuss Voigt Hill
#
# Bulk Modulus (GPa) = 28.02913 28.62618 28.32765
# Shear Modulus (GPa) = 28.84271 32.59422 30.71847
#
# Velocity S-wave (km/s) = 3.62297 3.85138 3.73892
# Velocity P-wave (km/s) = 5.50062 5.72756 5.61524
#
# Compressibility (1/GPa) = 0.03567717
#
# Stress axis : x y z
#
# Youngs Moduli (GPa) = 69.59122 72.62034 87.70785
#
# Poissons Ratio (x) = 0.00836 0.02285
# Poissons Ratio (y) = 0.00801 0.13651
# Poissons Ratio (z) = 0.01813 0.11303
#
# Static dielectric constant tensor:
#      x y z
#    x 3.991660 0.000000 0.000000 
#    y 0.000000 4.181950 0.000000 
#    z 0.000000 0.000000 3.796310 
# 
# 
# High freq. dielectric constant tensor:
#      x y z
#    x 1.869500 0.000000 0.000000 
#    y 0.000000 1.873880 0.000000 
#    z 0.000000 0.000000 1.855610 
# 
# From -- ./inp_files/6000.got.cif
#   From: 2010.03.12/outbox.cif.g09.slc.cpg/sg33_3_cif.got.tgz:6000.got - 2010.04.14 01:49:19.
