data_PCOD8170786
_publ_section_title
;
Structure prediction by ZEFSAII (Michael W. Deem and Ramdas Pophale) SiO2 
 PCOD8170786
Probable space group: P N A 21
;
_chemical_formula_sum "Si O2"
_cell_formula_units_Z 28
_cell_length_a 14.364641
_cell_length_b 10.731586
_cell_length_c 8.990923
_cell_angle_alpha 90.000000
_cell_angle_beta 90.000000
_cell_angle_gamma 90.000000
_cell_volume 1385.999154
_symmetry_space_group_name_H-M "P N A 21"
_symmetry_group_IT_number 33
_symmetry_cell_setting 'orthorhombic'
loop_
_space_group_symop_operation_xyz
x,y,z
-x,-y,1/2+z
1/2-x,1/2+y,1/2+z
1/2+x,1/2-y,z
loop_
_atom_site_type_symbol
_atom_site_label
_atom_site_fract_x
_atom_site_fract_y
_atom_site_fract_z
Si Si1 0.865202 0.799237 0.617730
Si Si2 0.597902 0.947145 0.510127
Si Si3 0.796955 0.205964 0.925437
Si Si4 0.985750 0.636178 0.796162
Si Si5 0.452799 0.438995 0.086572
Si Si6 0.275909 0.443074 0.628823
Si Si7 0.436334 0.374699 0.418127
O O1 0.804455 0.723194 0.498649
O O2 0.889347 0.707572 0.755271
O O3 0.962817 0.844134 0.543910
O O4 0.810141 0.919609 0.681238
O O5 0.651039 0.838019 0.422491
O O6 0.537102 0.894094 0.643208
O O7 0.531596 0.012651 0.390199
O O8 0.669664 0.048175 0.575972
O O9 0.783698 0.156863 0.759515
O O10 0.855896 0.105888 0.018259
O O11 0.050966 0.727584 0.892819
O O12 0.441648 0.450119 0.263506
O O13 0.480767 0.574613 0.024067
O O14 0.335990 0.395582 0.489937
#
# Coordination Sequence:
#
# PCOD8170786 Si02
#       7
#     4   4   4   4   4   4   4
#     4   9  21  41  63  91 129 165 215 266 318 388
#     4  11  26  42  64  96 135 175 218 264 330 395
#     4  11  21  41  67  90 134 171 210 274 324 383
#     4  11  24  44  64  93 133 177 210 271 330 390
#     4  10  19  39  68  90 122 171 216 266 326 377
#     4  10  24  41  65 102 126 168 229 264 322 398
#     4  10  21  42  65  94 127 167 218 275 320 391
#
# _framework density 20.202033
#
# number of rings (size 3 to 8) (size 9 to 14) (size 15 to 20)
#    0.000    1.714    2.857    2.571    6.000    0.000 
#    7.714    1.429    0.000    0.000    0.000    0.000 
#    0.000    0.000    0.000    0.000    0.000    0.000 
#
# Total GULP energy -347226.799373 kJ/mol
# GULP energy per Si atom -12400.957120 kJ/mol
# Density = 2.015605 g / cm^3
# Si number density = 20.202033 Si / 1000 Ang^3
#
#
#
# Elastic Constant Matrix: (Units=GPa)
#
#
# Indices 1 2 3 4 5 6 
#
# 1 80.5034 24.9586 33.5034 0.0000 0.0000 0.0000
# 2 24.9586 89.3400 45.8801 0.0000 0.0000 0.0000
# 3 33.5034 45.8801 102.6426 0.0000 0.0000 0.0000
# 4 0.0000 0.0000 0.0000 49.7203 0.0000 0.0000
# 5 0.0000 0.0000 0.0000 0.0000 29.1691 0.0000
# 6 0.0000 0.0000 0.0000 0.0000 0.0000 21.8463
#
#
#
# Elastic Compliance Matrix: (Units=1/GPa)
#
#
# Indices 1 2 3 4 5 6 
#
# 1 0.014680 -0.002129 -0.003840 0.000000 0.000000 0.000000
# 2 -0.002129 0.014837 -0.005937 0.000000 0.000000 0.000000
# 3 -0.003840 -0.005937 0.013650 0.000000 0.000000 0.000000
# 4 0.000000 0.000000 0.000000 0.020113 0.000000 0.000000
# 5 0.000000 0.000000 0.000000 0.000000 0.034283 0.000000
# 6 0.000000 0.000000 0.000000 0.000000 0.000000 0.045774
#
#
# Mechanical properties :
#
#
# Convention : Reuss Voigt Hill
#
# Bulk Modulus (GPa) = 51.66759 53.46337 52.56548
# Shear Modulus (GPa) = 28.80186 31.35675 30.07930
#
# Velocity S-wave (km/s) = 3.77993 3.94402 3.86284
# Velocity P-wave (km/s) = 6.68442 6.87475 6.78025
#
# Compressibility (1/GPa) = 0.01935449
#
# Stress axis : x y z
#
# Youngs Moduli (GPa) = 68.11976 67.39959 73.26162
#
# Poissons Ratio (x) = 0.14350 0.28133
# Poissons Ratio (y) = 0.14503 0.43495
# Poissons Ratio (z) = 0.26158 0.40015
#
# Static dielectric constant tensor:
#      x y z
#    x 3.779950 0.000000 0.000000 
#    y 0.000000 3.761180 0.000000 
#    z 0.000000 0.000000 3.558330 
# 
# 
# High freq. dielectric constant tensor:
#      x y z
#    x 1.791520 0.000000 0.000000 
#    y 0.000000 1.787340 0.000000 
#    z 0.000000 0.000000 1.781280 
# 
# From -- ./inp_files/3827.got.cif
#   From: 2010.03.12/outbox.cif.g09.slc.cpg/sg33_2_cif.got.tgz:3827.got - 2010.04.14 01:49:19.
