data_PCOD8170567
_publ_section_title
;
Structure prediction by ZEFSAII (Michael W. Deem and Ramdas Pophale) SiO2 
 PCOD8170567
Probable space group: P B A 2
;
_chemical_formula_sum "Si O2"
_cell_formula_units_Z 20
_cell_length_a 13.920972
_cell_length_b 8.915051
_cell_length_c 6.769305
_cell_angle_alpha 90.000000
_cell_angle_beta 90.000000
_cell_angle_gamma 90.000000
_cell_volume 840.112553
_symmetry_space_group_name_H-M "P B A 2"
_symmetry_group_IT_number 32
_symmetry_cell_setting 'orthorhombic'
loop_
_space_group_symop_operation_xyz
x,y,z
-x,-y,z
1/2-x,1/2+y,z
1/2+x,1/2-y,z
loop_
_atom_site_type_symbol
_atom_site_label
_atom_site_fract_x
_atom_site_fract_y
_atom_site_fract_z
Si Si1 0.000000 0.500000 0.003120
Si Si2 0.862374 0.533560 0.654890
Si Si3 0.935602 0.812515 0.504611
Si Si4 0.000000 0.000000 0.857155
Si Si5 0.577688 0.700786 0.180130
Si Si6 0.767968 0.262021 0.470243
O O1 0.975937 0.357100 0.136952
O O2 0.902151 0.527927 0.877756
O O3 0.942061 0.630104 0.532405
O O4 0.848081 0.364441 0.577880
O O5 0.761177 0.625776 0.621161
O O6 0.829722 0.853492 0.417119
O O7 0.941728 0.884478 0.722284
O O8 0.018406 0.872952 0.362368
O O9 0.075796 0.909276 0.992786
O O10 0.686802 0.712695 0.259557
#
# Coordination Sequence:
#
# PCOD8170567 Si02
#       6
#     2   4   4   2   4   4
#     4  12  24  50  72 118 150 198 266 308 382 464
#     4  10  23  47  73 106 151 202 239 318 386 446
#     4  10  25  48  70 105 154 193 240 317 383 440
#     4  12  26  46  76 108 154 194 256 308 386 450
#     4  12  25  46  79 107 146 202 251 314 373 464
#     4  10  25  46  73 105 146 197 246 305 382 446
#
# _framework density 23.806336000000002
#
# number of rings (size 3 to 8) (size 9 to 14) (size 15 to 20)
#    1.200    0.000    2.000    3.000    5.600    0.000 
#   10.800    0.000    0.000    0.000    0.000    0.000 
#    0.000    0.000    0.000    0.000    0.000    0.000 
#
# Total GULP energy -247774.123589 kJ/mol
# GULP energy per Si atom -12388.706179 kJ/mol
# Density = 2.375215 g / cm^3
# Si number density = 23.806336 Si / 1000 Ang^3
#
#
#
# Elastic Constant Matrix: (Units=GPa)
#
#
# Indices 1 2 3 4 5 6 
#
# 1 107.6674 12.1654 68.6987 0.0000 0.0000 0.0000
# 2 12.1654 98.9422 47.1873 0.0000 0.0000 0.0000
# 3 68.6987 47.1873 136.4756 0.0000 0.0000 0.0000
# 4 0.0000 0.0000 0.0000 36.6515 0.0000 0.0000
# 5 0.0000 0.0000 0.0000 0.0000 52.5447 0.0000
# 6 0.0000 0.0000 0.0000 0.0000 0.0000 32.1814
#
#
#
# Elastic Compliance Matrix: (Units=1/GPa)
#
#
# Indices 1 2 3 4 5 6 
#
# 1 0.013994 0.001962 -0.007723 0.000000 0.000000 0.000000
# 2 0.001962 0.012378 -0.005268 0.000000 0.000000 0.000000
# 3 -0.007723 -0.005268 0.013036 0.000000 0.000000 0.000000
# 4 0.000000 0.000000 0.000000 0.027284 0.000000 0.000000
# 5 0.000000 0.000000 0.000000 0.000000 0.019031 0.000000
# 6 0.000000 0.000000 0.000000 0.000000 0.000000 0.031074
#
#
# Mechanical properties :
#
#
# Convention : Reuss Voigt Hill
#
# Bulk Modulus (GPa) = 57.63016 66.57645 62.10331
# Shear Modulus (GPa) = 34.56951 38.61112 36.59032
#
# Velocity S-wave (km/s) = 3.81480 4.03163 3.92471
# Velocity P-wave (km/s) = 6.60788 7.04973 6.83237
#
# Compressibility (1/GPa) = 0.01735203
#
# Stress axis : x y z
#
# Youngs Moduli (GPa) = 71.46107 80.78972 76.71068
#
# Poissons Ratio (x) = -0.15855 0.59241
# Poissons Ratio (y) = -0.14024 0.40408
# Poissons Ratio (z) = 0.55187 0.42557
#
# Static dielectric constant tensor:
#      x y z
#    x 4.101340 0.000000 0.000000 
#    y 0.000000 4.401420 0.000000 
#    z 0.000000 0.000000 4.034740 
# 
# 
# High freq. dielectric constant tensor:
#      x y z
#    x 1.932060 0.000000 0.000000 
#    y 0.000000 1.962770 0.000000 
#    z 0.000000 0.000000 1.924300 
# 
# From -- ./inp_files/1394.got.cif
#   From: 2010.03.12/outbox.cif.g09.slc.cpg/sg32_1_cif.got.tgz:1394.got - 2010.04.14 01:46:39.
