data_PCOD8170229
_publ_section_title
;
Structure prediction by ZEFSAII (Michael W. Deem and Ramdas Pophale) SiO2 
 PCOD8170229
Probable space group: P M N 21
;
_chemical_formula_sum "Si O2"
_cell_formula_units_Z 32
_cell_length_a 8.843950
_cell_length_b 16.140611
_cell_length_c 10.925879
_cell_angle_alpha 90.000000
_cell_angle_beta 90.000000
_cell_angle_gamma 90.000000
_cell_volume 1559.633791
_symmetry_space_group_name_H-M "P M N 21"
_symmetry_group_IT_number 31
_symmetry_cell_setting 'orthorhombic'
loop_
_space_group_symop_operation_xyz
x,y,z
1/2-x,-y,1/2+z
-x,y,z
1/2+x,-y,1/2+z
loop_
_atom_site_type_symbol
_atom_site_label
_atom_site_fract_x
_atom_site_fract_y
_atom_site_fract_z
Si Si1 0.324967 0.142658 0.897980
Si Si2 0.831869 0.161322 0.563077
Si Si3 0.680136 0.461612 0.668044
Si Si4 0.825773 0.015597 0.722283
Si Si5 0.825654 0.141977 0.148487
Si Si6 0.173904 0.715547 0.231848
Si Si7 0.677402 0.436409 0.388859
Si Si8 0.669149 0.731150 0.842677
O O1 0.500000 0.122215 0.869955
O O2 0.217076 0.079025 0.829034
O O3 0.285806 0.237742 0.858468
O O4 0.292568 0.136063 0.039551
O O5 0.796853 0.064700 0.592701
O O6 0.712704 0.221830 0.624493
O O7 0.821529 0.183325 0.420592
O O8 0.000000 0.181087 0.614869
O O9 0.500000 0.467122 0.674869
O O10 0.751756 0.373968 0.714185
O O11 0.728645 0.473956 0.523041
O O12 0.744230 0.526761 0.766820
O O13 0.000000 0.988770 0.736887
O O14 0.718542 0.935891 0.733651
O O15 0.797152 0.232237 0.208626
O O16 0.000000 0.134000 0.107757
O O17 0.000000 0.694489 0.221441
O O18 0.500000 0.448736 0.374016
O O19 0.714134 0.338390 0.386786
O O20 0.500000 0.693006 0.850450
#
# Coordination Sequence:
#
# PCOD8170229 Si02
#       8
#     4   4   4   4   4   4   4   4
#     4  10  21  38  59  84 118 157 200 252 307 362
#     4   9  18  34  59  86 113 147 190 239 292 351
#     4  10  22  41  63  93 130 163 203 260 317 377
#     4  10  21  37  59  88 118 155 201 249 301 364
#     4  11  24  39  57  85 122 162 203 251 308 366
#     4   9  18  36  61  85 112 149 191 243 298 354
#     4  11  24  41  65  95 126 164 214 261 314 385
#     4  10  22  40  61  86 121 161 198 249 309 365
#
# _framework density 20.517637000000001
#
# number of rings (size 3 to 8) (size 9 to 14) (size 15 to 20)
#    0.000    2.000    1.250    1.500    1.750    4.500 
#    0.000    2.500    0.000    0.000    0.000    0.000 
#    0.000    0.000    0.000    0.000    0.000    0.000 
#
# Total GULP energy -396466.029357 kJ/mol
# GULP energy per Si atom -12389.563417 kJ/mol
# Density = 2.047094 g / cm^3
# Si number density = 20.517637 Si / 1000 Ang^3
#
#
#
# Elastic Constant Matrix: (Units=GPa)
#
#
# Indices 1 2 3 4 5 6 
#
# 1 34.7288 25.0222 37.5272 0.0000 0.0000 0.0000
# 2 25.0222 78.2282 35.8476 0.0000 0.0000 0.0000
# 3 37.5272 35.8476 100.3859 0.0000 0.0000 0.0000
# 4 0.0000 0.0000 0.0000 25.1850 0.0000 0.0000
# 5 0.0000 0.0000 0.0000 0.0000 28.4273 0.0000
# 6 0.0000 0.0000 0.0000 0.0000 0.0000 29.9286
#
#
#
# Elastic Compliance Matrix: (Units=1/GPa)
#
#
# Indices 1 2 3 4 5 6 
#
# 1 0.053660 -0.009531 -0.016656 0.000000 0.000000 0.000000
# 2 -0.009531 0.016977 -0.002499 0.000000 0.000000 0.000000
# 3 -0.016656 -0.002499 0.017081 0.000000 0.000000 0.000000
# 4 0.000000 0.000000 0.000000 0.039706 0.000000 0.000000
# 5 0.000000 0.000000 0.000000 0.000000 0.035177 0.000000
# 6 0.000000 0.000000 0.000000 0.000000 0.000000 0.033413
#
#
# Mechanical properties :
#
#
# Convention : Reuss Voigt Hill
#
# Bulk Modulus (GPa) = 32.95517 45.57075 39.26296
# Shear Modulus (GPa) = 18.97514 24.37123 21.67319
#
# Velocity S-wave (km/s) = 3.04439 3.45021 3.25363
# Velocity P-wave (km/s) = 5.33427 6.17501 5.76997
#
# Compressibility (1/GPa) = 0.03034425
#
# Stress axis : x y z
#
# Youngs Moduli (GPa) = 18.63584 58.90274 58.54579
#
# Poissons Ratio (x) = 0.56142 0.97515
# Poissons Ratio (y) = 0.17762 0.14633
# Poissons Ratio (z) = 0.31040 0.14722
#
# Static dielectric constant tensor:
#      x y z
#    x 3.563070 0.000000 0.000000 
#    y 0.000000 3.783560 0.000000 
#    z 0.000000 0.000000 3.768390 
# 
# 
# High freq. dielectric constant tensor:
#      x y z
#    x 1.795820 0.000000 0.000000 
#    y 0.000000 1.798050 0.000000 
#    z 0.000000 0.000000 1.800020 
# 
# From -- ./inp_files/3586.got.cif
#   From: 2010.03.12/outbox.cif.g09.slc.cpg/sg31_2_cif.got.tgz:3586.got - 2010.04.14 01:42:59.
