data_PCOD8170606
_publ_section_title
;
Structure prediction by ZEFSAII (Michael W. Deem and Ramdas Pophale) SiO2 
 PCOD8170606
Probable space group: P B A 2
;
_chemical_formula_sum "Si O2"
_cell_formula_units_Z 24
_cell_length_a 12.647699
_cell_length_b 12.896623
_cell_length_c 6.805665
_cell_angle_alpha 90.000000
_cell_angle_beta 90.000000
_cell_angle_gamma 90.000000
_cell_volume 1110.089752
_symmetry_space_group_name_H-M "P B A 2"
_symmetry_group_IT_number 32
_symmetry_cell_setting 'orthorhombic'
loop_
_space_group_symop_operation_xyz
x,y,z
-x,-y,z
1/2-x,1/2+y,z
1/2+x,1/2-y,z
loop_
_atom_site_type_symbol
_atom_site_label
_atom_site_fract_x
_atom_site_fract_y
_atom_site_fract_z
Si Si1 0.368627 0.367662 0.762090
Si Si2 0.000000 0.500000 0.953658
Si Si3 0.349337 0.632437 0.242586
Si Si4 0.977250 0.727669 0.956495
Si Si5 0.810114 0.763847 0.634374
Si Si6 0.500000 0.500000 0.483213
Si Si7 0.732828 0.948673 0.893971
O O1 0.407309 0.272467 0.900289
O O2 0.277428 0.324579 0.624585
O O3 0.465134 0.405990 0.625306
O O4 0.317397 0.457747 0.893773
O O5 0.985451 0.612841 0.060653
O O6 0.887744 0.483187 0.841288
O O7 0.327493 0.718542 0.404999
O O8 0.402688 0.533466 0.346619
O O9 0.430605 0.686373 0.096860
O O10 0.245733 0.598457 0.116005
O O11 0.909869 0.718935 0.754898
O O12 0.768360 0.870490 0.726060
#
# Coordination Sequence:
#
# PCOD8170606 Si02
#       7
#     4   2   4   4   4   2   4
#     4  12  22  43  75  93 135 179 224 280 337 415
#     4  12  24  44  70  96 136 190 216 272 354 412
#     4  11  24  42  68  99 134 172 228 284 331 404
#     4  11  24  44  67  98 135 178 225 275 346 405
#     4  11  23  44  67  99 131 176 222 282 341 403
#     4  12  22  40  72 102 126 174 236 270 338 400
#     4  11  24  44  67  98 135 178 225 275 346 405
#
# _framework density 21.619872999999998
#
# number of rings (size 3 to 8) (size 9 to 14) (size 15 to 20)
#    0.000    0.667    6.667    2.000    0.000    2.667 
#    0.000    1.667    0.000    0.000    0.000    0.000 
#    0.000    0.000    0.000    0.000    0.000    0.000 
#
# Total GULP energy -297341.348691 kJ/mol
# GULP energy per Si atom -12389.222862 kJ/mol
# Density = 2.157066 g / cm^3
# Si number density = 21.619873 Si / 1000 Ang^3
#
#
#
# Elastic Constant Matrix: (Units=GPa)
#
#
# Indices 1 2 3 4 5 6 
#
# 1 97.7675 17.8912 20.0287 0.0000 0.0000 0.0000
# 2 17.8912 102.9378 7.4944 0.0000 0.0000 0.0000
# 3 20.0287 7.4944 91.0446 0.0000 0.0000 0.0000
# 4 0.0000 0.0000 0.0000 11.9897 0.0000 0.0000
# 5 0.0000 0.0000 0.0000 0.0000 20.2152 0.0000
# 6 0.0000 0.0000 0.0000 0.0000 0.0000 49.4511
#
#
#
# Elastic Compliance Matrix: (Units=1/GPa)
#
#
# Indices 1 2 3 4 5 6 
#
# 1 0.011015 -0.001749 -0.002279 0.000000 0.000000 0.000000
# 2 -0.001749 0.010051 -0.000443 0.000000 0.000000 0.000000
# 3 -0.002279 -0.000443 0.011521 0.000000 0.000000 0.000000
# 4 0.000000 0.000000 0.000000 0.083405 0.000000 0.000000
# 5 0.000000 0.000000 0.000000 0.000000 0.049468 0.000000
# 6 0.000000 0.000000 0.000000 0.000000 0.000000 0.020222
#
#
# Mechanical properties :
#
#
# Convention : Reuss Voigt Hill
#
# Bulk Modulus (GPa) = 42.28965 42.50869 42.39917
# Shear Modulus (GPa) = 24.69069 32.75357 28.72213
#
# Velocity S-wave (km/s) = 3.38307 3.89649 3.64882
# Velocity P-wave (km/s) = 5.90451 6.32045 6.11602
#
# Compressibility (1/GPa) = 0.02364645
#
# Stress axis : x y z
#
# Youngs Moduli (GPa) = 90.78306 99.49508 86.79438
#
# Poissons Ratio (x) = 0.17397 0.19783
# Poissons Ratio (y) = 0.15874 0.03842
# Poissons Ratio (z) = 0.20692 0.04404
#
# Static dielectric constant tensor:
#      x y z
#    x 4.084270 0.000000 0.000000 
#    y 0.000000 4.118010 0.000000 
#    z 0.000000 0.000000 3.619450 
# 
# 
# High freq. dielectric constant tensor:
#      x y z
#    x 1.859490 0.000000 0.000000 
#    y 0.000000 1.868790 0.000000 
#    z 0.000000 0.000000 1.813290 
# 
# From -- ./inp_files/1193.got.cif
#   From: 2010.03.12/outbox.cif.g09.slc.cpg/sg32_1_cif.got.tgz:1193.got - 2010.04.14 01:46:39.
