data_PCOD8170805
_publ_section_title
;
Structure prediction by ZEFSAII (Michael W. Deem and Ramdas Pophale) SiO2 
 PCOD8170805
Probable space group: P N A 21
;
_chemical_formula_sum "Si O2"
_cell_formula_units_Z 32
_cell_length_a 19.677524
_cell_length_b 13.976036
_cell_length_c 5.175322
_cell_angle_alpha 90.000000
_cell_angle_beta 90.000000
_cell_angle_gamma 90.000000
_cell_volume 1423.284886
_symmetry_space_group_name_H-M "P N A 21"
_symmetry_group_IT_number 33
_symmetry_cell_setting 'orthorhombic'
loop_
_space_group_symop_operation_xyz
x,y,z
-x,-y,1/2+z
1/2-x,1/2+y,1/2+z
1/2+x,1/2-y,z
loop_
_atom_site_type_symbol
_atom_site_label
_atom_site_fract_x
_atom_site_fract_y
_atom_site_fract_z
Si Si1 0.992497 0.727653 0.030010
Si Si2 0.638881 0.428279 0.894014
Si Si3 0.409896 0.771829 0.539878
Si Si4 0.190727 0.884281 0.001437
Si Si5 0.978542 0.942630 0.040501
Si Si6 0.788537 0.363583 0.971458
Si Si7 0.360842 0.168363 0.478069
Si Si8 0.736844 0.151646 0.998142
O O1 0.964514 0.706556 0.316465
O O2 0.012619 0.839141 0.001314
O O3 0.936930 0.697386 0.818394
O O4 0.057909 0.663504 0.965282
O O5 0.628914 0.536827 0.004230
O O6 0.602019 0.426615 0.612300
O O7 0.719978 0.418491 0.896239
O O8 0.605679 0.342605 0.060412
O O9 0.343860 0.834790 0.484007
O O10 0.160801 0.778841 0.992785
O O11 0.239396 0.903137 0.754518
O O12 0.238146 0.906110 0.247895
O O13 0.014680 0.995248 0.282680
O O14 0.839820 0.385918 0.738749
O O15 0.773776 0.252458 0.989452
O O16 0.825438 0.389597 0.242178
#
# Coordination Sequence:
#
# PCOD8170805 Si02
#       8
#     4   4   4   4   4   4   4   4
#     4  11  21  34  55  78 103 145 184 216 263 322
#     4  10  22  36  55  82 111 147 183 213 266 321
#     4  10  21  36  55  78 109 140 181 223 260 322
#     4  10  20  32  53  77 107 138 170 216 263 320
#     4  11  23  35  50  79 121 154 176 212 261 330
#     4   9  20  35  53  73 106 140 177 228 259 305
#     4  10  20  35  52  78 106 136 178 220 267 310
#     4   9  19  35  51  75 103 138 177 220 267 304
#
# _framework density 22.4832
#
# number of rings (size 3 to 8) (size 9 to 14) (size 15 to 20)
#    0.000    2.000    0.000    3.750    0.000   14.000 
#    0.000    0.000    0.000    0.000    0.000   17.500 
#    0.000    0.000    0.000    0.000    0.000    0.000 
#
# Total GULP energy -396627.052691 kJ/mol
# GULP energy per Si atom -12394.595397 kJ/mol
# Density = 2.243203 g / cm^3
# Si number density = 22.483200 Si / 1000 Ang^3
#
#
#
# Elastic Constant Matrix: (Units=GPa)
#
#
# Indices 1 2 3 4 5 6 
#
# 1 85.5608 -2.4744 26.8652 0.0000 0.0000 0.0000
# 2 -2.4744 12.9299 1.7798 0.0000 0.0000 0.0000
# 3 26.8652 1.7798 130.9925 0.0000 0.0000 0.0000
# 4 0.0000 0.0000 0.0000 12.7620 0.0000 0.0000
# 5 0.0000 0.0000 0.0000 0.0000 38.6443 0.0000
# 6 0.0000 0.0000 0.0000 0.0000 0.0000 31.0810
#
#
#
# Elastic Compliance Matrix: (Units=1/GPa)
#
#
# Indices 1 2 3 4 5 6 
#
# 1 0.012590 0.002770 -0.002620 0.000000 0.000000 0.000000
# 2 0.002770 0.078094 -0.001629 0.000000 0.000000 0.000000
# 3 -0.002620 -0.001629 0.008193 0.000000 0.000000 0.000000
# 4 0.000000 0.000000 0.000000 0.078358 0.000000 0.000000
# 5 0.000000 0.000000 0.000000 0.000000 0.025877 0.000000
# 6 0.000000 0.000000 0.000000 0.000000 0.000000 0.032174
#
#
# Mechanical properties :
#
#
# Convention : Reuss Voigt Hill
#
# Bulk Modulus (GPa) = 10.42536 31.31384 20.86960
# Shear Modulus (GPa) = 18.50358 30.05163 24.27760
#
# Velocity S-wave (km/s) = 2.87190 3.65996 3.28961
# Velocity P-wave (km/s) = 3.95526 5.64077 4.87147
#
# Compressibility (1/GPa) = 0.09591999
#
# Stress axis : x y z
#
# Youngs Moduli (GPa) = 79.42639 12.80505 122.04871
#
# Poissons Ratio (x) = -0.03547 0.31974
# Poissons Ratio (y) = -0.22001 0.19884
# Poissons Ratio (z) = 0.20808 0.02086
#
# Static dielectric constant tensor:
#      x y z
#    x 4.052280 0.000000 0.000000 
#    y 0.000000 3.826870 0.000000 
#    z 0.000000 0.000000 4.269430 
# 
# 
# High freq. dielectric constant tensor:
#      x y z
#    x 1.887670 0.000000 0.000000 
#    y 0.000000 1.851960 0.000000 
#    z 0.000000 0.000000 1.894080 
# 
# From -- ./inp_files/1797.got.cif
#   From: 2010.03.12/outbox.cif.g09.slc.cpg/sg33_1_cif.got.tgz:1797.got - 2010.04.14 01:49:19.
