data_PCOD8170452
_publ_section_title
;
Structure prediction by ZEFSAII (Michael W. Deem and Ramdas Pophale) SiO2 
 PCOD8170452
Probable space group: P B A 2
;
_chemical_formula_sum "Si O2"
_cell_formula_units_Z 32
_cell_length_a 8.538512
_cell_length_b 12.350795
_cell_length_c 14.181919
_cell_angle_alpha 90.000000
_cell_angle_beta 90.000000
_cell_angle_gamma 90.000000
_cell_volume 1495.588465
_symmetry_space_group_name_H-M "P B A 2"
_symmetry_group_IT_number 32
_symmetry_cell_setting 'orthorhombic'
loop_
_space_group_symop_operation_xyz
x,y,z
-x,-y,z
1/2-x,1/2+y,z
1/2+x,1/2-y,z
loop_
_atom_site_type_symbol
_atom_site_label
_atom_site_fract_x
_atom_site_fract_y
_atom_site_fract_z
Si Si1 0.657369 0.221153 0.698650
Si Si2 0.842631 0.721153 0.271948
Si Si3 0.942865 0.168751 0.985299
Si Si4 0.059906 0.881988 0.595454
Si Si5 0.608462 0.838262 0.826116
Si Si6 0.940094 0.118012 0.375144
Si Si7 0.108462 0.661738 0.144482
Si Si8 0.257773 0.032507 0.985299
O O1 0.779707 0.140051 0.650922
O O2 0.566775 0.290148 0.619517
O O3 0.537923 0.143702 0.756169
O O4 0.738100 0.308685 0.766608
O O5 0.720293 0.640051 0.319677
O O6 0.761900 0.808684 0.203990
O O7 0.933225 0.790149 0.351082
O O8 0.962077 0.643702 0.214429
O O9 0.934570 0.237094 0.891271
O O10 0.105630 0.107122 0.985299
O O11 0.789812 0.092045 0.985299
O O12 0.934571 0.237094 0.079327
O O13 0.095938 0.878284 0.485299
O O14 0.000000 0.000000 0.626779
O O15 0.640917 0.943177 0.891214
O O16 0.000000 0.000000 0.343819
O O17 0.140917 0.556823 0.079384
#
# Coordination Sequence:
#
# PCOD8170452 Si02
#       8
#     4   4   4   4   4   4   4   4
#     4  10  21  38  63  90 127 159 204 261 310 373
#     4  10  21  38  63  90 127 159 204 261 310 373
#     4  10  20  35  58  83 120 169 207 244 306 355
#     4  10  22  42  67  93 123 163 204 255 323 389
#     4  10  20  37  56  88 123 160 202 257 298 360
#     4  10  22  42  67  93 123 163 204 255 323 389
#     4  10  20  37  56  88 123 160 202 257 298 360
#     4  10  20  35  60  83 120 170 205 251 299 363
#
# _framework density 21.396259000000001
#
# number of rings (size 3 to 8) (size 9 to 14) (size 15 to 20)
#    0.000    2.000    2.500    0.750    0.000    4.000 
#    0.000   12.500    0.000   13.500    0.000    0.000 
#    0.000    0.000    0.000    0.000    0.000    0.000 
#
# Total GULP energy -396888.796013 kJ/mol
# GULP energy per Si atom -12402.774875 kJ/mol
# Density = 2.134756 g / cm^3
# Si number density = 21.396259 Si / 1000 Ang^3
#
#
#
# Elastic Constant Matrix: (Units=GPa)
#
#
# Indices 1 2 3 4 5 6 
#
# 1 119.6266 35.5095 44.2280 0.0000 0.0000 0.0000
# 2 35.5095 79.2654 33.7668 0.0000 0.0000 0.0000
# 3 44.2280 33.7668 100.3026 0.0000 0.0000 0.0000
# 4 0.0000 0.0000 0.0000 7.0718 0.0000 0.0000
# 5 0.0000 0.0000 0.0000 0.0000 32.8088 0.0000
# 6 0.0000 0.0000 0.0000 0.0000 0.0000 31.9583
#
#
#
# Elastic Compliance Matrix: (Units=1/GPa)
#
#
# Indices 1 2 3 4 5 6 
#
# 1 0.010654 -0.003236 -0.003609 0.000000 0.000000 0.000000
# 2 -0.003236 0.015711 -0.003862 0.000000 0.000000 0.000000
# 3 -0.003609 -0.003862 0.012861 0.000000 0.000000 0.000000
# 4 0.000000 0.000000 0.000000 0.141406 0.000000 0.000000
# 5 0.000000 0.000000 0.000000 0.000000 0.030480 0.000000
# 6 0.000000 0.000000 0.000000 0.000000 0.000000 0.031291
#
#
# Mechanical properties :
#
#
# Convention : Reuss Voigt Hill
#
# Bulk Modulus (GPa) = 56.13863 58.46703 57.30283
# Shear Modulus (GPa) = 18.53548 26.74713 22.64131
#
# Velocity S-wave (km/s) = 2.94648 3.53949 3.25651
# Velocity P-wave (km/s) = 6.15388 6.63996 6.40154
#
# Compressibility (1/GPa) = 0.01781305
#
# Stress axis : x y z
#
# Youngs Moduli (GPa) = 93.86221 63.65113 77.75296
#
# Poissons Ratio (x) = 0.20595 0.28058
# Poissons Ratio (y) = 0.30369 0.30030
# Poissons Ratio (z) = 0.33871 0.24584
#
# Static dielectric constant tensor:
#      x y z
#    x 4.055140 0.000000 0.000000 
#    y 0.000000 3.640550 0.000000 
#    z 0.000000 0.000000 3.988240 
# 
# 
# High freq. dielectric constant tensor:
#      x y z
#    x 1.858450 0.000000 0.000000 
#    y 0.000000 1.823160 0.000000 
#    z 0.000000 0.000000 1.846470 
# 
# From -- ./inp_files/4143.got.cif
#   From: 2010.03.12/outbox.cif.g09.slc.cpg/sg32_3_cif.got.tgz:4143.got - 2010.04.14 01:46:39.
