data_PCOD8170864
_publ_section_title
;
Structure prediction by ZEFSAII (Michael W. Deem and Ramdas Pophale) SiO2 
 PCOD8170864
Probable space group: P N A 21
;
_chemical_formula_sum "Si O2"
_cell_formula_units_Z 32
_cell_length_a 12.512281
_cell_length_b 11.406102
_cell_length_c 10.836053
_cell_angle_alpha 90.000000
_cell_angle_beta 90.000000
_cell_angle_gamma 90.000000
_cell_volume 1546.481969
_symmetry_space_group_name_H-M "P N A 21"
_symmetry_group_IT_number 33
_symmetry_cell_setting 'orthorhombic'
loop_
_space_group_symop_operation_xyz
x,y,z
-x,-y,1/2+z
1/2-x,1/2+y,1/2+z
1/2+x,1/2-y,z
loop_
_atom_site_type_symbol
_atom_site_label
_atom_site_fract_x
_atom_site_fract_y
_atom_site_fract_z
Si Si1 0.454927 0.054183 0.501120
Si Si2 0.771865 0.601491 0.463279
Si Si3 0.404107 0.029307 0.775284
Si Si4 0.612849 0.703797 0.284154
Si Si5 0.930796 0.031642 0.098553
Si Si6 0.053762 0.826063 0.014506
Si Si7 0.320933 0.474552 0.339569
Si Si8 0.414973 0.680049 0.467314
O O1 0.468664 0.008473 0.644982
O O2 0.480975 0.192158 0.493566
O O3 0.333606 0.023545 0.458932
O O4 0.529432 0.990376 0.400668
O O5 0.716944 0.635562 0.334409
O O6 0.679008 0.595698 0.562942
O O7 0.861261 0.697109 0.501970
O O8 0.358895 0.160298 0.771751
O O9 0.296632 0.950580 0.782817
O O10 0.599680 0.649467 0.149784
O O11 0.505485 0.692116 0.362963
O O12 0.914021 0.998474 0.240124
O O13 0.953523 0.917839 0.010023
O O14 0.027154 0.125640 0.087765
O O15 0.144283 0.858962 0.915262
O O16 0.321938 0.589886 0.426020
#
# Coordination Sequence:
#
# PCOD8170864 Si02
#       8
#     4   4   4   4   4   4   4   4
#     4  11  25  42  64  98 137 178 218 284 335 404
#     4  11  21  38  67  95 121 170 226 269 326 396
#     4  11  23  42  64  94 133 174 224 277 334 394
#     4  10  20  39  66  93 124 171 221 264 329 402
#     4  10  22  40  65  89 129 174 212 272 334 396
#     4  10  24  42  63  97 133 173 218 277 335 400
#     4  11  21  42  63  90 126 171 218 271 329 393
#     4  10  20  37  66  92 119 159 223 266 312 389
#
# _framework density 20.692128
#
# number of rings (size 3 to 8) (size 9 to 14) (size 15 to 20)
#    0.000    1.500    5.000    0.000    0.000    3.000 
#    0.000    2.500    0.000    0.000    0.000    0.000 
#    0.000    0.000    0.000    0.000    0.000    0.000 
#
# Total GULP energy -396532.768822 kJ/mol
# GULP energy per Si atom -12391.649026 kJ/mol
# Density = 2.064503 g / cm^3
# Si number density = 20.692128 Si / 1000 Ang^3
#
#
#
# Elastic Constant Matrix: (Units=GPa)
#
#
# Indices 1 2 3 4 5 6 
#
# 1 99.1587 34.1488 40.8832 0.0000 0.0000 0.0000
# 2 34.1488 76.0055 28.5882 0.0000 0.0000 0.0000
# 3 40.8832 28.5882 107.0658 0.0000 0.0000 0.0000
# 4 0.0000 0.0000 0.0000 28.9539 0.0000 0.0000
# 5 0.0000 0.0000 0.0000 0.0000 30.4784 0.0000
# 6 0.0000 0.0000 0.0000 0.0000 0.0000 30.8526
#
#
#
# Elastic Compliance Matrix: (Units=1/GPa)
#
#
# Indices 1 2 3 4 5 6 
#
# 1 0.013218 -0.004491 -0.003848 0.000000 0.000000 0.000000
# 2 -0.004491 0.016152 -0.002598 0.000000 0.000000 0.000000
# 3 -0.003848 -0.002598 0.011503 0.000000 0.000000 0.000000
# 4 0.000000 0.000000 0.000000 0.034538 0.000000 0.000000
# 5 0.000000 0.000000 0.000000 0.000000 0.032810 0.000000
# 6 0.000000 0.000000 0.000000 0.000000 0.000000 0.032412
#
#
# Mechanical properties :
#
#
# Convention : Reuss Voigt Hill
#
# Bulk Modulus (GPa) = 52.63525 54.38562 53.51043
# Shear Modulus (GPa) = 29.61368 29.96430 29.78899
#
# Velocity S-wave (km/s) = 3.78717 3.80952 3.79836
# Velocity P-wave (km/s) = 6.67953 6.75946 6.71961
#
# Compressibility (1/GPa) = 0.01899868
#
# Stress axis : x y z
#
# Youngs Moduli (GPa) = 75.65325 61.91170 86.93312
#
# Poissons Ratio (x) = 0.27807 0.33453
# Poissons Ratio (y) = 0.33979 0.22583
# Poissons Ratio (z) = 0.29112 0.16083
#
# Static dielectric constant tensor:
#      x y z
#    x 3.666160 0.000000 0.000000 
#    y 0.000000 3.825620 0.000000 
#    z 0.000000 0.000000 3.838560 
# 
# 
# High freq. dielectric constant tensor:
#      x y z
#    x 1.801300 0.000000 0.000000 
#    y 0.000000 1.806550 0.000000 
#    z 0.000000 0.000000 1.807260 
# 
# From -- ./inp_files/6470.got.cif
#   From: 2010.03.12/outbox.cif.g09.slc.cpg/sg33_4_cif.got.tgz:6470.got - 2010.04.14 01:49:19.
