data_PCOD8170215
_publ_section_title
;
Structure prediction by ZEFSAII (Michael W. Deem and Ramdas Pophale) SiO2 
 PCOD8170215
Probable space group: P M N 21
;
_chemical_formula_sum "Si O2"
_cell_formula_units_Z 32
_cell_length_a 14.737647
_cell_length_b 8.983948
_cell_length_c 11.574879
_cell_angle_alpha 90.000000
_cell_angle_beta 90.000000
_cell_angle_gamma 90.000000
_cell_volume 1532.540073
_symmetry_space_group_name_H-M "P M N 21"
_symmetry_group_IT_number 31
_symmetry_cell_setting 'orthorhombic'
loop_
_space_group_symop_operation_xyz
x,y,z
1/2-x,-y,1/2+z
-x,y,z
1/2+x,-y,1/2+z
loop_
_atom_site_type_symbol
_atom_site_label
_atom_site_fract_x
_atom_site_fract_y
_atom_site_fract_z
Si Si1 0.752276 0.706378 0.830370
Si Si2 0.101304 0.759586 0.201977
Si Si3 0.895986 0.132239 0.835068
Si Si4 0.153480 0.903938 0.648895
Si Si5 0.709069 0.603143 0.434789
Si Si6 0.702462 0.063519 0.510937
Si Si7 0.597545 0.276229 0.953435
Si Si8 0.393595 0.581905 0.671428
O O1 0.822455 0.778042 0.741143
O O2 0.801289 0.557011 0.875344
O O3 0.655344 0.680209 0.769661
O O4 0.737839 0.820937 0.935956
O O5 0.165184 0.853072 0.121659
O O6 0.112248 0.816186 0.333954
O O7 0.129853 0.587292 0.202103
O O8 0.000000 0.777881 0.153948
O O9 0.826559 0.271285 0.844752
O O10 0.000000 0.185929 0.845431
O O11 0.881469 0.054217 0.710241
O O12 0.876518 0.011146 0.934924
O O13 0.080561 0.834393 0.561109
O O14 0.237290 0.932184 0.562307
O O15 0.814849 0.618979 0.472482
O O16 0.644966 0.618496 0.545614
O O17 0.500000 0.364802 0.940287
O O18 0.500000 0.619203 0.673588
#
# Coordination Sequence:
#
# PCOD8170215 Si02
#       8
#     4   4   4   4   4   4   4   4
#     4  11  24  40  70  98 128 176 216 276 333 394
#     4  10  21  36  62  95 128 170 218 267 321 392
#     4  11  24  42  65  95 133 172 219 277 330 390
#     4  11  24  43  65  94 133 177 215 274 333 397
#     4  12  22  42  67  96 133 173 224 273 333 390
#     4  11  22  41  68  93 130 174 224 265 334 393
#     4  11  22  40  65  91 129 177 219 267 329 390
#     4  11  22  40  64  98 136 169 217 275 331 392
#
# _framework density 20.880367
#
# number of rings (size 3 to 8) (size 9 to 14) (size 15 to 20)
#    0.000    1.000    5.000    1.875    1.750    0.000 
#    0.000    3.750    0.000    0.000    0.000    0.000 
#    0.000    0.000    0.000    0.000    0.000    0.000 
#
# Total GULP energy -396735.074996 kJ/mol
# GULP energy per Si atom -12397.971094 kJ/mol
# Density = 2.083284 g / cm^3
# Si number density = 20.880367 Si / 1000 Ang^3
#
#
#
# Elastic Constant Matrix: (Units=GPa)
#
#
# Indices 1 2 3 4 5 6 
#
# 1 95.9649 30.4733 16.2475 0.0000 0.0000 0.0000
# 2 30.4733 91.4507 38.7271 0.0000 0.0000 0.0000
# 3 16.2475 38.7271 106.1255 0.0000 0.0000 0.0000
# 4 0.0000 0.0000 0.0000 35.7202 0.0000 0.0000
# 5 0.0000 0.0000 0.0000 0.0000 28.4405 0.0000
# 6 0.0000 0.0000 0.0000 0.0000 0.0000 16.0050
#
#
#
# Elastic Compliance Matrix: (Units=1/GPa)
#
#
# Indices 1 2 3 4 5 6 
#
# 1 0.011671 -0.003705 -0.000435 0.000000 0.000000 0.000000
# 2 -0.003705 0.014110 -0.004582 0.000000 0.000000 0.000000
# 3 -0.000435 -0.004582 0.011161 0.000000 0.000000 0.000000
# 4 0.000000 0.000000 0.000000 0.027995 0.000000 0.000000
# 5 0.000000 0.000000 0.000000 0.000000 0.035161 0.000000
# 6 0.000000 0.000000 0.000000 0.000000 0.000000 0.062480
#
#
# Mechanical properties :
#
#
# Convention : Reuss Voigt Hill
#
# Bulk Modulus (GPa) = 51.28465 51.60411 51.44438
# Shear Modulus (GPa) = 26.80672 29.90602 28.35637
#
# Velocity S-wave (km/s) = 3.58694 3.78862 3.68916
# Velocity P-wave (km/s) = 6.46292 6.62616 6.54505
#
# Compressibility (1/GPa) = 0.01949901
#
# Stress axis : x y z
#
# Youngs Moduli (GPa) = 85.68599 70.87392 89.59531
#
# Poissons Ratio (x) = 0.26257 0.03896
# Poissons Ratio (y) = 0.31744 0.41049
# Poissons Ratio (z) = 0.03726 0.32472
#
# Static dielectric constant tensor:
#      x y z
#    x 3.738740 0.000000 0.000000 
#    y 0.000000 3.744280 0.000000 
#    z 0.000000 0.000000 4.052220 
# 
# 
# High freq. dielectric constant tensor:
#      x y z
#    x 1.815350 0.000000 0.000000 
#    y 0.000000 1.803660 0.000000 
#    z 0.000000 0.000000 1.835760 
# 
# From -- ./inp_files/4281.got.cif
#   From: 2010.03.12/outbox.cif.g09.slc.cpg/sg31_3_cif.got.tgz:4281.got - 2010.04.14 01:42:59.
