data_PCOD8170636
_publ_section_title
;
Structure prediction by ZEFSAII (Michael W. Deem and Ramdas Pophale) SiO2 
 PCOD8170636
Probable space group: P B A 2
;
_chemical_formula_sum "Si O2"
_cell_formula_units_Z 24
_cell_length_a 9.235297
_cell_length_b 18.853200
_cell_length_c 7.626652
_cell_angle_alpha 90.000000
_cell_angle_beta 90.000000
_cell_angle_gamma 90.000000
_cell_volume 1327.913761
_symmetry_space_group_name_H-M "P B A 2"
_symmetry_group_IT_number 32
_symmetry_cell_setting 'orthorhombic'
loop_
_space_group_symop_operation_xyz
x,y,z
-x,-y,z
1/2-x,1/2+y,z
1/2+x,1/2-y,z
loop_
_atom_site_type_symbol
_atom_site_label
_atom_site_fract_x
_atom_site_fract_y
_atom_site_fract_z
Si Si1 0.641666 0.408109 0.865850
Si Si2 0.102813 0.193900 0.166579
Si Si3 0.270843 0.334266 0.166829
Si Si4 0.602786 0.306084 0.565128
Si Si5 0.270825 0.334276 0.564798
Si Si6 0.696761 0.563487 0.865814
O O1 0.679129 0.363118 0.691943
O O2 0.737014 0.480044 0.865824
O O3 0.474499 0.428188 0.865831
O O4 0.679142 0.363156 0.039812
O O5 0.159562 0.271947 0.120967
O O6 0.142674 0.172703 0.365863
O O7 0.931370 0.195970 0.135360
O O8 0.251504 0.361246 0.365809
O O9 0.237110 0.400138 0.039516
O O10 0.431337 0.304024 0.596303
O O11 0.659510 0.228026 0.610682
O O12 0.237127 0.400161 0.692075
#
# Coordination Sequence:
#
# PCOD8170636 Si02
#       6
#     4   4   4   4   4   4
#     4   9  17  28  43  65  90 113 140 176 214 251
#     4   9  17  29  46  66  86 111 143 177 212 250
#     4   9  17  29  46  66  86 111 143 177 212 250
#     4   9  17  29  46  66  86 111 143 177 212 250
#     4   9  17  29  46  66  86 111 143 177 212 250
#     4   9  17  28  43  65  90 113 140 176 214 251
#
# _framework density 18.073461999999999
#
# number of rings (size 3 to 8) (size 9 to 14) (size 15 to 20)
#    0.000    3.000    0.000    1.000    0.000    1.333 
#    0.000    6.667    0.000    4.000    0.000    9.333 
#    0.000    0.000    0.000    0.000    0.000    0.000 
#
# Total GULP energy -297567.686275 kJ/mol
# GULP energy per Si atom -12398.653595 kJ/mol
# Density = 1.803233 g / cm^3
# Si number density = 18.073462 Si / 1000 Ang^3
#
#
#
# Elastic Constant Matrix: (Units=GPa)
#
#
# Indices 1 2 3 4 5 6 
#
# 1 13.1700 -6.6021 3.5112 0.0000 0.0000 0.0000
# 2 -6.6021 32.2272 28.2081 0.0000 0.0000 0.0000
# 3 3.5112 28.2081 100.1185 0.0000 0.0000 0.0000
# 4 0.0000 0.0000 0.0000 23.5952 0.0000 0.0000
# 5 0.0000 0.0000 0.0000 0.0000 15.6547 0.0000
# 6 0.0000 0.0000 0.0000 0.0000 0.0000 20.5914
#
#
#
# Elastic Compliance Matrix: (Units=1/GPa)
#
#
# Indices 1 2 3 4 5 6 
#
# 1 0.093691 0.029294 -0.011539 0.000000 0.000000 0.000000
# 2 0.029294 0.050346 -0.015212 0.000000 0.000000 0.000000
# 3 -0.011539 -0.015212 0.014679 0.000000 0.000000 0.000000
# 4 0.000000 0.000000 0.000000 0.042381 0.000000 0.000000
# 5 0.000000 0.000000 0.000000 0.000000 0.063878 0.000000
# 6 0.000000 0.000000 0.000000 0.000000 0.000000 0.048564
#
#
# Mechanical properties :
#
#
# Convention : Reuss Voigt Hill
#
# Bulk Modulus (GPa) = 6.10498 21.75002 13.92750
# Shear Modulus (GPa) = 13.77202 19.99484 16.88343
#
# Velocity S-wave (km/s) = 2.76343 3.32973 3.05971
# Velocity P-wave (km/s) = 3.68338 5.18104 4.49502
#
# Compressibility (1/GPa) = 0.16380070
#
# Stress axis : x y z
#
# Youngs Moduli (GPa) = 10.67336 19.86262 68.12541
#
# Poissons Ratio (x) = -0.58185 0.78612
# Poissons Ratio (y) = -0.31266 1.03633
# Poissons Ratio (z) = 0.12316 0.30215
#
# Static dielectric constant tensor:
#      x y z
#    x 2.986990 0.000000 0.000000 
#    y 0.000000 3.459330 0.000000 
#    z 0.000000 0.000000 3.589790 
# 
# 
# High freq. dielectric constant tensor:
#      x y z
#    x 1.657990 0.000000 0.000000 
#    y 0.000000 1.690320 0.000000 
#    z 0.000000 0.000000 1.717550 
# 
# From -- ./inp_files/2324.got.cif
#   From: 2010.03.12/outbox.cif.g09.slc.cpg/sg32_2_cif.got.tgz:2324.got - 2010.04.14 01:46:39.
