data_PCOD8170865
_publ_section_title
;
Structure prediction by ZEFSAII (Michael W. Deem and Ramdas Pophale) SiO2 
 PCOD8170865
Probable space group: P N A 21
;
_chemical_formula_sum "Si O2"
_cell_formula_units_Z 32
_cell_length_a 17.585330
_cell_length_b 15.149928
_cell_length_c 5.625637
_cell_angle_alpha 90.000000
_cell_angle_beta 90.000000
_cell_angle_gamma 90.000000
_cell_volume 1498.762426
_symmetry_space_group_name_H-M "P N A 21"
_symmetry_group_IT_number 33
_symmetry_cell_setting 'orthorhombic'
loop_
_space_group_symop_operation_xyz
x,y,z
-x,-y,1/2+z
1/2-x,1/2+y,1/2+z
1/2+x,1/2-y,z
loop_
_atom_site_type_symbol
_atom_site_label
_atom_site_fract_x
_atom_site_fract_y
_atom_site_fract_z
Si Si1 0.111175 0.009309 0.603630
Si Si2 0.287732 0.898906 0.194408
Si Si3 0.223379 0.503765 0.196482
Si Si4 0.413688 0.085444 0.484439
Si Si5 0.052542 0.391787 0.806532
Si Si6 0.369141 0.338234 0.783238
Si Si7 0.051325 0.719083 0.616445
Si Si8 0.015121 0.884249 0.892301
O O1 0.126655 0.927816 0.431589
O O2 0.056073 0.975168 0.813364
O O3 0.191406 0.044339 0.708866
O O4 0.069801 0.091059 0.475321
O O5 0.368634 0.847432 0.212411
O O6 0.215770 0.832997 0.170448
O O7 0.281139 0.948607 0.449864
O O8 0.290472 0.955503 0.949168
O O9 0.156736 0.577211 0.170040
O O10 0.490482 0.117330 0.605070
O O11 0.396951 0.164590 0.301616
O O12 0.429314 0.993869 0.352388
O O13 0.018779 0.342513 0.035130
O O14 0.434636 0.338309 0.590514
O O15 0.385017 0.248229 0.925780
O O16 0.009382 0.809702 0.691982
#
# Coordination Sequence:
#
# PCOD8170865 Si02
#       8
#     4   4   4   4   4   4   4   4
#     4  10  20  37  69  99 129 177 229 278 350 416
#     4  10  22  40  70 102 131 175 227 282 349 414
#     4  10  22  39  68 105 131 170 233 288 339 417
#     4  11  22  41  69  93 133 180 232 285 348 408
#     4  11  22  41  70  96 128 180 235 284 342 419
#     4  10  21  41  64  96 138 175 222 286 348 422
#     4  11  25  40  63 100 135 184 231 293 351 407
#     4  11  20  39  67  95 137 177 229 282 347 421
#
# _framework density 21.350947000000001
#
# number of rings (size 3 to 8) (size 9 to 14) (size 15 to 20)
#    0.000    1.500    3.750    1.500    3.500    0.000 
#    2.250    0.000    8.250    0.000    0.000    0.000 
#    0.000    0.000    0.000    0.000    0.000    0.000 
#
# Total GULP energy -396452.890812 kJ/mol
# GULP energy per Si atom -12389.152838 kJ/mol
# Density = 2.130235 g / cm^3
# Si number density = 21.350947 Si / 1000 Ang^3
#
#
#
# Elastic Constant Matrix: (Units=GPa)
#
#
# Indices 1 2 3 4 5 6 
#
# 1 178.3767 39.7026 38.1941 0.0000 0.0000 0.0000
# 2 39.7026 76.3449 19.8571 0.0000 0.0000 0.0000
# 3 38.1941 19.8571 100.9059 0.0000 0.0000 0.0000
# 4 0.0000 0.0000 0.0000 17.1542 0.0000 0.0000
# 5 0.0000 0.0000 0.0000 0.0000 27.7292 0.0000
# 6 0.0000 0.0000 0.0000 0.0000 0.0000 7.7935
#
#
#
# Elastic Compliance Matrix: (Units=1/GPa)
#
#
# Indices 1 2 3 4 5 6 
#
# 1 0.006684 -0.002970 -0.001945 0.000000 0.000000 0.000000
# 2 -0.002970 0.015125 -0.001852 0.000000 0.000000 0.000000
# 3 -0.001945 -0.001852 0.011011 0.000000 0.000000 0.000000
# 4 0.000000 0.000000 0.000000 0.058295 0.000000 0.000000
# 5 0.000000 0.000000 0.000000 0.000000 0.036063 0.000000
# 6 0.000000 0.000000 0.000000 0.000000 0.000000 0.128312
#
#
# Mechanical properties :
#
#
# Convention : Reuss Voigt Hill
#
# Bulk Modulus (GPa) = 51.85526 61.23725 56.54626
# Shear Modulus (GPa) = 18.15198 27.72697 22.93948
#
# Velocity S-wave (km/s) = 2.91893 3.60756 3.28136
# Velocity P-wave (km/s) = 5.97495 6.78942 6.39516
#
# Compressibility (1/GPa) = 0.01928445
#
# Stress axis : x y z
#
# Youngs Moduli (GPa) = 149.61826 66.11731 90.81751
#
# Poissons Ratio (x) = 0.19635 0.17668
# Poissons Ratio (y) = 0.44434 0.16822
# Poissons Ratio (z) = 0.29107 0.12247
#
# Static dielectric constant tensor:
#      x y z
#    x 4.581450 0.000000 0.000000 
#    y 0.000000 3.719800 0.000000 
#    z 0.000000 0.000000 4.071250 
# 
# 
# High freq. dielectric constant tensor:
#      x y z
#    x 1.851450 0.000000 0.000000 
#    y 0.000000 1.802720 0.000000 
#    z 0.000000 0.000000 1.847640 
# 
# From -- ./inp_files/1811.got.cif
#   From: 2010.03.12/outbox.cif.g09.slc.cpg/sg33_1_cif.got.tgz:1811.got - 2010.04.14 01:49:19.
