data_PCOD8170351
_publ_section_title
;
Structure prediction by ZEFSAII (Michael W. Deem and Ramdas Pophale) SiO2 
 PCOD8170351
Probable space group: P M N 21
;
_chemical_formula_sum "Si O2"
_cell_formula_units_Z 24
_cell_length_a 8.814952
_cell_length_b 13.563759
_cell_length_c 9.934154
_cell_angle_alpha 90.000000
_cell_angle_beta 90.000000
_cell_angle_gamma 90.000000
_cell_volume 1187.766042
_symmetry_space_group_name_H-M "P M N 21"
_symmetry_group_IT_number 31
_symmetry_cell_setting 'orthorhombic'
loop_
_space_group_symop_operation_xyz
x,y,z
1/2-x,-y,1/2+z
-x,y,z
1/2+x,-y,1/2+z
loop_
_atom_site_type_symbol
_atom_site_label
_atom_site_fract_x
_atom_site_fract_y
_atom_site_fract_z
Si Si1 0.679153 0.083793 0.104270
Si Si2 0.322322 0.225329 0.863155
Si Si3 0.321328 0.571197 0.431969
Si Si4 0.676028 0.798853 0.833843
Si Si5 0.824151 0.418682 0.235877
Si Si6 0.678553 0.124325 0.586680
O O1 0.500000 0.086231 0.128366
O O2 0.764996 0.112677 0.240503
O O3 0.730772 0.975898 0.060209
O O4 0.729819 0.159047 0.988079
O O5 0.500000 0.244723 0.864610
O O6 0.242792 0.330336 0.866253
O O7 0.271653 0.169846 0.728392
O O8 0.500000 0.580241 0.431382
O O9 0.271157 0.478307 0.344734
O O10 0.264913 0.556518 0.585725
O O11 0.500000 0.816194 0.865711
O O12 0.705611 0.696354 0.759141
O O13 0.770950 0.798935 0.971813
O O14 0.000000 0.446348 0.253716
O O15 0.500000 0.104080 0.580175
#
# Coordination Sequence:
#
# PCOD8170351 Si02
#       6
#     4   4   4   4   4   4
#     4  11  22  40  66  94 124 166 211 256 316 374
#     4  10  23  42  63  90 127 163 204 257 312 366
#     4  11  24  42  67  94 121 161 207 253 311 372
#     4  11  23  42  64  90 128 167 209 260 309 366
#     4  10  24  44  64  92 127 162 202 256 312 368
#     4  11  24  40  62  94 129 167 209 258 310 370
#
# _framework density 20.206
#
# number of rings (size 3 to 8) (size 9 to 14) (size 15 to 20)
#    0.000    1.333    1.667    3.000    2.333    6.000 
#    0.000    0.000    0.000    0.000    0.000    0.000 
#    0.000    0.000    0.000    0.000    0.000    0.000 
#
# Total GULP energy -297777.938168 kJ/mol
# GULP energy per Si atom -12407.414090 kJ/mol
# Density = 2.016001 g / cm^3
# Si number density = 20.206000 Si / 1000 Ang^3
#
#
#
# Elastic Constant Matrix: (Units=GPa)
#
#
# Indices 1 2 3 4 5 6 
#
# 1 36.3610 20.0416 38.6515 0.0000 0.0000 0.0000
# 2 20.0416 69.3710 32.6241 0.0000 0.0000 0.0000
# 3 38.6515 32.6241 121.4509 0.0000 0.0000 0.0000
# 4 0.0000 0.0000 0.0000 37.0571 0.0000 0.0000
# 5 0.0000 0.0000 0.0000 0.0000 34.5871 0.0000
# 6 0.0000 0.0000 0.0000 0.0000 0.0000 39.2014
#
#
#
# Elastic Compliance Matrix: (Units=1/GPa)
#
#
# Indices 1 2 3 4 5 6 
#
# 1 0.044403 -0.007077 -0.012230 0.000000 0.000000 0.000000
# 2 -0.007077 0.017627 -0.002483 0.000000 0.000000 0.000000
# 3 -0.012230 -0.002483 0.012793 0.000000 0.000000 0.000000
# 4 0.000000 0.000000 0.000000 0.026985 0.000000 0.000000
# 5 0.000000 0.000000 0.000000 0.000000 0.028913 0.000000
# 6 0.000000 0.000000 0.000000 0.000000 0.000000 0.025509
#
#
# Mechanical properties :
#
#
# Convention : Reuss Voigt Hill
#
# Bulk Modulus (GPa) = 32.00622 45.53527 38.77074
# Shear Modulus (GPa) = 23.78400 31.22682 27.50541
#
# Velocity S-wave (km/s) = 3.43458 3.93545 3.69351
# Velocity P-wave (km/s) = 5.62163 6.57532 6.11709
#
# Compressibility (1/GPa) = 0.03124393
#
# Stress axis : x y z
#
# Youngs Moduli (GPa) = 22.52086 56.72987 78.16755
#
# Poissons Ratio (x) = 0.40145 0.95602
# Poissons Ratio (y) = 0.15937 0.19409
# Poissons Ratio (z) = 0.27544 0.14086
#
# Static dielectric constant tensor:
#      x y z
#    x 3.625230 0.000000 0.000000 
#    y 0.000000 3.580700 0.000000 
#    z 0.000000 0.000000 3.853940 
# 
# 
# High freq. dielectric constant tensor:
#      x y z
#    x 1.791410 0.000000 0.000000 
#    y 0.000000 1.794520 0.000000 
#    z 0.000000 0.000000 1.805540 
# 
# From -- ./inp_files/1668.got.cif
#   From: 2010.03.12/outbox.cif.g09.slc.cpg/sg31_1_cif.got.tgz:1668.got - 2010.04.14 01:42:59.
