data_PCOD8170504
_publ_section_title
;
Structure prediction by ZEFSAII (Michael W. Deem and Ramdas Pophale) SiO2 
 PCOD8170504
Probable space group: P B A 2
;
_chemical_formula_sum "Si O2"
_cell_formula_units_Z 20
_cell_length_a 9.049109
_cell_length_b 14.893256
_cell_length_c 7.459543
_cell_angle_alpha 90.000000
_cell_angle_beta 90.000000
_cell_angle_gamma 90.000000
_cell_volume 1005.327809
_symmetry_space_group_name_H-M "P B A 2"
_symmetry_group_IT_number 32
_symmetry_cell_setting 'orthorhombic'
loop_
_space_group_symop_operation_xyz
x,y,z
-x,-y,z
1/2-x,1/2+y,z
1/2+x,1/2-y,z
loop_
_atom_site_type_symbol
_atom_site_label
_atom_site_fract_x
_atom_site_fract_y
_atom_site_fract_z
Si Si1 0.654338 0.034057 0.647920
Si Si2 0.539714 0.677881 0.090614
Si Si3 0.431430 0.408356 0.455172
Si Si4 0.657462 0.192012 0.911478
Si Si5 0.139199 0.122245 0.783339
O O1 0.608902 0.107113 0.795614
O O2 0.756520 0.077753 0.493596
O O3 0.500000 0.000000 0.561740
O O4 0.738089 0.951460 0.743759
O O5 0.534068 0.665528 0.304402
O O6 0.480042 0.777790 0.039138
O O7 0.708181 0.664395 0.036899
O O8 0.294158 0.723758 0.782635
O O9 0.500000 0.500000 0.380479
O O10 0.506737 0.379890 0.640171
O O11 0.062294 0.106394 0.979104
#
# Coordination Sequence:
#
# PCOD8170504 Si02
#       5
#     4   4   4   4   4
#     4  11  21  39  68  97 125 170 220 270 322 374
#     4  10  22  39  61  92 125 166 214 256 329 376
#     4  10  22  39  64  90 123 172 210 261 325 387
#     4  10  21  39  64  91 127 173 206 267 321 380
#     4   9  22  41  64  90 130 172 211 261 324 388
#
# _framework density 19.894007999999999
#
# number of rings (size 3 to 8) (size 9 to 14) (size 15 to 20)
#    1.200    0.800    2.000    1.200    2.800    1.600 
#    0.000    5.000    0.000    0.000    0.000    0.000 
#    0.000    0.000    0.000    0.000    0.000    0.000 
#
# Total GULP energy -247817.038985 kJ/mol
# GULP energy per Si atom -12390.851949 kJ/mol
# Density = 1.984873 g / cm^3
# Si number density = 19.894008 Si / 1000 Ang^3
#
#
#
# Elastic Constant Matrix: (Units=GPa)
#
#
# Indices 1 2 3 4 5 6 
#
# 1 109.3826 21.7175 46.3081 0.0000 0.0000 0.0000
# 2 21.7175 81.1361 31.4864 0.0000 0.0000 0.0000
# 3 46.3081 31.4864 102.1062 0.0000 0.0000 0.0000
# 4 0.0000 0.0000 0.0000 24.1795 0.0000 0.0000
# 5 0.0000 0.0000 0.0000 0.0000 14.7557 0.0000
# 6 0.0000 0.0000 0.0000 0.0000 0.0000 30.5354
#
#
#
# Elastic Compliance Matrix: (Units=1/GPa)
#
#
# Indices 1 2 3 4 5 6 
#
# 1 0.011415 -0.001189 -0.004810 0.000000 0.000000 0.000000
# 2 -0.001189 0.014124 -0.003816 0.000000 0.000000 0.000000
# 3 -0.004810 -0.003816 0.013152 0.000000 0.000000 0.000000
# 4 0.000000 0.000000 0.000000 0.041357 0.000000 0.000000
# 5 0.000000 0.000000 0.000000 0.000000 0.067770 0.000000
# 6 0.000000 0.000000 0.000000 0.000000 0.000000 0.032749
#
#
# Mechanical properties :
#
#
# Convention : Reuss Voigt Hill
#
# Bulk Modulus (GPa) = 52.46486 54.62764 53.54625
# Shear Modulus (GPa) = 24.20700 26.76832 25.48766
#
# Velocity S-wave (km/s) = 3.49205 3.67215 3.58323
# Velocity P-wave (km/s) = 6.53365 6.74526 6.64030
#
# Compressibility (1/GPa) = 0.01906038
#
# Stress axis : x y z
#
# Youngs Moduli (GPa) = 87.60606 70.80082 76.03274
#
# Poissons Ratio (x) = 0.08415 0.36575
# Poissons Ratio (y) = 0.10413 0.29017
# Poissons Ratio (z) = 0.42142 0.27020
#
# Static dielectric constant tensor:
#      x y z
#    x 3.580700 0.000000 0.000000 
#    y 0.000000 3.583170 0.000000 
#    z 0.000000 0.000000 3.310000 
# 
# 
# High freq. dielectric constant tensor:
#      x y z
#    x 1.778830 0.000000 0.000000 
#    y 0.000000 1.769280 0.000000 
#    z 0.000000 0.000000 1.751850 
# 
# From -- ./inp_files/2366.got.cif
#   From: 2010.03.12/outbox.cif.g09.slc.cpg/sg32_2_cif.got.tgz:2366.got - 2010.04.14 01:46:39.
