data_PCOD8170101
_publ_section_title
;
Structure prediction by ZEFSAII (Michael W. Deem and Ramdas Pophale) SiO2 
 PCOD8170101
Probable space group: P M N 21
;
_chemical_formula_sum "Si O2"
_cell_formula_units_Z 32
_cell_length_a 14.503184
_cell_length_b 11.902009
_cell_length_c 9.384348
_cell_angle_alpha 90.000000
_cell_angle_beta 90.000000
_cell_angle_gamma 90.000000
_cell_volume 1619.898247
_symmetry_space_group_name_H-M "P M N 21"
_symmetry_group_IT_number 31
_symmetry_cell_setting 'orthorhombic'
loop_
_space_group_symop_operation_xyz
x,y,z
1/2-x,-y,1/2+z
-x,y,z
1/2+x,-y,1/2+z
loop_
_atom_site_type_symbol
_atom_site_label
_atom_site_fract_x
_atom_site_fract_y
_atom_site_fract_z
Si Si1 0.101848 0.544388 0.255340
Si Si2 0.105097 0.063515 0.853274
Si Si3 0.785816 0.390706 0.860433
Si Si4 0.605717 0.182825 0.243699
Si Si5 0.893853 0.256139 0.638290
Si Si6 0.282875 0.801586 0.572327
Si Si7 0.896703 0.602190 0.930821
Si Si8 0.894237 0.285836 0.314291
O O1 0.175066 0.607823 0.353570
O O2 0.123814 0.411862 0.258335
O O3 0.000000 0.565065 0.319368
O O4 0.109742 0.601199 0.100890
O O5 0.121335 0.133009 0.706879
O O6 0.000000 0.084669 0.907733
O O7 0.122714 0.934129 0.822484
O O8 0.179508 0.097577 0.973818
O O9 0.829367 0.344781 0.716196
O O10 0.822689 0.516010 0.871818
O O11 0.811037 0.314325 0.994530
O O12 0.500000 0.192045 0.188464
O O13 0.673522 0.190032 0.106327
O O14 0.627941 0.277615 0.362052
O O15 0.861986 0.262772 0.475255
O O16 0.000000 0.294295 0.653512
O O17 0.335963 0.802037 0.721737
O O18 0.000000 0.565674 0.885154
O O19 0.000000 0.252872 0.295732
#
# Coordination Sequence:
#
# PCOD8170101 Si02
#       8
#     4   4   4   4   4   4   4   4
#     4  10  22  36  53  81 122 158 193 242 295 359
#     4   9  20  42  64  87 118 155 200 252 306 362
#     4  11  22  35  58  87 119 151 197 240 298 356
#     4  10  23  41  62  86 122 164 204 245 302 370
#     4   9  20  36  60  88 116 149 191 250 307 353
#     4  11  22  37  62  91 114 154 198 251 301 356
#     4  10  21  38  60  85 119 162 197 239 298 366
#     4  10  20  35  57  89 120 149 192 251 307 352
#
# _framework density 19.754325999999999
#
# number of rings (size 3 to 8) (size 9 to 14) (size 15 to 20)
#    0.000    2.000    1.250    1.500    3.500    2.500 
#    2.250    2.500    0.000    0.750    0.000    0.000 
#    0.000    0.000    0.000    0.000    0.000    0.000 
#
# Total GULP energy -396743.803089 kJ/mol
# GULP energy per Si atom -12398.243847 kJ/mol
# Density = 1.970936 g / cm^3
# Si number density = 19.754326 Si / 1000 Ang^3
#
#
#
# Elastic Constant Matrix: (Units=GPa)
#
#
# Indices 1 2 3 4 5 6 
#
# 1 101.9118 34.3126 50.1499 0.0000 0.0000 0.0000
# 2 34.3126 87.6518 31.7438 0.0000 0.0000 0.0000
# 3 50.1499 31.7438 101.6252 0.0000 0.0000 0.0000
# 4 0.0000 0.0000 0.0000 18.8007 0.0000 0.0000
# 5 0.0000 0.0000 0.0000 0.0000 18.8920 0.0000
# 6 0.0000 0.0000 0.0000 0.0000 0.0000 14.9353
#
#
#
# Elastic Compliance Matrix: (Units=1/GPa)
#
#
# Indices 1 2 3 4 5 6 
#
# 1 0.013757 -0.003300 -0.005758 0.000000 0.000000 0.000000
# 2 -0.003300 0.013656 -0.002637 0.000000 0.000000 0.000000
# 3 -0.005758 -0.002637 0.013505 0.000000 0.000000 0.000000
# 4 0.000000 0.000000 0.000000 0.053189 0.000000 0.000000
# 5 0.000000 0.000000 0.000000 0.000000 0.052932 0.000000
# 6 0.000000 0.000000 0.000000 0.000000 0.000000 0.066956
#
#
# Mechanical properties :
#
#
# Convention : Reuss Voigt Hill
#
# Bulk Modulus (GPa) = 57.05230 58.17796 57.61513
# Shear Modulus (GPa) = 20.55685 22.19109 21.37397
#
# Velocity S-wave (km/s) = 3.22937 3.35528 3.29293
# Velocity P-wave (km/s) = 6.54589 6.67272 6.60961
#
# Compressibility (1/GPa) = 0.01752778
#
# Stress axis : x y z
#
# Youngs Moduli (GPa) = 72.69052 73.22973 74.04558
#
# Poissons Ratio (x) = 0.24166 0.42635
# Poissons Ratio (y) = 0.23988 0.19526
# Poissons Ratio (z) = 0.41855 0.19311
#
# Static dielectric constant tensor:
#      x y z
#    x 3.999870 0.000000 0.000000 
#    y 0.000000 3.424320 0.000000 
#    z 0.000000 0.000000 3.504100 
# 
# 
# High freq. dielectric constant tensor:
#      x y z
#    x 1.783860 0.000000 0.000000 
#    y 0.000000 1.755480 0.000000 
#    z 0.000000 0.000000 1.762520 
# 
# From -- ./inp_files/2573.got.cif
#   From: 2010.03.12/outbox.cif.g09.slc.cpg/sg31_2_cif.got.tgz:2573.got - 2010.04.14 01:42:59.
