data_PCOD8170564
_publ_section_title
;
Structure prediction by ZEFSAII (Michael W. Deem and Ramdas Pophale) SiO2 
 PCOD8170564
Probable space group: P B A 2
;
_chemical_formula_sum "Si O2"
_cell_formula_units_Z 28
_cell_length_a 11.714903
_cell_length_b 19.350867
_cell_length_c 4.885084
_cell_angle_alpha 90.000000
_cell_angle_beta 90.000000
_cell_angle_gamma 90.000000
_cell_volume 1107.416936
_symmetry_space_group_name_H-M "P B A 2"
_symmetry_group_IT_number 32
_symmetry_cell_setting 'orthorhombic'
loop_
_space_group_symop_operation_xyz
x,y,z
-x,-y,z
1/2-x,1/2+y,z
1/2+x,1/2-y,z
loop_
_atom_site_type_symbol
_atom_site_label
_atom_site_fract_x
_atom_site_fract_y
_atom_site_fract_z
Si Si1 0.829232 0.102984 0.881760
Si Si2 0.668058 0.899174 0.810990
Si Si3 0.176562 0.247556 0.438987
Si Si4 0.500000 0.500000 0.095063
Si Si5 0.324906 0.246836 0.933532
Si Si6 0.832143 0.602269 0.380176
Si Si7 0.827547 0.898304 0.307926
Si Si8 0.000000 0.500000 0.102360
O O1 0.884746 0.180253 0.850937
O O2 0.727604 0.085446 0.669830
O O3 0.930528 0.047840 0.881967
O O4 0.772015 0.096704 0.175484
O O5 0.607097 0.822764 0.838940
O O6 0.719952 0.913937 0.509692
O O7 0.778137 0.898669 0.003584
O O8 0.578687 0.957330 0.894459
O O9 0.206867 0.246571 0.759118
O O10 0.112287 0.319889 0.374173
O O11 0.110609 0.175956 0.370545
O O12 0.293357 0.244592 0.254815
O O13 0.576491 0.456742 0.309450
O O14 0.932226 0.549485 0.309680
#
# Coordination Sequence:
#
# PCOD8170564 Si02
#       8
#     4   4   4   2   4   4   4   2
#     4  10  23  42  64  94 131 170 220 272 322 389
#     4  10  23  42  64  94 131 170 220 272 322 389
#     4   8  16  37  64  87 121 168 215 271 320 369
#     4  12  26  40  68 100 136 180 214 266 344 402
#     4   8  16  37  64  87 121 168 215 271 320 369
#     4  10  23  42  64  94 131 170 220 272 322 389
#     4  10  23  42  64  94 131 170 220 272 322 389
#     4  12  26  40  68 100 136 180 214 266 344 402
#
# _framework density 25.284064000000001
#
# number of rings (size 3 to 8) (size 9 to 14) (size 15 to 20)
#    0.000    2.286    0.000    0.857    0.000   10.286 
#    0.000    0.000    0.000   20.571    0.000    6.000 
#    0.000    0.000    0.000    0.000    0.000    0.000 
#
# Total GULP energy -346918.991691 kJ/mol
# GULP energy per Si atom -12389.963989 kJ/mol
# Density = 2.522652 g / cm^3
# Si number density = 25.284064 Si / 1000 Ang^3
#
#
#
# Elastic Constant Matrix: (Units=GPa)
#
#
# Indices 1 2 3 4 5 6 
#
# 1 73.3750 85.0910 15.2999 0.0000 0.0000 0.0000
# 2 85.0910 246.0655 33.7536 0.0000 0.0000 0.0000
# 3 15.2999 33.7536 82.9954 0.0000 0.0000 0.0000
# 4 0.0000 0.0000 0.0000 11.0959 0.0000 0.0000
# 5 0.0000 0.0000 0.0000 0.0000 26.5001 0.0000
# 6 0.0000 0.0000 0.0000 0.0000 0.0000 -22.8969
#
#
#
# Elastic Compliance Matrix: (Units=1/GPa)
#
#
# Indices 1 2 3 4 5 6 
#
# 1 0.022840 -0.007753 -0.001057 0.000000 0.000000 0.000000
# 2 -0.007753 0.006936 -0.001392 0.000000 0.000000 0.000000
# 3 -0.001057 -0.001392 0.012810 0.000000 0.000000 0.000000
# 4 0.000000 0.000000 0.000000 0.090123 0.000000 0.000000
# 5 0.000000 0.000000 0.000000 0.000000 0.037736 0.000000
# 6 0.000000 0.000000 0.000000 0.000000 0.000000 -0.043674
#
#
# Mechanical properties :
#
#
# Convention : Reuss Voigt Hill
#
# Bulk Modulus (GPa) = 45.08205 74.52498 59.80351
# Shear Modulus (GPa) = 32.34797 20.82591 26.58694
#
# Velocity S-wave (km/s) = 3.58073 2.87309 3.24625
# Velocity P-wave (km/s) = 5.91307 6.36752 6.14450
#
# Compressibility (1/GPa) = 0.02218178
#
# Stress axis : x y z
#
# Youngs Moduli (GPa) = 43.78204 144.17556 78.06583
#
# Poissons Ratio (x) = 1.11784 0.08254
# Poissons Ratio (y) = 0.33946 0.10863
# Poissons Ratio (z) = 0.04629 0.20062
#
# Static dielectric constant tensor:
#      x y z
#    x 3.768970 0.000000 0.000000 
#    y 0.000000 5.544900 0.000000 
#    z 0.000000 0.000000 4.507970 
# 
# 
# High freq. dielectric constant tensor:
#      x y z
#    x 1.940760 0.000000 0.000000 
#    y 0.000000 2.048370 0.000000 
#    z 0.000000 0.000000 2.022610 
# 
# From -- ./inp_files/1018.got.cif
#   From: 2010.03.12/outbox.cif.g09.slc.cpg/sg32_1_cif.got.tgz:1018.got - 2010.04.14 01:46:39.
