data_PCOD8170819
_publ_section_title
;
Structure prediction by ZEFSAII (Michael W. Deem and Ramdas Pophale) SiO2 
 PCOD8170819
Probable space group: P N A 21
;
_chemical_formula_sum "Si O2"
_cell_formula_units_Z 32
_cell_length_a 9.187199
_cell_length_b 23.327786
_cell_length_c 6.996526
_cell_angle_alpha 90.000000
_cell_angle_beta 90.000000
_cell_angle_gamma 90.000000
_cell_volume 1499.474548
_symmetry_space_group_name_H-M "P N A 21"
_symmetry_group_IT_number 33
_symmetry_cell_setting 'orthorhombic'
loop_
_space_group_symop_operation_xyz
x,y,z
-x,-y,1/2+z
1/2-x,1/2+y,1/2+z
1/2+x,1/2-y,z
loop_
_atom_site_type_symbol
_atom_site_label
_atom_site_fract_x
_atom_site_fract_y
_atom_site_fract_z
Si Si1 0.857862 0.470807 0.128530
Si Si2 0.953540 0.378515 0.877237
Si Si3 0.151956 0.310575 0.352902
Si Si4 0.345905 0.620374 0.527997
Si Si5 0.318825 0.789392 0.298887
Si Si6 0.479527 0.300687 0.307807
Si Si7 0.987057 0.579173 0.973963
Si Si8 0.497507 0.316227 0.752842
O O1 0.899653 0.457778 0.348755
O O2 0.694440 0.445252 0.089206
O O3 0.865061 0.537927 0.073439
O O4 0.974482 0.439105 0.987072
O O5 0.090181 0.336817 0.918310
O O6 0.931069 0.388999 0.648710
O O7 0.806626 0.349611 0.962121
O O8 0.167666 0.301182 0.576184
O O9 0.308905 0.304011 0.248723
O O10 0.039959 0.263358 0.269782
O O11 0.087120 0.374697 0.330156
O O12 0.420207 0.653650 0.701708
O O13 0.456527 0.622483 0.345688
O O14 0.381251 0.726727 0.339379
O O15 0.150404 0.794443 0.352272
O O16 0.492738 0.319208 0.527734
#
# Coordination Sequence:
#
# PCOD8170819 Si02
#       8
#     4   4   4   4   4   4   4   4
#     4  10  22  36  63  93 115 163 210 265 307 365
#     4   9  21  36  59  93 115 156 209 256 310 367
#     4   9  22  37  66  87 129 163 205 256 318 382
#     4  10  23  34  58  90 121 158 207 244 310 372
#     4   9  18  36  56  84 119 162 200 249 308 370
#     4  10  22  40  57  95 122 164 200 251 316 383
#     4  11  20  42  65  92 127 159 219 268 312 375
#     4  10  20  35  56  80 124 161 194 249 305 368
#
# _framework density 21.340809
#
# number of rings (size 3 to 8) (size 9 to 14) (size 15 to 20)
#    0.750    1.500    1.250    0.750    3.500    6.000 
#    0.000    0.000    8.250    0.000    0.000    0.000 
#    0.000    0.000    0.000    0.000    0.000    0.000 
#
# Total GULP energy -396425.474957 kJ/mol
# GULP energy per Si atom -12388.296092 kJ/mol
# Density = 2.129224 g / cm^3
# Si number density = 21.340809 Si / 1000 Ang^3
#
#
#
# Elastic Constant Matrix: (Units=GPa)
#
#
# Indices 1 2 3 4 5 6 
#
# 1 103.0754 11.2067 15.5195 0.0000 0.0000 0.0000
# 2 11.2067 59.4065 11.1535 0.0000 0.0000 0.0000
# 3 15.5195 11.1535 62.0853 0.0000 0.0000 0.0000
# 4 0.0000 0.0000 0.0000 30.2979 0.0000 0.0000
# 5 0.0000 0.0000 0.0000 0.0000 29.8010 0.0000
# 6 0.0000 0.0000 0.0000 0.0000 0.0000 31.0781
#
#
#
# Elastic Compliance Matrix: (Units=1/GPa)
#
#
# Indices 1 2 3 4 5 6 
#
# 1 0.010208 -0.001497 -0.002283 0.000000 0.000000 0.000000
# 2 -0.001497 0.017640 -0.002795 0.000000 0.000000 0.000000
# 3 -0.002283 -0.002795 0.017180 0.000000 0.000000 0.000000
# 4 0.000000 0.000000 0.000000 0.033006 0.000000 0.000000
# 5 0.000000 0.000000 0.000000 0.000000 0.033556 0.000000
# 6 0.000000 0.000000 0.000000 0.000000 0.000000 0.032177
#
#
# Mechanical properties :
#
#
# Convention : Reuss Voigt Hill
#
# Bulk Modulus (GPa) = 31.36899 33.36961 32.36930
# Shear Modulus (GPa) = 29.84326 30.68125 30.26225
#
# Velocity S-wave (km/s) = 3.74359 3.79579 3.76978
# Velocity P-wave (km/s) = 5.78074 5.90603 5.84372
#
# Compressibility (1/GPa) = 0.03187862
#
# Stress axis : x y z
#
# Youngs Moduli (GPa) = 97.96129 56.68831 58.20865
#
# Poissons Ratio (x) = 0.08487 0.13288
# Poissons Ratio (y) = 0.14666 0.16268
# Poissons Ratio (z) = 0.22362 0.15843
#
# Static dielectric constant tensor:
#      x y z
#    x 3.874020 0.000000 0.000000 
#    y 0.000000 3.748270 0.000000 
#    z 0.000000 0.000000 3.839870 
# 
# 
# High freq. dielectric constant tensor:
#      x y z
#    x 1.818870 0.000000 0.000000 
#    y 0.000000 1.813380 0.000000 
#    z 0.000000 0.000000 1.854660 
# 
# From -- ./inp_files/3601.got.cif
#   From: 2010.03.12/outbox.cif.g09.slc.cpg/sg33_2_cif.got.tgz:3601.got - 2010.04.14 01:49:19.
