data_PCOD8170799
_publ_section_title
;
Structure prediction by ZEFSAII (Michael W. Deem and Ramdas Pophale) SiO2 
 PCOD8170799
Probable space group: P N A 21
;
_chemical_formula_sum "Si O2"
_cell_formula_units_Z 20
_cell_length_a 14.041176
_cell_length_b 9.164934
_cell_length_c 7.438396
_cell_angle_alpha 90.000000
_cell_angle_beta 90.000000
_cell_angle_gamma 90.000000
_cell_volume 957.220785
_symmetry_space_group_name_H-M "P N A 21"
_symmetry_group_IT_number 33
_symmetry_cell_setting 'orthorhombic'
loop_
_space_group_symop_operation_xyz
x,y,z
-x,-y,1/2+z
1/2-x,1/2+y,1/2+z
1/2+x,1/2-y,z
loop_
_atom_site_type_symbol
_atom_site_label
_atom_site_fract_x
_atom_site_fract_y
_atom_site_fract_z
Si Si1 0.692896 0.567473 0.868430
Si Si2 0.100682 0.427209 0.488886
Si Si3 0.598654 0.379379 0.595824
Si Si4 0.576407 0.442862 0.184319
Si Si5 0.446592 0.187703 0.230865
O O1 0.682386 0.459253 0.700796
O O2 0.632583 0.716555 0.838036
O O3 0.804792 0.596827 0.870187
O O4 0.662043 0.481985 0.050195
O O5 0.103518 0.293695 0.629750
O O6 0.103808 0.582834 0.587293
O O7 0.005805 0.413269 0.368545
O O8 0.612302 0.422005 0.387077
O O9 0.497322 0.424162 0.677630
O O10 0.519155 0.296146 0.126673
#
# Coordination Sequence:
#
# PCOD8170799 Si02
#       5
#     4   4   4   4   4
#     4  11  24  45  67  98 134 188 229 257 350 416
#     4  11  25  43  67 104 139 168 228 291 330 396
#     4  10  21  42  69  95 130 183 220 274 336 398
#     4  10  19  43  70  89 134 182 223 265 335 410
#     4  10  25  43  67 100 141 169 228 283 341 388
#
# _framework density 20.893820000000002
#
# number of rings (size 3 to 8) (size 9 to 14) (size 15 to 20)
#    0.000    1.600    6.000    0.000    8.400    1.600 
#    7.200    0.000    0.000    0.000    0.000    0.000 
#    0.000    0.000    0.000    0.000    0.000    0.000 
#
# Total GULP energy -247911.396591 kJ/mol
# GULP energy per Si atom -12395.569830 kJ/mol
# Density = 2.084627 g / cm^3
# Si number density = 20.893820 Si / 1000 Ang^3
#
#
#
# Elastic Constant Matrix: (Units=GPa)
#
#
# Indices 1 2 3 4 5 6 
#
# 1 92.5914 27.2285 22.5357 0.0000 0.0000 0.0000
# 2 27.2285 92.1743 24.3097 0.0000 0.0000 0.0000
# 3 22.5357 24.3097 62.7687 0.0000 0.0000 0.0000
# 4 0.0000 0.0000 0.0000 40.4228 0.0000 0.0000
# 5 0.0000 0.0000 0.0000 0.0000 25.6669 0.0000
# 6 0.0000 0.0000 0.0000 0.0000 0.0000 23.8612
#
#
#
# Elastic Compliance Matrix: (Units=1/GPa)
#
#
# Indices 1 2 3 4 5 6 
#
# 1 0.012443 -0.002782 -0.003390 0.000000 0.000000 0.000000
# 2 -0.002782 0.012705 -0.003922 0.000000 0.000000 0.000000
# 3 -0.003390 -0.003922 0.018668 0.000000 0.000000 0.000000
# 4 0.000000 0.000000 0.000000 0.024739 0.000000 0.000000
# 5 0.000000 0.000000 0.000000 0.000000 0.038961 0.000000
# 6 0.000000 0.000000 0.000000 0.000000 0.000000 0.041909
#
#
# Mechanical properties :
#
#
# Convention : Reuss Voigt Hill
#
# Bulk Modulus (GPa) = 42.32171 43.96469 43.14320
# Shear Modulus (GPa) = 28.17096 29.55420 28.86258
#
# Velocity S-wave (km/s) = 3.67589 3.76506 3.72074
# Velocity P-wave (km/s) = 6.18998 6.32365 6.25717
#
# Compressibility (1/GPa) = 0.02362853
#
# Stress axis : x y z
#
# Youngs Moduli (GPa) = 80.36464 78.70882 53.56879
#
# Poissons Ratio (x) = 0.21894 0.18161
# Poissons Ratio (y) = 0.22355 0.21009
# Poissons Ratio (z) = 0.27245 0.30868
#
# Static dielectric constant tensor:
#      x y z
#    x 3.656330 0.000000 0.000000 
#    y 0.000000 4.022880 0.000000 
#    z 0.000000 0.000000 3.764170 
# 
# 
# High freq. dielectric constant tensor:
#      x y z
#    x 1.809450 0.000000 0.000000 
#    y 0.000000 1.827910 0.000000 
#    z 0.000000 0.000000 1.806130 
# 
# From -- ./inp_files/3666.got.cif
#   From: 2010.03.12/outbox.cif.g09.slc.cpg/sg33_2_cif.got.tgz:3666.got - 2010.04.14 01:49:19.
