data_PCOD8170144
_publ_section_title
;
Structure prediction by ZEFSAII (Michael W. Deem and Ramdas Pophale) SiO2 
 PCOD8170144
Probable space group: P M N 21
;
_chemical_formula_sum "Si O2"
_cell_formula_units_Z 32
_cell_length_a 8.726716
_cell_length_b 11.449443
_cell_length_c 16.230366
_cell_angle_alpha 90.000000
_cell_angle_beta 90.000000
_cell_angle_gamma 90.000000
_cell_volume 1621.673857
_symmetry_space_group_name_H-M "P M N 21"
_symmetry_group_IT_number 31
_symmetry_cell_setting 'orthorhombic'
loop_
_space_group_symop_operation_xyz
x,y,z
1/2-x,-y,1/2+z
-x,y,z
1/2+x,-y,1/2+z
loop_
_atom_site_type_symbol
_atom_site_label
_atom_site_fract_x
_atom_site_fract_y
_atom_site_fract_z
Si Si1 0.176597 0.265509 0.128500
Si Si2 0.832874 0.596073 0.757858
Si Si3 0.317450 0.316944 0.551957
Si Si4 0.317580 0.070321 0.233973
Si Si5 0.172177 0.785941 0.886461
Si Si6 0.671740 0.632055 0.344367
Si Si7 0.321663 0.434806 0.007122
Si Si8 0.680022 0.806770 0.209711
O O1 0.196479 0.363227 0.199140
O O2 0.254530 0.145440 0.157638
O O3 0.000000 0.241936 0.110130
O O4 0.256722 0.316361 0.047614
O O5 0.819979 0.657330 0.846593
O O6 0.823695 0.458328 0.768541
O O7 0.000000 0.629821 0.718823
O O8 0.500000 0.324769 0.546158
O O9 0.252242 0.233411 0.477053
O O10 0.255636 0.448734 0.543412
O O11 0.269543 0.258886 0.637508
O O12 0.500000 0.081191 0.235337
O O13 0.251328 0.120771 0.322085
O O14 0.261633 0.939376 0.217963
O O15 0.000000 0.829551 0.900788
O O16 0.500000 0.638280 0.382846
O O17 0.792493 0.587570 0.410913
O O18 0.717242 0.752700 0.299819
O O19 0.500000 0.447597 0.023989
O O20 0.500000 0.799442 0.190131
#
# Coordination Sequence:
#
# PCOD8170144 Si02
#       8
#     4   4   4   4   4   4   4   4
#     4  11  22  36  58  87 115 149 196 243 292 347
#     4   9  16  32  57  82 116 152 186 228 290 353
#     4  11  21  37  61  90 123 154 199 251 297 355
#     4   9  19  40  62  82 116 160 205 242 289 352
#     4   8  15  31  57  83 110 153 195 236 286 342
#     4  10  20  37  58  83 118 156 192 236 292 357
#     4  12  24  38  58  87 122 154 192 243 305 362
#     4  10  22  39  61  88 122 164 203 243 297 358
#
# _framework density 19.732697000000002
#
# number of rings (size 3 to 8) (size 9 to 14) (size 15 to 20)
#    0.000    2.000    1.250    4.125    0.000    2.500 
#    2.250    0.625    0.000    0.000    0.000    0.000 
#    0.000    0.000    0.000    0.000    0.000    0.000 
#
# Total GULP energy -396571.400045 kJ/mol
# GULP energy per Si atom -12392.856251 kJ/mol
# Density = 1.968778 g / cm^3
# Si number density = 19.732697 Si / 1000 Ang^3
#
#
#
# Elastic Constant Matrix: (Units=GPa)
#
#
# Indices 1 2 3 4 5 6 
#
# 1 71.1721 32.9399 27.5832 0.0000 0.0000 0.0000
# 2 32.9399 135.7967 46.2121 0.0000 0.0000 0.0000
# 3 27.5832 46.2121 79.9970 0.0000 0.0000 0.0000
# 4 0.0000 0.0000 0.0000 29.5198 0.0000 0.0000
# 5 0.0000 0.0000 0.0000 0.0000 29.3564 0.0000
# 6 0.0000 0.0000 0.0000 0.0000 0.0000 23.1740
#
#
#
# Elastic Compliance Matrix: (Units=1/GPa)
#
#
# Indices 1 2 3 4 5 6 
#
# 1 0.016946 -0.002641 -0.004317 0.000000 0.000000 0.000000
# 2 -0.002641 0.009578 -0.004622 0.000000 0.000000 0.000000
# 3 -0.004317 -0.004622 0.016659 0.000000 0.000000 0.000000
# 4 0.000000 0.000000 0.000000 0.033876 0.000000 0.000000
# 5 0.000000 0.000000 0.000000 0.000000 0.034064 0.000000
# 6 0.000000 0.000000 0.000000 0.000000 0.000000 0.043152
#
#
# Mechanical properties :
#
#
# Convention : Reuss Voigt Hill
#
# Bulk Modulus (GPa) = 49.94608 55.60404 52.77506
# Shear Modulus (GPa) = 27.15783 28.42541 27.79162
#
# Velocity S-wave (km/s) = 3.71386 3.79954 3.75694
# Velocity P-wave (km/s) = 6.61488 6.89119 6.75445
#
# Compressibility (1/GPa) = 0.02002159
#
# Stress axis : x y z
#
# Youngs Moduli (GPa) = 59.01063 104.41107 60.02760
#
# Poissons Ratio (x) = 0.27579 0.25915
# Poissons Ratio (y) = 0.15587 0.27744
# Poissons Ratio (z) = 0.25476 0.48258
#
# Static dielectric constant tensor:
#      x y z
#    x 3.377500 0.000000 0.000000 
#    y 0.000000 3.654580 0.000000 
#    z 0.000000 0.000000 3.613760 
# 
# 
# High freq. dielectric constant tensor:
#      x y z
#    x 1.745430 0.000000 0.000000 
#    y 0.000000 1.765000 0.000000 
#    z 0.000000 0.000000 1.769480 
# 
# From -- ./inp_files/5087.got.cif
#   From: 2010.03.12/outbox.cif.g09.slc.cpg/sg31_3_cif.got.tgz:5087.got - 2010.04.14 01:42:59.
