data_PCOD8170066
_publ_section_title
;
Structure prediction by ZEFSAII (Michael W. Deem and Ramdas Pophale) SiO2 
 PCOD8170066
Probable space group: P M N 21
;
_chemical_formula_sum "Si O2"
_cell_formula_units_Z 32
_cell_length_a 9.029498
_cell_length_b 12.440171
_cell_length_c 15.651549
_cell_angle_alpha 90.000000
_cell_angle_beta 90.000000
_cell_angle_gamma 90.000000
_cell_volume 1758.115009
_symmetry_space_group_name_H-M "P M N 21"
_symmetry_group_IT_number 31
_symmetry_cell_setting 'orthorhombic'
loop_
_space_group_symop_operation_xyz
x,y,z
1/2-x,-y,1/2+z
-x,y,z
1/2+x,-y,1/2+z
loop_
_atom_site_type_symbol
_atom_site_label
_atom_site_fract_x
_atom_site_fract_y
_atom_site_fract_z
Si Si1 0.172378 0.776220 0.684920
Si Si2 0.825577 0.556157 0.766352
Si Si3 0.171679 0.140135 0.853242
Si Si4 0.170007 0.499890 0.953628
Si Si5 0.167879 0.014053 0.247731
Si Si6 0.333959 0.735867 0.517123
Si Si7 0.676197 0.598539 0.115627
Si Si8 0.168567 0.784514 0.201026
O O1 0.217632 0.679755 0.748128
O O2 0.263604 0.881569 0.706038
O O3 0.210946 0.738656 0.589691
O O4 0.000000 0.802802 0.690513
O O5 0.763411 0.527065 0.859949
O O6 0.761607 0.479139 0.691343
O O7 0.000000 0.540090 0.765178
O O8 0.196342 0.166008 0.952426
O O9 0.254319 0.229921 0.794349
O O10 0.000000 0.141601 0.828354
O O11 0.240883 0.022024 0.832774
O O12 0.181387 0.372681 0.963751
O O13 0.267409 0.558937 0.024350
O O14 0.000000 0.539298 0.961765
O O15 0.000000 0.039036 0.274740
O O16 0.174259 0.913491 0.180234
O O17 0.500000 0.745666 0.556203
O O18 0.500000 0.602543 0.113671
O O19 0.740960 0.717778 0.130674
O O20 0.000000 0.742838 0.204640
#
# Coordination Sequence:
#
# PCOD8170066 Si02
#       8
#     4   4   4   4   4   4   4   4
#     4  11  21  36  59  83 115 156 197 240 290 350
#     4   9  20  37  56  82 116 154 188 233 294 347
#     4   9  17  33  57  84 109 145 191 235 285 339
#     4  10  20  36  56  81 115 155 195 235 289 355
#     4   9  20  37  56  81 112 146 189 238 289 343
#     4  10  20  34  56  85 117 152 193 241 290 348
#     4  11  20  35  57  84 117 148 189 240 285 345
#     4   9  19  34  55  82 111 148 186 234 288 337
#
# _framework density 18.201312000000001
#
# number of rings (size 3 to 8) (size 9 to 14) (size 15 to 20)
#    0.750    1.500    1.250    2.250    0.000    3.000 
#    0.000    5.000    0.000    3.000    0.000    0.000 
#    0.000    0.000    0.000    0.000    0.000    0.000 
#
# Total GULP energy -396627.988419 kJ/mol
# GULP energy per Si atom -12394.624638 kJ/mol
# Density = 1.815988 g / cm^3
# Si number density = 18.201312 Si / 1000 Ang^3
#
#
#
# Elastic Constant Matrix: (Units=GPa)
#
#
# Indices 1 2 3 4 5 6 
#
# 1 94.3034 42.2895 40.8883 0.0000 0.0000 0.0000
# 2 42.2895 91.2602 46.3796 0.0000 0.0000 0.0000
# 3 40.8883 46.3796 112.1898 0.0000 0.0000 0.0000
# 4 0.0000 0.0000 0.0000 26.0272 0.0000 0.0000
# 5 0.0000 0.0000 0.0000 0.0000 27.4179 0.0000
# 6 0.0000 0.0000 0.0000 0.0000 0.0000 26.4496
#
#
#
# Elastic Compliance Matrix: (Units=1/GPa)
#
#
# Indices 1 2 3 4 5 6 
#
# 1 0.014192 -0.004998 -0.003106 0.000000 0.000000 0.000000
# 2 -0.004998 0.015632 -0.004641 0.000000 0.000000 0.000000
# 3 -0.003106 -0.004641 0.011964 0.000000 0.000000 0.000000
# 4 0.000000 0.000000 0.000000 0.038421 0.000000 0.000000
# 5 0.000000 0.000000 0.000000 0.000000 0.036473 0.000000
# 6 0.000000 0.000000 0.000000 0.000000 0.000000 0.037808
#
#
# Mechanical properties :
#
#
# Convention : Reuss Voigt Hill
#
# Bulk Modulus (GPa) = 61.35583 61.87423 61.61503
# Shear Modulus (GPa) = 26.96681 27.19201 27.07941
#
# Velocity S-wave (km/s) = 3.85331 3.86937 3.86135
# Velocity P-wave (km/s) = 7.31984 7.35057 7.33522
#
# Compressibility (1/GPa) = 0.01629837
#
# Stress axis : x y z
#
# Youngs Moduli (GPa) = 70.46142 63.97030 83.58319
#
# Poissons Ratio (x) = 0.31972 0.25963
# Poissons Ratio (y) = 0.35216 0.38790
# Poissons Ratio (z) = 0.21887 0.29688
#
# Static dielectric constant tensor:
#      x y z
#    x 3.332610 0.000000 0.000000 
#    y 0.000000 3.296120 0.000000 
#    z 0.000000 0.000000 3.233180 
# 
# 
# High freq. dielectric constant tensor:
#      x y z
#    x 1.705710 0.000000 0.000000 
#    y 0.000000 1.700000 0.000000 
#    z 0.000000 0.000000 1.687410 
# 
# From -- ./inp_files/5141.got.cif
#   From: 2010.03.12/outbox.cif.g09.slc.cpg/sg31_3_cif.got.tgz:5141.got - 2010.04.14 01:42:59.
