data_PCOD8170109
_publ_section_title
;
Structure prediction by ZEFSAII (Michael W. Deem and Ramdas Pophale) SiO2 
 PCOD8170109
Probable space group: P M N 21
;
_chemical_formula_sum "Si O2"
_cell_formula_units_Z 32
_cell_length_a 8.905054
_cell_length_b 14.229155
_cell_length_c 12.339777
_cell_angle_alpha 90.000000
_cell_angle_beta 90.000000
_cell_angle_gamma 90.000000
_cell_volume 1563.590341
_symmetry_space_group_name_H-M "P M N 21"
_symmetry_group_IT_number 31
_symmetry_cell_setting 'orthorhombic'
loop_
_space_group_symop_operation_xyz
x,y,z
1/2-x,-y,1/2+z
-x,y,z
1/2+x,-y,1/2+z
loop_
_atom_site_type_symbol
_atom_site_label
_atom_site_fract_x
_atom_site_fract_y
_atom_site_fract_z
Si Si1 0.172089 0.850882 0.998580
Si Si2 0.668692 0.169022 0.881458
Si Si3 0.673032 0.626204 0.698454
Si Si4 0.167994 0.632076 0.478853
Si Si5 0.671726 0.942013 0.559619
Si Si6 0.673472 0.547865 0.285718
Si Si7 0.174761 0.165584 0.272924
Si Si8 0.175945 0.258211 0.679590
O O1 0.238135 0.867450 0.879310
O O2 0.000000 0.820429 0.986576
O O3 0.258305 0.768090 0.062137
O O4 0.187759 0.945899 0.069200
O O5 0.500000 0.139552 0.849231
O O6 0.670517 0.257163 0.961209
O O7 0.754989 0.190407 0.770617
O O8 0.742718 0.085921 0.949856
O O9 0.500000 0.621148 0.661157
O O10 0.786805 0.612146 0.600579
O O11 0.714304 0.539569 0.775223
O O12 0.705058 0.723920 0.758102
O O13 0.294355 0.584506 0.405652
O O14 0.000000 0.592053 0.456921
O O15 0.500000 0.909545 0.545276
O O16 0.736251 0.892930 0.668722
O O17 0.500000 0.517723 0.275615
O O18 0.713601 0.632121 0.201845
O O19 0.000000 0.143715 0.289992
O O20 0.000000 0.240691 0.679704
#
# Coordination Sequence:
#
# PCOD8170109 Si02
#       8
#     4   4   4   4   4   4   4   4
#     4  11  25  41  62  93 127 164 209 258 309 365
#     4  10  20  35  61  91 118 152 199 256 304 354
#     4  11  22  38  63  90 120 162 206 254 310 367
#     4  10  20  36  58  87 119 153 200 253 305 365
#     4  10  22  41  62  89 123 160 203 251 305 369
#     4  10  22  39  61  89 122 162 207 256 309 370
#     4  10  23  43  64  88 125 166 205 251 311 375
#     4  10  22  41  63  87 122 165 205 249 311 371
#
# _framework density 20.465717999999999
#
# number of rings (size 3 to 8) (size 9 to 14) (size 15 to 20)
#    0.000    1.750    1.250    2.250    1.750    6.000 
#    0.000    1.250    0.000    0.000    0.000    0.000 
#    0.000    0.000    0.000    0.000    0.000    0.000 
#
# Total GULP energy -396866.968047 kJ/mol
# GULP energy per Si atom -12402.092751 kJ/mol
# Density = 2.041914 g / cm^3
# Si number density = 20.465718 Si / 1000 Ang^3
#
#
#
# Elastic Constant Matrix: (Units=GPa)
#
#
# Indices 1 2 3 4 5 6 
#
# 1 96.2012 39.2465 37.8768 0.0000 0.0000 0.0000
# 2 39.2465 80.7263 29.4277 0.0000 0.0000 0.0000
# 3 37.8768 29.4277 87.1663 0.0000 0.0000 0.0000
# 4 0.0000 0.0000 0.0000 23.7047 0.0000 0.0000
# 5 0.0000 0.0000 0.0000 0.0000 37.8769 0.0000
# 6 0.0000 0.0000 0.0000 0.0000 0.0000 29.9776
#
#
#
# Elastic Compliance Matrix: (Units=1/GPa)
#
#
# Indices 1 2 3 4 5 6 
#
# 1 0.014316 -0.005351 -0.004414 0.000000 0.000000 0.000000
# 2 -0.005351 0.016126 -0.003119 0.000000 0.000000 0.000000
# 3 -0.004414 -0.003119 0.014444 0.000000 0.000000 0.000000
# 4 0.000000 0.000000 0.000000 0.042186 0.000000 0.000000
# 5 0.000000 0.000000 0.000000 0.000000 0.026401 0.000000
# 6 0.000000 0.000000 0.000000 0.000000 0.000000 0.033358
#
#
# Mechanical properties :
#
#
# Convention : Reuss Voigt Hill
#
# Bulk Modulus (GPa) = 52.30946 53.02177 52.66562
# Shear Modulus (GPa) = 27.93750 28.81470 28.37610
#
# Velocity S-wave (km/s) = 3.69872 3.75634 3.72764
# Velocity P-wave (km/s) = 6.62237 6.69158 6.65706
#
# Compressibility (1/GPa) = 0.01911700
#
# Stress axis : x y z
#
# Youngs Moduli (GPa) = 69.85296 62.01204 69.23523
#
# Poissons Ratio (x) = 0.33181 0.30562
# Poissons Ratio (y) = 0.37376 0.21595
# Poissons Ratio (z) = 0.30835 0.19342
#
# Static dielectric constant tensor:
#      x y z
#    x 3.717880 0.000000 0.000000 
#    y 0.000000 3.660110 0.000000 
#    z 0.000000 0.000000 3.529120 
# 
# 
# High freq. dielectric constant tensor:
#      x y z
#    x 1.805120 0.000000 0.000000 
#    y 0.000000 1.797410 0.000000 
#    z 0.000000 0.000000 1.797740 
# 
# From -- ./inp_files/3573.got.cif
#   From: 2010.03.12/outbox.cif.g09.slc.cpg/sg31_2_cif.got.tgz:3573.got - 2010.04.14 01:42:59.
