data_PCOD8170073
_publ_section_title
;
Structure prediction by ZEFSAII (Michael W. Deem and Ramdas Pophale) SiO2 
 PCOD8170073
Probable space group: P M N 21
;
_chemical_formula_sum "Si O2"
_cell_formula_units_Z 32
_cell_length_a 8.934328
_cell_length_b 12.217473
_cell_length_c 14.529124
_cell_angle_alpha 90.000000
_cell_angle_beta 90.000000
_cell_angle_gamma 90.000000
_cell_volume 1585.925239
_symmetry_space_group_name_H-M "P M N 21"
_symmetry_group_IT_number 31
_symmetry_cell_setting 'orthorhombic'
loop_
_space_group_symop_operation_xyz
x,y,z
1/2-x,-y,1/2+z
-x,y,z
1/2+x,-y,1/2+z
loop_
_atom_site_type_symbol
_atom_site_label
_atom_site_fract_x
_atom_site_fract_y
_atom_site_fract_z
Si Si1 0.175431 0.983401 0.136710
Si Si2 0.331751 0.786894 0.225155
Si Si3 0.174032 0.884949 0.950738
Si Si4 0.321825 0.602224 0.361532
Si Si5 0.827155 0.556329 0.543219
Si Si6 0.821438 0.412785 0.239851
Si Si7 0.675024 0.835671 0.770966
Si Si8 0.164817 0.307715 0.530849
O O1 0.231441 0.893098 0.209261
O O2 0.000000 0.967010 0.130015
O O3 0.219592 0.103555 0.174875
O O4 0.239688 0.963177 0.032987
O O5 0.500000 0.829191 0.240701
O O6 0.276807 0.715139 0.311172
O O7 0.321772 0.703727 0.140011
O O8 0.251911 0.906225 0.853302
O O9 0.000000 0.903747 0.936642
O O10 0.207240 0.759736 0.979124
O O11 0.500000 0.584458 0.362448
O O12 0.257754 0.623299 0.463724
O O13 0.247429 0.498192 0.311483
O O14 0.741554 0.568742 0.638464
O O15 0.815353 0.433236 0.506176
O O16 0.000000 0.593192 0.554252
O O17 0.772298 0.290102 0.269735
O O18 0.000000 0.425597 0.238406
O O19 0.500000 0.843212 0.785590
O O20 0.000000 0.266992 0.497198
#
# Coordination Sequence:
#
# PCOD8170073 Si02
#       8
#     4   4   4   4   4   4   4   4
#     4   9  20  39  60  83 113 147 190 241 289 340
#     4   9  18  35  57  80 108 143 184 233 287 338
#     4  10  20  34  58  90 113 143 194 246 287 335
#     4  11  22  38  58  86 121 156 193 239 293 353
#     4  11  22  37  56  84 120 157 195 238 290 352
#     4  11  23  39  60  86 118 161 200 239 294 352
#     4  10  22  41  60  81 117 158 192 235 293 350
#     4   9  17  33  55  78 110 149 186 229 283 338
#
# _framework density 20.177495
#
# number of rings (size 3 to 8) (size 9 to 14) (size 15 to 20)
#    0.000    2.000    1.250    2.250    0.000    7.000 
#    2.250    0.000    0.000    0.000    0.000    0.000 
#    0.000    0.000    0.000    0.000    0.000    0.000 
#
# Total GULP energy -396685.509942 kJ/mol
# GULP energy per Si atom -12396.422186 kJ/mol
# Density = 2.013157 g / cm^3
# Si number density = 20.177495 Si / 1000 Ang^3
#
#
#
# Elastic Constant Matrix: (Units=GPa)
#
#
# Indices 1 2 3 4 5 6 
#
# 1 56.7568 19.8355 29.7951 0.0000 0.0000 0.0000
# 2 19.8355 50.6055 15.7219 0.0000 0.0000 0.0000
# 3 29.7951 15.7219 103.9164 0.0000 0.0000 0.0000
# 4 0.0000 0.0000 0.0000 26.0271 0.0000 0.0000
# 5 0.0000 0.0000 0.0000 0.0000 33.3533 0.0000
# 6 0.0000 0.0000 0.0000 0.0000 0.0000 20.7599
#
#
#
# Elastic Compliance Matrix: (Units=1/GPa)
#
#
# Indices 1 2 3 4 5 6 
#
# 1 0.023072 -0.007333 -0.005506 0.000000 0.000000 0.000000
# 2 -0.007333 0.023066 -0.001387 0.000000 0.000000 0.000000
# 3 -0.005506 -0.001387 0.011412 0.000000 0.000000 0.000000
# 4 0.000000 0.000000 0.000000 0.038421 0.000000 0.000000
# 5 0.000000 0.000000 0.000000 0.000000 0.029982 0.000000
# 6 0.000000 0.000000 0.000000 0.000000 0.000000 0.048170
#
#
# Mechanical properties :
#
#
# Convention : Reuss Voigt Hill
#
# Bulk Modulus (GPa) = 34.36695 37.99817 36.18256
# Shear Modulus (GPa) = 23.55445 25.75648 24.65546
#
# Velocity S-wave (km/s) = 3.42038 3.57668 3.49940
# Velocity P-wave (km/s) = 5.71558 5.99414 5.85652
#
# Compressibility (1/GPa) = 0.02909773
#
# Stress axis : x y z
#
# Youngs Moduli (GPa) = 43.34234 43.35404 87.62973
#
# Poissons Ratio (x) = 0.31791 0.48248
# Poissons Ratio (y) = 0.31782 0.12156
# Poissons Ratio (z) = 0.23864 0.06014
#
# Static dielectric constant tensor:
#      x y z
#    x 3.642690 0.000000 0.000000 
#    y 0.000000 3.624120 0.000000 
#    z 0.000000 0.000000 3.849200 
# 
# 
# High freq. dielectric constant tensor:
#      x y z
#    x 1.783810 0.000000 0.000000 
#    y 0.000000 1.770480 0.000000 
#    z 0.000000 0.000000 1.799430 
# 
# From -- ./inp_files/4915.got.cif
#   From: 2010.03.12/outbox.cif.g09.slc.cpg/sg31_3_cif.got.tgz:4915.got - 2010.04.14 01:42:59.
