data_PCOD8170920
_publ_section_title
;
Structure prediction by ZEFSAII (Michael W. Deem and Ramdas Pophale) SiO2 
 PCOD8170920
Probable space group: P N A 21
;
_chemical_formula_sum "Si O2"
_cell_formula_units_Z 32
_cell_length_a 14.886947
_cell_length_b 8.169793
_cell_length_c 11.324184
_cell_angle_alpha 90.000000
_cell_angle_beta 90.000000
_cell_angle_gamma 90.000000
_cell_volume 1377.284349
_symmetry_space_group_name_H-M "P N A 21"
_symmetry_group_IT_number 33
_symmetry_cell_setting 'orthorhombic'
loop_
_space_group_symop_operation_xyz
x,y,z
-x,-y,1/2+z
1/2-x,1/2+y,1/2+z
1/2+x,1/2-y,z
loop_
_atom_site_type_symbol
_atom_site_label
_atom_site_fract_x
_atom_site_fract_y
_atom_site_fract_z
Si Si1 0.831180 0.162862 0.760700
Si Si2 0.463445 0.680424 0.303189
Si Si3 0.932293 0.680166 0.061884
Si Si4 0.588559 0.616023 0.945174
Si Si5 0.505568 0.812314 0.547912
Si Si6 0.347425 0.642071 0.637701
Si Si7 0.751178 0.290260 0.524199
Si Si8 0.195377 0.837166 0.517833
O O1 0.786677 0.264157 0.656656
O O2 0.788929 0.225378 0.883727
O O3 0.936296 0.198307 0.756527
O O4 0.821501 0.962912 0.753773
O O5 0.407494 0.754482 0.194081
O O6 0.433768 0.491158 0.328314
O O7 0.453513 0.787902 0.422850
O O8 0.971299 0.499268 0.068298
O O9 0.835340 0.674890 0.997229
O O10 0.997982 0.797692 0.989008
O O11 0.627601 0.496163 0.043401
O O12 0.669461 0.749107 0.928698
O O13 0.434322 0.760812 0.650452
O O14 0.591812 0.693575 0.554659
O O15 0.259146 0.741419 0.605462
O O16 0.717059 0.473594 0.519555
#
# Coordination Sequence:
#
# PCOD8170920 Si02
#       8
#     4   4   4   4   4   4   4   4
#     4  10  22  43  66  97 132 179 224 274 339 403
#     4  10  22  43  68  93 136 178 219 286 339 401
#     4  12  22  44  68  98 140 177 229 282 342 410
#     4  10  22  44  67 100 130 180 225 280 345 401
#     4  10  23  41  65  98 132 180 228 277 344 405
#     4  10  20  41  67  92 134 174 217 287 326 400
#     4  11  23  42  67  97 134 178 226 283 337 412
#     4  11  24  44  64  97 142 174 224 285 338 402
#
# _framework density 23.234127000000001
#
# number of rings (size 3 to 8) (size 9 to 14) (size 15 to 20)
#    0.000    1.500    2.500    4.500    3.500    0.000 
#    6.750    0.000    0.000    0.000    0.000    0.000 
#    0.000    0.000    0.000    0.000    0.000    0.000 
#
# Total GULP energy -396644.282020 kJ/mol
# GULP energy per Si atom -12395.133813 kJ/mol
# Density = 2.318125 g / cm^3
# Si number density = 23.234127 Si / 1000 Ang^3
#
#
#
# Elastic Constant Matrix: (Units=GPa)
#
#
# Indices 1 2 3 4 5 6 
#
# 1 104.1921 9.7159 21.3379 0.0000 0.0000 0.0000
# 2 9.7159 85.6581 20.0785 0.0000 0.0000 0.0000
# 3 21.3379 20.0785 50.0046 0.0000 0.0000 0.0000
# 4 0.0000 0.0000 0.0000 36.8098 0.0000 0.0000
# 5 0.0000 0.0000 0.0000 0.0000 14.1904 0.0000
# 6 0.0000 0.0000 0.0000 0.0000 0.0000 45.6792
#
#
#
# Elastic Compliance Matrix: (Units=1/GPa)
#
#
# Indices 1 2 3 4 5 6 
#
# 1 0.010519 -0.000156 -0.004426 0.000000 0.000000 0.000000
# 2 -0.000156 0.012890 -0.005109 0.000000 0.000000 0.000000
# 3 -0.004426 -0.005109 0.023938 0.000000 0.000000 0.000000
# 4 0.000000 0.000000 0.000000 0.027167 0.000000 0.000000
# 5 0.000000 0.000000 0.000000 0.000000 0.070470 0.000000
# 6 0.000000 0.000000 0.000000 0.000000 0.000000 0.021892
#
#
# Mechanical properties :
#
#
# Convention : Reuss Voigt Hill
#
# Bulk Modulus (GPa) = 35.75912 38.01327 36.88620
# Shear Modulus (GPa) = 25.56522 31.91739 28.74131
#
# Velocity S-wave (km/s) = 3.32072 3.71041 3.52096
# Velocity P-wave (km/s) = 5.48882 5.89514 5.69560
#
# Compressibility (1/GPa) = 0.02796489
#
# Stress axis : x y z
#
# Youngs Moduli (GPa) = 95.06991 77.58203 41.77405
#
# Poissons Ratio (x) = 0.01207 0.18489
# Poissons Ratio (y) = 0.01480 0.21343
# Poissons Ratio (z) = 0.42078 0.39638
#
# Static dielectric constant tensor:
#      x y z
#    x 4.656930 0.000000 0.000000 
#    y 0.000000 4.376630 0.000000 
#    z 0.000000 0.000000 4.335480 
# 
# 
# High freq. dielectric constant tensor:
#      x y z
#    x 1.937130 0.000000 0.000000 
#    y 0.000000 1.917900 0.000000 
#    z 0.000000 0.000000 1.894600 
# 
# From -- ./inp_files/6822.got.cif
#   From: 2010.03.12/outbox.cif.g09.slc.cpg/sg33_4_cif.got.tgz:6822.got - 2010.04.14 01:49:19.
