data_PCOD8170514
_publ_section_title
;
Structure prediction by ZEFSAII (Michael W. Deem and Ramdas Pophale) SiO2 
 PCOD8170514
Probable space group: P B A 2
;
_chemical_formula_sum "Si O2"
_cell_formula_units_Z 30
_cell_length_a 8.626030
_cell_length_b 13.284694
_cell_length_c 12.514453
_cell_angle_alpha 90.000000
_cell_angle_beta 90.000000
_cell_angle_gamma 90.000000
_cell_volume 1434.083342
_symmetry_space_group_name_H-M "P B A 2"
_symmetry_group_IT_number 32
_symmetry_cell_setting 'orthorhombic'
loop_
_space_group_symop_operation_xyz
x,y,z
-x,-y,z
1/2-x,1/2+y,z
1/2+x,1/2-y,z
loop_
_atom_site_type_symbol
_atom_site_label
_atom_site_fract_x
_atom_site_fract_y
_atom_site_fract_z
Si Si1 0.747324 0.367784 0.165700
Si Si2 0.846360 0.548492 0.035682
Si Si3 0.900870 0.094316 0.873860
Si Si4 0.500000 0.500000 0.513924
Si Si5 0.201105 0.865979 0.644817
Si Si6 0.507634 0.199363 0.533280
Si Si7 0.214249 0.155833 0.411872
Si Si8 0.005503 0.242288 0.051275
O O1 0.799215 0.483426 0.141706
O O2 0.764994 0.344601 0.289619
O O3 0.570618 0.345822 0.129080
O O4 0.848734 0.288630 0.097630
O O5 0.868254 0.667467 0.052692
O O6 0.000000 0.500000 0.985180
O O7 0.712035 0.534110 0.951667
O O8 0.811588 0.139369 0.772413
O O9 0.000000 0.000000 0.831406
O O10 0.982856 0.188671 0.935212
O O11 0.360121 0.467613 0.591242
O O12 0.422245 0.577640 0.433199
O O13 0.384263 0.858796 0.618101
O O14 0.084668 0.783121 0.598170
O O15 0.374847 0.132809 0.475785
O O16 0.633982 0.239002 0.446020
#
# Coordination Sequence:
#
# PCOD8170514 Si02
#       8
#     4   4   4   2   4   4   4   4
#     4  11  22  41  66  94 133 173 217 267 333 387
#     4  10  24  44  57  95 133 162 219 266 309 406
#     4  12  23  41  68  92 131 178 217 265 343 387
#     4  10  22  42  58  90 134 148 222 270 318 392
#     4  10  22  41  63  92 123 167 210 280 323 399
#     4   9  21  43  63  92 128 159 231 267 330 396
#     4  10  21  41  66  93 123 177 208 278 330 394
#     4  11  23  40  63  94 134 168 217 274 311 402
#
# _framework density 20.919288000000002
#
# number of rings (size 3 to 8) (size 9 to 14) (size 15 to 20)
#    0.000    1.600    3.333    0.800    1.867    1.600 
#   16.800    0.000    0.000    0.000    0.000    0.000 
#    0.000    0.000    0.000    0.000    0.000    0.000 
#
# Total GULP energy -371673.954996 kJ/mol
# GULP energy per Si atom -12389.131833 kJ/mol
# Density = 2.087167 g / cm^3
# Si number density = 20.919288 Si / 1000 Ang^3
#
#
#
# Elastic Constant Matrix: (Units=GPa)
#
#
# Indices 1 2 3 4 5 6 
#
# 1 97.1143 25.8131 34.2404 0.0000 0.0000 0.0000
# 2 25.8131 80.8488 32.4979 0.0000 0.0000 0.0000
# 3 34.2404 32.4979 125.3437 0.0000 0.0000 0.0000
# 4 0.0000 0.0000 0.0000 10.4036 0.0000 0.0000
# 5 0.0000 0.0000 0.0000 0.0000 32.2131 0.0000
# 6 0.0000 0.0000 0.0000 0.0000 0.0000 29.4951
#
#
#
# Elastic Compliance Matrix: (Units=1/GPa)
#
#
# Indices 1 2 3 4 5 6 
#
# 1 0.011933 -0.002790 -0.002536 0.000000 0.000000 0.000000
# 2 -0.002790 0.014460 -0.002987 0.000000 0.000000 0.000000
# 3 -0.002536 -0.002987 0.009445 0.000000 0.000000 0.000000
# 4 0.000000 0.000000 0.000000 0.096120 0.000000 0.000000
# 5 0.000000 0.000000 0.000000 0.000000 0.031043 0.000000
# 6 0.000000 0.000000 0.000000 0.000000 0.000000 0.033904
#
#
# Mechanical properties :
#
#
# Convention : Reuss Voigt Hill
#
# Bulk Modulus (GPa) = 52.05223 54.26771 53.15997
# Shear Modulus (GPa) = 22.73375 28.47273 25.60324
#
# Velocity S-wave (km/s) = 3.30014 3.69328 3.50223
# Velocity P-wave (km/s) = 6.28154 6.64717 6.46694
#
# Compressibility (1/GPa) = 0.01921147
#
# Stress axis : x y z
#
# Youngs Moduli (GPa) = 83.80052 69.15492 105.87260
#
# Poissons Ratio (x) = 0.19297 0.26853
# Poissons Ratio (y) = 0.23384 0.31623
# Poissons Ratio (z) = 0.21254 0.20656
#
# Static dielectric constant tensor:
#      x y z
#    x 3.961590 0.000000 0.000000 
#    y 0.000000 3.780210 0.000000 
#    z 0.000000 0.000000 3.564020 
# 
# 
# High freq. dielectric constant tensor:
#      x y z
#    x 1.837760 0.000000 0.000000 
#    y 0.000000 1.812430 0.000000 
#    z 0.000000 0.000000 1.804740 
# 
# From -- ./inp_files/3737.got.cif
#   From: 2010.03.12/outbox.cif.g09.slc.cpg/sg32_2_cif.got.tgz:3737.got - 2010.04.14 01:46:39.
