data_PCOD8170921
_publ_section_title
;
Structure prediction by ZEFSAII (Michael W. Deem and Ramdas Pophale) SiO2 
 PCOD8170921
Probable space group: P N A 21
;
_chemical_formula_sum "Si O2"
_cell_formula_units_Z 28
_cell_length_a 9.139553
_cell_length_b 7.658754
_cell_length_c 17.664358
_cell_angle_alpha 90.000000
_cell_angle_beta 90.000000
_cell_angle_gamma 90.000000
_cell_volume 1236.462455
_symmetry_space_group_name_H-M "P N A 21"
_symmetry_group_IT_number 33
_symmetry_cell_setting 'orthorhombic'
loop_
_space_group_symop_operation_xyz
x,y,z
-x,-y,1/2+z
1/2-x,1/2+y,1/2+z
1/2+x,1/2-y,z
loop_
_atom_site_type_symbol
_atom_site_label
_atom_site_fract_x
_atom_site_fract_y
_atom_site_fract_z
Si Si1 0.398777 0.212325 0.059210
Si Si2 0.854500 0.684933 0.452424
Si Si3 0.988391 0.917062 0.099161
Si Si4 0.291921 0.884446 0.152902
Si Si5 0.344627 0.778579 0.844782
Si Si6 0.385498 0.025241 0.302715
Si Si7 0.586142 0.564668 0.930399
O O1 0.436066 0.382639 0.110112
O O2 0.324601 0.066551 0.110478
O O3 0.302947 0.278661 0.988368
O O4 0.542414 0.124338 0.022061
O O5 0.847118 0.539503 0.387542
O O6 0.920210 0.858902 0.414940
O O7 0.116378 0.870246 0.158889
O O8 0.854320 0.784660 0.110112
O O9 0.060863 0.889536 0.017432
O O10 0.359622 0.883829 0.237322
O O11 0.443806 0.917727 0.798408
O O12 0.230584 0.682827 0.788236
O O13 0.459811 0.645222 0.879976
O O14 0.249368 0.870203 0.910185
#
# Coordination Sequence:
#
# PCOD8170921 Si02
#       7
#     4   4   4   4   4   4   4
#     4  11  24  46  70 100 139 183 238 295 350 416
#     4  11  23  42  69  98 132 179 238 291 344 416
#     4  11  26  43  71 102 137 186 236 292 348 426
#     4  12  28  46  69 104 146 190 232 289 364 424
#     4  10  23  40  69  96 137 173 227 293 349 413
#     4  11  26  44  66 103 138 185 227 291 358 423
#     4  10  20  41  68 101 129 174 236 295 341 408
#
# _framework density 22.645249
#
# number of rings (size 3 to 8) (size 9 to 14) (size 15 to 20)
#    0.000    1.143    2.857    3.429    8.000    3.429 
#    2.571    0.000    0.000    0.000    0.000    0.000 
#    0.000    0.000    0.000    0.000    0.000    0.000 
#
# Total GULP energy -347222.114921 kJ/mol
# GULP energy per Si atom -12400.789819 kJ/mol
# Density = 2.259371 g / cm^3
# Si number density = 22.645249 Si / 1000 Ang^3
#
#
#
# Elastic Constant Matrix: (Units=GPa)
#
#
# Indices 1 2 3 4 5 6 
#
# 1 104.1737 25.8725 7.4998 0.0000 0.0000 0.0000
# 2 25.8725 71.7196 15.4091 0.0000 0.0000 0.0000
# 3 7.4998 15.4091 52.6881 0.0000 0.0000 0.0000
# 4 0.0000 0.0000 0.0000 28.4914 0.0000 0.0000
# 5 0.0000 0.0000 0.0000 0.0000 22.8223 0.0000
# 6 0.0000 0.0000 0.0000 0.0000 0.0000 34.0344
#
#
#
# Elastic Compliance Matrix: (Units=1/GPa)
#
#
# Indices 1 2 3 4 5 6 
#
# 1 0.010553 -0.003718 -0.000415 0.000000 0.000000 0.000000
# 2 -0.003718 0.016188 -0.004205 0.000000 0.000000 0.000000
# 3 -0.000415 -0.004205 0.020268 0.000000 0.000000 0.000000
# 4 0.000000 0.000000 0.000000 0.035098 0.000000 0.000000
# 5 0.000000 0.000000 0.000000 0.000000 0.043817 0.000000
# 6 0.000000 0.000000 0.000000 0.000000 0.000000 0.029382
#
#
# Mechanical properties :
#
#
# Convention : Reuss Voigt Hill
#
# Bulk Modulus (GPa) = 32.96665 36.23825 34.60245
# Shear Modulus (GPa) = 27.45861 29.05629 28.25745
#
# Velocity S-wave (km/s) = 3.48595 3.58593 3.53630
# Velocity P-wave (km/s) = 5.54905 5.76043 5.65573
#
# Compressibility (1/GPa) = 0.03033369
#
# Stress axis : x y z
#
# Youngs Moduli (GPa) = 94.76409 61.77500 49.33771
#
# Poissons Ratio (x) = 0.22966 0.02047
# Poissons Ratio (y) = 0.35230 0.20747
# Poissons Ratio (z) = 0.03931 0.25977
#
# Static dielectric constant tensor:
#      x y z
#    x 4.351440 0.000000 0.000000 
#    y 0.000000 4.123210 0.000000 
#    z 0.000000 0.000000 3.805460 
# 
# 
# High freq. dielectric constant tensor:
#      x y z
#    x 1.915540 0.000000 0.000000 
#    y 0.000000 1.893110 0.000000 
#    z 0.000000 0.000000 1.867700 
# 
# From -- ./inp_files/8472.got.cif
#   From: 2010.03.12/outbox.cif.g09.slc.cpg/sg33_5_cif.got.tgz:8472.got - 2010.04.14 01:49:19.
