data_PCOD8170762
_publ_section_title
;
Structure prediction by ZEFSAII (Michael W. Deem and Ramdas Pophale) SiO2 
 PCOD8170762
Probable space group: P N A 21
;
_chemical_formula_sum "Si O2"
_cell_formula_units_Z 32
_cell_length_a 8.949538
_cell_length_b 20.672006
_cell_length_c 8.501591
_cell_angle_alpha 90.000000
_cell_angle_beta 90.000000
_cell_angle_gamma 90.000000
_cell_volume 1572.836020
_symmetry_space_group_name_H-M "P N A 21"
_symmetry_group_IT_number 33
_symmetry_cell_setting 'orthorhombic'
loop_
_space_group_symop_operation_xyz
x,y,z
-x,-y,1/2+z
1/2-x,1/2+y,1/2+z
1/2+x,1/2-y,z
loop_
_atom_site_type_symbol
_atom_site_label
_atom_site_fract_x
_atom_site_fract_y
_atom_site_fract_z
Si Si1 0.088760 0.058341 0.544390
Si Si2 0.574624 0.684463 0.551644
Si Si3 0.417231 0.065649 0.668785
Si Si4 0.912856 0.690811 0.175926
Si Si5 0.417033 0.058371 0.040043
Si Si6 0.926208 0.180249 0.677793
Si Si7 0.582082 0.185000 0.048045
Si Si8 0.412153 0.561231 0.675493
O O1 0.246524 0.071448 0.622621
O O2 0.109556 0.051285 0.359433
O O3 0.981060 0.116628 0.590278
O O4 0.023773 0.991875 0.608733
O O5 0.558504 0.672353 0.365362
O O6 0.503551 0.751774 0.609806
O O7 0.746927 0.683629 0.605969
O O8 0.483286 0.630457 0.643189
O O9 0.500060 0.129647 0.603189
O O10 0.493439 0.003801 0.594120
O O11 0.428222 0.061217 0.854346
O O12 0.742656 0.689626 0.121544
O O13 0.924548 0.686958 0.361798
O O14 0.983274 0.757766 0.115596
O O15 0.496106 0.121924 0.113446
O O16 0.246639 0.054473 0.092078
#
# Coordination Sequence:
#
# PCOD8170762 Si02
#       8
#     4   4   4   4   4   4   4   4
#     4  12  25  41  60  86 117 156 201 251 304 357
#     4  10  19  37  62  89 118 154 197 243 293 356
#     4  11  22  39  62  91 123 159 199 244 294 355
#     4   9  19  35  61  90 119 155 196 238 293 360
#     4  11  22  39  62  91 123 159 199 244 294 355
#     4  10  19  37  62  89 118 154 197 243 293 356
#     4   9  19  35  61  90 119 155 196 238 293 360
#     4  12  25  41  60  86 117 156 201 251 304 357
#
# _framework density 20.345413000000001
#
# number of rings (size 3 to 8) (size 9 to 14) (size 15 to 20)
#    0.000    1.500    0.000    6.000    0.000    6.000 
#    0.000    7.500    0.000    0.000    0.000    0.000 
#    0.000    0.000    0.000    0.000    0.000    0.000 
#
# Total GULP energy -396933.266264 kJ/mol
# GULP energy per Si atom -12404.164571 kJ/mol
# Density = 2.029911 g / cm^3
# Si number density = 20.345413 Si / 1000 Ang^3
#
#
#
# Elastic Constant Matrix: (Units=GPa)
#
#
# Indices 1 2 3 4 5 6 
#
# 1 119.8577 28.8638 5.8201 0.0000 0.0000 0.0000
# 2 28.8638 111.9231 18.1726 0.0000 0.0000 0.0000
# 3 5.8201 18.1726 49.3960 0.0000 0.0000 0.0000
# 4 0.0000 0.0000 0.0000 25.5153 0.0000 0.0000
# 5 0.0000 0.0000 0.0000 0.0000 27.7918 0.0000
# 6 0.0000 0.0000 0.0000 0.0000 0.0000 48.9673
#
#
#
# Elastic Compliance Matrix: (Units=1/GPa)
#
#
# Indices 1 2 3 4 5 6 
#
# 1 0.008898 -0.002259 -0.000217 0.000000 0.000000 0.000000
# 2 -0.002259 0.010076 -0.003441 0.000000 0.000000 0.000000
# 3 -0.000217 -0.003441 0.021536 0.000000 0.000000 0.000000
# 4 0.000000 0.000000 0.000000 0.039192 0.000000 0.000000
# 5 0.000000 0.000000 0.000000 0.000000 0.035982 0.000000
# 6 0.000000 0.000000 0.000000 0.000000 0.000000 0.020422
#
#
# Mechanical properties :
#
#
# Convention : Reuss Voigt Hill
#
# Bulk Modulus (GPa) = 34.87321 42.98775 38.93048
# Shear Modulus (GPa) = 31.74627 35.67622 33.71124
#
# Velocity S-wave (km/s) = 3.95443 4.19206 4.07498
# Velocity P-wave (km/s) = 6.16667 6.67877 6.42782
#
# Compressibility (1/GPa) = 0.02867531
#
# Stress axis : x y z
#
# Youngs Moduli (GPa) = 112.38638 99.24531 46.43390
#
# Poissons Ratio (x) = 0.22424 0.01008
# Poissons Ratio (y) = 0.25393 0.15977
# Poissons Ratio (z) = 0.02441 0.34148
#
# Static dielectric constant tensor:
#      x y z
#    x 4.052220 0.000000 0.000000 
#    y 0.000000 4.031240 0.000000 
#    z 0.000000 0.000000 3.456660 
# 
# 
# High freq. dielectric constant tensor:
#      x y z
#    x 1.816080 0.000000 0.000000 
#    y 0.000000 1.817550 0.000000 
#    z 0.000000 0.000000 1.769970 
# 
# From -- ./inp_files/3463.got.cif
#   From: 2010.03.12/outbox.cif.g09.slc.cpg/sg33_2_cif.got.tgz:3463.got - 2010.04.14 01:49:19.
