data_PCOD8170675
_publ_section_title
;
Structure prediction by ZEFSAII (Michael W. Deem and Ramdas Pophale) SiO2 
 PCOD8170675
Probable space group: P N A 21
;
_chemical_formula_sum "Si O2"
_cell_formula_units_Z 32
_cell_length_a 12.066274
_cell_length_b 11.420742
_cell_length_c 12.510568
_cell_angle_alpha 90.000000
_cell_angle_beta 90.000000
_cell_angle_gamma 90.000000
_cell_volume 1724.028860
_symmetry_space_group_name_H-M "P N A 21"
_symmetry_group_IT_number 33
_symmetry_cell_setting 'orthorhombic'
loop_
_space_group_symop_operation_xyz
x,y,z
-x,-y,1/2+z
1/2-x,1/2+y,1/2+z
1/2+x,1/2-y,z
loop_
_atom_site_type_symbol
_atom_site_label
_atom_site_fract_x
_atom_site_fract_y
_atom_site_fract_z
Si Si1 0.299303 0.310984 0.195960
Si Si2 0.875177 0.455170 0.175624
Si Si3 0.599412 0.683751 0.911891
Si Si4 0.660788 0.943675 0.901292
Si Si5 0.849015 0.030730 0.608746
Si Si6 0.596030 0.480849 0.348157
Si Si7 0.586481 0.118788 0.072871
Si Si8 0.018683 0.855794 0.529407
O O1 0.327665 0.175248 0.187882
O O2 0.309146 0.349888 0.320733
O O3 0.172990 0.332359 0.159953
O O4 0.388847 0.377914 0.121221
O O5 0.887373 0.505897 0.295117
O O6 0.784661 0.526079 0.107155
O O7 0.996049 0.465958 0.125943
O O8 0.593095 0.824311 0.925200
O O9 0.488203 0.627088 0.862922
O O10 0.622148 0.639676 0.032178
O O11 0.790524 0.918667 0.883414
O O12 0.653834 0.039882 0.992261
O O13 0.897228 0.036591 0.729230
O O14 0.902617 0.916842 0.556112
O O15 0.565995 0.593459 0.419406
O O16 0.515271 0.220463 0.015256
#
# Coordination Sequence:
#
# PCOD8170675 Si02
#       8
#     4   4   4   4   4   4   4   4
#     4  10  18  35  58  88 107 150 201 241 284 349
#     4   9  21  34  56  82 115 151 190 242 289 346
#     4  10  22  35  63  88 115 154 198 246 294 357
#     4  10  22  38  57  87 118 158 190 248 305 348
#     4  10  19  37  58  87 115 152 197 243 292 351
#     4  10  20  38  63  84 121 156 201 245 296 357
#     4  11  21  36  60  85 120 151 201 245 292 358
#     4  10  19  35  61  85 111 154 202 244 290 346
#
# _framework density 18.561174000000001
#
# number of rings (size 3 to 8) (size 9 to 14) (size 15 to 20)
#    0.000    2.000    3.750    0.000    0.000    2.000 
#    2.250    0.000   13.750    0.000    0.000    0.000 
#    0.000    0.000    0.000    0.000    0.000    0.000 
#
# Total GULP energy -396529.388969 kJ/mol
# GULP energy per Si atom -12391.543405 kJ/mol
# Density = 1.851893 g / cm^3
# Si number density = 18.561174 Si / 1000 Ang^3
#
#
#
# Elastic Constant Matrix: (Units=GPa)
#
#
# Indices 1 2 3 4 5 6 
#
# 1 78.0528 16.8059 33.4365 0.0000 0.0000 0.0000
# 2 16.8059 48.8343 32.6670 0.0000 0.0000 0.0000
# 3 33.4365 32.6670 112.7421 0.0000 0.0000 0.0000
# 4 0.0000 0.0000 0.0000 20.5952 0.0000 0.0000
# 5 0.0000 0.0000 0.0000 0.0000 26.9860 0.0000
# 6 0.0000 0.0000 0.0000 0.0000 0.0000 21.1002
#
#
#
# Elastic Compliance Matrix: (Units=1/GPa)
#
#
# Indices 1 2 3 4 5 6 
#
# 1 0.014959 -0.002704 -0.003653 0.000000 0.000000 0.000000
# 2 -0.002704 0.025890 -0.006699 0.000000 0.000000 0.000000
# 3 -0.003653 -0.006699 0.011894 0.000000 0.000000 0.000000
# 4 0.000000 0.000000 0.000000 0.048555 0.000000 0.000000
# 5 0.000000 0.000000 0.000000 0.000000 0.037056 0.000000
# 6 0.000000 0.000000 0.000000 0.000000 0.000000 0.047393
#
#
# Mechanical properties :
#
#
# Convention : Reuss Voigt Hill
#
# Bulk Modulus (GPa) = 37.55251 45.04980 41.30115
# Shear Modulus (GPa) = 22.65141 24.18429 23.41785
#
# Velocity S-wave (km/s) = 3.49716 3.61356 3.55584
# Velocity P-wave (km/s) = 6.04835 6.46019 6.25766
#
# Compressibility (1/GPa) = 0.02662938
#
# Stress axis : x y z
#
# Youngs Moduli (GPa) = 66.84956 38.62554 84.07387
#
# Poissons Ratio (x) = 0.10446 0.30711
# Poissons Ratio (y) = 0.18079 0.56325
# Poissons Ratio (z) = 0.24419 0.25877
#
# Static dielectric constant tensor:
#      x y z
#    x 3.522830 0.000000 0.000000 
#    y 0.000000 3.125330 0.000000 
#    z 0.000000 0.000000 3.723650 
# 
# 
# High freq. dielectric constant tensor:
#      x y z
#    x 1.727830 0.000000 0.000000 
#    y 0.000000 1.692480 0.000000 
#    z 0.000000 0.000000 1.726140 
# 
# From -- ./inp_files/6460.got.cif
#   From: 2010.03.12/outbox.cif.g09.slc.cpg/sg33_4_cif.got.tgz:6460.got - 2010.04.14 01:49:19.
