data_PCOD8170092
_publ_section_title
;
Structure prediction by ZEFSAII (Michael W. Deem and Ramdas Pophale) SiO2 
 PCOD8170092
Probable space group: P M N 21
;
_chemical_formula_sum "Si O2"
_cell_formula_units_Z 32
_cell_length_a 8.768461
_cell_length_b 12.801112
_cell_length_c 14.337894
_cell_angle_alpha 90.000000
_cell_angle_beta 90.000000
_cell_angle_gamma 90.000000
_cell_volume 1609.371986
_symmetry_space_group_name_H-M "P M N 21"
_symmetry_group_IT_number 31
_symmetry_cell_setting 'orthorhombic'
loop_
_space_group_symop_operation_xyz
x,y,z
1/2-x,-y,1/2+z
-x,y,z
1/2+x,-y,1/2+z
loop_
_atom_site_type_symbol
_atom_site_label
_atom_site_fract_x
_atom_site_fract_y
_atom_site_fract_z
Si Si1 0.174848 0.973178 0.826510
Si Si2 0.818363 0.478006 0.130807
Si Si3 0.822247 0.209318 0.811449
Si Si4 0.179594 0.710370 0.125812
Si Si5 0.322141 0.719052 0.512684
Si Si6 0.680961 0.796326 0.948268
Si Si7 0.823250 0.344293 0.290507
Si Si8 0.825180 0.823455 0.668351
O O1 0.269312 0.903426 0.899131
O O2 0.193230 0.936049 0.718100
O O3 0.000000 0.964733 0.858327
O O4 0.233025 0.091456 0.831669
O O5 0.756196 0.592973 0.106919
O O6 0.757186 0.446387 0.236121
O O7 0.000000 0.478974 0.133753
O O8 0.764748 0.393312 0.053227
O O9 0.722481 0.256362 0.729311
O O10 0.788925 0.279103 0.902624
O O11 0.000000 0.210817 0.783360
O O12 0.000000 0.714829 0.113684
O O13 0.253978 0.789565 0.052166
O O14 0.500000 0.737328 0.532174
O O15 0.228261 0.815758 0.560404
O O16 0.500000 0.795594 0.952382
O O17 0.746499 0.694624 0.889635
O O18 0.795105 0.251185 0.218634
O O19 0.000000 0.360459 0.307289
O O20 0.000000 0.784860 0.678312
#
# Coordination Sequence:
#
# PCOD8170092 Si02
#       8
#     4   4   4   4   4   4   4   4
#     4   9  19  36  56  80 110 140 172 217 269 315
#     4   8  16  33  55  78 105 139 176 217 268 320
#     4  10  22  39  56  77 107 142 181 223 266 317
#     4  11  23  37  53  76 110 146 178 218 269 321
#     4   9  18  35  57  77 102 138 179 221 265 318
#     4  10  20  35  57  82 107 140 183 225 264 316
#     4   8  15  31  54  77 102 134 174 217 261 311
#     4   9  16  28  50  79 107 131 163 212 262 310
#
# _framework density 19.883531999999999
#
# number of rings (size 3 to 8) (size 9 to 14) (size 15 to 20)
#    0.000    2.750    0.000    1.875    0.000    4.000 
#    0.000    7.500    0.000    0.000    0.000    0.000 
#    0.000    0.000    0.000    0.000    0.000    0.000 
#
# Total GULP energy -396429.938649 kJ/mol
# GULP energy per Si atom -12388.435583 kJ/mol
# Density = 1.983828 g / cm^3
# Si number density = 19.883532 Si / 1000 Ang^3
#
#
#
# Elastic Constant Matrix: (Units=GPa)
#
#
# Indices 1 2 3 4 5 6 
#
# 1 36.8910 33.6631 34.4830 0.0000 0.0000 0.0000
# 2 33.6631 107.4749 53.5745 0.0000 0.0000 0.0000
# 3 34.4830 53.5745 122.7677 0.0000 0.0000 0.0000
# 4 0.0000 0.0000 0.0000 25.8467 0.0000 0.0000
# 5 0.0000 0.0000 0.0000 0.0000 29.7302 0.0000
# 6 0.0000 0.0000 0.0000 0.0000 0.0000 20.3808
#
#
#
# Elastic Compliance Matrix: (Units=1/GPa)
#
#
# Indices 1 2 3 4 5 6 
#
# 1 0.043319 -0.009589 -0.007983 0.000000 0.000000 0.000000
# 2 -0.009589 0.014014 -0.003422 0.000000 0.000000 0.000000
# 3 -0.007983 -0.003422 0.011881 0.000000 0.000000 0.000000
# 4 0.000000 0.000000 0.000000 0.038690 0.000000 0.000000
# 5 0.000000 0.000000 0.000000 0.000000 0.033636 0.000000
# 6 0.000000 0.000000 0.000000 0.000000 0.000000 0.049066
#
#
# Mechanical properties :
#
#
# Convention : Reuss Voigt Hill
#
# Bulk Modulus (GPa) = 36.72999 56.73056 46.73027
# Shear Modulus (GPa) = 20.68958 24.88574 22.78766
#
# Velocity S-wave (km/s) = 3.22924 3.54160 3.38902
# Velocity P-wave (km/s) = 5.69356 6.73181 6.23434
#
# Compressibility (1/GPa) = 0.02722571
#
# Stress axis : x y z
#
# Youngs Moduli (GPa) = 23.08482 71.35837 84.16742
#
# Poissons Ratio (x) = 0.68424 0.67190
# Poissons Ratio (y) = 0.22136 0.28803
# Poissons Ratio (z) = 0.18428 0.24420
#
# Static dielectric constant tensor:
#      x y z
#    x 3.390530 0.000000 0.000000 
#    y 0.000000 3.721790 0.000000 
#    z 0.000000 0.000000 3.842360 
# 
# 
# High freq. dielectric constant tensor:
#      x y z
#    x 1.755380 0.000000 0.000000 
#    y 0.000000 1.760660 0.000000 
#    z 0.000000 0.000000 1.778320 
# 
# From -- ./inp_files/5013.got.cif
#   From: 2010.03.12/outbox.cif.g09.slc.cpg/sg31_3_cif.got.tgz:5013.got - 2010.04.14 01:42:59.
