data_PCOD8170797
_publ_section_title
;
Structure prediction by ZEFSAII (Michael W. Deem and Ramdas Pophale) SiO2 
 PCOD8170797
Probable space group: P N A 21
;
_chemical_formula_sum "Si O2"
_cell_formula_units_Z 24
_cell_length_a 12.741498
_cell_length_b 7.630886
_cell_length_c 11.887819
_cell_angle_alpha 90.000000
_cell_angle_beta 90.000000
_cell_angle_gamma 90.000000
_cell_volume 1155.839787
_symmetry_space_group_name_H-M "P N A 21"
_symmetry_group_IT_number 33
_symmetry_cell_setting 'orthorhombic'
loop_
_space_group_symop_operation_xyz
x,y,z
-x,-y,1/2+z
1/2-x,1/2+y,1/2+z
1/2+x,1/2-y,z
loop_
_atom_site_type_symbol
_atom_site_label
_atom_site_fract_x
_atom_site_fract_y
_atom_site_fract_z
Si Si1 0.902757 0.194945 0.395030
Si Si2 0.510447 0.716728 0.657164
Si Si3 0.786634 0.691014 0.031276
Si Si4 0.011210 0.586581 0.081571
Si Si5 0.382958 0.377319 0.711193
Si Si6 0.600621 0.531742 0.456738
O O1 0.912575 0.238184 0.264213
O O2 0.786520 0.123117 0.427342
O O3 0.919879 0.369942 0.470919
O O4 0.987562 0.052258 0.431881
O O5 0.420804 0.572426 0.677754
O O6 0.585915 0.675443 0.552907
O O7 0.452791 0.901233 0.633168
O O8 0.889662 0.573239 0.044418
O O9 0.723121 0.677987 0.147979
O O10 0.817421 0.890318 0.002559
O O11 0.026160 0.739108 0.175843
O O12 0.358569 0.372399 0.844017
#
# Coordination Sequence:
#
# PCOD8170797 Si02
#       6
#     4   4   4   4   4   4
#     4   9  21  41  63  86 132 161 208 276 310 377
#     4  11  21  41  64  91 123 173 210 260 330 377
#     4  10  19  43  61  91 126 170 212 272 313 385
#     4  10  22  40  64  91 128 165 213 262 323 383
#     4  10  22  44  64  90 138 166 206 282 317 383
#     4  10  21  41  66  91 129 171 213 264 335 375
#
# _framework density 20.764126000000001
#
# number of rings (size 3 to 8) (size 9 to 14) (size 15 to 20)
#    0.000    2.000    5.000    0.000    4.667    0.000 
#    9.000    0.000    0.000    0.000    0.000    0.000 
#    0.000    0.000    0.000    0.000    0.000    0.000 
#
# Total GULP energy -297526.309797 kJ/mol
# GULP energy per Si atom -12396.929575 kJ/mol
# Density = 2.071687 g / cm^3
# Si number density = 20.764126 Si / 1000 Ang^3
#
#
#
# Elastic Constant Matrix: (Units=GPa)
#
#
# Indices 1 2 3 4 5 6 
#
# 1 87.6550 26.2656 21.6895 0.0000 0.0000 0.0000
# 2 26.2656 119.4286 57.2779 0.0000 0.0000 0.0000
# 3 21.6895 57.2779 173.5384 0.0000 0.0000 0.0000
# 4 0.0000 0.0000 0.0000 32.4842 0.0000 0.0000
# 5 0.0000 0.0000 0.0000 0.0000 23.6347 0.0000
# 6 0.0000 0.0000 0.0000 0.0000 0.0000 12.4459
#
#
#
# Elastic Compliance Matrix: (Units=1/GPa)
#
#
# Indices 1 2 3 4 5 6 
#
# 1 0.012298 -0.002338 -0.000766 0.000000 0.000000 0.000000
# 2 -0.002338 0.010392 -0.003138 0.000000 0.000000 0.000000
# 3 -0.000766 -0.003138 0.006894 0.000000 0.000000 0.000000
# 4 0.000000 0.000000 0.000000 0.030784 0.000000 0.000000
# 5 0.000000 0.000000 0.000000 0.000000 0.042311 0.000000
# 6 0.000000 0.000000 0.000000 0.000000 0.000000 0.080348
#
#
# Mechanical properties :
#
#
# Convention : Reuss Voigt Hill
#
# Bulk Modulus (GPa) = 58.47186 65.67645 62.07416
# Shear Modulus (GPa) = 24.84972 32.07222 28.46097
#
# Velocity S-wave (km/s) = 3.46318 3.93440 3.70629
# Velocity P-wave (km/s) = 6.64926 7.23449 6.94804
#
# Compressibility (1/GPa) = 0.01710224
#
# Stress axis : x y z
#
# Youngs Moduli (GPa) = 81.31246 96.22567 145.05814
#
# Poissons Ratio (x) = 0.22493 0.11105
# Poissons Ratio (y) = 0.19007 0.45518
# Poissons Ratio (z) = 0.06225 0.30195
#
# Static dielectric constant tensor:
#      x y z
#    x 3.632160 0.000000 0.000000 
#    y 0.000000 3.580550 0.000000 
#    z 0.000000 0.000000 4.141250 
# 
# 
# High freq. dielectric constant tensor:
#      x y z
#    x 1.799590 0.000000 0.000000 
#    y 0.000000 1.795760 0.000000 
#    z 0.000000 0.000000 1.823220 
# 
# From -- ./inp_files/6272.got.cif
#   From: 2010.03.12/outbox.cif.g09.slc.cpg/sg33_4_cif.got.tgz:6272.got - 2010.04.14 01:49:19.
