data_PCOD8170297
_publ_section_title
;
Structure prediction by ZEFSAII (Michael W. Deem and Ramdas Pophale) SiO2 
 PCOD8170297
Probable space group: P M N 21
;
_chemical_formula_sum "Si O2"
_cell_formula_units_Z 28
_cell_length_a 13.586638
_cell_length_b 7.332275
_cell_length_c 13.744681
_cell_angle_alpha 90.000000
_cell_angle_beta 90.000000
_cell_angle_gamma 90.000000
_cell_volume 1369.258401
_symmetry_space_group_name_H-M "P M N 21"
_symmetry_group_IT_number 31
_symmetry_cell_setting 'orthorhombic'
loop_
_space_group_symop_operation_xyz
x,y,z
1/2-x,-y,1/2+z
-x,y,z
1/2+x,-y,1/2+z
loop_
_atom_site_type_symbol
_atom_site_label
_atom_site_fract_x
_atom_site_fract_y
_atom_site_fract_z
Si Si1 0.109289 0.886282 0.300140
Si Si2 0.303078 0.954034 0.202319
Si Si3 0.615409 0.659285 0.343230
Si Si4 0.271950 0.362281 0.222505
Si Si5 0.888973 0.461311 0.356317
Si Si6 0.767621 0.602567 0.509544
Si Si7 0.614621 0.034610 0.010582
O O1 0.118180 0.675506 0.330948
O O2 0.131149 0.015087 0.395849
O O3 0.000000 0.926693 0.260087
O O4 0.186097 0.922361 0.214241
O O5 0.325170 0.167427 0.218301
O O6 0.334000 0.901150 0.090981
O O7 0.363531 0.844251 0.283637
O O8 0.500000 0.640555 0.364262
O O9 0.653005 0.491636 0.279114
O O10 0.671696 0.661206 0.446886
O O11 0.166228 0.342326 0.275505
O O12 0.241076 0.454877 0.119342
O O13 0.828966 0.439240 0.457614
O O14 0.000000 0.389814 0.367536
O O15 0.841625 0.767506 0.526406
O O16 0.500000 0.040088 0.034862
#
# Coordination Sequence:
#
# PCOD8170297 Si02
#       7
#     4   4   4   4   4   4   4
#     4   9  17  35  61  82 114 154 192 242 296 345
#     4  11  20  37  62  86 119 155 197 247 301 348
#     4  11  23  41  60  87 123 159 196 243 303 358
#     4  10  22  37  59  88 116 153 198 244 288 354
#     4   9  17  35  59  82 111 152 193 236 291 343
#     4   9  18  37  59  84 116 155 188 244 293 347
#     4   9  17  32  58  85 109 150 196 236 288 347
#
# _framework density 20.449026
#
# number of rings (size 3 to 8) (size 9 to 14) (size 15 to 20)
#    0.000    2.286    4.286    1.714    0.000    4.571 
#    5.143    2.143    0.000    0.000    0.000    0.000 
#    0.000    0.000    0.000    0.000    0.000    0.000 
#
# Total GULP energy -346949.048431 kJ/mol
# GULP energy per Si atom -12391.037444 kJ/mol
# Density = 2.040248 g / cm^3
# Si number density = 20.449026 Si / 1000 Ang^3
#
#
#
# Elastic Constant Matrix: (Units=GPa)
#
#
# Indices 1 2 3 4 5 6 
#
# 1 148.2467 11.6800 52.6864 0.0000 0.0000 0.0000
# 2 11.6800 39.6122 11.5216 0.0000 0.0000 0.0000
# 3 52.6864 11.5216 83.1937 0.0000 0.0000 0.0000
# 4 0.0000 0.0000 0.0000 22.6410 0.0000 0.0000
# 5 0.0000 0.0000 0.0000 0.0000 29.6268 0.0000
# 6 0.0000 0.0000 0.0000 0.0000 0.0000 19.8483
#
#
#
# Elastic Compliance Matrix: (Units=1/GPa)
#
#
# Indices 1 2 3 4 5 6 
#
# 1 0.008743 -0.001008 -0.005397 0.000000 0.000000 0.000000
# 2 -0.001008 0.026421 -0.003021 0.000000 0.000000 0.000000
# 3 -0.005397 -0.003021 0.015857 0.000000 0.000000 0.000000
# 4 0.000000 0.000000 0.000000 0.044168 0.000000 0.000000
# 5 0.000000 0.000000 0.000000 0.000000 0.033753 0.000000
# 6 0.000000 0.000000 0.000000 0.000000 0.000000 0.050382
#
#
# Mechanical properties :
#
#
# Convention : Reuss Voigt Hill
#
# Bulk Modulus (GPa) = 31.08666 46.98096 39.03381
# Shear Modulus (GPa) = 23.93509 27.43419 25.68464
#
# Velocity S-wave (km/s) = 3.42493 3.66674 3.54790
# Velocity P-wave (km/s) = 5.55655 6.39932 5.99277
#
# Compressibility (1/GPa) = 0.03216814
#
# Stress axis : x y z
#
# Youngs Moduli (GPa) = 114.37515 37.84931 63.06507
#
# Poissons Ratio (x) = 0.03816 0.34039
# Poissons Ratio (y) = 0.11530 0.19049
# Poissons Ratio (z) = 0.61733 0.11433
#
# Static dielectric constant tensor:
#      x y z
#    x 3.794790 0.000000 0.000000 
#    y 0.000000 3.464390 0.000000 
#    z 0.000000 0.000000 4.238770 
# 
# 
# High freq. dielectric constant tensor:
#      x y z
#    x 1.795330 0.000000 0.000000 
#    y 0.000000 1.785190 0.000000 
#    z 0.000000 0.000000 1.800890 
# 
# From -- ./inp_files/5428.got.cif
#   From: 2010.03.12/outbox.cif.g09.slc.cpg/sg31_3_cif.got.tgz:5428.got - 2010.04.14 01:42:59.
