data_PCOD8170111
_publ_section_title
;
Structure prediction by ZEFSAII (Michael W. Deem and Ramdas Pophale) SiO2 
 PCOD8170111
Probable space group: P M N 21
;
_chemical_formula_sum "Si O2"
_cell_formula_units_Z 32
_cell_length_a 9.294330
_cell_length_b 12.303015
_cell_length_c 14.324329
_cell_angle_alpha 90.000000
_cell_angle_beta 90.000000
_cell_angle_gamma 90.000000
_cell_volume 1637.962403
_symmetry_space_group_name_H-M "P M N 21"
_symmetry_group_IT_number 31
_symmetry_cell_setting 'orthorhombic'
loop_
_space_group_symop_operation_xyz
x,y,z
1/2-x,-y,1/2+z
-x,y,z
1/2+x,-y,1/2+z
loop_
_atom_site_type_symbol
_atom_site_label
_atom_site_fract_x
_atom_site_fract_y
_atom_site_fract_z
Si Si1 0.666711 0.919865 0.665330
Si Si2 0.830386 0.184071 0.482344
Si Si3 0.667544 0.871523 0.188198
Si Si4 0.328682 0.390333 0.993984
Si Si5 0.340161 0.765319 0.367292
Si Si6 0.829591 0.327870 0.180820
Si Si7 0.329899 0.602588 0.883997
Si Si8 0.658003 0.986824 0.459629
O O1 0.500000 0.935750 0.688826
O O2 0.715749 0.798323 0.695533
O O3 0.702746 0.928626 0.555949
O O4 0.752240 0.016464 0.717378
O O5 0.777504 0.173568 0.588905
O O6 0.765468 0.293461 0.437958
O O7 0.000000 0.182167 0.471079
O O8 0.768013 0.080290 0.427279
O O9 0.500000 0.900205 0.184019
O O10 0.697945 0.768388 0.257144
O O11 0.500000 0.388303 0.007024
O O12 0.254816 0.383440 0.095136
O O13 0.281005 0.290391 0.929172
O O14 0.272840 0.496104 0.937584
O O15 0.500000 0.715515 0.387654
O O16 0.342759 0.894197 0.382901
O O17 0.785226 0.393744 0.274650
O O18 0.000000 0.334815 0.159897
O O19 0.500000 0.605059 0.890685
O O20 0.500000 0.039858 0.469965
#
# Coordination Sequence:
#
# PCOD8170111 Si02
#       8
#     4   4   4   4   4   4   4   4
#     4   9  17  31  53  78 108 145 185 226 275 334
#     4   9  18  35  55  79 111 146 185 230 285 336
#     4   9  19  32  52  82 116 152 186 227 278 332
#     4  11  23  39  59  86 115 145 192 249 283 320
#     4  10  20  36  55  79 115 158 190 223 282 346
#     4  10  20  39  61  80 108 152 191 226 286 353
#     4   9  21  39  59  82 112 149 190 234 284 341
#     4   9  17  31  50  76 109 143 181 227 277 332
#
# _framework density 19.536469
#
# number of rings (size 3 to 8) (size 9 to 14) (size 15 to 20)
#    0.000    2.500    1.250    0.375    1.750    2.500 
#    0.000    4.375    0.000    0.000    0.000    0.000 
#    0.000    0.000    0.000    0.000    0.000    0.000 
#
# Total GULP energy -396628.675377 kJ/mol
# GULP energy per Si atom -12394.646106 kJ/mol
# Density = 1.949200 g / cm^3
# Si number density = 19.536469 Si / 1000 Ang^3
#
#
#
# Elastic Constant Matrix: (Units=GPa)
#
#
# Indices 1 2 3 4 5 6 
#
# 1 51.9740 39.8628 39.2813 0.0000 0.0000 0.0000
# 2 39.8628 105.1198 60.8879 0.0000 0.0000 0.0000
# 3 39.2813 60.8879 104.4244 0.0000 0.0000 0.0000
# 4 0.0000 0.0000 0.0000 30.2676 0.0000 0.0000
# 5 0.0000 0.0000 0.0000 0.0000 22.0018 0.0000
# 6 0.0000 0.0000 0.0000 0.0000 0.0000 21.7281
#
#
#
# Elastic Compliance Matrix: (Units=1/GPa)
#
#
# Indices 1 2 3 4 5 6 
#
# 1 0.030242 -0.007367 -0.007081 0.000000 0.000000 0.000000
# 2 -0.007367 0.016159 -0.006651 0.000000 0.000000 0.000000
# 3 -0.007081 -0.006651 0.016118 0.000000 0.000000 0.000000
# 4 0.000000 0.000000 0.000000 0.033039 0.000000 0.000000
# 5 0.000000 0.000000 0.000000 0.000000 0.045451 0.000000
# 6 0.000000 0.000000 0.000000 0.000000 0.000000 0.046023
#
#
# Mechanical properties :
#
#
# Convention : Reuss Voigt Hill
#
# Bulk Modulus (GPa) = 49.20746 60.17580 54.69163
# Shear Modulus (GPa) = 21.18627 22.89859 22.04243
#
# Velocity S-wave (km/s) = 3.29667 3.42730 3.36262
# Velocity P-wave (km/s) = 6.30340 6.82133 6.56747
#
# Compressibility (1/GPa) = 0.02032212
#
# Stress axis : x y z
#
# Youngs Moduli (GPa) = 33.06650 61.88569 62.04346
#
# Poissons Ratio (x) = 0.45591 0.43931
# Poissons Ratio (y) = 0.24360 0.41263
# Poissons Ratio (z) = 0.23413 0.41158
#
# Static dielectric constant tensor:
#      x y z
#    x 3.354380 0.000000 0.000000 
#    y 0.000000 3.618360 0.000000 
#    z 0.000000 0.000000 3.717200 
# 
# 
# High freq. dielectric constant tensor:
#      x y z
#    x 1.737490 0.000000 0.000000 
#    y 0.000000 1.748680 0.000000 
#    z 0.000000 0.000000 1.773430 
# 
# From -- ./inp_files/5071.got.cif
#   From: 2010.03.12/outbox.cif.g09.slc.cpg/sg31_3_cif.got.tgz:5071.got - 2010.04.14 01:42:59.
