data_PCOD8170770
_publ_section_title
;
Structure prediction by ZEFSAII (Michael W. Deem and Ramdas Pophale) SiO2 
 PCOD8170770
Probable space group: P N A 21
;
_chemical_formula_sum "Si O2"
_cell_formula_units_Z 32
_cell_length_a 14.823930
_cell_length_b 15.302110
_cell_length_c 5.015867
_cell_angle_alpha 90.000000
_cell_angle_beta 90.000000
_cell_angle_gamma 90.000000
_cell_volume 1137.786267
_symmetry_space_group_name_H-M "P N A 21"
_symmetry_group_IT_number 33
_symmetry_cell_setting 'orthorhombic'
loop_
_space_group_symop_operation_xyz
x,y,z
-x,-y,1/2+z
1/2-x,1/2+y,1/2+z
1/2+x,1/2-y,z
loop_
_atom_site_type_symbol
_atom_site_label
_atom_site_fract_x
_atom_site_fract_y
_atom_site_fract_z
Si Si1 0.283231 0.796385 0.498470
Si Si2 0.438042 0.505297 0.575126
Si Si3 0.738044 0.091941 0.490019
Si Si4 0.270740 0.099110 0.032851
Si Si5 0.531961 0.048167 0.382057
Si Si6 0.370355 0.140974 0.547128
Si Si7 0.052066 0.194916 0.981492
Si Si8 0.434561 0.315857 0.479570
O O1 0.252821 0.860333 0.269312
O O2 0.265074 0.693672 0.438597
O O3 0.392311 0.785022 0.530911
O O4 0.235036 0.838900 0.756492
O O5 0.523623 0.502046 0.374346
O O6 0.391453 0.602830 0.546289
O O7 0.384037 0.411858 0.513617
O O8 0.634395 0.066959 0.449367
O O9 0.786546 0.992769 0.495512
O O10 0.299568 0.099669 0.339907
O O11 0.356706 0.090694 0.828090
O O12 0.473104 0.135055 0.443639
O O13 0.484075 0.976769 0.575213
O O14 0.358557 0.246081 0.566611
O O15 0.965365 0.195683 0.174382
O O16 0.020764 0.187986 0.675461
#
# Coordination Sequence:
#
# PCOD8170770 Si02
#       8
#     4   4   4   4   4   4   4   4
#     4  12  26  45  69  94 131 185 233 270 330 400
#     4   8  16  31  54  81 119 156 194 255 313 362
#     4  12  25  47  73  99 137 177 229 287 339 406
#     4  12  27  47  65  97 139 176 228 280 323 411
#     4  12  21  38  68 107 134 172 218 283 366 415
#     4  12  22  41  66  98 140 168 212 280 350 412
#     4  10  19  38  60  93 124 165 223 268 313 396
#     4  10  20  35  63  93 130 163 205 269 340 390
#
# _framework density 28.124793
#
# number of rings (size 3 to 8) (size 9 to 14) (size 15 to 20)
#    0.000    1.000    2.500    5.250    0.000    0.000 
#    4.500    0.000    0.000    0.000    0.000    0.000 
#    0.000    0.000    0.000    0.000    0.000    0.000 
#
# Total GULP energy -396665.603001 kJ/mol
# GULP energy per Si atom -12395.800094 kJ/mol
# Density = 2.806078 g / cm^3
# Si number density = 28.124793 Si / 1000 Ang^3
#
#
#
# Elastic Constant Matrix: (Units=GPa)
#
#
# Indices 1 2 3 4 5 6 
#
# 1 45.6508 54.3107 14.8862 0.0000 0.0000 0.0000
# 2 54.3107 211.8100 58.3577 0.0000 0.0000 0.0000
# 3 14.8862 58.3577 135.5857 0.0000 0.0000 0.0000
# 4 0.0000 0.0000 0.0000 34.8891 0.0000 0.0000
# 5 0.0000 0.0000 0.0000 0.0000 13.1487 0.0000
# 6 0.0000 0.0000 0.0000 0.0000 0.0000 71.2705
#
#
#
# Elastic Compliance Matrix: (Units=1/GPa)
#
#
# Indices 1 2 3 4 5 6 
#
# 1 0.031521 -0.008088 0.000020 0.000000 0.000000 0.000000
# 2 -0.008088 0.007432 -0.002311 0.000000 0.000000 0.000000
# 3 0.000020 -0.002311 0.008368 0.000000 0.000000 0.000000
# 4 0.000000 0.000000 0.000000 0.028662 0.000000 0.000000
# 5 0.000000 0.000000 0.000000 0.000000 0.076053 0.000000
# 6 0.000000 0.000000 0.000000 0.000000 0.000000 0.014031
#
#
# Mechanical properties :
#
#
# Convention : Reuss Voigt Hill
#
# Bulk Modulus (GPa) = 37.64502 72.01729 54.83116
# Shear Modulus (GPa) = 25.55215 41.56111 33.55663
#
# Velocity S-wave (km/s) = 3.01745 3.84831 3.45792
# Velocity P-wave (km/s) = 5.05510 6.73854 5.95659
#
# Compressibility (1/GPa) = 0.02656394
#
# Stress axis : x y z
#
# Youngs Moduli (GPa) = 31.72478 134.55816 119.50681
#
# Poissons Ratio (x) = 1.08831 -0.00244
# Poissons Ratio (y) = 0.25659 0.27615
# Poissons Ratio (z) = -0.00065 0.31092
#
# Static dielectric constant tensor:
#      x y z
#    x 5.372850 0.000000 0.000000 
#    y 0.000000 6.258610 0.000000 
#    z 0.000000 0.000000 4.850980 
# 
# 
# High freq. dielectric constant tensor:
#      x y z
#    x 2.160870 0.000000 0.000000 
#    y 0.000000 2.192470 0.000000 
#    z 0.000000 0.000000 2.128450 
# 
# From -- ./inp_files/1829.got.cif
#   From: 2010.03.12/outbox.cif.g09.slc.cpg/sg33_1_cif.got.tgz:1829.got - 2010.04.14 01:49:19.
