data_PCOD8170939
_publ_section_title
;
Structure prediction by ZEFSAII (Michael W. Deem and Ramdas Pophale) SiO2 
 PCOD8170939
Probable space group: P N A 21
;
_chemical_formula_sum "Si O2"
_cell_formula_units_Z 16
_cell_length_a 10.910076
_cell_length_b 12.530375
_cell_length_c 5.058462
_cell_angle_alpha 90.000000
_cell_angle_beta 90.000000
_cell_angle_gamma 90.000000
_cell_volume 691.528903
_symmetry_space_group_name_H-M "P N A 21"
_symmetry_group_IT_number 33
_symmetry_cell_setting 'orthorhombic'
loop_
_space_group_symop_operation_xyz
x,y,z
-x,-y,1/2+z
1/2-x,1/2+y,1/2+z
1/2+x,1/2-y,z
loop_
_atom_site_type_symbol
_atom_site_label
_atom_site_fract_x
_atom_site_fract_y
_atom_site_fract_z
Si Si1 0.442860 0.227471 0.546550
Si Si2 0.817152 0.460351 0.314915
Si Si3 0.462697 0.869570 0.561086
Si Si4 0.927951 0.029588 0.564708
O O1 0.327317 0.147638 0.492362
O O2 0.548405 0.202343 0.325727
O O3 0.393489 0.347172 0.522637
O O4 0.502262 0.212054 0.830835
O O5 0.837837 0.565980 0.496860
O O6 0.687755 0.463463 0.170757
O O7 0.927606 0.458016 0.096922
O O8 0.964037 0.980765 0.280981
#
# Coordination Sequence:
#
# PCOD8170939 Si02
#       4
#     4   4   4   4
#     4  10  22  44  68 106 132 188 234 288 363 393
#     4  10  23  44  74 101 140 182 250 284 346 419
#     4  10  20  42  74 103 128 175 257 292 322 412
#     4  12  29  46  66 106 158 183 223 294 375 428
#
# _framework density 23.137139000000001
#
# number of rings (size 3 to 8) (size 9 to 14) (size 15 to 20)
#    1.500    0.000    2.500    1.500    3.500    2.000 
#    4.500    0.000    0.000    0.000    0.000    0.000 
#    0.000    0.000    0.000    0.000    0.000    0.000 
#
# Total GULP energy -198334.614605 kJ/mol
# GULP energy per Si atom -12395.913413 kJ/mol
# Density = 2.308448 g / cm^3
# Si number density = 23.137139 Si / 1000 Ang^3
#
#
#
# Elastic Constant Matrix: (Units=GPa)
#
#
# Indices 1 2 3 4 5 6 
#
# 1 48.9122 6.3752 -10.5886 0.0000 0.0000 0.0000
# 2 6.3752 119.8156 15.7951 0.0000 0.0000 0.0000
# 3 -10.5886 15.7951 106.9839 0.0000 0.0000 0.0000
# 4 0.0000 0.0000 0.0000 38.3621 0.0000 0.0000
# 5 0.0000 0.0000 0.0000 0.0000 31.5333 0.0000
# 6 0.0000 0.0000 0.0000 0.0000 0.0000 20.4374
#
#
#
# Elastic Compliance Matrix: (Units=1/GPa)
#
#
# Indices 1 2 3 4 5 6 
#
# 1 0.021129 -0.001428 0.002302 0.000000 0.000000 0.000000
# 2 -0.001428 0.008608 -0.001412 0.000000 0.000000 0.000000
# 3 0.002302 -0.001412 0.009784 0.000000 0.000000 0.000000
# 4 0.000000 0.000000 0.000000 0.026067 0.000000 0.000000
# 5 0.000000 0.000000 0.000000 0.000000 0.031713 0.000000
# 6 0.000000 0.000000 0.000000 0.000000 0.000000 0.048930
#
#
# Mechanical properties :
#
#
# Convention : Reuss Voigt Hill
#
# Bulk Modulus (GPa) = 26.01104 33.20834 29.60969
# Shear Modulus (GPa) = 31.22623 35.67522 33.45072
#
# Velocity S-wave (km/s) = 3.67770 3.93097 3.80644
# Velocity P-wave (km/s) = 5.41299 5.91501 5.66956
#
# Compressibility (1/GPa) = 0.03844521
#
# Stress axis : x y z
#
# Youngs Moduli (GPa) = 47.32776 116.16692 102.21244
#
# Poissons Ratio (x) = 0.16586 -0.23530
# Poissons Ratio (y) = 0.06757 0.14435
# Poissons Ratio (z) = -0.10895 0.16406
#
# Static dielectric constant tensor:
#      x y z
#    x 3.556870 0.000000 0.000000 
#    y 0.000000 3.959910 0.000000 
#    z 0.000000 0.000000 4.283040 
# 
# 
# High freq. dielectric constant tensor:
#      x y z
#    x 1.867810 0.000000 0.000000 
#    y 0.000000 1.914230 0.000000 
#    z 0.000000 0.000000 1.927940 
# 
# From -- ./inp_files/709.got.cif
#   From: 2010.03.12/outbox.cif.g09.slc.cpg/sg33_1_cif.got.tgz:709.got - 2010.04.14 01:49:19.
