data_PCOD8170382
_publ_section_title
;
Structure prediction by ZEFSAII (Michael W. Deem and Ramdas Pophale) SiO2 
 PCOD8170382
Probable space group: P M N 21
;
_chemical_formula_sum "Si O2"
_cell_formula_units_Z 24
_cell_length_a 14.578053
_cell_length_b 8.101880
_cell_length_c 9.494779
_cell_angle_alpha 90.000000
_cell_angle_beta 90.000000
_cell_angle_gamma 90.000000
_cell_volume 1121.424892
_symmetry_space_group_name_H-M "P M N 21"
_symmetry_group_IT_number 31
_symmetry_cell_setting 'orthorhombic'
loop_
_space_group_symop_operation_xyz
x,y,z
1/2-x,-y,1/2+z
-x,y,z
1/2+x,-y,1/2+z
loop_
_atom_site_type_symbol
_atom_site_label
_atom_site_fract_x
_atom_site_fract_y
_atom_site_fract_z
Si Si1 0.500000 0.686828 0.045151
Si Si2 0.500000 0.937259 0.804506
Si Si3 0.825559 0.891230 0.359747
Si Si4 0.307299 0.045858 0.160570
Si Si5 0.312580 0.625807 0.623294
Si Si6 0.000000 0.047523 0.764967
Si Si7 0.000000 0.249644 0.033246
Si Si8 0.165198 0.517563 0.430940
O O1 0.500000 0.764595 0.201610
O O2 0.500000 0.856208 0.957428
O O3 0.412885 0.572057 0.019805
O O4 0.500000 0.790737 0.697041
O O5 0.587543 0.048669 0.773231
O O6 0.810070 0.009838 0.496702
O O7 0.849570 0.712955 0.420325
O O8 0.739065 0.901835 0.255077
O O9 0.246123 0.211716 0.165494
O O10 0.411187 0.061715 0.220880
O O11 0.403119 0.652945 0.525157
O O12 0.256653 0.496802 0.525324
O O13 0.334194 0.547779 0.773191
O O14 0.000000 0.089055 0.932037
#
# Coordination Sequence:
#
# PCOD8170382 Si02
#       8
#     2   2   4   4   4   2   2   4
#     4  12  23  44  71  89 135 186 218 274 354 400
#     4  12  21  44  71  91 125 181 224 282 329 403
#     4  11  23  40  69  98 131 170 233 277 337 408
#     4  11  23  42  66 100 128 177 228 285 329 414
#     4  11  25  44  70  97 141 177 228 279 348 411
#     4  12  26  40  71  99 134 177 233 288 343 394
#     4  12  24  48  65 101 134 182 221 288 340 407
#     4  11  25  42  66 101 135 179 223 282 345 414
#
# _framework density 21.401346
#
# number of rings (size 3 to 8) (size 9 to 14) (size 15 to 20)
#    0.000    0.667    5.000    2.500    4.667    2.000 
#    0.000    0.833    0.000    0.000    0.000    0.000 
#    0.000    0.000    0.000    0.000    0.000    0.000 
#
# Total GULP energy -297371.391371 kJ/mol
# GULP energy per Si atom -12390.474640 kJ/mol
# Density = 2.135264 g / cm^3
# Si number density = 21.401346 Si / 1000 Ang^3
#
#
#
# Elastic Constant Matrix: (Units=GPa)
#
#
# Indices 1 2 3 4 5 6 
#
# 1 166.7970 35.5097 28.9813 0.0000 0.0000 0.0000
# 2 35.5097 54.3606 8.6041 0.0000 0.0000 0.0000
# 3 28.9813 8.6041 77.8820 0.0000 0.0000 0.0000
# 4 0.0000 0.0000 0.0000 35.0146 0.0000 0.0000
# 5 0.0000 0.0000 0.0000 0.0000 34.5768 0.0000
# 6 0.0000 0.0000 0.0000 0.0000 0.0000 36.2526
#
#
#
# Elastic Compliance Matrix: (Units=1/GPa)
#
#
# Indices 1 2 3 4 5 6 
#
# 1 0.007328 -0.004433 -0.002237 0.000000 0.000000 0.000000
# 2 -0.004433 0.021404 -0.000715 0.000000 0.000000 0.000000
# 3 -0.002237 -0.000715 0.013751 0.000000 0.000000 0.000000
# 4 0.000000 0.000000 0.000000 0.028560 0.000000 0.000000
# 5 0.000000 0.000000 0.000000 0.000000 0.028921 0.000000
# 6 0.000000 0.000000 0.000000 0.000000 0.000000 0.027584
#
#
# Mechanical properties :
#
#
# Convention : Reuss Voigt Hill
#
# Bulk Modulus (GPa) = 36.08322 49.46999 42.77661
# Shear Modulus (GPa) = 32.99115 36.23177 34.61146
#
# Velocity S-wave (km/s) = 3.93051 4.11903 4.02588
# Velocity P-wave (km/s) = 6.12335 6.76664 6.45302
#
# Compressibility (1/GPa) = 0.02771371
#
# Stress axis : x y z
#
# Youngs Moduli (GPa) = 136.46932 46.71955 72.71987
#
# Poissons Ratio (x) = 0.20709 0.16268
# Poissons Ratio (y) = 0.60490 0.05201
# Poissons Ratio (z) = 0.30529 0.03342
#
# Static dielectric constant tensor:
#      x y z
#    x 3.838660 0.000000 0.000000 
#    y 0.000000 3.690600 0.000000 
#    z 0.000000 0.000000 4.136740 
# 
# 
# High freq. dielectric constant tensor:
#      x y z
#    x 1.861040 0.000000 0.000000 
#    y 0.000000 1.812550 0.000000 
#    z 0.000000 0.000000 1.852720 
# 
# From -- ./inp_files/2475.got.cif
#   From: 2010.03.12/outbox.cif.g09.slc.cpg/sg31_2_cif.got.tgz:2475.got - 2010.04.14 01:42:59.
