data_PCOD8170385
_publ_section_title
;
Structure prediction by ZEFSAII (Michael W. Deem and Ramdas Pophale) SiO2 
 PCOD8170385
Probable space group: P M N 21
;
_chemical_formula_sum "Si O2"
_cell_formula_units_Z 20
_cell_length_a 22.627075
_cell_length_b 5.761369
_cell_length_c 6.728567
_cell_angle_alpha 90.000000
_cell_angle_beta 90.000000
_cell_angle_gamma 90.000000
_cell_volume 877.155698
_symmetry_space_group_name_H-M "P M N 21"
_symmetry_group_IT_number 31
_symmetry_cell_setting 'orthorhombic'
loop_
_space_group_symop_operation_xyz
x,y,z
1/2-x,-y,1/2+z
-x,y,z
1/2+x,-y,1/2+z
loop_
_atom_site_type_symbol
_atom_site_label
_atom_site_fract_x
_atom_site_fract_y
_atom_site_fract_z
Si Si1 0.500000 0.957984 0.905300
Si Si2 0.616002 0.841948 0.699530
Si Si3 0.382185 0.497106 0.369225
Si Si4 0.199494 0.769171 0.151821
Si Si5 0.188443 0.425068 0.487021
Si Si6 0.500000 0.449199 0.137444
O O1 0.557258 0.975606 0.764466
O O2 0.500000 0.207184 0.014537
O O3 0.500000 0.705357 0.024717
O O4 0.679062 0.973427 0.701708
O O5 0.607166 0.743397 0.478057
O O6 0.629376 0.659475 0.875113
O O7 0.358909 0.325657 0.539012
O O8 0.443811 0.419921 0.278209
O O9 0.331631 0.498912 0.204117
O O10 0.213625 0.638603 0.358755
O O11 0.258034 0.759645 0.015363
#
# Coordination Sequence:
#
# PCOD8170385 Si02
#       6
#     2   4   4   4   4   2
#     4  12  27  51  76 107 148 192 248 308 371 442
#     4  11  27  43  73 103 142 188 246 307 368 442
#     4  11  25  46  71 104 139 191 246 297 372 434
#     4  11  25  42  69 102 146 192 240 308 362 450
#     4  11  23  44  65 104 145 187 244 300 373 436
#     4  12  27  49  80 105 148 196 244 308 369 442
#
# _framework density 22.800968999999998
#
# number of rings (size 3 to 8) (size 9 to 14) (size 15 to 20)
#    0.000    0.800    4.000    1.800    8.400    2.400 
#    0.000    0.000    0.000    0.000    0.000    0.000 
#    0.000    0.000    0.000    0.000    0.000    0.000 
#
# Total GULP energy -247763.000743 kJ/mol
# GULP energy per Si atom -12388.150037 kJ/mol
# Density = 2.274907 g / cm^3
# Si number density = 22.800969 Si / 1000 Ang^3
#
#
#
# Elastic Constant Matrix: (Units=GPa)
#
#
# Indices 1 2 3 4 5 6 
#
# 1 122.0486 11.5247 41.8642 0.0000 0.0000 0.0000
# 2 11.5247 74.5191 33.5179 0.0000 0.0000 0.0000
# 3 41.8642 33.5179 128.2664 0.0000 0.0000 0.0000
# 4 0.0000 0.0000 0.0000 29.4368 0.0000 0.0000
# 5 0.0000 0.0000 0.0000 0.0000 40.7581 0.0000
# 6 0.0000 0.0000 0.0000 0.0000 0.0000 35.3290
#
#
#
# Elastic Compliance Matrix: (Units=1/GPa)
#
#
# Indices 1 2 3 4 5 6 
#
# 1 0.009227 -0.000082 -0.002990 0.000000 0.000000 0.000000
# 2 -0.000082 0.015207 -0.003947 0.000000 0.000000 0.000000
# 3 -0.002990 -0.003947 0.009804 0.000000 0.000000 0.000000
# 4 0.000000 0.000000 0.000000 0.033971 0.000000 0.000000
# 5 0.000000 0.000000 0.000000 0.000000 0.024535 0.000000
# 6 0.000000 0.000000 0.000000 0.000000 0.000000 0.028305
#
#
# Mechanical properties :
#
#
# Convention : Reuss Voigt Hill
#
# Bulk Modulus (GPa) = 49.50645 55.40528 52.45587
# Shear Modulus (GPa) = 35.25568 36.96658 36.11113
#
# Velocity S-wave (km/s) = 3.93649 4.03087 3.98396
# Velocity P-wave (km/s) = 6.51313 6.78352 6.64970
#
# Compressibility (1/GPa) = 0.02019939
#
# Stress axis : x y z
#
# Youngs Moduli (GPa) = 108.37956 65.75718 102.00303
#
# Poissons Ratio (x) = 0.00540 0.30499
# Poissons Ratio (y) = 0.00890 0.40262
# Poissons Ratio (z) = 0.32406 0.25955
#
# Static dielectric constant tensor:
#      x y z
#    x 4.115700 0.000000 0.000000 
#    y 0.000000 4.004030 0.000000 
#    z 0.000000 0.000000 4.147390 
# 
# 
# High freq. dielectric constant tensor:
#      x y z
#    x 1.919180 0.000000 0.000000 
#    y 0.000000 1.881280 0.000000 
#    z 0.000000 0.000000 1.913550 
# 
# From -- ./inp_files/1206.got.cif
#   From: 2010.03.12/outbox.cif.g09.slc.cpg/sg31_1_cif.got.tgz:1206.got - 2010.04.14 01:42:59.
