data_PCOD8170924
_publ_section_title
;
Structure prediction by ZEFSAII (Michael W. Deem and Ramdas Pophale) SiO2 
 PCOD8170924
Probable space group: P N A 21
;
_chemical_formula_sum "Si O2"
_cell_formula_units_Z 28
_cell_length_a 8.326287
_cell_length_b 30.547246
_cell_length_c 4.982613
_cell_angle_alpha 90.000000
_cell_angle_beta 90.000000
_cell_angle_gamma 90.000000
_cell_volume 1267.303387
_symmetry_space_group_name_H-M "P N A 21"
_symmetry_group_IT_number 33
_symmetry_cell_setting 'orthorhombic'
loop_
_space_group_symop_operation_xyz
x,y,z
-x,-y,1/2+z
1/2-x,1/2+y,1/2+z
1/2+x,1/2-y,z
loop_
_atom_site_type_symbol
_atom_site_label
_atom_site_fract_x
_atom_site_fract_y
_atom_site_fract_z
Si Si1 0.146009 0.782494 0.680190
Si Si2 0.192065 0.354562 0.492157
Si Si3 0.062539 0.523291 0.611298
Si Si4 0.605905 0.506255 0.295384
Si Si5 0.306210 0.912055 0.494179
Si Si6 0.636774 0.266389 0.846021
Si Si7 0.915119 0.292720 0.518512
O O1 0.183646 0.815400 0.924686
O O2 0.291719 0.779856 0.465697
O O3 0.975135 0.794498 0.547974
O O4 0.153103 0.729996 0.751090
O O5 0.214332 0.371198 0.794395
O O6 0.008191 0.337756 0.460027
O O7 0.229016 0.394457 0.291230
O O8 0.249401 0.526079 0.698954
O O9 0.953622 0.512227 0.872448
O O10 0.988159 0.568350 0.492229
O O11 0.508334 0.483948 0.540050
O O12 0.678721 0.551168 0.409562
O O13 0.772190 0.299690 0.732983
O O14 0.531992 0.247242 0.604267
#
# Coordination Sequence:
#
# PCOD8170924 Si02
#       7
#     4   4   4   4   4   4   4
#     4  11  21  38  61  88 119 178 228 276 320 395
#     4  12  24  40  65  91 138 168 215 291 329 377
#     4  10  20  41  71  98 129 174 216 248 305 421
#     4  11  22  42  75 101 130 169 215 263 317 411
#     4  11  25  43  64 102 130 171 213 265 347 391
#     4  10  21  36  61  85 117 156 255 264 315 384
#     4  11  21  38  61  89 115 178 228 273 319 395
#
# _framework density 22.094156000000002
#
# number of rings (size 3 to 8) (size 9 to 14) (size 15 to 20)
#    0.000    1.143    2.857    5.143    4.000    0.000 
#    0.000    4.286    0.000    0.000    0.000    0.000 
#    0.000    0.000    0.000    0.000    0.000    0.000 
#
# Total GULP energy -347007.487100 kJ/mol
# GULP energy per Si atom -12393.124539 kJ/mol
# Density = 2.204387 g / cm^3
# Si number density = 22.094156 Si / 1000 Ang^3
#
#
#
# Elastic Constant Matrix: (Units=GPa)
#
#
# Indices 1 2 3 4 5 6 
#
# 1 130.8071 28.5063 36.8749 0.0000 0.0000 0.0000
# 2 28.5063 52.1002 10.7434 0.0000 0.0000 0.0000
# 3 36.8749 10.7434 94.3925 0.0000 0.0000 0.0000
# 4 0.0000 0.0000 0.0000 38.0399 0.0000 0.0000
# 5 0.0000 0.0000 0.0000 0.0000 40.9412 0.0000
# 6 0.0000 0.0000 0.0000 0.0000 0.0000 28.8456
#
#
#
# Elastic Compliance Matrix: (Units=1/GPa)
#
#
# Indices 1 2 3 4 5 6 
#
# 1 0.009543 -0.004560 -0.003209 0.000000 0.000000 0.000000
# 2 -0.004560 0.021834 -0.000704 0.000000 0.000000 0.000000
# 3 -0.003209 -0.000704 0.011928 0.000000 0.000000 0.000000
# 4 0.000000 0.000000 0.000000 0.026288 0.000000 0.000000
# 5 0.000000 0.000000 0.000000 0.000000 0.024425 0.000000
# 6 0.000000 0.000000 0.000000 0.000000 0.000000 0.034667
#
#
# Mechanical properties :
#
#
# Convention : Reuss Voigt Hill
#
# Bulk Modulus (GPa) = 37.93696 47.72766 42.83231
# Shear Modulus (GPa) = 32.37980 34.97703 33.67841
#
# Velocity S-wave (km/s) = 3.83239 3.98312 3.90848
# Velocity P-wave (km/s) = 6.06554 6.54236 6.30846
#
# Compressibility (1/GPa) = 0.02635952
#
# Stress axis : x y z
#
# Youngs Moduli (GPa) = 104.78666 45.80066 83.83759
#
# Poissons Ratio (x) = 0.20884 0.26905
# Poissons Ratio (y) = 0.47780 0.05900
# Poissons Ratio (z) = 0.33627 0.03223
#
# Static dielectric constant tensor:
#      x y z
#    x 4.159910 0.000000 0.000000 
#    y 0.000000 3.578960 0.000000 
#    z 0.000000 0.000000 4.220900 
# 
# 
# High freq. dielectric constant tensor:
#      x y z
#    x 1.874010 0.000000 0.000000 
#    y 0.000000 1.819350 0.000000 
#    z 0.000000 0.000000 1.899970 
# 
# From -- ./inp_files/553.got.cif
#   From: 2010.03.12/outbox.cif.g09.slc.cpg/sg33_1_cif.got.tgz:553.got - 2010.04.14 01:49:19.
