data_PCOD8170860
_publ_section_title
;
Structure prediction by ZEFSAII (Michael W. Deem and Ramdas Pophale) SiO2 
 PCOD8170860
Probable space group: P N A 21
;
_chemical_formula_sum "Si O2"
_cell_formula_units_Z 32
_cell_length_a 19.318143
_cell_length_b 9.338985
_cell_length_c 8.567317
_cell_angle_alpha 90.000000
_cell_angle_beta 90.000000
_cell_angle_gamma 90.000000
_cell_volume 1545.645490
_symmetry_space_group_name_H-M "P N A 21"
_symmetry_group_IT_number 33
_symmetry_cell_setting 'orthorhombic'
loop_
_space_group_symop_operation_xyz
x,y,z
-x,-y,1/2+z
1/2-x,1/2+y,1/2+z
1/2+x,1/2-y,z
loop_
_atom_site_type_symbol
_atom_site_label
_atom_site_fract_x
_atom_site_fract_y
_atom_site_fract_z
Si Si1 0.861248 0.603764 0.979230
Si Si2 0.627226 0.553629 0.903570
Si Si3 0.529416 0.946745 0.288753
Si Si4 0.268316 0.534321 0.644007
Si Si5 0.694915 0.041079 0.925510
Si Si6 0.261534 0.841073 0.725978
Si Si7 0.409177 0.747506 0.281969
Si Si8 0.429935 0.148051 0.441781
O O1 0.906959 0.473473 0.907302
O O2 0.826687 0.693771 0.839196
O O3 0.796331 0.538392 0.063867
O O4 0.903576 0.707615 0.097402
O O5 0.691267 0.610610 0.804977
O O6 0.590730 0.423216 0.810229
O O7 0.657408 0.505067 0.071257
O O8 0.570905 0.678627 0.936828
O O9 0.482351 0.811532 0.343353
O O10 0.552579 0.921585 0.110539
O O11 0.482649 0.091147 0.308637
O O12 0.264835 0.481447 0.823857
O O13 0.251976 0.700721 0.623029
O O14 0.654373 0.186648 0.879863
O O15 0.716823 0.034923 0.105483
O O16 0.646471 0.903872 0.893428
#
# Coordination Sequence:
#
# PCOD8170860 Si02
#       8
#     4   4   4   4   4   4   4   4
#     4  10  22  39  66  90 121 174 214 257 325 392
#     4  11  24  40  63  99 141 161 213 278 339 381
#     4  11  22  43  69  87 121 175 236 260 322 391
#     4  10  22  39  59 100 132 160 210 264 334 398
#     4  10  20  37  64  91 126 174 212 253 327 395
#     4  11  21  36  64  96 130 169 203 265 334 396
#     4  10  22  41  62  93 130 168 214 280 315 387
#     4  11  23  41  67  94 123 175 220 273 318 398
#
# _framework density 20.703325
#
# number of rings (size 3 to 8) (size 9 to 14) (size 15 to 20)
#    0.000    1.500    5.000    0.000    1.750    2.000 
#    0.000    5.000    0.000    0.000    0.000    0.000 
#    0.000    0.000    0.000    0.000    0.000    0.000 
#
# Total GULP energy -396553.882346 kJ/mol
# GULP energy per Si atom -12392.308823 kJ/mol
# Density = 2.065620 g / cm^3
# Si number density = 20.703325 Si / 1000 Ang^3
#
#
#
# Elastic Constant Matrix: (Units=GPa)
#
#
# Indices 1 2 3 4 5 6 
#
# 1 54.1286 28.8447 29.5496 0.0000 0.0000 0.0000
# 2 28.8447 127.1728 38.7954 0.0000 0.0000 0.0000
# 3 29.5496 38.7954 113.0970 0.0000 0.0000 0.0000
# 4 0.0000 0.0000 0.0000 21.8327 0.0000 0.0000
# 5 0.0000 0.0000 0.0000 0.0000 23.9649 0.0000
# 6 0.0000 0.0000 0.0000 0.0000 0.0000 16.2863
#
#
#
# Elastic Compliance Matrix: (Units=1/GPa)
#
#
# Indices 1 2 3 4 5 6 
#
# 1 0.023076 -0.003792 -0.004729 0.000000 0.000000 0.000000
# 2 -0.003792 0.009405 -0.002236 0.000000 0.000000 0.000000
# 3 -0.004729 -0.002236 0.010844 0.000000 0.000000 0.000000
# 4 0.000000 0.000000 0.000000 0.045803 0.000000 0.000000
# 5 0.000000 0.000000 0.000000 0.000000 0.041728 0.000000
# 6 0.000000 0.000000 0.000000 0.000000 0.000000 0.061401
#
#
# Mechanical properties :
#
#
# Convention : Reuss Voigt Hill
#
# Bulk Modulus (GPa) = 45.84146 54.30863 50.07504
# Shear Modulus (GPa) = 22.62022 25.56404 24.09213
#
# Velocity S-wave (km/s) = 3.30902 3.51775 3.41498
# Velocity P-wave (km/s) = 6.06544 6.54127 6.30785
#
# Compressibility (1/GPa) = 0.02181432
#
# Stress axis : x y z
#
# Youngs Moduli (GPa) = 43.33418 106.32307 92.21379
#
# Poissons Ratio (x) = 0.40313 0.43605
# Poissons Ratio (y) = 0.16430 0.20616
# Poissons Ratio (z) = 0.20492 0.23770
#
# Static dielectric constant tensor:
#      x y z
#    x 3.875860 0.000000 0.000000 
#    y 0.000000 3.633890 0.000000 
#    z 0.000000 0.000000 4.244940 
# 
# 
# High freq. dielectric constant tensor:
#      x y z
#    x 1.800390 0.000000 0.000000 
#    y 0.000000 1.793530 0.000000 
#    z 0.000000 0.000000 1.816210 
# 
# From -- ./inp_files/4988.got.cif
#   From: 2010.03.12/outbox.cif.g09.slc.cpg/sg33_3_cif.got.tgz:4988.got - 2010.04.14 01:49:19.
