data_PCOD8170928
_publ_section_title
;
Structure prediction by ZEFSAII (Michael W. Deem and Ramdas Pophale) SiO2 
 PCOD8170928
Probable space group: P N A 21
;
_chemical_formula_sum "Si O2"
_cell_formula_units_Z 32
_cell_length_a 31.662266
_cell_length_b 5.247610
_cell_length_c 8.674132
_cell_angle_alpha 90.000000
_cell_angle_beta 90.000000
_cell_angle_gamma 90.000000
_cell_volume 1441.217646
_symmetry_space_group_name_H-M "P N A 21"
_symmetry_group_IT_number 33
_symmetry_cell_setting 'orthorhombic'
loop_
_space_group_symop_operation_xyz
x,y,z
-x,-y,1/2+z
1/2-x,1/2+y,1/2+z
1/2+x,1/2-y,z
loop_
_atom_site_type_symbol
_atom_site_label
_atom_site_fract_x
_atom_site_fract_y
_atom_site_fract_z
Si Si1 0.225468 0.589541 0.968820
Si Si2 0.559494 0.546073 0.506379
Si Si3 0.979011 0.544714 0.145421
Si Si4 0.435848 0.734046 0.418571
Si Si5 0.627123 0.560712 0.720897
Si Si6 0.941696 0.155324 0.653270
Si Si7 0.281182 0.595545 0.269169
Si Si8 0.131987 0.602713 0.996547
O O1 0.233229 0.351003 0.855827
O O2 0.179846 0.566251 0.053737
O O3 0.230282 0.851395 0.873622
O O4 0.259339 0.577981 0.103980
O O5 0.544947 0.261456 0.548551
O O6 0.609740 0.601654 0.546635
O O7 0.554970 0.557829 0.324602
O O8 0.531506 0.764707 0.587155
O O9 0.966503 0.568252 0.328517
O O10 0.029977 0.588090 0.130988
O O11 0.415792 0.556967 0.288278
O O12 0.461632 0.561911 0.541013
O O13 0.395554 0.850031 0.508049
O O14 0.668709 0.386143 0.733159
O O15 0.635613 0.820077 0.815207
O O16 0.892734 0.192384 0.602461
#
# Coordination Sequence:
#
# PCOD8170928 Si02
#       8
#     4   4   4   4   4   4   4   4
#     4  11  24  44  70 101 135 174 217 273 328 403
#     4  11  25  42  62  97 125 169 218 284 318 379
#     4  11  25  42  64  88 134 170 223 265 337 385
#     4  10  20  42  63  87 124 179 210 260 324 393
#     4   9  20  41  66  88 127 174 215 254 328 403
#     4  11  26  37  64  97 127 169 224 281 318 382
#     4  11  23  43  69 101 134 171 222 266 333 396
#     4  10  21  41  66  89 130 176 215 255 334 397
#
# _framework density 22.203448999999999
#
# number of rings (size 3 to 8) (size 9 to 14) (size 15 to 20)
#    0.000    1.500    2.500    1.500    5.250    1.000 
#    2.250    0.000    0.000    0.000    0.000    0.000 
#    0.000    0.000    0.000    0.000    0.000    0.000 
#
# Total GULP energy -396616.511896 kJ/mol
# GULP energy per Si atom -12394.265997 kJ/mol
# Density = 2.215291 g / cm^3
# Si number density = 22.203449 Si / 1000 Ang^3
#
#
#
# Elastic Constant Matrix: (Units=GPa)
#
#
# Indices 1 2 3 4 5 6 
#
# 1 92.9015 13.6543 40.2731 0.0000 0.0000 0.0000
# 2 13.6543 91.7349 18.3252 0.0000 0.0000 0.0000
# 3 40.2731 18.3252 109.1707 0.0000 0.0000 0.0000
# 4 0.0000 0.0000 0.0000 17.9047 0.0000 0.0000
# 5 0.0000 0.0000 0.0000 0.0000 26.5293 0.0000
# 6 0.0000 0.0000 0.0000 0.0000 0.0000 28.3991
#
#
#
# Elastic Compliance Matrix: (Units=1/GPa)
#
#
# Indices 1 2 3 4 5 6 
#
# 1 0.012902 -0.001003 -0.004591 0.000000 0.000000 0.000000
# 2 -0.001003 0.011357 -0.001536 0.000000 0.000000 0.000000
# 3 -0.004591 -0.001536 0.011111 0.000000 0.000000 0.000000
# 4 0.000000 0.000000 0.000000 0.055851 0.000000 0.000000
# 5 0.000000 0.000000 0.000000 0.000000 0.037694 0.000000
# 6 0.000000 0.000000 0.000000 0.000000 0.000000 0.035212
#
#
# Mechanical properties :
#
#
# Convention : Reuss Voigt Hill
#
# Bulk Modulus (GPa) = 47.37259 48.70136 48.03698
# Shear Modulus (GPa) = 26.96495 29.33692 28.15094
#
# Velocity S-wave (km/s) = 3.48867 3.63888 3.56457
# Velocity P-wave (km/s) = 6.13268 6.29580 6.21477
#
# Compressibility (1/GPa) = 0.02110925
#
# Stress axis : x y z
#
# Youngs Moduli (GPa) = 77.50858 88.04985 89.99685
#
# Poissons Ratio (x) = 0.08834 0.41318
# Poissons Ratio (y) = 0.07776 0.13826
# Poissons Ratio (z) = 0.35585 0.13527
#
# Static dielectric constant tensor:
#      x y z
#    x 4.190790 0.000000 0.000000 
#    y 0.000000 3.979880 0.000000 
#    z 0.000000 0.000000 4.058790 
# 
# 
# High freq. dielectric constant tensor:
#      x y z
#    x 1.871720 0.000000 0.000000 
#    y 0.000000 1.880490 0.000000 
#    z 0.000000 0.000000 1.867550 
# 
# From -- ./inp_files/5299.got.cif
#   From: 2010.03.12/outbox.cif.g09.slc.cpg/sg33_3_cif.got.tgz:5299.got - 2010.04.14 01:49:19.
