data_PCOD8170204
_publ_section_title
;
Structure prediction by ZEFSAII (Michael W. Deem and Ramdas Pophale) SiO2 
 PCOD8170204
Probable space group: P M N 21
;
_chemical_formula_sum "Si O2"
_cell_formula_units_Z 32
_cell_length_a 8.700386
_cell_length_b 14.479979
_cell_length_c 12.437627
_cell_angle_alpha 90.000000
_cell_angle_beta 90.000000
_cell_angle_gamma 90.000000
_cell_volume 1566.909744
_symmetry_space_group_name_H-M "P M N 21"
_symmetry_group_IT_number 31
_symmetry_cell_setting 'orthorhombic'
loop_
_space_group_symop_operation_xyz
x,y,z
1/2-x,-y,1/2+z
-x,y,z
1/2+x,-y,1/2+z
loop_
_atom_site_type_symbol
_atom_site_label
_atom_site_fract_x
_atom_site_fract_y
_atom_site_fract_z
Si Si1 0.822692 0.939794 0.919600
Si Si2 0.668495 0.668838 0.813334
Si Si3 0.180141 0.232257 0.517551
Si Si4 0.331341 0.863964 0.719927
Si Si5 0.318963 0.332599 0.926973
Si Si6 0.819555 0.369387 0.698883
Si Si7 0.318989 0.860658 0.478598
Si Si8 0.315581 0.550623 0.623228
O O1 0.793331 0.906743 0.799107
O O2 0.000000 0.936913 0.948938
O O3 0.764253 0.045295 0.921402
O O4 0.743310 0.871818 0.006802
O O5 0.500000 0.630421 0.844547
O O6 0.654529 0.755250 0.734360
O O7 0.749626 0.592551 0.737125
O O8 0.753791 0.700160 0.924187
O O9 0.213220 0.272996 0.635618
O O10 0.000000 0.226302 0.491782
O O11 0.500000 0.909459 0.738960
O O12 0.272213 0.880106 0.600724
O O13 0.500000 0.343421 0.939241
O O14 0.268212 0.371624 0.811513
O O15 0.273078 0.225351 0.930980
O O16 0.239477 0.391448 0.020623
O O17 0.755248 0.448497 0.619487
O O18 0.000000 0.382429 0.718809
O O19 0.500000 0.840100 0.464746
O O20 0.500000 0.549118 0.621799
#
# Coordination Sequence:
#
# PCOD8170204 Si02
#       8
#     4   4   4   4   4   4   4   4
#     4  10  21  35  58  92 125 157 205 261 314 374
#     4   8  15  32  60  85 109 149 195 247 303 360
#     4   9  20  40  62  85 121 165 206 250 307 373
#     4   9  17  35  58  80 113 158 202 246 306 370
#     4  12  26  43  64  93 128 165 212 262 312 376
#     4  11  25  43  64  93 130 170 210 256 315 379
#     4  10  21  40  62  86 121 164 206 259 318 369
#     4  11  22  40  66  94 125 160 204 259 315 375
#
# _framework density 20.422362
#
# number of rings (size 3 to 8) (size 9 to 14) (size 15 to 20)
#    0.000    2.000    1.250    3.000    1.750    3.500 
#    0.000    3.125    0.000    0.000    0.000    0.000 
#    0.000    0.000    0.000    0.000    0.000    0.000 
#
# Total GULP energy -396612.154500 kJ/mol
# GULP energy per Si atom -12394.129828 kJ/mol
# Density = 2.037588 g / cm^3
# Si number density = 20.422362 Si / 1000 Ang^3
#
#
#
# Elastic Constant Matrix: (Units=GPa)
#
#
# Indices 1 2 3 4 5 6 
#
# 1 66.0287 33.0543 23.0364 0.0000 0.0000 0.0000
# 2 33.0543 108.6271 31.4669 0.0000 0.0000 0.0000
# 3 23.0364 31.4669 73.4878 0.0000 0.0000 0.0000
# 4 0.0000 0.0000 0.0000 22.9237 0.0000 0.0000
# 5 0.0000 0.0000 0.0000 0.0000 24.0188 0.0000
# 6 0.0000 0.0000 0.0000 0.0000 0.0000 31.2206
#
#
#
# Elastic Compliance Matrix: (Units=1/GPa)
#
#
# Indices 1 2 3 4 5 6 
#
# 1 0.018813 -0.004585 -0.003934 0.000000 0.000000 0.000000
# 2 -0.004585 0.011627 -0.003541 0.000000 0.000000 0.000000
# 3 -0.003934 -0.003541 0.016357 0.000000 0.000000 0.000000
# 4 0.000000 0.000000 0.000000 0.043623 0.000000 0.000000
# 5 0.000000 0.000000 0.000000 0.000000 0.041634 0.000000
# 6 0.000000 0.000000 0.000000 0.000000 0.000000 0.032030
#
#
# Mechanical properties :
#
#
# Convention : Reuss Voigt Hill
#
# Bulk Modulus (GPa) = 44.09890 47.02873 45.56381
# Shear Modulus (GPa) = 25.54108 26.33836 25.93972
#
# Velocity S-wave (km/s) = 3.54028 3.59511 3.56780
# Velocity P-wave (km/s) = 6.19288 6.34911 6.27148
#
# Compressibility (1/GPa) = 0.02267630
#
# Stress axis : x y z
#
# Youngs Moduli (GPa) = 53.15563 86.00832 61.13501
#
# Poissons Ratio (x) = 0.39434 0.24051
# Poissons Ratio (y) = 0.24371 0.21649
# Poissons Ratio (z) = 0.20912 0.30458
#
# Static dielectric constant tensor:
#      x y z
#    x 3.488290 0.000000 0.000000 
#    y 0.000000 3.814620 0.000000 
#    z 0.000000 0.000000 3.707060 
# 
# 
# High freq. dielectric constant tensor:
#      x y z
#    x 1.777610 0.000000 0.000000 
#    y 0.000000 1.800420 0.000000 
#    z 0.000000 0.000000 1.802180 
# 
# From -- ./inp_files/3601.got.cif
#   From: 2010.03.12/outbox.cif.g09.slc.cpg/sg31_2_cif.got.tgz:3601.got - 2010.04.14 01:42:59.
