data_PCOD8170272
_publ_section_title
;
Structure prediction by ZEFSAII (Michael W. Deem and Ramdas Pophale) SiO2 
 PCOD8170272
Probable space group: P M N 21
;
_chemical_formula_sum "Si O2"
_cell_formula_units_Z 24
_cell_length_a 8.469634
_cell_length_b 11.928622
_cell_length_c 11.856193
_cell_angle_alpha 90.000000
_cell_angle_beta 90.000000
_cell_angle_gamma 90.000000
_cell_volume 1197.843776
_symmetry_space_group_name_H-M "P M N 21"
_symmetry_group_IT_number 31
_symmetry_cell_setting 'orthorhombic'
loop_
_space_group_symop_operation_xyz
x,y,z
1/2-x,-y,1/2+z
-x,y,z
1/2+x,-y,1/2+z
loop_
_atom_site_type_symbol
_atom_site_label
_atom_site_fract_x
_atom_site_fract_y
_atom_site_fract_z
Si Si1 0.313699 0.723575 0.944510
Si Si2 0.682413 0.835399 0.370786
Si Si3 0.183964 0.066649 0.305728
Si Si4 0.313507 0.652496 0.186686
Si Si5 0.182153 0.792081 0.609913
Si Si6 0.185470 0.410036 0.230496
O O1 0.500000 0.719821 0.952475
O O2 0.261744 0.847555 0.904483
O O3 0.255137 0.632127 0.853205
O O4 0.243180 0.695001 0.066997
O O5 0.500000 0.822688 0.404013
O O6 0.732902 0.743523 0.279362
O O7 0.789749 0.818631 0.479663
O O8 0.711459 0.956317 0.316283
O O9 0.213711 0.123841 0.184952
O O10 0.000000 0.036200 0.315871
O O11 0.500000 0.632083 0.180595
O O12 0.227773 0.538662 0.218748
O O13 0.228952 0.663131 0.634036
O O14 0.000000 0.811821 0.638738
O O15 0.000000 0.390961 0.216712
#
# Coordination Sequence:
#
# PCOD8170272 Si02
#       6
#     4   4   4   4   4   4
#     4   8  18  38  61  84 115 156 194 239 297 363
#     4  11  24  39  60  93 128 159 203 254 301 362
#     4  10  21  40  65  91 121 158 203 251 307 366
#     4  10  22  39  60  88 122 158 198 243 300 364
#     4  11  23  41  64  87 120 165 208 248 305 363
#     4  10  21  39  62  89 120 154 200 251 304 362
#
# _framework density 20.036000999999999
#
# number of rings (size 3 to 8) (size 9 to 14) (size 15 to 20)
#    0.000    2.000    0.000    4.000    4.667    1.333 
#    0.000    4.167    0.000    0.000    0.000    0.000 
#    0.000    0.000    0.000    0.000    0.000    0.000 
#
# Total GULP energy -297683.551427 kJ/mol
# GULP energy per Si atom -12403.481309 kJ/mol
# Density = 1.999040 g / cm^3
# Si number density = 20.036001 Si / 1000 Ang^3
#
#
#
# Elastic Constant Matrix: (Units=GPa)
#
#
# Indices 1 2 3 4 5 6 
#
# 1 51.3521 20.3775 19.8379 0.0000 0.0000 0.0000
# 2 20.3775 139.6803 52.7633 0.0000 0.0000 0.0000
# 3 19.8379 52.7633 116.6330 0.0000 0.0000 0.0000
# 4 0.0000 0.0000 0.0000 23.8674 0.0000 0.0000
# 5 0.0000 0.0000 0.0000 0.0000 25.4184 0.0000
# 6 0.0000 0.0000 0.0000 0.0000 0.0000 35.0799
#
#
#
# Elastic Compliance Matrix: (Units=1/GPa)
#
#
# Indices 1 2 3 4 5 6 
#
# 1 0.021342 -0.002101 -0.002679 0.000000 0.000000 0.000000
# 2 -0.002101 0.008842 -0.003642 0.000000 0.000000 0.000000
# 3 -0.002679 -0.003642 0.010677 0.000000 0.000000 0.000000
# 4 0.000000 0.000000 0.000000 0.041898 0.000000 0.000000
# 5 0.000000 0.000000 0.000000 0.000000 0.039342 0.000000
# 6 0.000000 0.000000 0.000000 0.000000 0.000000 0.028506
#
#
# Mechanical properties :
#
#
# Convention : Reuss Voigt Hill
#
# Bulk Modulus (GPa) = 41.64082 54.84699 48.24390
# Shear Modulus (GPa) = 28.49665 31.18557 29.84111
#
# Velocity S-wave (km/s) = 3.77539 3.94950 3.86343
# Velocity P-wave (km/s) = 6.31133 6.94491 6.63569
#
# Compressibility (1/GPa) = 0.02401490
#
# Stress axis : x y z
#
# Youngs Moduli (GPa) = 46.85511 113.10061 93.65546
#
# Poissons Ratio (x) = 0.23767 0.25094
# Poissons Ratio (y) = 0.09846 0.34113
# Poissons Ratio (z) = 0.12554 0.41196
#
# Static dielectric constant tensor:
#      x y z
#    x 3.431310 0.000000 0.000000 
#    y 0.000000 3.651020 0.000000 
#    z 0.000000 0.000000 3.884980 
# 
# 
# High freq. dielectric constant tensor:
#      x y z
#    x 1.771190 0.000000 0.000000 
#    y 0.000000 1.788880 0.000000 
#    z 0.000000 0.000000 1.787660 
# 
# From -- ./inp_files/3443.got.cif
#   From: 2010.03.12/outbox.cif.g09.slc.cpg/sg31_2_cif.got.tgz:3443.got - 2010.04.14 01:42:59.
