data_PCOD8170641
_publ_section_title
;
Structure prediction by ZEFSAII (Michael W. Deem and Ramdas Pophale) SiO2 
 PCOD8170641
Probable space group: P N A 21
;
_chemical_formula_sum "Si O2"
_cell_formula_units_Z 32
_cell_length_a 5.205553
_cell_length_b 8.007667
_cell_length_c 39.377372
_cell_angle_alpha 90.000000
_cell_angle_beta 90.000000
_cell_angle_gamma 90.000000
_cell_volume 1641.419565
_symmetry_space_group_name_H-M "P N A 21"
_symmetry_group_IT_number 33
_symmetry_cell_setting 'orthorhombic'
loop_
_space_group_symop_operation_xyz
x,y,z
-x,-y,1/2+z
1/2-x,1/2+y,1/2+z
1/2+x,1/2-y,z
loop_
_atom_site_type_symbol
_atom_site_label
_atom_site_fract_x
_atom_site_fract_y
_atom_site_fract_z
Si Si1 0.287384 0.853870 0.681390
Si Si2 0.235443 0.148276 0.885054
Si Si3 0.192323 0.938962 0.488714
Si Si4 0.825435 0.358046 0.811998
Si Si5 0.303568 0.645650 0.129280
Si Si6 0.766937 0.860042 0.052599
Si Si7 0.748650 0.644774 0.758612
Si Si8 0.192193 0.560007 0.459334
O O1 0.072394 0.714275 0.674575
O O2 0.265111 0.919742 0.719952
O O3 0.242741 0.003363 0.656167
O O4 0.435353 0.303173 0.886187
O O5 0.291678 0.054088 0.849292
O O6 0.294510 0.043956 0.918708
O O7 0.180125 0.746445 0.476349
O O8 0.937805 0.032307 0.475091
O O9 0.432671 0.031076 0.470805
O O10 0.211744 0.973395 0.529118
O O11 0.612901 0.212959 0.808556
O O12 0.784048 0.488179 0.782508
O O13 0.090651 0.787670 0.135201
O O14 0.277223 0.573286 0.091193
O O15 0.998582 0.732295 0.045375
O O16 0.469921 0.721092 0.766184
#
# Coordination Sequence:
#
# PCOD8170641 Si02
#       8
#     4   4   4   4   4   4   4   4
#     4  10  21  38  58  85 113 147 183 230 276 322
#     4  10  16  30  49  76 102 132 165 224 276 310
#     4  10  18  30  50  73  98 128 171 212 257 318
#     4  10  21  33  56  87 108 141 191 232 270 315
#     4  10  21  38  59  81 110 153 186 222 278 334
#     4  10  21  37  52  71 104 144 177 211 265 319
#     4  10  21  38  58  79 118 154 177 217 286 339
#     4  10  17  30  50  78  97 125 168 216 276 297
#
# _framework density 19.49532
#
# number of rings (size 3 to 8) (size 9 to 14) (size 15 to 20)
#    0.000    2.000    2.500    2.250    0.000    1.000 
#    4.500    0.000    0.000    4.500    0.000    0.000 
#    0.000    0.000    0.000    0.000    0.000    0.000 
#
# Total GULP energy -396523.689361 kJ/mol
# GULP energy per Si atom -12391.365293 kJ/mol
# Density = 1.945095 g / cm^3
# Si number density = 19.495320 Si / 1000 Ang^3
#
#
#
# Elastic Constant Matrix: (Units=GPa)
#
#
# Indices 1 2 3 4 5 6 
#
# 1 115.3481 -5.4897 15.5796 0.0000 0.0000 0.0000
# 2 -5.4897 30.6728 47.0382 0.0000 0.0000 0.0000
# 3 15.5796 47.0382 132.9539 0.0000 0.0000 0.0000
# 4 0.0000 0.0000 0.0000 33.0008 0.0000 0.0000
# 5 0.0000 0.0000 0.0000 0.0000 27.3261 0.0000
# 6 0.0000 0.0000 0.0000 0.0000 0.0000 12.6769
#
#
#
# Elastic Compliance Matrix: (Units=1/GPa)
#
#
# Indices 1 2 3 4 5 6 
#
# 1 0.009533 0.007475 -0.003762 0.000000 0.000000 0.000000
# 2 0.007475 0.077131 -0.028164 0.000000 0.000000 0.000000
# 3 -0.003762 -0.028164 0.017927 0.000000 0.000000 0.000000
# 4 0.000000 0.000000 0.000000 0.030302 0.000000 0.000000
# 5 0.000000 0.000000 0.000000 0.000000 0.036595 0.000000
# 6 0.000000 0.000000 0.000000 0.000000 0.000000 0.078884
#
#
# Mechanical properties :
#
#
# Convention : Reuss Voigt Hill
#
# Bulk Modulus (GPa) = 17.95694 43.69233 30.82464
# Shear Modulus (GPa) = 15.73130 29.39054 22.56092
#
# Velocity S-wave (km/s) = 2.84373 3.88695 3.40553
# Velocity P-wave (km/s) = 4.47362 6.52724 5.59545
#
# Compressibility (1/GPa) = 0.05568877
#
# Stress axis : x y z
#
# Youngs Moduli (GPa) = 104.89621 12.96489 55.78305
#
# Poissons Ratio (x) = -0.09691 0.20984
# Poissons Ratio (y) = -0.78409 1.57110
# Poissons Ratio (z) = 0.39459 0.36515
#
# Static dielectric constant tensor:
#      x y z
#    x 4.953330 0.000000 0.000000 
#    y 0.000000 2.893800 0.000000 
#    z 0.000000 0.000000 3.880510 
# 
# 
# High freq. dielectric constant tensor:
#      x y z
#    x 1.799000 0.000000 0.000000 
#    y 0.000000 1.694510 0.000000 
#    z 0.000000 0.000000 1.776930 
# 
# From -- ./inp_files/9371.got.cif
#   From: 2010.03.12/outbox.cif.g09.slc.cpg/sg33_5_cif.got.tgz:9371.got - 2010.04.14 01:49:19.
