data_PCOD8170152
_publ_section_title
;
Structure prediction by ZEFSAII (Michael W. Deem and Ramdas Pophale) SiO2 
 PCOD8170152
Probable space group: P M N 21
;
_chemical_formula_sum "Si O2"
_cell_formula_units_Z 24
_cell_length_a 9.038411
_cell_length_b 15.138148
_cell_length_c 8.941487
_cell_angle_alpha 90.000000
_cell_angle_beta 90.000000
_cell_angle_gamma 90.000000
_cell_volume 1223.417201
_symmetry_space_group_name_H-M "P M N 21"
_symmetry_group_IT_number 31
_symmetry_cell_setting 'orthorhombic'
loop_
_space_group_symop_operation_xyz
x,y,z
1/2-x,-y,1/2+z
-x,y,z
1/2+x,-y,1/2+z
loop_
_atom_site_type_symbol
_atom_site_label
_atom_site_fract_x
_atom_site_fract_y
_atom_site_fract_z
Si Si1 0.671551 0.264945 0.452530
Si Si2 0.326695 0.227341 0.114267
Si Si3 0.830423 0.904375 0.138778
Si Si4 0.829618 0.402519 0.062309
Si Si5 0.670524 0.927295 0.444922
Si Si6 0.669977 0.560841 0.908669
O O1 0.500000 0.291341 0.458963
O O2 0.712232 0.227103 0.289539
O O3 0.712014 0.191641 0.574981
O O4 0.765603 0.352178 0.489652
O O5 0.500000 0.232761 0.083781
O O6 0.251349 0.310027 0.031694
O O7 0.265338 0.137697 0.046425
O O8 0.723712 0.926827 0.274766
O O9 0.000000 0.905654 0.194571
O O10 0.806543 0.974218 0.006323
O O11 0.808331 0.431718 0.232305
O O12 0.000000 0.391254 0.019229
O O13 0.758690 0.474938 0.955982
O O14 0.500000 0.898387 0.451054
O O15 0.500000 0.550942 0.955844
#
# Coordination Sequence:
#
# PCOD8170152 Si02
#       6
#     4   4   4   4   4   4
#     4   9  19  37  59  81 108 145 186 228 276 329
#     4  10  20  37  60  83 111 147 185 228 279 330
#     4  10  22  39  58  82 113 147 184 228 276 327
#     4  10  21  37  57  82 112 146 186 230 275 328
#     4  11  23  38  58  85 114 146 186 229 275 328
#     4  10  21  36  56  83 112 145 185 229 279 330
#
# _framework density 19.617183000000001
#
# number of rings (size 3 to 8) (size 9 to 14) (size 15 to 20)
#    0.000    2.000    0.000    3.000    0.000    7.333 
#    0.000    1.667    0.000    0.000    0.000    0.000 
#    0.000    0.000    0.000    0.000    0.000    0.000 
#
# Total GULP energy -297730.935152 kJ/mol
# GULP energy per Si atom -12405.455631 kJ/mol
# Density = 1.957253 g / cm^3
# Si number density = 19.617183 Si / 1000 Ang^3
#
#
#
# Elastic Constant Matrix: (Units=GPa)
#
#
# Indices 1 2 3 4 5 6 
#
# 1 92.1997 23.8304 15.9720 0.0000 0.0000 0.0000
# 2 23.8304 56.4254 -6.0950 0.0000 0.0000 0.0000
# 3 15.9720 -6.0950 36.2173 0.0000 0.0000 0.0000
# 4 0.0000 0.0000 0.0000 33.6935 0.0000 0.0000
# 5 0.0000 0.0000 0.0000 0.0000 33.8393 0.0000
# 6 0.0000 0.0000 0.0000 0.0000 0.0000 38.0242
#
#
#
# Elastic Compliance Matrix: (Units=1/GPa)
#
#
# Indices 1 2 3 4 5 6 
#
# 1 0.013800 -0.006606 -0.007198 0.000000 0.000000 0.000000
# 2 -0.006606 0.021213 0.006483 0.000000 0.000000 0.000000
# 3 -0.007198 0.006483 0.031876 0.000000 0.000000 0.000000
# 4 0.000000 0.000000 0.000000 0.029679 0.000000 0.000000
# 5 0.000000 0.000000 0.000000 0.000000 0.029551 0.000000
# 6 0.000000 0.000000 0.000000 0.000000 0.000000 0.026299
#
#
# Mechanical properties :
#
#
# Convention : Reuss Voigt Hill
#
# Bulk Modulus (GPa) = 19.13932 28.02856 23.58394
# Shear Modulus (GPa) = 27.10380 31.18708 29.14544
#
# Velocity S-wave (km/s) = 3.72107 3.99154 3.85867
# Velocity P-wave (km/s) = 5.31407 5.96338 5.64807
#
# Compressibility (1/GPa) = 0.05224845
#
# Stress axis : x y z
#
# Youngs Moduli (GPa) = 72.46244 47.14171 31.37120
#
# Poissons Ratio (x) = 0.31141 0.22580
# Poissons Ratio (y) = 0.47867 -0.20338
# Poissons Ratio (z) = 0.52156 -0.30562
#
# Static dielectric constant tensor:
#      x y z
#    x 3.719370 0.000000 0.000000 
#    y 0.000000 3.687620 0.000000 
#    z 0.000000 0.000000 3.422220 
# 
# 
# High freq. dielectric constant tensor:
#      x y z
#    x 1.773180 0.000000 0.000000 
#    y 0.000000 1.776750 0.000000 
#    z 0.000000 0.000000 1.756010 
# 
# From -- ./inp_files/1666.got.cif
#   From: 2010.03.12/outbox.cif.g09.slc.cpg/sg31_1_cif.got.tgz:1666.got - 2010.04.14 01:42:59.
