data_PCOD8170828
_publ_section_title
;
Structure prediction by ZEFSAII (Michael W. Deem and Ramdas Pophale) SiO2 
 PCOD8170828
Probable space group: P N A 21
;
_chemical_formula_sum "Si O2"
_cell_formula_units_Z 28
_cell_length_a 17.495339
_cell_length_b 9.145034
_cell_length_c 9.142779
_cell_angle_alpha 90.000000
_cell_angle_beta 90.000000
_cell_angle_gamma 90.000000
_cell_volume 1462.803223
_symmetry_space_group_name_H-M "P N A 21"
_symmetry_group_IT_number 33
_symmetry_cell_setting 'orthorhombic'
loop_
_space_group_symop_operation_xyz
x,y,z
-x,-y,1/2+z
1/2-x,1/2+y,1/2+z
1/2+x,1/2-y,z
loop_
_atom_site_type_symbol
_atom_site_label
_atom_site_fract_x
_atom_site_fract_y
_atom_site_fract_z
Si Si1 0.886554 0.254981 0.685530
Si Si2 0.135310 0.828437 0.730143
Si Si3 0.636417 0.062061 0.338043
Si Si4 0.887325 0.015535 0.922814
Si Si5 0.499863 0.250156 0.424085
Si Si6 0.787425 0.829760 0.725982
Si Si7 0.787717 0.058894 0.497693
O O1 0.865532 0.403838 0.766583
O O2 0.912999 0.136742 0.805314
O O3 0.954962 0.282115 0.572812
O O4 0.812281 0.198038 0.596679
O O5 0.131269 0.904214 0.573659
O O6 0.054400 0.762881 0.781457
O O7 0.196624 0.696179 0.731990
O O8 0.164600 0.947847 0.847391
O O9 0.554401 0.110735 0.399457
O O10 0.665535 0.178687 0.217979
O O11 0.696987 0.067168 0.471444
O O12 0.812464 0.927535 0.866221
O O13 0.956088 0.902527 0.943814
O O14 0.809981 0.909781 0.577271
#
# Coordination Sequence:
#
# PCOD8170828 Si02
#       7
#     4   4   4   4   4   4   4
#     4  10  21  38  59  83 114 148 186 233 280 332
#     4  10  20  35  60  84 110 146 187 230 276 331
#     4  10  21  36  57  84 115 144 185 237 280 325
#     4  10  20  38  61  82 109 149 187 225 278 338
#     4  10  22  38  54  82 116 148 186 230 276 332
#     4   9  20  37  58  82 109 142 185 233 278 328
#     4   9  20  38  57  81 111 145 186 230 280 336
#
# _framework density 19.141331000000001
#
# number of rings (size 3 to 8) (size 9 to 14) (size 15 to 20)
#    0.000    2.286    0.000    1.714    0.000   12.571 
#    0.000    1.429    0.000    5.143    0.000    0.000 
#    0.000    0.000    0.000    0.000    0.000    0.000 
#
# Total GULP energy -347139.621679 kJ/mol
# GULP energy per Si atom -12397.843631 kJ/mol
# Density = 1.909776 g / cm^3
# Si number density = 19.141331 Si / 1000 Ang^3
#
#
#
# Elastic Constant Matrix: (Units=GPa)
#
#
# Indices 1 2 3 4 5 6 
#
# 1 121.7094 47.0711 45.5933 0.0000 0.0000 0.0000
# 2 47.0711 116.4207 46.2119 0.0000 0.0000 0.0000
# 3 45.5933 46.2119 111.2868 0.0000 0.0000 0.0000
# 4 0.0000 0.0000 0.0000 31.7647 0.0000 0.0000
# 5 0.0000 0.0000 0.0000 0.0000 22.1078 0.0000
# 6 0.0000 0.0000 0.0000 0.0000 0.0000 23.2686
#
#
#
# Elastic Compliance Matrix: (Units=1/GPa)
#
#
# Indices 1 2 3 4 5 6 
#
# 1 0.010539 -0.003050 -0.003051 0.000000 0.000000 0.000000
# 2 -0.003050 0.011167 -0.003388 0.000000 0.000000 0.000000
# 3 -0.003051 -0.003388 0.011643 0.000000 0.000000 0.000000
# 4 0.000000 0.000000 0.000000 0.031481 0.000000 0.000000
# 5 0.000000 0.000000 0.000000 0.000000 0.045233 0.000000
# 6 0.000000 0.000000 0.000000 0.000000 0.000000 0.042976
#
#
# Mechanical properties :
#
#
# Convention : Reuss Voigt Hill
#
# Bulk Modulus (GPa) = 69.58389 69.68547 69.63468
# Shear Modulus (GPa) = 28.27932 29.46428 28.87180
#
# Velocity S-wave (km/s) = 3.84786 3.92765 3.88796
# Velocity P-wave (km/s) = 7.49486 7.55337 7.52417
#
# Compressibility (1/GPa) = 0.01437114
#
# Stress axis : x y z
#
# Youngs Moduli (GPa) = 94.88699 89.54637 85.89144
#
# Poissons Ratio (x) = 0.27311 0.26207
# Poissons Ratio (y) = 0.28940 0.29098
# Poissons Ratio (z) = 0.28952 0.30336
#
# Static dielectric constant tensor:
#      x y z
#    x 3.605800 0.000000 0.000000 
#    y 0.000000 3.539500 0.000000 
#    z 0.000000 0.000000 3.589400 
# 
# 
# High freq. dielectric constant tensor:
#      x y z
#    x 1.745790 0.000000 0.000000 
#    y 0.000000 1.743480 0.000000 
#    z 0.000000 0.000000 1.747080 
# 
# From -- ./inp_files/4706.got.cif
#   From: 2010.03.12/outbox.cif.g09.slc.cpg/sg33_3_cif.got.tgz:4706.got - 2010.04.14 01:49:19.
