data_PCOD8170686
_publ_section_title
;
Structure prediction by ZEFSAII (Michael W. Deem and Ramdas Pophale) SiO2 
 PCOD8170686
Probable space group: P N A 21
;
_chemical_formula_sum "Si O2"
_cell_formula_units_Z 32
_cell_length_a 9.065565
_cell_length_b 14.859080
_cell_length_c 11.535590
_cell_angle_alpha 90.000000
_cell_angle_beta 90.000000
_cell_angle_gamma 90.000000
_cell_volume 1553.912674
_symmetry_space_group_name_H-M "P N A 21"
_symmetry_group_IT_number 33
_symmetry_cell_setting 'orthorhombic'
loop_
_space_group_symop_operation_xyz
x,y,z
-x,-y,1/2+z
1/2-x,1/2+y,1/2+z
1/2+x,1/2-y,z
loop_
_atom_site_type_symbol
_atom_site_label
_atom_site_fract_x
_atom_site_fract_y
_atom_site_fract_z
Si Si1 0.149263 0.579090 0.750000
Si Si2 0.922805 0.683707 0.221520
Si Si3 0.765773 0.344644 0.653584
Si Si4 0.689391 0.031227 0.547010
Si Si5 0.675420 0.303456 0.404520
Si Si6 0.908736 0.556251 0.429570
Si Si7 0.653221 0.635745 0.873890
Si Si8 0.816021 0.550965 0.679223
O O1 0.228772 0.553850 0.628791
O O2 0.220101 0.671313 0.795045
O O3 0.192084 0.506938 0.849064
O O4 0.972789 0.579785 0.733986
O O5 0.845308 0.781442 0.226168
O O6 0.846095 0.612285 0.136037
O O7 0.942567 0.645841 0.353271
O O8 0.079238 0.706144 0.163619
O O9 0.716494 0.356272 0.520851
O O10 0.786401 0.445265 0.703159
O O11 0.829938 0.053107 0.465239
O O12 0.552262 0.001747 0.466485
O O13 0.504519 0.317523 0.376324
O O14 0.712806 0.198808 0.420387
O O15 0.814979 0.579985 0.544482
O O16 0.685092 0.604335 0.742867
#
# Coordination Sequence:
#
# PCOD8170686 Si02
#       8
#     4   4   4   4   4   4   4   4
#     4  10  19  38  67  90 117 171 213 260 328 394
#     4  11  22  37  65  97 128 162 219 267 328 389
#     4  12  22  40  63  98 126 170 207 280 320 392
#     4  10  19  36  66  92 123 159 214 260 322 383
#     4  12  25  40  65  93 132 163 225 273 327 384
#     4  10  18  40  66  90 121 175 211 253 326 397
#     4  12  25  40  61  98 127 170 217 277 319 396
#     4  11  22  41  69  88 132 172 222 262 336 397
#
# _framework density 20.593178999999999
#
# number of rings (size 3 to 8) (size 9 to 14) (size 15 to 20)
#    0.000    1.000    7.500    1.500    0.000    1.000 
#    2.250    5.000    0.000    0.000    0.000    0.000 
#    0.000    0.000    0.000    0.000    0.000    0.000 
#
# Total GULP energy -396560.547520 kJ/mol
# GULP energy per Si atom -12392.517110 kJ/mol
# Density = 2.054631 g / cm^3
# Si number density = 20.593179 Si / 1000 Ang^3
#
#
#
# Elastic Constant Matrix: (Units=GPa)
#
#
# Indices 1 2 3 4 5 6 
#
# 1 87.0790 33.8711 31.4331 0.0000 0.0000 0.0000
# 2 33.8711 55.0669 23.5703 0.0000 0.0000 0.0000
# 3 31.4331 23.5703 122.9708 0.0000 0.0000 0.0000
# 4 0.0000 0.0000 0.0000 30.9053 0.0000 0.0000
# 5 0.0000 0.0000 0.0000 0.0000 26.8882 0.0000
# 6 0.0000 0.0000 0.0000 0.0000 0.0000 32.9961
#
#
#
# Elastic Compliance Matrix: (Units=1/GPa)
#
#
# Indices 1 2 3 4 5 6 
#
# 1 0.015697 -0.008647 -0.002355 0.000000 0.000000 0.000000
# 2 -0.008647 0.024546 -0.002495 0.000000 0.000000 0.000000
# 3 -0.002355 -0.002495 0.009212 0.000000 0.000000 0.000000
# 4 0.000000 0.000000 0.000000 0.032357 0.000000 0.000000
# 5 0.000000 0.000000 0.000000 0.000000 0.037191 0.000000
# 6 0.000000 0.000000 0.000000 0.000000 0.000000 0.030307
#
#
# Mechanical properties :
#
#
# Convention : Reuss Voigt Hill
#
# Bulk Modulus (GPa) = 44.51924 49.20729 46.86326
# Shear Modulus (GPa) = 27.20471 29.90740 28.55606
#
# Velocity S-wave (km/s) = 3.63857 3.81504 3.72785
# Velocity P-wave (km/s) = 6.27038 6.58428 6.42925
#
# Compressibility (1/GPa) = 0.02246220
#
# Stress axis : x y z
#
# Youngs Moduli (GPa) = 63.70448 40.73922 108.55259
#
# Poissons Ratio (x) = 0.35229 0.25564
# Poissons Ratio (y) = 0.55087 0.27079
# Poissons Ratio (z) = 0.15003 0.10162
#
# Static dielectric constant tensor:
#      x y z
#    x 3.442900 0.000000 0.000000 
#    y 0.000000 3.640340 0.000000 
#    z 0.000000 0.000000 4.021380 
# 
# 
# High freq. dielectric constant tensor:
#      x y z
#    x 1.778470 0.000000 0.000000 
#    y 0.000000 1.791800 0.000000 
#    z 0.000000 0.000000 1.819650 
# 
# From -- ./inp_files/6013.got.cif
#   From: 2010.03.12/outbox.cif.g09.slc.cpg/sg33_4_cif.got.tgz:6013.got - 2010.04.14 01:49:19.
