data_PCOD8170412
_publ_section_title
;
Structure prediction by ZEFSAII (Michael W. Deem and Ramdas Pophale) SiO2 
 PCOD8170412
Probable space group: P B A 2
;
_chemical_formula_sum "Si O2"
_cell_formula_units_Z 32
_cell_length_a 14.426020
_cell_length_b 11.642804
_cell_length_c 8.921321
_cell_angle_alpha 90.000000
_cell_angle_beta 90.000000
_cell_angle_gamma 90.000000
_cell_volume 1498.419039
_symmetry_space_group_name_H-M "P B A 2"
_symmetry_group_IT_number 32
_symmetry_cell_setting 'orthorhombic'
loop_
_space_group_symop_operation_xyz
x,y,z
-x,-y,z
1/2-x,1/2+y,z
1/2+x,1/2-y,z
loop_
_atom_site_type_symbol
_atom_site_label
_atom_site_fract_x
_atom_site_fract_y
_atom_site_fract_z
Si Si1 0.432071 0.893586 0.543210
Si Si2 0.398923 0.523193 0.841671
Si Si3 0.780076 0.486059 0.367181
Si Si4 0.916080 0.279534 0.360942
Si Si5 0.220459 0.466073 0.024335
Si Si6 0.900085 0.041061 0.502325
Si Si7 0.100474 0.291639 0.856481
Si Si8 0.946497 0.383256 0.049703
O O1 0.341217 0.917198 0.446467
O O2 0.491862 0.796523 0.460542
O O3 0.390111 0.854027 0.699354
O O4 0.500000 0.000000 0.568040
O O5 0.500000 0.500000 0.914947
O O6 0.319496 0.472026 0.945578
O O7 0.396921 0.456172 0.682735
O O8 0.381016 0.658482 0.828549
O O9 0.834131 0.368291 0.386170
O O10 0.682261 0.458843 0.446707
O O11 0.763205 0.532297 0.200767
O O12 0.876312 0.159076 0.416685
O O13 0.941826 0.291868 0.185393
O O14 0.173825 0.345853 0.973494
O O15 0.153356 0.574912 0.986155
O O16 0.000000 0.000000 0.444771
O O17 0.996812 0.315797 0.916534
O O18 0.000000 0.500000 0.104709
#
# Coordination Sequence:
#
# PCOD8170412 Si02
#       8
#     4   4   4   4   4   4   4   4
#     4  10  18  35  63  93 119 155 205 250 306 376
#     4  11  26  43  58  86 125 163 209 258 307 370
#     4  10  23  40  63  94 122 157 209 255 304 378
#     4  10  21  39  64  88 124 165 199 259 315 358
#     4  10  22  41  63  92 123 157 208 256 305 376
#     4  11  25  42  58  86 124 163 210 257 308 372
#     4  11  22  38  65  92 125 166 198 256 318 361
#     4   9  19  40  66  97 126 156 208 257 307 377
#
# _framework density 21.355841999999999
#
# number of rings (size 3 to 8) (size 9 to 14) (size 15 to 20)
#    0.000    1.750    0.000    6.000    0.000    9.500 
#    0.000    0.000    0.000    0.000    0.000    0.000 
#    0.000    0.000    0.000    0.000    0.000    0.000 
#
# Total GULP energy -396736.709521 kJ/mol
# GULP energy per Si atom -12398.022173 kJ/mol
# Density = 2.130724 g / cm^3
# Si number density = 21.355842 Si / 1000 Ang^3
#
#
#
# Elastic Constant Matrix: (Units=GPa)
#
#
# Indices 1 2 3 4 5 6 
#
# 1 152.3872 22.8869 54.5061 0.0000 0.0000 0.0000
# 2 22.8869 69.4537 45.5816 0.0000 0.0000 0.0000
# 3 54.5061 45.5816 101.6689 0.0000 0.0000 0.0000
# 4 0.0000 0.0000 0.0000 32.2026 0.0000 0.0000
# 5 0.0000 0.0000 0.0000 0.0000 41.2268 0.0000
# 6 0.0000 0.0000 0.0000 0.0000 0.0000 18.5097
#
#
#
# Elastic Compliance Matrix: (Units=1/GPa)
#
#
# Indices 1 2 3 4 5 6 
#
# 1 0.008122 0.000257 -0.004470 0.000000 0.000000 0.000000
# 2 0.000257 0.020409 -0.009288 0.000000 0.000000 0.000000
# 3 -0.004470 -0.009288 0.016396 0.000000 0.000000 0.000000
# 4 0.000000 0.000000 0.000000 0.031053 0.000000 0.000000
# 5 0.000000 0.000000 0.000000 0.000000 0.024256 0.000000
# 6 0.000000 0.000000 0.000000 0.000000 0.000000 0.054026
#
#
# Mechanical properties :
#
#
# Convention : Reuss Voigt Hill
#
# Bulk Modulus (GPa) = 55.78397 63.27323 59.52860
# Shear Modulus (GPa) = 26.70386 31.75684 29.23035
#
# Velocity S-wave (km/s) = 3.53997 3.86039 3.70365
# Velocity P-wave (km/s) = 6.54877 7.04007 6.79886
#
# Compressibility (1/GPa) = 0.01792630
#
# Stress axis : x y z
#
# Youngs Moduli (GPa) = 123.11674 48.99836 60.99019
#
# Poissons Ratio (x) = -0.01258 0.27261
# Poissons Ratio (y) = -0.03162 0.56646
# Poissons Ratio (z) = 0.55029 0.45508
#
# Static dielectric constant tensor:
#      x y z
#    x 4.074010 0.000000 0.000000 
#    y 0.000000 3.681680 0.000000 
#    z 0.000000 0.000000 3.821950 
# 
# 
# High freq. dielectric constant tensor:
#      x y z
#    x 1.851540 0.000000 0.000000 
#    y 0.000000 1.821340 0.000000 
#    z 0.000000 0.000000 1.840250 
# 
# From -- ./inp_files/3083.got.cif
#   From: 2010.03.12/outbox.cif.g09.slc.cpg/sg32_2_cif.got.tgz:3083.got - 2010.04.14 01:46:39.
