data_PCOD8170726
_publ_section_title
;
Structure prediction by ZEFSAII (Michael W. Deem and Ramdas Pophale) SiO2 
 PCOD8170726
Probable space group: P N A 21
;
_chemical_formula_sum "Si O2"
_cell_formula_units_Z 32
_cell_length_a 20.594397
_cell_length_b 8.844999
_cell_length_c 8.918027
_cell_angle_alpha 90.000000
_cell_angle_beta 90.000000
_cell_angle_gamma 90.000000
_cell_volume 1624.484798
_symmetry_space_group_name_H-M "P N A 21"
_symmetry_group_IT_number 33
_symmetry_cell_setting 'orthorhombic'
loop_
_space_group_symop_operation_xyz
x,y,z
-x,-y,1/2+z
1/2-x,1/2+y,1/2+z
1/2+x,1/2-y,z
loop_
_atom_site_type_symbol
_atom_site_label
_atom_site_fract_x
_atom_site_fract_y
_atom_site_fract_z
Si Si1 0.941372 0.820418 0.962770
Si Si2 0.322523 0.175558 0.127008
Si Si3 0.930426 0.179389 0.626630
Si Si4 0.805971 0.823441 0.442703
Si Si5 0.805972 0.176556 0.442704
Si Si6 0.441373 0.320419 0.962770
Si Si7 0.677477 0.175556 0.627008
Si Si8 0.930426 0.820607 0.626631
O O1 0.933370 0.753893 0.795146
O O2 0.941266 1.000000 0.960313
O O3 0.883433 0.767812 0.067865
O O4 0.008826 0.758632 0.031010
O O5 0.306030 0.225887 0.293749
O O6 0.339826 0.000001 0.125612
O O7 0.261008 0.211870 0.024515
O O8 0.383432 0.267813 0.067861
O O9 0.864232 0.233804 0.549017
O O10 0.933374 0.246105 0.795145
O O11 0.933078 0.999998 0.635131
O O12 0.806026 0.725886 0.293747
O O13 0.864234 0.766191 0.549010
O O14 0.814188 0.999999 0.403891
O O15 0.738990 0.211865 0.524508
O O16 0.508824 0.258628 0.031018
#
# Coordination Sequence:
#
# PCOD8170726 Si02
#       8
#     4   4   4   4   4   4   4   4
#     4  10  19  35  59  83 110 144 184 228 271 319
#     4  11  23  37  56  84 113 142 180 226 278 329
#     4   9  18  34  59  85 106 142 193 230 260 314
#     4  10  21  38  58  80 109 146 187 226 267 322
#     4  10  21  38  58  80 109 146 187 226 267 322
#     4  10  19  35  59  83 110 144 184 228 271 319
#     4  11  23  37  56  84 113 142 180 226 278 329
#     4   9  18  34  59  85 106 142 193 230 260 314
#
# _framework density 19.698553
#
# number of rings (size 3 to 8) (size 9 to 14) (size 15 to 20)
#    0.000    2.000    0.000    3.750    0.000    8.000 
#    0.000    6.250    0.000    0.000    0.000    0.000 
#    0.000    0.000    0.000    0.000    0.000    0.000 
#
# Total GULP energy -396918.779801 kJ/mol
# GULP energy per Si atom -12403.711869 kJ/mol
# Density = 1.965372 g / cm^3
# Si number density = 19.698553 Si / 1000 Ang^3
#
#
#
# Elastic Constant Matrix: (Units=GPa)
#
#
# Indices 1 2 3 4 5 6 
#
# 1 76.2201 17.6620 -10.1592 0.0000 0.0000 0.0000
# 2 17.6620 14.4384 16.5335 0.0000 0.0000 0.0000
# 3 -10.1592 16.5335 90.2728 0.0000 0.0000 0.0000
# 4 0.0000 0.0000 0.0000 27.2738 0.0000 0.0000
# 5 0.0000 0.0000 0.0000 0.0000 37.4203 0.0000
# 6 0.0000 0.0000 0.0000 0.0000 0.0000 22.1653
#
#
#
# Elastic Compliance Matrix: (Units=1/GPa)
#
#
# Indices 1 2 3 4 5 6 
#
# 1 0.023996 -0.041056 0.010220 0.000000 0.000000 0.000000
# 2 -0.041056 0.157886 -0.033537 0.000000 0.000000 0.000000
# 3 0.010220 -0.033537 0.018370 0.000000 0.000000 0.000000
# 4 0.000000 0.000000 0.000000 0.036665 0.000000 0.000000
# 5 0.000000 0.000000 0.000000 0.000000 0.026723 0.000000
# 6 0.000000 0.000000 0.000000 0.000000 0.000000 0.045116
#
#
# Mechanical properties :
#
#
# Convention : Reuss Voigt Hill
#
# Bulk Modulus (GPa) = 13.98510 25.44489 19.71500
# Shear Modulus (GPa) = 10.83805 27.83153 19.33479
#
# Velocity S-wave (km/s) = 2.34817 3.76290 3.13634
# Velocity P-wave (km/s) = 3.80353 5.64131 4.81099
#
# Compressibility (1/GPa) = 0.07150467
#
# Stress axis : x y z
#
# Youngs Moduli (GPa) = 41.67404 6.33370 54.43646
#
# Poissons Ratio (x) = 0.26004 -0.55633
# Poissons Ratio (y) = 1.71097 1.82565
# Poissons Ratio (z) = -0.42590 0.21241
#
# Static dielectric constant tensor:
#      x y z
#    x 3.789500 0.000000 0.000000 
#    y 0.000000 3.212420 0.000000 
#    z 0.000000 0.000000 3.819210 
# 
# 
# High freq. dielectric constant tensor:
#      x y z
#    x 1.787040 0.000000 0.000000 
#    y 0.000000 1.731420 0.000000 
#    z 0.000000 0.000000 1.787110 
# 
# From -- ./inp_files/5034.got.cif
#   From: 2010.03.12/outbox.cif.g09.slc.cpg/sg33_3_cif.got.tgz:5034.got - 2010.04.14 01:49:19.
