data_PCOD8170855
_publ_section_title
;
Structure prediction by ZEFSAII (Michael W. Deem and Ramdas Pophale) SiO2 
 PCOD8170855
Probable space group: P N A 21
;
_chemical_formula_sum "Si O2"
_cell_formula_units_Z 28
_cell_length_a 4.986110
_cell_length_b 20.848943
_cell_length_c 12.388468
_cell_angle_alpha 90.000000
_cell_angle_beta 90.000000
_cell_angle_gamma 90.000000
_cell_volume 1287.844717
_symmetry_space_group_name_H-M "P N A 21"
_symmetry_group_IT_number 33
_symmetry_cell_setting 'orthorhombic'
loop_
_space_group_symop_operation_xyz
x,y,z
-x,-y,1/2+z
1/2-x,1/2+y,1/2+z
1/2+x,1/2-y,z
loop_
_atom_site_type_symbol
_atom_site_label
_atom_site_fract_x
_atom_site_fract_y
_atom_site_fract_z
Si Si1 0.648445 0.577756 0.608810
Si Si2 0.929442 0.708627 0.356534
Si Si3 0.218511 0.292926 0.228238
Si Si4 0.375037 0.084887 0.968252
Si Si5 0.335069 0.880271 0.167853
Si Si6 0.734537 0.206750 0.476327
Si Si7 0.816268 0.954693 0.238592
O O1 0.747866 0.644846 0.656065
O O2 0.368263 0.588745 0.550685
O O3 0.605999 0.526680 0.704889
O O4 0.872420 0.550323 0.525820
O O5 0.623121 0.730506 0.373120
O O6 0.949394 0.679710 0.236340
O O7 0.015539 0.655715 0.442606
O O8 0.431848 0.237598 0.201901
O O9 0.240629 0.315188 0.352405
O O10 0.286203 0.046042 0.862028
O O11 0.258758 0.857781 0.047767
O O12 0.574961 0.931593 0.160848
O O13 0.075870 0.909511 0.227456
O O14 0.479676 0.248458 0.506569
#
# Coordination Sequence:
#
# PCOD8170855 Si02
#       7
#     4   4   4   4   4   4   4
#     4  12  25  43  67  88 120 168 203 253 320 366
#     4  11  21  36  61  93 127 165 202 250 310 365
#     4  10  23  41  62  91 124 156 206 257 301 368
#     4  11  25  43  62  92 125 157 211 260 301 374
#     4  11  21  39  63  93 129 164 205 254 307 368
#     4  10  20  37  61  92 126 162 202 252 306 362
#     4  11  25  43  62  91 125 160 209 260 303 369
#
# _framework density 21.741754
#
# number of rings (size 3 to 8) (size 9 to 14) (size 15 to 20)
#    0.000    1.143    0.000    7.714    0.000    5.714 
#    0.000    0.000    0.000    0.000    0.000    0.000 
#    0.000    0.000    0.000    0.000    0.000    0.000 
#
# Total GULP energy -347299.859250 kJ/mol
# GULP energy per Si atom -12403.566402 kJ/mol
# Density = 2.169227 g / cm^3
# Si number density = 21.741754 Si / 1000 Ang^3
#
#
#
# Elastic Constant Matrix: (Units=GPa)
#
#
# Indices 1 2 3 4 5 6 
#
# 1 116.8428 9.7469 13.6010 0.0000 0.0000 0.0000
# 2 9.7469 75.2088 39.8290 0.0000 0.0000 0.0000
# 3 13.6010 39.8290 72.1377 0.0000 0.0000 0.0000
# 4 0.0000 0.0000 0.0000 40.1501 0.0000 0.0000
# 5 0.0000 0.0000 0.0000 0.0000 37.5285 0.0000
# 6 0.0000 0.0000 0.0000 0.0000 0.0000 27.0578
#
#
#
# Elastic Compliance Matrix: (Units=1/GPa)
#
#
# Indices 1 2 3 4 5 6 
#
# 1 0.008758 -0.000368 -0.001448 0.000000 0.000000 0.000000
# 2 -0.000368 0.018806 -0.010314 0.000000 0.000000 0.000000
# 3 -0.001448 -0.010314 0.019830 0.000000 0.000000 0.000000
# 4 0.000000 0.000000 0.000000 0.024907 0.000000 0.000000
# 5 0.000000 0.000000 0.000000 0.000000 0.026646 0.000000
# 6 0.000000 0.000000 0.000000 0.000000 0.000000 0.036958
#
#
# Mechanical properties :
#
#
# Convention : Reuss Voigt Hill
#
# Bulk Modulus (GPa) = 43.22687 43.39368 43.31028
# Shear Modulus (GPa) = 29.78394 34.34810 32.06602
#
# Velocity S-wave (km/s) = 3.70523 3.97901 3.84456
# Velocity P-wave (km/s) = 6.18305 6.41187 6.29850
#
# Compressibility (1/GPa) = 0.02313376
#
# Stress axis : x y z
#
# Youngs Moduli (GPa) = 114.18439 53.17449 50.42891
#
# Poissons Ratio (x) = 0.01958 0.07302
# Poissons Ratio (y) = 0.04204 0.52012
# Poissons Ratio (z) = 0.16533 0.54843
#
# Static dielectric constant tensor:
#      x y z
#    x 4.132340 0.000000 0.000000 
#    y 0.000000 3.699250 0.000000 
#    z 0.000000 0.000000 3.962930 
# 
# 
# High freq. dielectric constant tensor:
#      x y z
#    x 1.876760 0.000000 0.000000 
#    y 0.000000 1.839530 0.000000 
#    z 0.000000 0.000000 1.857940 
# 
# From -- ./inp_files/5480.got.cif
#   From: 2010.03.12/outbox.cif.g09.slc.cpg/sg33_3_cif.got.tgz:5480.got - 2010.04.14 01:49:19.
