data_PCOD8170758
_publ_section_title
;
Structure prediction by ZEFSAII (Michael W. Deem and Ramdas Pophale) SiO2 
 PCOD8170758
Probable space group: P N A 21
;
_chemical_formula_sum "Si O2"
_cell_formula_units_Z 32
_cell_length_a 9.228615
_cell_length_b 14.257804
_cell_length_c 11.107385
_cell_angle_alpha 90.000000
_cell_angle_beta 90.000000
_cell_angle_gamma 90.000000
_cell_volume 1461.507318
_symmetry_space_group_name_H-M "P N A 21"
_symmetry_group_IT_number 33
_symmetry_cell_setting 'orthorhombic'
loop_
_space_group_symop_operation_xyz
x,y,z
-x,-y,1/2+z
1/2-x,1/2+y,1/2+z
1/2+x,1/2-y,z
loop_
_atom_site_type_symbol
_atom_site_label
_atom_site_fract_x
_atom_site_fract_y
_atom_site_fract_z
Si Si1 0.378067 0.365608 0.052330
Si Si2 0.914729 0.715202 0.607771
Si Si3 0.729175 0.837493 0.991538
Si Si4 0.035916 0.974271 0.759822
Si Si5 0.806002 0.838670 0.270387
Si Si6 0.755818 0.522272 0.353789
Si Si7 0.996899 0.225094 0.359314
Si Si8 0.482502 0.840429 0.359514
O O1 0.259267 0.296321 0.116504
O O2 0.535025 0.315351 0.051742
O O3 0.401681 0.462247 0.125458
O O4 0.327295 0.391461 0.919608
O O5 0.990631 0.708530 0.739436
O O6 0.970271 0.642370 0.505125
O O7 0.841524 0.789374 0.902822
O O8 0.584770 0.777015 0.968025
O O9 0.700034 0.943820 0.950328
O O10 0.782886 0.832895 0.127561
O O11 0.072622 0.877907 0.832177
O O12 0.116154 0.065078 0.813189
O O13 0.860132 0.986514 0.755295
O O14 0.650065 0.835637 0.331203
O O15 0.903997 0.753164 0.313606
O O16 0.901615 0.569213 0.297692
#
# Coordination Sequence:
#
# PCOD8170758 Si02
#       8
#     4   4   4   4   4   4   4   4
#     4  10  19  37  60  90 120 163 202 274 309 377
#     4  10  20  37  64  91 122 158 221 266 317 367
#     4  11  23  42  64  93 134 171 213 265 325 389
#     4  10  21  38  63  87 125 168 214 257 324 379
#     4  12  23  42  65  96 133 175 208 271 326 390
#     4  10  22  41  61  91 127 166 216 263 318 383
#     4  10  22  39  66  94 123 176 214 267 320 386
#     4  11  24  40  67  96 130 169 218 269 321 387
#
# _framework density 21.895202999999999
#
# number of rings (size 3 to 8) (size 9 to 14) (size 15 to 20)
#    0.000    1.500    1.250    5.250    0.000    2.000 
#    0.000    0.000    0.000    0.000    0.000    0.000 
#    0.000    0.000    0.000    0.000    0.000    0.000 
#
# Total GULP energy -396448.214677 kJ/mol
# GULP energy per Si atom -12389.006709 kJ/mol
# Density = 2.184537 g / cm^3
# Si number density = 21.895203 Si / 1000 Ang^3
#
#
#
# Elastic Constant Matrix: (Units=GPa)
#
#
# Indices 1 2 3 4 5 6 
#
# 1 91.4645 48.5541 8.6813 0.0000 0.0000 0.0000
# 2 48.5541 92.2839 13.2249 0.0000 0.0000 0.0000
# 3 8.6813 13.2249 64.5494 0.0000 0.0000 0.0000
# 4 0.0000 0.0000 0.0000 28.0214 0.0000 0.0000
# 5 0.0000 0.0000 0.0000 0.0000 27.4877 0.0000
# 6 0.0000 0.0000 0.0000 0.0000 0.0000 42.5188
#
#
#
# Elastic Compliance Matrix: (Units=1/GPa)
#
#
# Indices 1 2 3 4 5 6 
#
# 1 0.015181 -0.007928 -0.000418 0.000000 0.000000 0.000000
# 2 -0.007928 0.015304 -0.002069 0.000000 0.000000 0.000000
# 3 -0.000418 -0.002069 0.015972 0.000000 0.000000 0.000000
# 4 0.000000 0.000000 0.000000 0.035687 0.000000 0.000000
# 5 0.000000 0.000000 0.000000 0.000000 0.036380 0.000000
# 6 0.000000 0.000000 0.000000 0.000000 0.000000 0.023519
#
#
# Mechanical properties :
#
#
# Convention : Reuss Voigt Hill
#
# Bulk Modulus (GPa) = 39.01937 43.24650 41.13293
# Shear Modulus (GPa) = 29.16908 31.46142 30.31525
#
# Velocity S-wave (km/s) = 3.65391 3.79477 3.72501
# Velocity P-wave (km/s) = 5.97169 6.24459 6.10966
#
# Compressibility (1/GPa) = 0.02562830
#
# Stress axis : x y z
#
# Youngs Moduli (GPa) = 65.87091 65.34373 62.60915
#
# Poissons Ratio (x) = 0.51802 0.02614
# Poissons Ratio (y) = 0.52220 0.12955
# Poissons Ratio (z) = 0.02750 0.13521
#
# Static dielectric constant tensor:
#      x y z
#    x 4.079700 0.000000 0.000000 
#    y 0.000000 4.053700 0.000000 
#    z 0.000000 0.000000 3.971380 
# 
# 
# High freq. dielectric constant tensor:
#      x y z
#    x 1.865840 0.000000 0.000000 
#    y 0.000000 1.857940 0.000000 
#    z 0.000000 0.000000 1.849150 
# 
# From -- ./inp_files/5993.got.cif
#   From: 2010.03.12/outbox.cif.g09.slc.cpg/sg33_3_cif.got.tgz:5993.got - 2010.04.14 01:49:19.
