data_PCOD8170131
_publ_section_title
;
Structure prediction by ZEFSAII (Michael W. Deem and Ramdas Pophale) SiO2 
 PCOD8170131
Probable space group: P M N 21
;
_chemical_formula_sum "Si O2"
_cell_formula_units_Z 32
_cell_length_a 8.971570
_cell_length_b 14.454693
_cell_length_c 12.364245
_cell_angle_alpha 90.000000
_cell_angle_beta 90.000000
_cell_angle_gamma 90.000000
_cell_volume 1603.411242
_symmetry_space_group_name_H-M "P M N 21"
_symmetry_group_IT_number 31
_symmetry_cell_setting 'orthorhombic'
loop_
_space_group_symop_operation_xyz
x,y,z
1/2-x,-y,1/2+z
-x,y,z
1/2+x,-y,1/2+z
loop_
_atom_site_type_symbol
_atom_site_label
_atom_site_fract_x
_atom_site_fract_y
_atom_site_fract_z
Si Si1 0.825375 0.324121 0.538450
Si Si2 0.678096 0.246208 0.744729
Si Si3 0.327888 0.643738 0.425091
Si Si4 0.335702 0.053392 0.651654
Si Si5 0.664671 0.160298 0.440445
Si Si6 0.171193 0.872518 0.702076
Si Si7 0.822773 0.667776 0.648849
Si Si8 0.829060 0.560169 0.864956
O O1 0.742714 0.315360 0.653629
O O2 0.791193 0.234370 0.466466
O O3 0.767286 0.410841 0.469484
O O4 0.000000 0.334720 0.560548
O O5 0.500000 0.252508 0.741227
O O6 0.740272 0.275261 0.861630
O O7 0.730682 0.140315 0.720192
O O8 0.500000 0.672518 0.437298
O O9 0.257571 0.627839 0.543166
O O10 0.311459 0.550144 0.355170
O O11 0.500000 0.031176 0.696697
O O12 0.340860 0.079668 0.526694
O O13 0.242695 0.960434 0.646457
O O14 0.500000 0.209099 0.433465
O O15 0.704222 0.113273 0.328018
O O16 0.234048 0.773377 0.663494
O O17 0.000000 0.875587 0.671450
O O18 0.772699 0.608006 0.753782
O O19 0.000000 0.661188 0.633865
O O20 0.000000 0.588417 0.885997
#
# Coordination Sequence:
#
# PCOD8170131 Si02
#       8
#     4   4   4   4   4   4   4   4
#     4  11  21  34  60  92 117 148 199 258 302 349
#     4  10  22  42  63  85 122 167 203 244 309 370
#     4  11  25  41  62  94 126 161 207 257 305 359
#     4   9  20  36  58  86 117 155 202 252 307 361
#     4   9  18  37  57  78 112 158 201 244 304 363
#     4  10  20  36  61  86 115 158 204 248 305 365
#     4  10  22  42  64  87 123 166 203 247 310 376
#     4  10  22  42  63  86 122 163 201 246 304 369
#
# _framework density 19.957450999999999
#
# number of rings (size 3 to 8) (size 9 to 14) (size 15 to 20)
#    0.000    2.000    1.250    2.625    1.750    6.000 
#    0.000    2.500    0.000    0.000    0.000    0.000 
#    0.000    0.000    0.000    0.000    0.000    0.000 
#
# Total GULP energy -396730.625242 kJ/mol
# GULP energy per Si atom -12397.832039 kJ/mol
# Density = 1.991203 g / cm^3
# Si number density = 19.957451 Si / 1000 Ang^3
#
#
#
# Elastic Constant Matrix: (Units=GPa)
#
#
# Indices 1 2 3 4 5 6 
#
# 1 79.1671 30.5091 32.8061 0.0000 0.0000 0.0000
# 2 30.5091 101.8189 35.8004 0.0000 0.0000 0.0000
# 3 32.8061 35.8004 87.0927 0.0000 0.0000 0.0000
# 4 0.0000 0.0000 0.0000 23.3736 0.0000 0.0000
# 5 0.0000 0.0000 0.0000 0.0000 28.7669 0.0000
# 6 0.0000 0.0000 0.0000 0.0000 0.0000 29.3565
#
#
#
# Elastic Compliance Matrix: (Units=1/GPa)
#
#
# Indices 1 2 3 4 5 6 
#
# 1 0.015752 -0.003079 -0.004668 0.000000 0.000000 0.000000
# 2 -0.003079 0.012082 -0.003807 0.000000 0.000000 0.000000
# 3 -0.004668 -0.003807 0.014805 0.000000 0.000000 0.000000
# 4 0.000000 0.000000 0.000000 0.042783 0.000000 0.000000
# 5 0.000000 0.000000 0.000000 0.000000 0.034762 0.000000
# 6 0.000000 0.000000 0.000000 0.000000 0.000000 0.034064
#
#
# Mechanical properties :
#
#
# Convention : Reuss Voigt Hill
#
# Bulk Modulus (GPa) = 51.19633 51.81220 51.50427
# Shear Modulus (GPa) = 27.19345 27.56361 27.37853
#
# Velocity S-wave (km/s) = 3.69531 3.72037 3.70786
# Velocity P-wave (km/s) = 6.62688 6.66878 6.64786
#
# Compressibility (1/GPa) = 0.01953265
#
# Stress axis : x y z
#
# Youngs Moduli (GPa) = 63.48247 82.76488 67.54348
#
# Poissons Ratio (x) = 0.25481 0.31530
# Poissons Ratio (y) = 0.19544 0.25713
# Poissons Ratio (z) = 0.29634 0.31508
#
# Static dielectric constant tensor:
#      x y z
#    x 3.575900 0.000000 0.000000 
#    y 0.000000 3.544750 0.000000 
#    z 0.000000 0.000000 3.633200 
# 
# 
# High freq. dielectric constant tensor:
#      x y z
#    x 1.768640 0.000000 0.000000 
#    y 0.000000 1.775480 0.000000 
#    z 0.000000 0.000000 1.781630 
# 
# From -- ./inp_files/3664.got.cif
#   From: 2010.03.12/outbox.cif.g09.slc.cpg/sg31_2_cif.got.tgz:3664.got - 2010.04.14 01:42:59.
