data_PCOD8170116
_publ_section_title
;
Structure prediction by ZEFSAII (Michael W. Deem and Ramdas Pophale) SiO2 
 PCOD8170116
Probable space group: P M N 21
;
_chemical_formula_sum "Si O2"
_cell_formula_units_Z 32
_cell_length_a 9.121248
_cell_length_b 14.496187
_cell_length_c 12.363920
_cell_angle_alpha 90.000000
_cell_angle_beta 90.000000
_cell_angle_gamma 90.000000
_cell_volume 1634.798510
_symmetry_space_group_name_H-M "P M N 21"
_symmetry_group_IT_number 31
_symmetry_cell_setting 'orthorhombic'
loop_
_space_group_symop_operation_xyz
x,y,z
1/2-x,-y,1/2+z
-x,y,z
1/2+x,-y,1/2+z
loop_
_atom_site_type_symbol
_atom_site_label
_atom_site_fract_x
_atom_site_fract_y
_atom_site_fract_z
Si Si1 0.670852 0.685875 0.317570
Si Si2 0.328895 0.350551 0.431362
Si Si3 0.172288 0.446953 0.997759
Si Si4 0.659816 0.154814 0.901645
Si Si5 0.333060 0.053839 0.685638
Si Si6 0.672265 0.332168 0.183528
Si Si7 0.675229 0.772125 0.098269
Si Si8 0.665214 0.124131 0.140620
O O1 0.500000 0.682250 0.302222
O O2 0.725764 0.594637 0.381024
O O3 0.713632 0.769411 0.396253
O O4 0.735001 0.706147 0.197136
O O5 0.500000 0.326072 0.441697
O O6 0.290308 0.445186 0.493245
O O7 0.284679 0.359725 0.305653
O O8 0.235671 0.269359 0.486639
O O9 0.251157 0.401901 0.100407
O O10 0.000000 0.428575 0.011080
O O11 0.500000 0.204300 0.891259
O O12 0.678576 0.079309 0.810357
O O13 0.670129 0.101944 0.013887
O O14 0.500000 0.054916 0.642587
O O15 0.238043 0.124594 0.613131
O O16 0.271760 0.950697 0.691241
O O17 0.500000 0.341760 0.162729
O O18 0.723956 0.227229 0.163611
O O19 0.500000 0.777885 0.094430
O O20 0.500000 0.113352 0.186919
#
# Coordination Sequence:
#
# PCOD8170116 Si02
#       8
#     4   4   4   4   4   4   4   4
#     4   9  18  33  56  83 109 143 187 239 288 336
#     4  10  23  40  58  85 123 161 195 242 296 350
#     4  10  21  37  58  85 117 150 192 244 292 344
#     4   9  18  34  54  79 109 143 188 239 287 337
#     4  10  21  36  57  84 115 153 193 240 296 351
#     4  10  22  40  62  86 118 156 197 243 295 353
#     4  10  21  38  60  85 116 154 197 242 289 347
#     4  10  20  36  57  83 113 148 193 243 291 348
#
# _framework density 19.574279000000001
#
# number of rings (size 3 to 8) (size 9 to 14) (size 15 to 20)
#    0.000    2.250    1.250    0.750    1.750    4.000 
#    0.000    2.500    0.000    0.000    0.000    0.000 
#    0.000    0.000    0.000    0.000    0.000    0.000 
#
# Total GULP energy -396653.383609 kJ/mol
# GULP energy per Si atom -12395.418238 kJ/mol
# Density = 1.952973 g / cm^3
# Si number density = 19.574279 Si / 1000 Ang^3
#
#
#
# Elastic Constant Matrix: (Units=GPa)
#
#
# Indices 1 2 3 4 5 6 
#
# 1 50.2215 39.8071 38.9326 0.0000 0.0000 0.0000
# 2 39.8071 107.1387 48.7505 0.0000 0.0000 0.0000
# 3 38.9326 48.7505 90.2152 0.0000 0.0000 0.0000
# 4 0.0000 0.0000 0.0000 24.5178 0.0000 0.0000
# 5 0.0000 0.0000 0.0000 0.0000 27.9604 0.0000
# 6 0.0000 0.0000 0.0000 0.0000 0.0000 31.0067
#
#
#
# Elastic Compliance Matrix: (Units=1/GPa)
#
#
# Indices 1 2 3 4 5 6 
#
# 1 0.034412 -0.007994 -0.010531 0.000000 0.000000 0.000000
# 2 -0.007994 0.014234 -0.004242 0.000000 0.000000 0.000000
# 3 -0.010531 -0.004242 0.017921 0.000000 0.000000 0.000000
# 4 0.000000 0.000000 0.000000 0.040787 0.000000 0.000000
# 5 0.000000 0.000000 0.000000 0.000000 0.035765 0.000000
# 6 0.000000 0.000000 0.000000 0.000000 0.000000 0.032251
#
#
# Mechanical properties :
#
#
# Convention : Reuss Voigt Hill
#
# Bulk Modulus (GPa) = 47.54221 55.83954 51.69087
# Shear Modulus (GPa) = 21.93809 24.70264 23.32036
#
# Velocity S-wave (km/s) = 3.35141 3.55631 3.45538
# Velocity P-wave (km/s) = 6.27031 6.74181 6.51033
#
# Compressibility (1/GPa) = 0.02103394
#
# Stress axis : x y z
#
# Youngs Moduli (GPa) = 29.06001 70.25434 55.79900
#
# Poissons Ratio (x) = 0.56160 0.58760
# Poissons Ratio (y) = 0.23230 0.23670
# Poissons Ratio (z) = 0.30602 0.29802
#
# Static dielectric constant tensor:
#      x y z
#    x 3.530910 0.000000 0.000000 
#    y 0.000000 3.474750 0.000000 
#    z 0.000000 0.000000 3.696180 
# 
# 
# High freq. dielectric constant tensor:
#      x y z
#    x 1.753840 0.000000 0.000000 
#    y 0.000000 1.757210 0.000000 
#    z 0.000000 0.000000 1.766100 
# 
# From -- ./inp_files/3625.got.cif
#   From: 2010.03.12/outbox.cif.g09.slc.cpg/sg31_2_cif.got.tgz:3625.got - 2010.04.14 01:42:59.
