data_PCOD8170996
_publ_section_title
;
Structure prediction by ZEFSAII (Michael W. Deem and Ramdas Pophale) SiO2 
 PCOD8170996
Probable space group: P N A 21
;
_chemical_formula_sum "Si O2"
_cell_formula_units_Z 20
_cell_length_a 18.038106
_cell_length_b 9.203280
_cell_length_c 4.953738
_cell_angle_alpha 90.000000
_cell_angle_beta 90.000000
_cell_angle_gamma 90.000000
_cell_volume 822.368758
_symmetry_space_group_name_H-M "P N A 21"
_symmetry_group_IT_number 33
_symmetry_cell_setting 'orthorhombic'
loop_
_space_group_symop_operation_xyz
x,y,z
-x,-y,1/2+z
1/2-x,1/2+y,1/2+z
1/2+x,1/2-y,z
loop_
_atom_site_type_symbol
_atom_site_label
_atom_site_fract_x
_atom_site_fract_y
_atom_site_fract_z
Si Si1 0.527453 0.673497 0.007320
Si Si2 0.047009 0.531362 0.223436
Si Si3 0.431357 0.638591 0.503045
Si Si4 0.704502 0.044724 0.407603
Si Si5 0.725161 0.232457 0.941237
O O1 0.573482 0.814476 0.099367
O O2 0.455402 0.660141 0.195692
O O3 0.495162 0.695694 0.706861
O O4 0.580477 0.535008 0.045908
O O5 0.117320 0.444189 0.334686
O O6 0.989068 0.555635 0.469842
O O7 0.354178 0.715595 0.549072
O O8 0.720959 0.137961 0.671988
O O9 0.723001 0.873731 0.426179
O O10 0.753405 0.120161 0.171354
#
# Coordination Sequence:
#
# PCOD8170996 Si02
#       5
#     4   4   4   4   4
#     4  10  21  38  65 102 126 181 223 281 344 415
#     4  12  24  42  70 100 141 178 238 291 351 416
#     4  10  21  40  67  94 139 170 226 282 349 405
#     4  12  28  47  75 104 143 191 238 288 365 411
#     4  12  26  49  71 102 143 188 237 292 349 433
#
# _framework density 24.319991000000002
#
# number of rings (size 3 to 8) (size 9 to 14) (size 15 to 20)
#    0.000    0.800    0.000    8.400    2.800    0.000 
#    7.200    0.000    0.000    0.000    0.000    0.000 
#    0.000    0.000    0.000    0.000    0.000    0.000 
#
# Total GULP energy -247962.908871 kJ/mol
# GULP energy per Si atom -12398.145444 kJ/mol
# Density = 2.426464 g / cm^3
# Si number density = 24.319991 Si / 1000 Ang^3
#
#
#
# Elastic Constant Matrix: (Units=GPa)
#
#
# Indices 1 2 3 4 5 6 
#
# 1 51.0225 25.0642 26.3564 0.0000 0.0000 0.0000
# 2 25.0642 160.4290 69.1266 0.0000 0.0000 0.0000
# 3 26.3564 69.1266 166.1816 0.0000 0.0000 0.0000
# 4 0.0000 0.0000 0.0000 56.1521 0.0000 0.0000
# 5 0.0000 0.0000 0.0000 0.0000 22.3122 0.0000
# 6 0.0000 0.0000 0.0000 0.0000 0.0000 27.6416
#
#
#
# Elastic Compliance Matrix: (Units=1/GPa)
#
#
# Indices 1 2 3 4 5 6 
#
# 1 0.022059 -0.002362 -0.002516 0.000000 0.000000 0.000000
# 2 -0.002362 0.007847 -0.002890 0.000000 0.000000 0.000000
# 3 -0.002516 -0.002890 0.007619 0.000000 0.000000 0.000000
# 4 0.000000 0.000000 0.000000 0.017809 0.000000 0.000000
# 5 0.000000 0.000000 0.000000 0.000000 0.044819 0.000000
# 6 0.000000 0.000000 0.000000 0.000000 0.000000 0.036177
#
#
# Mechanical properties :
#
#
# Convention : Reuss Voigt Hill
#
# Bulk Modulus (GPa) = 45.47620 68.74751 57.11186
# Shear Modulus (GPa) = 31.40789 38.36024 34.88407
#
# Velocity S-wave (km/s) = 3.59756 3.97585 3.79143
# Velocity P-wave (km/s) = 5.99969 7.02892 6.53460
#
# Compressibility (1/GPa) = 0.02198952
#
# Stress axis : x y z
#
# Youngs Moduli (GPa) = 45.33233 127.42973 131.25845
#
# Poissons Ratio (x) = 0.30102 0.33024
# Poissons Ratio (y) = 0.10709 0.37929
# Poissons Ratio (z) = 0.11406 0.36823
#
# Static dielectric constant tensor:
#      x y z
#    x 3.846410 0.000000 0.000000 
#    y 0.000000 4.901050 0.000000 
#    z 0.000000 0.000000 4.538010 
# 
# 
# High freq. dielectric constant tensor:
#      x y z
#    x 1.922120 0.000000 0.000000 
#    y 0.000000 2.005510 0.000000 
#    z 0.000000 0.000000 1.984800 
# 
# From -- ./inp_files/1943.got.cif
#   From: 2010.03.12/outbox.cif.g09.slc.cpg/sg33_1_cif.got.tgz:1943.got - 2010.04.14 01:49:19.
