data_PCOD8170316
_publ_section_title
;
Structure prediction by ZEFSAII (Michael W. Deem and Ramdas Pophale) SiO2 
 PCOD8170316
Probable space group: P M N 21
;
_chemical_formula_sum "Si O2"
_cell_formula_units_Z 32
_cell_length_a 8.860773
_cell_length_b 11.880051
_cell_length_c 15.189205
_cell_angle_alpha 90.000000
_cell_angle_beta 90.000000
_cell_angle_gamma 90.000000
_cell_volume 1598.913463
_symmetry_space_group_name_H-M "P M N 21"
_symmetry_group_IT_number 31
_symmetry_cell_setting 'orthorhombic'
loop_
_space_group_symop_operation_xyz
x,y,z
1/2-x,-y,1/2+z
-x,y,z
1/2+x,-y,1/2+z
loop_
_atom_site_type_symbol
_atom_site_label
_atom_site_fract_x
_atom_site_fract_y
_atom_site_fract_z
Si Si1 0.821770 0.503851 0.020660
Si Si2 0.173664 0.708473 0.455577
Si Si3 0.675636 0.102827 0.606043
Si Si4 0.171950 0.727323 0.257585
Si Si5 0.823426 0.497748 0.703602
Si Si6 0.174081 0.298230 0.276097
Si Si7 0.173960 0.262841 0.472863
Si Si8 0.177661 0.154185 0.110205
O O1 0.768116 0.465881 0.116984
O O2 0.000000 0.498532 0.014383
O O3 0.752695 0.413949 0.952704
O O4 0.768407 0.629254 0.001827
O O5 0.193826 0.763051 0.359008
O O6 0.246025 0.792066 0.525351
O O7 0.000000 0.690556 0.480072
O O8 0.500000 0.111520 0.582113
O O9 0.711835 0.165731 0.697540
O O10 0.769465 0.154929 0.525878
O O11 0.728528 0.974906 0.617640
O O12 0.284528 0.627598 0.233061
O O13 0.000000 0.686617 0.240418
O O14 0.773363 0.587750 0.777421
O O15 0.000000 0.505789 0.685177
O O16 0.197575 0.237195 0.369696
O O17 0.231314 0.214665 0.199762
O O18 0.000000 0.331901 0.262540
O O19 0.000000 0.286694 0.495379
O O20 0.000000 0.166080 0.098102
#
# Coordination Sequence:
#
# PCOD8170316 Si02
#       8
#     4   4   4   4   4   4   4   4
#     4  12  23  38  61  88 124 164 197 239 306 367
#     4  11  23  39  62  93 123 156 203 251 298 355
#     4  10  22  41  63  86 117 163 210 249 298 358
#     4  10  22  40  62  88 123 162 198 241 300 364
#     4  12  23  36  61  94 124 154 197 247 298 359
#     4  10  22  40  62  88 123 162 198 241 300 364
#     4  11  23  39  62  93 123 156 203 251 298 355
#     4  10  22  41  63  86 117 163 210 249 298 358
#
# _framework density 20.013591000000002
#
# number of rings (size 3 to 8) (size 9 to 14) (size 15 to 20)
#    0.000    1.250    2.500    3.750    0.000    6.500 
#    0.000    2.500    0.000    0.000    0.000    0.000 
#    0.000    0.000    0.000    0.000    0.000    0.000 
#
# Total GULP energy -396978.435382 kJ/mol
# GULP energy per Si atom -12405.576106 kJ/mol
# Density = 1.996804 g / cm^3
# Si number density = 20.013591 Si / 1000 Ang^3
#
#
#
# Elastic Constant Matrix: (Units=GPa)
#
#
# Indices 1 2 3 4 5 6 
#
# 1 75.5133 48.4474 35.0393 0.0000 0.0000 0.0000
# 2 48.4474 121.5665 38.9538 0.0000 0.0000 0.0000
# 3 35.0393 38.9538 105.1146 0.0000 0.0000 0.0000
# 4 0.0000 0.0000 0.0000 18.0094 0.0000 0.0000
# 5 0.0000 0.0000 0.0000 0.0000 30.0595 0.0000
# 6 0.0000 0.0000 0.0000 0.0000 0.0000 27.0971
#
#
#
# Elastic Compliance Matrix: (Units=1/GPa)
#
#
# Indices 1 2 3 4 5 6 
#
# 1 0.019196 -0.006354 -0.004044 0.000000 0.000000 0.000000
# 2 -0.006354 0.011438 -0.002121 0.000000 0.000000 0.000000
# 3 -0.004044 -0.002121 0.011647 0.000000 0.000000 0.000000
# 4 0.000000 0.000000 0.000000 0.055527 0.000000 0.000000
# 5 0.000000 0.000000 0.000000 0.000000 0.033267 0.000000
# 6 0.000000 0.000000 0.000000 0.000000 0.000000 0.036904
#
#
# Mechanical properties :
#
#
# Convention : Reuss Voigt Hill
#
# Bulk Modulus (GPa) = 57.99322 60.78614 59.38968
# Shear Modulus (GPa) = 25.15537 27.01678 26.08608
#
# Velocity S-wave (km/s) = 3.54915 3.67811 3.61420
# Velocity P-wave (km/s) = 6.77016 6.96250 6.86700
#
# Compressibility (1/GPa) = 0.01724339
#
# Stress axis : x y z
#
# Youngs Moduli (GPa) = 52.09444 87.42981 85.85666
#
# Poissons Ratio (x) = 0.55555 0.34721
# Poissons Ratio (y) = 0.33102 0.18206
# Poissons Ratio (z) = 0.21067 0.18540
#
# Static dielectric constant tensor:
#      x y z
#    x 3.622980 0.000000 0.000000 
#    y 0.000000 3.576720 0.000000 
#    z 0.000000 0.000000 3.832940 
# 
# 
# High freq. dielectric constant tensor:
#      x y z
#    x 1.780860 0.000000 0.000000 
#    y 0.000000 1.774360 0.000000 
#    z 0.000000 0.000000 1.793530 
# 
# From -- ./inp_files/5085.got.cif
#   From: 2010.03.12/outbox.cif.g09.slc.cpg/sg31_3_cif.got.tgz:5085.got - 2010.04.14 01:42:59.
