data_PCOD8170320
_publ_section_title
;
Structure prediction by ZEFSAII (Michael W. Deem and Ramdas Pophale) SiO2 
 PCOD8170320
Probable space group: P M N 21
;
_chemical_formula_sum "Si O2"
_cell_formula_units_Z 20
_cell_length_a 22.829521
_cell_length_b 5.154521
_cell_length_c 8.090548
_cell_angle_alpha 90.000000
_cell_angle_beta 90.000000
_cell_angle_gamma 90.000000
_cell_volume 952.057221
_symmetry_space_group_name_H-M "P M N 21"
_symmetry_group_IT_number 31
_symmetry_cell_setting 'orthorhombic'
loop_
_space_group_symop_operation_xyz
x,y,z
1/2-x,-y,1/2+z
-x,y,z
1/2+x,-y,1/2+z
loop_
_atom_site_type_symbol
_atom_site_label
_atom_site_fract_x
_atom_site_fract_y
_atom_site_fract_z
Si Si1 0.337750 0.200804 0.370030
Si Si2 0.669386 0.461883 0.693509
Si Si3 0.566264 0.155618 0.109749
Si Si4 0.932938 0.335303 0.398592
Si Si5 0.772624 0.310257 0.897945
O O1 0.350164 0.231544 0.567506
O O2 0.397357 0.133647 0.277451
O O3 0.310195 0.469118 0.300436
O O4 0.291369 0.972431 0.337325
O O5 0.611011 0.613823 0.747141
O O6 0.703895 0.347197 0.852860
O O7 0.714161 0.653485 0.593766
O O8 0.500000 0.099817 0.163276
O O9 0.573840 0.437815 0.032022
O O10 0.586239 0.937196 0.979061
O O11 0.000000 0.323551 0.332385
#
# Coordination Sequence:
#
# PCOD8170320 Si02
#       5
#     4   4   4   4   4
#     4  10  24  39  61  90 122 165 206 259 312 374
#     4  10  26  39  64  90 131 163 211 261 317 380
#     4  10  22  40  64  90 120 164 210 259 314 376
#     4  10  23  41  65  91 121 165 209 259 316 375
#     4  10  25  39  58  95 120 171 200 260 317 373
#
# _framework density 21.007142000000002
#
# number of rings (size 3 to 8) (size 9 to 14) (size 15 to 20)
#    1.200    0.800    0.000    1.200   11.200    0.800 
#    0.000    1.000    0.000    0.000    0.000    0.000 
#    0.000    0.000    0.000    0.000    0.000    0.000 
#
# Total GULP energy -247866.667542 kJ/mol
# GULP energy per Si atom -12393.333377 kJ/mol
# Density = 2.095933 g / cm^3
# Si number density = 21.007142 Si / 1000 Ang^3
#
#
#
# Elastic Constant Matrix: (Units=GPa)
#
#
# Indices 1 2 3 4 5 6 
#
# 1 99.0124 5.9877 61.0780 0.0000 0.0000 0.0000
# 2 5.9877 88.1391 5.7015 0.0000 0.0000 0.0000
# 3 61.0780 5.7015 83.5864 0.0000 0.0000 0.0000
# 4 0.0000 0.0000 0.0000 20.0595 0.0000 0.0000
# 5 0.0000 0.0000 0.0000 0.0000 46.0387 0.0000
# 6 0.0000 0.0000 0.0000 0.0000 0.0000 23.1539
#
#
#
# Elastic Compliance Matrix: (Units=1/GPa)
#
#
# Indices 1 2 3 4 5 6 
#
# 1 0.018401 -0.000382 -0.013420 0.000000 0.000000 0.000000
# 2 -0.000382 0.011404 -0.000499 0.000000 0.000000 0.000000
# 3 -0.013420 -0.000499 0.021804 0.000000 0.000000 0.000000
# 4 0.000000 0.000000 0.000000 0.049852 0.000000 0.000000
# 5 0.000000 0.000000 0.000000 0.000000 0.021721 0.000000
# 6 0.000000 0.000000 0.000000 0.000000 0.000000 0.043189
#
#
# Mechanical properties :
#
#
# Convention : Reuss Voigt Hill
#
# Bulk Modulus (GPa) = 43.46399 46.25249 44.85824
# Shear Modulus (GPa) = 24.67408 31.04848 27.86128
#
# Velocity S-wave (km/s) = 3.43090 3.84864 3.64576
# Velocity P-wave (km/s) = 6.03571 6.46643 6.25478
#
# Compressibility (1/GPa) = 0.02300755
#
# Stress axis : x y z
#
# Youngs Moduli (GPa) = 54.34391 87.68923 45.86321
#
# Poissons Ratio (x) = 0.03350 0.61549
# Poissons Ratio (y) = 0.02076 0.02287
# Poissons Ratio (z) = 0.72930 0.04374
#
# Static dielectric constant tensor:
#      x y z
#    x 3.720520 0.000000 0.000000 
#    y 0.000000 3.802770 0.000000 
#    z 0.000000 0.000000 3.455240 
# 
# 
# High freq. dielectric constant tensor:
#      x y z
#    x 1.820100 0.000000 0.000000 
#    y 0.000000 1.831880 0.000000 
#    z 0.000000 0.000000 1.799860 
# 
# From -- ./inp_files/3016.got.cif
#   From: 2010.03.12/outbox.cif.g09.slc.cpg/sg31_2_cif.got.tgz:3016.got - 2010.04.14 01:42:59.
