data_PCOD8170350
_publ_section_title
;
Structure prediction by ZEFSAII (Michael W. Deem and Ramdas Pophale) SiO2 
 PCOD8170350
Probable space group: P M N 21
;
_chemical_formula_sum "Si O2"
_cell_formula_units_Z 32
_cell_length_a 31.734325
_cell_length_b 5.280131
_cell_length_c 8.478533
_cell_angle_alpha 90.000000
_cell_angle_beta 90.000000
_cell_angle_gamma 90.000000
_cell_volume 1420.674802
_symmetry_space_group_name_H-M "P M N 21"
_symmetry_group_IT_number 31
_symmetry_cell_setting 'orthorhombic'
loop_
_space_group_symop_operation_xyz
x,y,z
1/2-x,-y,1/2+z
-x,y,z
1/2+x,-y,1/2+z
loop_
_atom_site_type_symbol
_atom_site_label
_atom_site_fract_x
_atom_site_fract_y
_atom_site_fract_z
Si Si1 0.232756 0.899378 0.909860
Si Si2 0.194805 0.389344 0.039052
Si Si3 0.386506 0.838800 0.031031
Si Si4 0.688435 0.610194 0.895913
Si Si5 0.451450 0.933438 0.773156
Si Si6 0.881904 0.450848 0.839401
Si Si7 0.320892 0.213531 0.136937
Si Si8 0.049015 0.573732 0.077395
O O1 0.283709 0.870367 0.913514
O O2 0.213061 0.955487 0.735768
O O3 0.215770 0.617031 0.944403
O O4 0.220370 0.125421 0.026538
O O5 0.193414 0.486177 0.218297
O O6 0.147758 0.325814 0.974096
O O7 0.361824 0.624905 0.930412
O O8 0.428116 0.927994 0.941331
O O9 0.397477 0.753338 0.209096
O O10 0.350206 0.047536 0.025805
O O11 0.705352 0.409079 0.026390
O O12 0.500000 0.957344 0.817924
O O13 0.436764 0.179431 0.675715
O O14 0.442056 0.679929 0.675981
O O15 0.854074 0.663277 0.757765
O O16 0.923722 0.568663 0.917828
O O17 0.000000 0.593615 0.029462
#
# Coordination Sequence:
#
# PCOD8170350 Si02
#       8
#     4   4   4   4   4   4   4   4
#     4  11  25  44  64  89 134 168 223 277 337 384
#     4  11  25  42  64  95 123 174 219 275 327 392
#     4  11  24  41  66  94 134 173 219 270 332 393
#     4  11  26  39  67  92 127 174 226 272 334 392
#     4  10  24  44  69  99 134 170 215 270 326 397
#     4  10  23  41  64  94 132 171 214 271 325 396
#     4  10  24  43  60  96 131 176 217 280 324 398
#     4  10  23  44  71 101 131 168 216 269 325 396
#
# _framework density 22.524509999999999
#
# number of rings (size 3 to 8) (size 9 to 14) (size 15 to 20)
#    0.000    1.500    1.250    1.500   12.250    1.500 
#    0.000    0.625    0.000    0.000    0.000    0.000 
#    0.000    0.000    0.000    0.000    0.000    0.000 
#
# Total GULP energy -396677.460822 kJ/mol
# GULP energy per Si atom -12396.170651 kJ/mol
# Density = 2.247324 g / cm^3
# Si number density = 22.524510 Si / 1000 Ang^3
#
#
#
# Elastic Constant Matrix: (Units=GPa)
#
#
# Indices 1 2 3 4 5 6 
#
# 1 105.1011 27.9782 60.5850 0.0000 0.0000 0.0000
# 2 27.9782 104.9417 29.4851 0.0000 0.0000 0.0000
# 3 60.5850 29.4851 129.6993 0.0000 0.0000 0.0000
# 4 0.0000 0.0000 0.0000 21.5812 0.0000 0.0000
# 5 0.0000 0.0000 0.0000 0.0000 37.0553 0.0000
# 6 0.0000 0.0000 0.0000 0.0000 0.0000 19.1426
#
#
#
# Elastic Compliance Matrix: (Units=1/GPa)
#
#
# Indices 1 2 3 4 5 6 
#
# 1 0.013379 -0.001935 -0.005810 0.000000 0.000000 0.000000
# 2 -0.001935 0.010459 -0.001474 0.000000 0.000000 0.000000
# 3 -0.005810 -0.001474 0.010759 0.000000 0.000000 0.000000
# 4 0.000000 0.000000 0.000000 0.046337 0.000000 0.000000
# 5 0.000000 0.000000 0.000000 0.000000 0.026987 0.000000
# 6 0.000000 0.000000 0.000000 0.000000 0.000000 0.052239
#
#
# Mechanical properties :
#
#
# Convention : Reuss Voigt Hill
#
# Bulk Modulus (GPa) = 61.88015 63.98207 62.93111
# Shear Modulus (GPa) = 27.17653 30.33541 28.75597
#
# Velocity S-wave (km/s) = 3.47728 3.67382 3.57690
# Velocity P-wave (km/s) = 6.60712 6.81639 6.71257
#
# Compressibility (1/GPa) = 0.01616027
#
# Stress axis : x y z
#
# Youngs Moduli (GPa) = 74.74659 95.61132 92.94527
#
# Poissons Ratio (x) = 0.18496 0.53997
# Poissons Ratio (y) = 0.14460 0.13701
# Poissons Ratio (z) = 0.43425 0.14094
#
# Static dielectric constant tensor:
#      x y z
#    x 4.028560 0.000000 0.000000 
#    y 0.000000 3.993910 0.000000 
#    z 0.000000 0.000000 4.097080 
# 
# 
# High freq. dielectric constant tensor:
#      x y z
#    x 1.888240 0.000000 0.000000 
#    y 0.000000 1.885460 0.000000 
#    z 0.000000 0.000000 1.890720 
# 
# From -- ./inp_files/3199.got.cif
#   From: 2010.03.12/outbox.cif.g09.slc.cpg/sg31_2_cif.got.tgz:3199.got - 2010.04.14 01:42:59.
