data_PCOD8170353
_publ_section_title
;
Structure prediction by ZEFSAII (Michael W. Deem and Ramdas Pophale) SiO2 
 PCOD8170353
Probable space group: P M N 21
;
_chemical_formula_sum "Si O2"
_cell_formula_units_Z 24
_cell_length_a 8.613772
_cell_length_b 10.114179
_cell_length_c 14.054958
_cell_angle_alpha 90.000000
_cell_angle_beta 90.000000
_cell_angle_gamma 90.000000
_cell_volume 1224.485255
_symmetry_space_group_name_H-M "P M N 21"
_symmetry_group_IT_number 31
_symmetry_cell_setting 'orthorhombic'
loop_
_space_group_symop_operation_xyz
x,y,z
1/2-x,-y,1/2+z
-x,y,z
1/2+x,-y,1/2+z
loop_
_atom_site_type_symbol
_atom_site_label
_atom_site_fract_x
_atom_site_fract_y
_atom_site_fract_z
Si Si1 0.316507 0.523810 0.912340
Si Si2 0.819756 0.863520 0.218834
Si Si3 0.818825 0.595634 0.107308
Si Si4 0.182649 0.637896 0.727539
Si Si5 0.316594 0.770596 0.410810
Si Si6 0.316560 0.876519 0.613278
O O1 0.500000 0.522925 0.901105
O O2 0.241689 0.616296 0.833282
O O3 0.260791 0.373004 0.906426
O O4 0.263042 0.598379 0.006300
O O5 0.789752 0.733387 0.158152
O O6 0.729160 0.856911 0.318878
O O7 0.000000 0.882011 0.243417
O O8 0.756091 0.982990 0.153255
O O9 0.732986 0.485841 0.166615
O O10 0.000000 0.560897 0.097285
O O11 0.257439 0.768989 0.686636
O O12 0.000000 0.653602 0.725550
O O13 0.500000 0.749940 0.413240
O O14 0.256767 0.846840 0.505805
O O15 0.500000 0.874631 0.611651
#
# Coordination Sequence:
#
# PCOD8170353 Si02
#       6
#     4   4   4   4   4   4
#     4  12  24  39  63  94 128 167 213 266 316 371
#     4  10  23  42  65  92 129 170 209 258 320 379
#     4  11  22  39  63  93 128 164 207 262 313 372
#     4  12  24  39  63  94 125 164 212 261 313 373
#     4  11  22  38  64  92 125 167 212 261 318 379
#     4  10  23  43  64  91 129 170 209 260 318 376
#
# _framework density 19.600072999999998
#
# number of rings (size 3 to 8) (size 9 to 14) (size 15 to 20)
#    0.000    1.000    3.333    4.000    0.000    3.333 
#    0.000    1.667    0.000    0.000    0.000    0.000 
#    0.000    0.000    0.000    0.000    0.000    0.000 
#
# Total GULP energy -297665.704097 kJ/mol
# GULP energy per Si atom -12402.737671 kJ/mol
# Density = 1.955546 g / cm^3
# Si number density = 19.600073 Si / 1000 Ang^3
#
#
#
# Elastic Constant Matrix: (Units=GPa)
#
#
# Indices 1 2 3 4 5 6 
#
# 1 375.1528 126.6423 144.4643 0.0000 0.0000 0.0000
# 2 126.6423 137.1581 73.6664 0.0000 0.0000 0.0000
# 3 144.4643 73.6664 194.6440 0.0000 0.0000 0.0000
# 4 0.0000 0.0000 0.0000 35.2204 0.0000 0.0000
# 5 0.0000 0.0000 0.0000 0.0000 39.7731 0.0000
# 6 0.0000 0.0000 0.0000 0.0000 0.0000 51.9666
#
#
#
# Elastic Compliance Matrix: (Units=1/GPa)
#
#
# Indices 1 2 3 4 5 6 
#
# 1 0.004534 -0.002986 -0.002235 0.000000 0.000000 0.000000
# 2 -0.002986 0.011118 -0.001991 0.000000 0.000000 0.000000
# 3 -0.002235 -0.001991 0.007550 0.000000 0.000000 0.000000
# 4 0.000000 0.000000 0.000000 0.028393 0.000000 0.000000
# 5 0.000000 0.000000 0.000000 0.000000 0.025143 0.000000
# 6 0.000000 0.000000 0.000000 0.000000 0.000000 0.019243
#
#
# Mechanical properties :
#
#
# Convention : Reuss Voigt Hill
#
# Bulk Modulus (GPa) = 113.93746 155.16675 134.55211
# Shear Modulus (GPa) = 44.11827 49.53748 46.82788
#
# Velocity S-wave (km/s) = 4.74954 5.03279 4.89321
# Velocity P-wave (km/s) = 9.39866 10.63533 10.03606
#
# Compressibility (1/GPa) = 0.00877674
#
# Stress axis : x y z
#
# Youngs Moduli (GPa) = 220.53607 89.94715 132.44672
#
# Poissons Ratio (x) = 0.26860 0.29605
# Poissons Ratio (y) = 0.65857 0.26374
# Poissons Ratio (z) = 0.49295 0.17911
#
# Static dielectric constant tensor:
#      x y z
#    x 3.660250 0.000000 0.000000 
#    y 0.000000 3.445010 0.000000 
#    z 0.000000 0.000000 3.924650 
# 
# 
# High freq. dielectric constant tensor:
#      x y z
#    x 1.769230 0.000000 0.000000 
#    y 0.000000 1.763710 0.000000 
#    z 0.000000 0.000000 1.785080 
# 
# From -- ./inp_files/4749.got.cif
#   From: 2010.03.12/outbox.cif.g09.slc.cpg/sg31_3_cif.got.tgz:4749.got - 2010.04.14 01:42:59.
