data_PCOD8170082
_publ_section_title
;
Structure prediction by ZEFSAII (Michael W. Deem and Ramdas Pophale) SiO2 
 PCOD8170082
Probable space group: P M N 21
;
_chemical_formula_sum "Si O2"
_cell_formula_units_Z 20
_cell_length_a 13.643538
_cell_length_b 7.040058
_cell_length_c 11.772004
_cell_angle_alpha 90.000000
_cell_angle_beta 90.000000
_cell_angle_gamma 90.000000
_cell_volume 1130.716274
_symmetry_space_group_name_H-M "P M N 21"
_symmetry_group_IT_number 31
_symmetry_cell_setting 'orthorhombic'
loop_
_space_group_symop_operation_xyz
x,y,z
1/2-x,-y,1/2+z
-x,y,z
1/2+x,-y,1/2+z
loop_
_atom_site_type_symbol
_atom_site_label
_atom_site_fract_x
_atom_site_fract_y
_atom_site_fract_z
Si Si1 0.389238 0.990212 0.258500
Si Si2 0.385934 0.182913 0.886832
Si Si3 0.202157 0.704909 0.604069
Si Si4 0.787076 0.976495 0.981344
Si Si5 0.768110 0.702208 0.174754
O O1 0.500000 0.938138 0.231440
O O2 0.375624 0.018113 0.393011
O O3 0.328330 0.810686 0.215565
O O4 0.362306 0.186298 0.197299
O O5 0.500000 0.125971 0.882169
O O6 0.318673 0.994975 0.914077
O O7 0.354896 0.275206 0.766716
O O8 0.364459 0.332155 0.990537
O O9 0.293092 0.843376 0.567992
O O10 0.244446 0.517932 0.660695
O O11 0.798671 0.782463 0.051630
#
# Coordination Sequence:
#
# PCOD8170082 Si02
#       5
#     4   4   4   4   4
#     4  10  20  35  55  82 107 138 179 218 266 321
#     4   9  19  36  55  79 107 137 179 224 261 317
#     4   9  20  34  56  76 109 140 176 223 259 316
#     4   8  20  35  56  76 109 142 171 222 269 319
#     4  10  20  36  57  75 112 143 176 219 274 313
#
# _framework density 17.687904
#
# number of rings (size 3 to 8) (size 9 to 14) (size 15 to 20)
#    1.200    1.600    0.000    0.600    2.800    2.400 
#    0.000    1.000    0.000    0.000    0.000    0.000 
#    0.000    0.000    0.000    0.000    0.000    0.000 
#
# Total GULP energy -247791.504696 kJ/mol
# GULP energy per Si atom -12389.575235 kJ/mol
# Density = 1.764765 g / cm^3
# Si number density = 17.687904 Si / 1000 Ang^3
#
#
#
# Elastic Constant Matrix: (Units=GPa)
#
#
# Indices 1 2 3 4 5 6 
#
# 1 36.8193 31.5009 30.2163 0.0000 0.0000 0.0000
# 2 31.5009 75.8648 24.5789 0.0000 0.0000 0.0000
# 3 30.2163 24.5789 92.7848 0.0000 0.0000 0.0000
# 4 0.0000 0.0000 0.0000 17.8458 0.0000 0.0000
# 5 0.0000 0.0000 0.0000 0.0000 17.7130 0.0000
# 6 0.0000 0.0000 0.0000 0.0000 0.0000 14.1718
#
#
#
# Elastic Compliance Matrix: (Units=1/GPa)
#
#
# Indices 1 2 3 4 5 6 
#
# 1 0.052580 -0.017814 -0.012404 0.000000 0.000000 0.000000
# 2 -0.017814 0.020454 0.000383 0.000000 0.000000 0.000000
# 3 -0.012404 0.000383 0.014716 0.000000 0.000000 0.000000
# 4 0.000000 0.000000 0.000000 0.056035 0.000000 0.000000
# 5 0.000000 0.000000 0.000000 0.000000 0.056456 0.000000
# 6 0.000000 0.000000 0.000000 0.000000 0.000000 0.070563
#
#
# Mechanical properties :
#
#
# Convention : Reuss Voigt Hill
#
# Bulk Modulus (GPa) = 35.61311 42.00677 38.80994
# Shear Modulus (GPa) = 14.71310 17.89099 16.30205
#
# Velocity S-wave (km/s) = 2.88725 3.18383 3.03916
# Velocity P-wave (km/s) = 5.59400 6.10869 5.85700
#
# Compressibility (1/GPa) = 0.02807955
#
# Stress axis : x y z
#
# Youngs Moduli (GPa) = 19.01869 48.89031 67.95429
#
# Poissons Ratio (x) = 0.87091 0.84292
# Poissons Ratio (y) = 0.33879 -0.02602
# Poissons Ratio (z) = 0.23591 -0.01872
#
# Static dielectric constant tensor:
#      x y z
#    x 2.956570 0.000000 0.000000 
#    y 0.000000 2.918510 0.000000 
#    z 0.000000 0.000000 3.549160 
# 
# 
# High freq. dielectric constant tensor:
#      x y z
#    x 1.656030 0.000000 0.000000 
#    y 0.000000 1.654290 0.000000 
#    z 0.000000 0.000000 1.704480 
# 
# From -- ./inp_files/4133.got.cif
#   From: 2010.03.12/outbox.cif.g09.slc.cpg/sg31_3_cif.got.tgz:4133.got - 2010.04.14 01:42:59.
