data_PCOD8170644
_publ_section_title
;
Structure prediction by ZEFSAII (Michael W. Deem and Ramdas Pophale) SiO2 
 PCOD8170644
Probable space group: P N A 21
;
_chemical_formula_sum "Si O2"
_cell_formula_units_Z 32
_cell_length_a 5.431542
_cell_length_b 33.304279
_cell_length_c 8.616073
_cell_angle_alpha 90.000000
_cell_angle_beta 90.000000
_cell_angle_gamma 90.000000
_cell_volume 1558.592378
_symmetry_space_group_name_H-M "P N A 21"
_symmetry_group_IT_number 33
_symmetry_cell_setting 'orthorhombic'
loop_
_space_group_symop_operation_xyz
x,y,z
-x,-y,1/2+z
1/2-x,1/2+y,1/2+z
1/2+x,1/2-y,z
loop_
_atom_site_type_symbol
_atom_site_label
_atom_site_fract_x
_atom_site_fract_y
_atom_site_fract_z
Si Si1 0.365662 0.575215 0.841010
Si Si2 0.734091 0.233701 0.827892
Si Si3 0.248089 0.643444 0.598851
Si Si4 0.251881 0.856555 0.404990
Si Si5 0.134324 0.924784 0.162827
Si Si6 0.765937 0.266300 0.175945
Si Si7 0.499993 0.975732 0.001926
Si Si8 0.659947 0.500000 0.751922
O O1 0.300741 0.613110 0.737857
O O2 0.516397 0.541804 0.747045
O O3 0.500003 0.588128 0.001914
O O4 0.110186 0.553358 0.872696
O O5 0.491302 0.253052 0.744520
O O6 0.699243 0.186085 0.825326
O O7 0.750019 0.250003 0.001915
O O8 0.499982 0.645597 0.501918
O O9 0.199221 0.686083 0.678525
O O10 0.999982 0.631451 0.501922
O O11 0.199235 0.886887 0.265976
O O12 0.389805 0.946640 0.131155
O O13 0.983575 0.958193 0.256787
O O14 0.508728 0.253051 0.259313
O O15 0.693246 0.003741 0.090173
O O16 0.306726 0.003739 0.913681
#
# Coordination Sequence:
#
# PCOD8170644 Si02
#       8
#     4   4   4   4   4   4   4   4
#     4  10  25  44  61  89 130 170 208 270 333 385
#     4  10  16  34  58  89 127 163 197 267 322 369
#     4  12  24  38  65 103 125 163 222 270 315 385
#     4  12  24  38  65 103 125 163 222 270 315 385
#     4  10  25  44  61  89 130 170 208 270 333 385
#     4  10  16  34  58  89 127 163 197 267 322 369
#     4  10  22  44  66  84 118 174 206 264 316 390
#     4  10  22  44  64  86 118 168 212 252 330 378
#
# _framework density 20.531345000000002
#
# number of rings (size 3 to 8) (size 9 to 14) (size 15 to 20)
#    0.000    1.500    5.000    0.750    7.000    5.000 
#    2.250    0.000    0.000    1.500    0.000    0.000 
#    0.000    0.000    0.000    0.000    0.000    0.000 
#
# Total GULP energy -396513.457498 kJ/mol
# GULP energy per Si atom -12391.045547 kJ/mol
# Density = 2.048461 g / cm^3
# Si number density = 20.531345 Si / 1000 Ang^3
#
#
#
# Elastic Constant Matrix: (Units=GPa)
#
#
# Indices 1 2 3 4 5 6 
#
# 1 164.5577 53.4854 38.0986 0.0000 0.0000 0.0000
# 2 53.4854 164.6468 72.8610 0.0000 0.0000 0.0000
# 3 38.0986 72.8610 65.7475 0.0000 0.0000 0.0000
# 4 0.0000 0.0000 0.0000 25.0532 0.0000 0.0000
# 5 0.0000 0.0000 0.0000 0.0000 5.4737 0.0000
# 6 0.0000 0.0000 0.0000 0.0000 0.0000-1292.3706
#
#
#
# Elastic Compliance Matrix: (Units=1/GPa)
#
#
# Indices 1 2 3 4 5 6 
#
# 1 0.007094 -0.000952 -0.003055 0.000000 0.000000 0.000000
# 2 -0.000952 0.012046 -0.012798 0.000000 0.000000 0.000000
# 3 -0.003055 -0.012798 0.031163 0.000000 0.000000 0.000000
# 4 0.000000 0.000000 0.000000 0.039915 0.000000 0.000000
# 5 0.000000 0.000000 0.000000 0.000000 0.182691 0.000000
# 6 0.000000 0.000000 0.000000 0.000000 0.000000 -0.000774
#
#
# Mechanical properties :
#
#
# Convention : Reuss Voigt Hill
#
# Bulk Modulus (GPa) = 59.90929 80.42689 70.16809
# Shear Modulus (GPa) = 16.06114 -237.00161 -110.47023
#
# Velocity S-wave (km/s) = 2.79995 -10.75568 -7.34319
# Velocity P-wave (km/s) = 6.30046 10.72326 6.13566
#
# Compressibility (1/GPa) = 0.01669190
#
# Stress axis : x y z
#
# Youngs Moduli (GPa) = 140.96842 83.01211 32.08973
#
# Poissons Ratio (x) = 0.07906 0.09804
# Poissons Ratio (y) = 0.13426 0.41068
# Poissons Ratio (z) = 0.43068 1.06238
#
# Static dielectric constant tensor:
#      x y z
#    x 6.211480 0.000000 0.000000 
#    y 0.000000 3.722420 0.000000 
#    z 0.000000 0.000000 3.349820 
# 
# 
# High freq. dielectric constant tensor:
#      x y z
#    x 1.835860 0.000000 0.000000 
#    y 0.000000 1.803570 0.000000 
#    z 0.000000 0.000000 1.761570 
# 
# From -- ./inp_files/2874.got.cif
#   From: 2010.03.12/outbox.cif.g09.slc.cpg/sg33_2_cif.got.tgz:2874.got - 2010.04.14 01:49:19.
