data_PCOD8170681
_publ_section_title
;
Structure prediction by ZEFSAII (Michael W. Deem and Ramdas Pophale) SiO2 
 PCOD8170681
Probable space group: P N A 21
;
_chemical_formula_sum "Si O2"
_cell_formula_units_Z 32
_cell_length_a 9.401875
_cell_length_b 14.463792
_cell_length_c 11.723874
_cell_angle_alpha 90.000000
_cell_angle_beta 90.000000
_cell_angle_gamma 90.000000
_cell_volume 1594.291692
_symmetry_space_group_name_H-M "P N A 21"
_symmetry_group_IT_number 33
_symmetry_cell_setting 'orthorhombic'
loop_
_space_group_symop_operation_xyz
x,y,z
-x,-y,1/2+z
1/2-x,1/2+y,1/2+z
1/2+x,1/2-y,z
loop_
_atom_site_type_symbol
_atom_site_label
_atom_site_fract_x
_atom_site_fract_y
_atom_site_fract_z
Si Si1 0.678037 0.637547 0.013330
Si Si2 0.172790 0.547633 0.939235
Si Si3 0.380613 0.943602 0.846584
Si Si4 0.119338 0.246693 0.808993
Si Si5 0.478689 0.934816 0.610856
Si Si6 0.873329 0.807709 0.059212
Si Si7 0.207515 0.442076 0.720880
Si Si8 0.629700 0.848089 0.415848
O O1 0.803852 0.710246 0.032397
O O2 0.525466 0.684361 0.995892
O O3 0.671554 0.567973 0.122744
O O4 0.728455 0.583072 0.900430
O O5 0.246773 0.516358 0.819710
O O6 0.018940 0.594957 0.914884
O O7 0.141598 0.458751 0.017963
O O8 0.273382 0.613234 0.010504
O O9 0.392474 0.897808 0.720789
O O10 0.393022 0.055712 0.847066
O O11 0.106173 0.183427 0.695417
O O12 0.191274 0.343929 0.780961
O O13 0.209515 0.188757 0.902573
O O14 0.964644 0.266748 0.860115
O O15 0.587518 0.862241 0.549924
O O16 0.565957 0.024715 0.653896
#
# Coordination Sequence:
#
# PCOD8170681 Si02
#       8
#     4   4   4   4   4   4   4   4
#     4  11  22  40  61  99 122 169 214 270 310 394
#     4  10  19  38  63  88 123 167 209 259 320 372
#     4  10  20  39  68  86 126 169 224 245 328 386
#     4  11  21  38  60  96 123 164 209 268 314 378
#     4  10  18  37  66  90 117 181 205 255 319 398
#     4  11  24  37  65  92 130 160 218 270 323 366
#     4  10  19  37  65  89 128 159 213 258 313 379
#     4  11  21  38  62  92 127 165 212 267 321 379
#
# _framework density 20.07161
#
# number of rings (size 3 to 8) (size 9 to 14) (size 15 to 20)
#    0.000    1.500    6.250    3.000    1.750    0.000 
#    6.750    3.750    0.000    0.000    0.000    0.000 
#    0.000    0.000    0.000    0.000    0.000    0.000 
#
# Total GULP energy -396493.602222 kJ/mol
# GULP energy per Si atom -12390.425069 kJ/mol
# Density = 2.002593 g / cm^3
# Si number density = 20.071610 Si / 1000 Ang^3
#
#
#
# Elastic Constant Matrix: (Units=GPa)
#
#
# Indices 1 2 3 4 5 6 
#
# 1 98.3698 39.3578 43.3457 0.0000 0.0000 0.0000
# 2 39.3578 61.6040 40.3125 0.0000 0.0000 0.0000
# 3 43.3457 40.3125 121.8327 0.0000 0.0000 0.0000
# 4 0.0000 0.0000 0.0000 35.4448 0.0000 0.0000
# 5 0.0000 0.0000 0.0000 0.0000 29.6813 0.0000
# 6 0.0000 0.0000 0.0000 0.0000 0.0000 38.5538
#
#
#
# Elastic Compliance Matrix: (Units=1/GPa)
#
#
# Indices 1 2 3 4 5 6 
#
# 1 0.014289 -0.007406 -0.002633 0.000000 0.000000 0.000000
# 2 -0.007406 0.024557 -0.005491 0.000000 0.000000 0.000000
# 3 -0.002633 -0.005491 0.010962 0.000000 0.000000 0.000000
# 4 0.000000 0.000000 0.000000 0.028213 0.000000 0.000000
# 5 0.000000 0.000000 0.000000 0.000000 0.033691 0.000000
# 6 0.000000 0.000000 0.000000 0.000000 0.000000 0.025938
#
#
# Mechanical properties :
#
#
# Convention : Reuss Voigt Hill
#
# Bulk Modulus (GPa) = 53.33852 58.64870 55.99361
# Shear Modulus (GPa) = 28.57805 31.32199 29.95002
#
# Velocity S-wave (km/s) = 3.77743 3.95462 3.86704
# Velocity P-wave (km/s) = 6.75700 7.08062 6.92070
#
# Compressibility (1/GPa) = 0.01874818
#
# Stress axis : x y z
#
# Youngs Moduli (GPa) = 69.98302 40.72113 91.22720
#
# Poissons Ratio (x) = 0.30158 0.24023
# Poissons Ratio (y) = 0.51829 0.50090
# Poissons Ratio (z) = 0.18429 0.22359
#
# Static dielectric constant tensor:
#      x y z
#    x 3.472880 0.000000 0.000000 
#    y 0.000000 3.441600 0.000000 
#    z 0.000000 0.000000 3.994420 
# 
# 
# High freq. dielectric constant tensor:
#      x y z
#    x 1.762780 0.000000 0.000000 
#    y 0.000000 1.753430 0.000000 
#    z 0.000000 0.000000 1.790280 
# 
# From -- ./inp_files/5964.got.cif
#   From: 2010.03.12/outbox.cif.g09.slc.cpg/sg33_3_cif.got.tgz:5964.got - 2010.04.14 01:49:19.
