data_PCOD8170707
_publ_section_title
;
Structure prediction by ZEFSAII (Michael W. Deem and Ramdas Pophale) SiO2 
 PCOD8170707
Probable space group: P N A 21
;
_chemical_formula_sum "Si O2"
_cell_formula_units_Z 32
_cell_length_a 22.562804
_cell_length_b 8.222114
_cell_length_c 9.148666
_cell_angle_alpha 90.000000
_cell_angle_beta 90.000000
_cell_angle_gamma 90.000000
_cell_volume 1697.205136
_symmetry_space_group_name_H-M "P N A 21"
_symmetry_group_IT_number 33
_symmetry_cell_setting 'orthorhombic'
loop_
_space_group_symop_operation_xyz
x,y,z
-x,-y,1/2+z
1/2-x,1/2+y,1/2+z
1/2+x,1/2-y,z
loop_
_atom_site_type_symbol
_atom_site_label
_atom_site_fract_x
_atom_site_fract_y
_atom_site_fract_z
Si Si1 0.830138 0.850826 0.794290
Si Si2 0.634777 0.843846 0.380686
Si Si3 0.634777 0.156153 0.567380
Si Si4 0.297845 0.031927 0.307105
Si Si5 0.830138 0.149173 0.153776
Si Si6 0.058292 0.062537 0.632056
Si Si7 0.558293 0.562535 0.316007
Si Si8 0.202155 0.468075 0.140961
O O1 0.772510 0.963891 0.780666
O O2 0.887424 0.956164 0.752170
O O3 0.827543 0.703925 0.679980
O O4 0.831675 0.784243 0.961242
O O5 0.668326 0.715760 0.486825
O O6 0.576764 0.753055 0.317795
O O7 0.677467 0.891504 0.247133
O O8 0.614181 0.000001 0.474032
O O9 0.576764 0.246942 0.630273
O O10 0.677467 0.108492 0.700931
O O11 0.327543 0.203930 0.268091
O O12 0.315306 0.999998 0.474032
O O13 0.887425 0.043837 0.195892
O O14 0.772511 0.036104 0.167400
O O15 0.040849 0.000004 0.474030
O O16 0.999999 0.037148 0.724029
#
# Coordination Sequence:
#
# PCOD8170707 Si02
#       8
#     4   4   4   4   4   4   4   4
#     4   9  20  36  54  79 111 142 172 216 271 318
#     4   9  19  37  55  75 109 143 169 213 277 320
#     4   9  19  37  55  75 109 143 169 213 277 320
#     4  10  19  33  56  84 109 137 176 218 263 322
#     4   9  20  36  54  79 111 142 172 216 271 318
#     4  10  21  38  57  76 104 143 183 220 262 312
#     4  10  21  38  57  76 104 143 183 220 262 312
#     4  10  19  33  56  84 109 137 176 218 263 322
#
# _framework density 18.854527000000001
#
# number of rings (size 3 to 8) (size 9 to 14) (size 15 to 20)
#    0.000    2.500    0.000    2.250    0.000    6.000 
#    0.000   18.750    0.000    0.000    0.000    0.000 
#    0.000    0.000    0.000    0.000    0.000    0.000 
#
# Total GULP energy -396809.285464 kJ/mol
# GULP energy per Si atom -12400.290171 kJ/mol
# Density = 1.881161 g / cm^3
# Si number density = 18.854527 Si / 1000 Ang^3
#
#
#
# Elastic Constant Matrix: (Units=GPa)
#
#
# Indices 1 2 3 4 5 6 
#
# 1 153.5023 77.2603 72.2023 0.0000 0.0000 0.0000
# 2 77.2603 101.3279 50.4653 0.0000 0.0000 0.0000
# 3 72.2023 50.4653 111.1871 0.0000 0.0000 0.0000
# 4 0.0000 0.0000 0.0000 24.5188 0.0000 0.0000
# 5 0.0000 0.0000 0.0000 0.0000 26.5496 0.0000
# 6 0.0000 0.0000 0.0000 0.0000 0.0000 23.1561
#
#
#
# Elastic Compliance Matrix: (Units=1/GPa)
#
#
# Indices 1 2 3 4 5 6 
#
# 1 0.012288 -0.006971 -0.004816 0.000000 0.000000 0.000000
# 2 -0.006971 0.016706 -0.003056 0.000000 0.000000 0.000000
# 3 -0.004816 -0.003056 0.013508 0.000000 0.000000 0.000000
# 4 0.000000 0.000000 0.000000 0.040785 0.000000 0.000000
# 5 0.000000 0.000000 0.000000 0.000000 0.037665 0.000000
# 6 0.000000 0.000000 0.000000 0.000000 0.000000 0.043185
#
#
# Mechanical properties :
#
#
# Convention : Reuss Voigt Hill
#
# Bulk Modulus (GPa) = 78.01885 85.09700 81.55792
# Shear Modulus (GPa) = 25.24029 25.91752 25.57890
#
# Velocity S-wave (km/s) = 3.66278 3.71159 3.68726
# Velocity P-wave (km/s) = 7.70436 7.97492 7.84080
#
# Compressibility (1/GPa) = 0.01281742
#
# Stress axis : x y z
#
# Youngs Moduli (GPa) = 81.37696 59.85806 74.03050
#
# Poissons Ratio (x) = 0.41729 0.35651
# Poissons Ratio (y) = 0.56730 0.22621
# Poissons Ratio (z) = 0.39189 0.18290
#
# Static dielectric constant tensor:
#      x y z
#    x 3.254060 0.000000 0.000000 
#    y 0.000000 3.695360 0.000000 
#    z 0.000000 0.000000 3.458710 
# 
# 
# High freq. dielectric constant tensor:
#      x y z
#    x 1.714110 0.000000 0.000000 
#    y 0.000000 1.746090 0.000000 
#    z 0.000000 0.000000 1.730100 
# 
# From -- ./inp_files/4972.got.cif
#   From: 2010.03.12/outbox.cif.g09.slc.cpg/sg33_3_cif.got.tgz:4972.got - 2010.04.14 01:49:19.
