data_PCOD8170646
_publ_section_title
;
Structure prediction by ZEFSAII (Michael W. Deem and Ramdas Pophale) SiO2 
 PCOD8170646
Probable space group: P N A 21
;
_chemical_formula_sum "Si O2"
_cell_formula_units_Z 24
_cell_length_a 5.492191
_cell_length_b 17.083239
_cell_length_c 9.402741
_cell_angle_alpha 90.000000
_cell_angle_beta 90.000000
_cell_angle_gamma 90.000000
_cell_volume 882.206641
_symmetry_space_group_name_H-M "P N A 21"
_symmetry_group_IT_number 33
_symmetry_cell_setting 'orthorhombic'
loop_
_space_group_symop_operation_xyz
x,y,z
-x,-y,1/2+z
1/2-x,1/2+y,1/2+z
1/2+x,1/2-y,z
loop_
_atom_site_type_symbol
_atom_site_label
_atom_site_fract_x
_atom_site_fract_y
_atom_site_fract_z
Si Si1 0.750344 0.542302 0.809630
Si Si2 0.862382 0.570626 0.337117
Si Si3 0.538611 0.461146 0.056350
Si Si4 0.278953 0.189691 0.989494
Si Si5 0.643645 0.720696 0.765259
Si Si6 0.798108 0.721950 0.211617
O O1 0.528191 0.504904 0.713567
O O2 0.752074 0.633785 0.778844
O O3 0.005961 0.503419 0.758379
O O4 0.726373 0.518955 0.975919
O O5 0.700360 0.535996 0.460561
O O6 0.736172 0.629027 0.221540
O O7 0.062841 0.627044 0.405315
O O8 0.603790 0.369438 0.078246
O O9 0.417218 0.246249 0.103695
O O10 0.135970 0.241633 0.870424
O O11 0.373461 0.730699 0.836524
O O12 0.561678 0.761454 0.134008
#
# Coordination Sequence:
#
# PCOD8170646 Si02
#       6
#     4   4   4   4   4   4
#     4  11  26  41  70 107 148 197 237 317 378 450
#     4  10  22  36  62  99 147 183 233 303 373 428
#     4  11  22  44  65 105 146 190 243 303 380 443
#     4  10  19  35  64 100 134 174 247 304 352 407
#     4  12  24  40  70 106 140 184 259 308 363 430
#     4  10  17  30  55  91 125 170 227 291 342 402
#
# _framework density 27.204511
#
# number of rings (size 3 to 8) (size 9 to 14) (size 15 to 20)
#    0.000    1.333    3.333    4.000    2.333    2.667 
#    0.000    0.000    0.000    6.000    0.000    0.000 
#    0.000    0.000    0.000    0.000    0.000    0.000 
#
# Total GULP energy -297323.183856 kJ/mol
# GULP energy per Si atom -12388.465994 kJ/mol
# Density = 2.714259 g / cm^3
# Si number density = 27.204511 Si / 1000 Ang^3
#
#
#
# Elastic Constant Matrix: (Units=GPa)
#
#
# Indices 1 2 3 4 5 6 
#
# 1 86.3876 1.7377 -11.9134 0.0000 0.0000 0.0000
# 2 1.7377 125.2850 16.2915 0.0000 0.0000 0.0000
# 3 -11.9134 16.2915 42.7142 0.0000 0.0000 0.0000
# 4 0.0000 0.0000 0.0000 30.8366 0.0000 0.0000
# 5 0.0000 0.0000 0.0000 0.0000 26.0919 0.0000
# 6 0.0000 0.0000 0.0000 0.0000 0.0000 49.8779
#
#
#
# Elastic Compliance Matrix: (Units=1/GPa)
#
#
# Indices 1 2 3 4 5 6 
#
# 1 0.012087 -0.000638 0.003614 0.000000 0.000000 0.000000
# 2 -0.000638 0.008432 -0.003394 0.000000 0.000000 0.000000
# 3 0.003614 -0.003394 0.025714 0.000000 0.000000 0.000000
# 4 0.000000 0.000000 0.000000 0.032429 0.000000 0.000000
# 5 0.000000 0.000000 0.000000 0.000000 0.038326 0.000000
# 6 0.000000 0.000000 0.000000 0.000000 0.000000 0.020049
#
#
# Mechanical properties :
#
#
# Convention : Reuss Voigt Hill
#
# Bulk Modulus (GPa) = 22.02707 29.62427 25.82567
# Shear Modulus (GPa) = 32.67886 37.91267 35.29577
#
# Velocity S-wave (km/s) = 3.46964 3.73717 3.60588
# Velocity P-wave (km/s) = 4.91585 5.43461 5.18173
#
# Compressibility (1/GPa) = 0.04539869
#
# Stress axis : x y z
#
# Youngs Moduli (GPa) = 82.73346 118.59631 38.88936
#
# Poissons Ratio (x) = 0.07562 -0.14056
# Poissons Ratio (y) = 0.05275 0.13199
# Poissons Ratio (z) = -0.29903 0.40250
#
# Static dielectric constant tensor:
#      x y z
#    x 5.364220 0.000000 0.000000 
#    y 0.000000 5.755120 0.000000 
#    z 0.000000 0.000000 4.478310 
# 
# 
# High freq. dielectric constant tensor:
#      x y z
#    x 2.127600 0.000000 0.000000 
#    y 0.000000 2.108790 0.000000 
#    z 0.000000 0.000000 2.044310 
# 
# From -- ./inp_files/5443.got.cif
#   From: 2010.03.12/outbox.cif.g09.slc.cpg/sg33_3_cif.got.tgz:5443.got - 2010.04.14 01:49:19.
