data_PCOD8170496
_publ_section_title
;
Structure prediction by ZEFSAII (Michael W. Deem and Ramdas Pophale) SiO2 
 PCOD8170496
Probable space group: P B A 2
;
_chemical_formula_sum "Si O2"
_cell_formula_units_Z 32
_cell_length_a 11.730159
_cell_length_b 8.815049
_cell_length_c 14.222013
_cell_angle_alpha 90.000000
_cell_angle_beta 90.000000
_cell_angle_gamma 90.000000
_cell_volume 1470.583541
_symmetry_space_group_name_H-M "P B A 2"
_symmetry_group_IT_number 32
_symmetry_cell_setting 'orthorhombic'
loop_
_space_group_symop_operation_xyz
x,y,z
-x,-y,z
1/2-x,1/2+y,z
1/2+x,1/2-y,z
loop_
_atom_site_type_symbol
_atom_site_label
_atom_site_fract_x
_atom_site_fract_y
_atom_site_fract_z
Si Si1 0.785615 0.836715 0.418710
Si Si2 0.313247 0.407618 0.550296
Si Si3 0.526315 0.661791 0.712730
Si Si4 0.880595 0.576222 0.092080
Si Si5 0.126119 0.421129 0.706270
Si Si6 0.203190 0.142151 0.991201
Si Si7 0.806058 0.115322 0.860610
Si Si8 0.878296 0.564833 0.312832
O O1 0.705243 0.724422 0.476144
O O2 0.870697 0.732831 0.358132
O O3 0.852068 0.941217 0.494474
O O4 0.714659 0.946985 0.350863
O O5 0.416767 0.346243 0.611260
O O6 0.202024 0.453783 0.613809
O O7 0.500000 0.500000 0.754860
O O8 0.405721 0.744208 0.705771
O O9 0.615995 0.718310 0.790821
O O10 0.881131 0.751400 0.053564
O O11 0.780696 0.469012 0.053491
O O12 0.862137 0.584737 0.202730
O O13 0.000000 0.500000 0.064370
O O14 0.196591 0.449944 0.801875
O O15 0.000000 0.500000 0.703306
O O16 0.279515 0.265807 0.940303
O O17 0.140313 0.033980 0.913592
O O18 0.000000 0.500000 0.340856
#
# Coordination Sequence:
#
# PCOD8170496 Si02
#       8
#     4   4   4   4   4   4   4   4
#     4  10  21  38  61  86 119 152 194 250 295 351
#     4  10  22  37  54  86 116 152 203 239 285 352
#     4  11  22  35  54  78 116 156 190 238 285 331
#     4  10  22  41  64  89 117 153 195 244 308 370
#     4  11  22  37  58  80 117 162 196 240 290 335
#     4  10  21  38  61  86 119 152 194 250 295 351
#     4  10  22  37  54  86 116 152 203 239 285 352
#     4  10  22  41  64  89 117 153 195 244 308 370
#
# _framework density 21.760069000000001
#
# number of rings (size 3 to 8) (size 9 to 14) (size 15 to 20)
#    0.000    1.750    0.000    3.750    0.000   14.000 
#    0.000    3.750    0.000   13.500    0.000    0.000 
#    0.000    0.000    0.000    0.000    0.000    0.000 
#
# Total GULP energy -396432.627938 kJ/mol
# GULP energy per Si atom -12388.519623 kJ/mol
# Density = 2.171054 g / cm^3
# Si number density = 21.760069 Si / 1000 Ang^3
#
#
#
# Elastic Constant Matrix: (Units=GPa)
#
#
# Indices 1 2 3 4 5 6 
#
# 1 60.6823 14.1969 33.2038 0.0000 0.0000 0.0000
# 2 14.1969 114.3408 44.0387 0.0000 0.0000 0.0000
# 3 33.2038 44.0387 112.2225 0.0000 0.0000 0.0000
# 4 0.0000 0.0000 0.0000 33.8948 0.0000 0.0000
# 5 0.0000 0.0000 0.0000 0.0000 -9.4559 0.0000
# 6 0.0000 0.0000 0.0000 0.0000 0.0000 31.1325
#
#
#
# Elastic Compliance Matrix: (Units=1/GPa)
#
#
# Indices 1 2 3 4 5 6 
#
# 1 0.019668 -0.000236 -0.005726 0.000000 0.000000 0.000000
# 2 -0.000236 0.010306 -0.003974 0.000000 0.000000 0.000000
# 3 -0.005726 -0.003974 0.012165 0.000000 0.000000 0.000000
# 4 0.000000 0.000000 0.000000 0.029503 0.000000 0.000000
# 5 0.000000 0.000000 0.000000 0.000000 -0.105754 0.000000
# 6 0.000000 0.000000 0.000000 0.000000 0.000000 0.032121
#
#
# Mechanical properties :
#
#
# Convention : Reuss Voigt Hill
#
# Bulk Modulus (GPa) = 44.91522 52.23605 48.57563
# Shear Modulus (GPa) = 197.59365 24.16802 110.88084
#
# Velocity S-wave (km/s) = 9.53954 3.33627 7.14610
# Velocity P-wave (km/s) = 11.91734 6.23687 9.51108
#
# Compressibility (1/GPa) = 0.02226417
#
# Stress axis : x y z
#
# Youngs Moduli (GPa) = 50.84407 97.03219 82.20450
#
# Poissons Ratio (x) = 0.02295 0.47074
# Poissons Ratio (y) = 0.01202 0.32670
# Poissons Ratio (z) = 0.29116 0.38563
#
# Static dielectric constant tensor:
#      x y z
#    x 3.326190 0.000000 0.000000 
#    y 0.000000 4.077410 0.000000 
#    z 0.000000 0.000000 4.085660 
# 
# 
# High freq. dielectric constant tensor:
#      x y z
#    x 1.832530 0.000000 0.000000 
#    y 0.000000 1.875740 0.000000 
#    z 0.000000 0.000000 1.868900 
# 
# From -- ./inp_files/4169.got.cif
#   From: 2010.03.12/outbox.cif.g09.slc.cpg/sg32_3_cif.got.tgz:4169.got - 2010.04.14 01:46:39.
