data_PCOD8170293
_publ_section_title
;
Structure prediction by ZEFSAII (Michael W. Deem and Ramdas Pophale) SiO2 
 PCOD8170293
Probable space group: P M N 21
;
_chemical_formula_sum "Si O2"
_cell_formula_units_Z 32
_cell_length_a 8.571673
_cell_length_b 11.907799
_cell_length_c 15.394729
_cell_angle_alpha 90.000000
_cell_angle_beta 90.000000
_cell_angle_gamma 90.000000
_cell_volume 1571.336282
_symmetry_space_group_name_H-M "P M N 21"
_symmetry_group_IT_number 31
_symmetry_cell_setting 'orthorhombic'
loop_
_space_group_symop_operation_xyz
x,y,z
1/2-x,-y,1/2+z
-x,y,z
1/2+x,-y,1/2+z
loop_
_atom_site_type_symbol
_atom_site_label
_atom_site_fract_x
_atom_site_fract_y
_atom_site_fract_z
Si Si1 0.183541 0.872924 0.812340
Si Si2 0.820514 0.720783 0.160616
Si Si3 0.818371 0.882447 0.312963
Si Si4 0.680302 0.281615 0.466084
Si Si5 0.680219 0.491308 0.910757
Si Si6 0.182223 0.738088 0.646479
Si Si7 0.180627 0.261869 0.964038
Si Si8 0.679522 0.499634 0.225184
O O1 0.248107 0.809063 0.897902
O O2 0.248755 0.812935 0.725802
O O3 0.000000 0.861408 0.812279
O O4 0.227916 0.001702 0.815937
O O5 0.761571 0.814964 0.227752
O O6 0.716548 0.609855 0.169797
O O7 0.000000 0.689506 0.180514
O O8 0.800392 0.768231 0.063069
O O9 0.782682 0.810634 0.397998
O O10 0.000000 0.909036 0.308190
O O11 0.500000 0.309857 0.445524
O O12 0.778815 0.394995 0.460407
O O13 0.500000 0.461306 0.926091
O O14 0.783712 0.392602 0.950898
O O15 0.711618 0.505245 0.809028
O O16 0.276777 0.774905 0.561483
O O17 0.214724 0.607519 0.665562
O O18 0.000000 0.760219 0.630414
O O19 0.000000 0.237637 0.946175
O O20 0.500000 0.500144 0.255621
#
# Coordination Sequence:
#
# PCOD8170293 Si02
#       8
#     4   4   4   4   4   4   4   4
#     4  10  22  42  65  90 124 165 206 255 308 363
#     4  10  22  39  62  90 123 160 200 252 305 362
#     4  11  24  42  62  90 125 164 209 260 309 360
#     4  10  21  41  65  92 124 161 205 249 304 369
#     4  12  23  37  61  93 128 162 200 250 310 370
#     4  10  22  41  64  93 128 162 201 254 309 365
#     4  12  25  41  64  92 123 165 210 255 310 368
#     4  11  21  37  63  92 125 163 199 243 305 373
#
# _framework density 20.364833999999998
#
# number of rings (size 3 to 8) (size 9 to 14) (size 15 to 20)
#    0.000    1.250    2.500    3.750    0.000    6.000 
#    0.000    1.250    0.000    0.000    0.000    0.000 
#    0.000    0.000    0.000    0.000    0.000    0.000 
#
# Total GULP energy -396982.167848 kJ/mol
# GULP energy per Si atom -12405.692745 kJ/mol
# Density = 2.031848 g / cm^3
# Si number density = 20.364834 Si / 1000 Ang^3
#
#
#
# Elastic Constant Matrix: (Units=GPa)
#
#
# Indices 1 2 3 4 5 6 
#
# 1 32.5930 -2.9493 9.9317 0.0000 0.0000 0.0000
# 2 -2.9493 111.2002 42.3721 0.0000 0.0000 0.0000
# 3 9.9317 42.3721 133.4188 0.0000 0.0000 0.0000
# 4 0.0000 0.0000 0.0000 11.5818 0.0000 0.0000
# 5 0.0000 0.0000 0.0000 0.0000 26.5626 0.0000
# 6 0.0000 0.0000 0.0000 0.0000 0.0000 22.2321
#
#
#
# Elastic Compliance Matrix: (Units=1/GPa)
#
#
# Indices 1 2 3 4 5 6 
#
# 1 0.031774 0.001984 -0.002995 0.000000 0.000000 0.000000
# 2 0.001984 0.010355 -0.003436 0.000000 0.000000 0.000000
# 3 -0.002995 -0.003436 0.008809 0.000000 0.000000 0.000000
# 4 0.000000 0.000000 0.000000 0.086343 0.000000 0.000000
# 5 0.000000 0.000000 0.000000 0.000000 0.037647 0.000000
# 6 0.000000 0.000000 0.000000 0.000000 0.000000 0.044980
#
#
# Mechanical properties :
#
#
# Convention : Reuss Voigt Hill
#
# Bulk Modulus (GPa) = 23.78523 41.76903 32.77713
# Shear Modulus (GPa) = 20.59165 27.26579 23.92872
#
# Velocity S-wave (km/s) = 3.18329 3.66302 3.43155
# Velocity P-wave (km/s) = 5.02156 6.20042 5.64186
#
# Compressibility (1/GPa) = 0.04204290
#
# Stress axis : x y z
#
# Youngs Moduli (GPa) = 31.47256 96.57392 113.51418
#
# Poissons Ratio (x) = -0.19161 0.34001
# Poissons Ratio (y) = -0.06244 0.39006
# Poissons Ratio (z) = 0.09427 0.33185
#
# Static dielectric constant tensor:
#      x y z
#    x 3.648690 0.000000 0.000000 
#    y 0.000000 3.606030 0.000000 
#    z 0.000000 0.000000 3.908880 
# 
# 
# High freq. dielectric constant tensor:
#      x y z
#    x 1.787830 0.000000 0.000000 
#    y 0.000000 1.788690 0.000000 
#    z 0.000000 0.000000 1.812370 
# 
# From -- ./inp_files/4942.got.cif
#   From: 2010.03.12/outbox.cif.g09.slc.cpg/sg31_3_cif.got.tgz:4942.got - 2010.04.14 01:42:59.
