data_PCOD8170003
_publ_section_title
;
Structure prediction by ZEFSAII (Michael W. Deem and Ramdas Pophale) SiO2 
 PCOD8170003
Probable space group: P M N 21
;
_chemical_formula_sum "Si O2"
_cell_formula_units_Z 32
_cell_length_a 14.346818
_cell_length_b 6.825209
_cell_length_c 16.174574
_cell_angle_alpha 90.000000
_cell_angle_beta 90.000000
_cell_angle_gamma 90.000000
_cell_volume 1583.814793
_symmetry_space_group_name_H-M "P M N 21"
_symmetry_group_IT_number 31
_symmetry_cell_setting 'orthorhombic'
loop_
_space_group_symop_operation_xyz
x,y,z
1/2-x,-y,1/2+z
-x,y,z
1/2+x,-y,1/2+z
loop_
_atom_site_type_symbol
_atom_site_label
_atom_site_fract_x
_atom_site_fract_y
_atom_site_fract_z
Si Si1 0.600931 0.852243 0.222660
Si Si2 0.714875 0.717125 0.964252
Si Si3 0.806034 0.062997 0.879415
Si Si4 0.298281 0.228201 0.738768
Si Si5 0.604981 0.045527 0.055417
Si Si6 0.895583 0.411750 0.309052
Si Si7 0.773967 0.319397 0.026213
Si Si8 0.106134 0.125030 0.164963
O O1 0.500000 0.742620 0.215778
O O2 0.691780 0.711852 0.210024
O O3 0.605711 0.023635 0.154550
O O4 0.608539 0.952005 0.314007
O O5 0.794742 0.859408 0.928229
O O6 0.667076 0.600179 0.889831
O O7 0.639273 0.841553 0.015007
O O8 0.763852 0.554773 0.022464
O O9 0.711647 0.113837 0.826945
O O10 0.825545 0.237178 0.944590
O O11 0.360303 0.418543 0.748079
O O12 0.345221 0.087976 0.669848
O O13 0.500000 0.089049 0.023712
O O14 0.670944 0.224528 0.030548
O O15 0.892349 0.212355 0.257081
O O16 0.000000 0.461995 0.337019
O O17 0.836262 0.265740 0.104769
O O18 0.000000 0.103414 0.132865
#
# Coordination Sequence:
#
# PCOD8170003 Si02
#       8
#     4   4   4   4   4   4   4   4
#     4   9  18  37  62  85 113 154 198 234 284 347
#     4  11  21  38  58  88 121 156 189 244 300 341
#     4   9  20  36  60  85 116 157 192 240 289 342
#     4  10  19  40  61  83 114 150 194 237 294 339
#     4  10  22  38  59  88 119 153 193 240 293 350
#     4  11  22  36  60  91 117 154 201 241 291 352
#     4  11  22  39  59  85 121 156 194 237 295 355
#     4  11  24  40  61  87 119 156 195 247 294 350
#
# _framework density 20.204384000000001
#
# number of rings (size 3 to 8) (size 9 to 14) (size 15 to 20)
#    0.750    1.000    3.750    0.750    1.750    1.500 
#    0.000    0.625    0.000    6.000    0.000    0.000 
#    0.000    0.000    0.000    0.000    0.000    0.000 
#
# Total GULP energy -396599.787934 kJ/mol
# GULP energy per Si atom -12393.743373 kJ/mol
# Density = 2.015840 g / cm^3
# Si number density = 20.204384 Si / 1000 Ang^3
#
#
#
# Elastic Constant Matrix: (Units=GPa)
#
#
# Indices 1 2 3 4 5 6 
#
# 1 98.4899 24.3482 12.7133 0.0000 0.0000 0.0000
# 2 24.3482 72.6596 -0.3480 0.0000 0.0000 0.0000
# 3 12.7133 -0.3480 61.1408 0.0000 0.0000 0.0000
# 4 0.0000 0.0000 0.0000 27.4636 0.0000 0.0000
# 5 0.0000 0.0000 0.0000 0.0000 19.9895 0.0000
# 6 0.0000 0.0000 0.0000 0.0000 0.0000 17.4885
#
#
#
# Elastic Compliance Matrix: (Units=1/GPa)
#
#
# Indices 1 2 3 4 5 6 
#
# 1 0.011411 -0.003835 -0.002394 0.000000 0.000000 0.000000
# 2 -0.003835 0.015052 0.000883 0.000000 0.000000 0.000000
# 3 -0.002394 0.000883 0.016859 0.000000 0.000000 0.000000
# 4 0.000000 0.000000 0.000000 0.036412 0.000000 0.000000
# 5 0.000000 0.000000 0.000000 0.000000 0.050026 0.000000
# 6 0.000000 0.000000 0.000000 0.000000 0.000000 0.057181
#
#
# Mechanical properties :
#
#
# Convention : Reuss Voigt Hill
#
# Bulk Modulus (GPa) = 30.64816 33.96858 32.30837
# Shear Modulus (GPa) = 23.97978 26.02678 25.00328
#
# Velocity S-wave (km/s) = 3.44882 3.59301 3.52165
# Velocity P-wave (km/s) = 5.57325 5.83626 5.70627
#
# Compressibility (1/GPa) = 0.03262839
#
# Stress axis : x y z
#
# Youngs Moduli (GPa) = 87.63855 66.43552 59.31690
#
# Poissons Ratio (x) = 0.25479 0.14203
# Poissons Ratio (y) = 0.33610 -0.05238
# Poissons Ratio (z) = 0.20985 -0.05867
#
# Static dielectric constant tensor:
#      x y z
#    x 3.618590 0.000000 0.000000 
#    y 0.000000 3.314070 0.000000 
#    z 0.000000 0.000000 3.721000 
# 
# 
# High freq. dielectric constant tensor:
#      x y z
#    x 1.778110 0.000000 0.000000 
#    y 0.000000 1.762450 0.000000 
#    z 0.000000 0.000000 1.798910 
# 
# From -- ./inp_files/6107.got.cif
#   From: 2010.03.12/outbox.cif.g09.slc.cpg/sg31_4_cif.got.tgz:6107.got - 2010.04.14 01:42:59.
