data_PCOD8170981
_publ_section_title
;
Structure prediction by ZEFSAII (Michael W. Deem and Ramdas Pophale) SiO2 
 PCOD8170981
Probable space group: P N A 21
;
_chemical_formula_sum "Si O2"
_cell_formula_units_Z 32
_cell_length_a 13.613955
_cell_length_b 10.956154
_cell_length_c 8.823728
_cell_angle_alpha 90.000000
_cell_angle_beta 90.000000
_cell_angle_gamma 90.000000
_cell_volume 1316.117158
_symmetry_space_group_name_H-M "P N A 21"
_symmetry_group_IT_number 33
_symmetry_cell_setting 'orthorhombic'
loop_
_space_group_symop_operation_xyz
x,y,z
-x,-y,1/2+z
1/2-x,1/2+y,1/2+z
1/2+x,1/2-y,z
loop_
_atom_site_type_symbol
_atom_site_label
_atom_site_fract_x
_atom_site_fract_y
_atom_site_fract_z
Si Si1 0.638683 0.578340 0.613010
Si Si2 0.896974 0.205295 0.837094
Si Si3 0.888791 0.464580 0.295592
Si Si4 0.200271 0.147141 0.425084
Si Si5 0.708738 0.469104 0.892651
Si Si6 0.302561 0.772434 0.216571
Si Si7 0.421880 0.535680 0.679793
Si Si8 0.564787 0.942936 0.458226
O O1 0.663180 0.689618 0.499222
O O2 0.692380 0.462661 0.543004
O O3 0.676847 0.585137 0.785934
O O4 0.520407 0.577537 0.600317
O O5 0.815229 0.232926 0.712829
O O6 0.968626 0.319920 0.864665
O O7 0.951432 0.083223 0.780838
O O8 0.808946 0.364824 0.350970
O O9 0.841675 0.599540 0.280286
O O10 0.979789 0.461283 0.414295
O O11 0.934958 0.421104 0.137262
O O12 0.175360 0.263121 0.534027
O O13 0.118859 0.140143 0.292900
O O14 0.663981 0.343195 0.821123
O O15 0.826064 0.476176 0.902352
O O16 0.662707 0.491831 0.057385
#
# Coordination Sequence:
#
# PCOD8170981 Si02
#       8
#     4   4   4   4   4   4   4   4
#     4  10  21  37  70  99 131 173 217 291 346 400
#     4  10  22  44  64  97 133 178 225 278 346 401
#     4  12  25  49  67  97 142 183 236 280 340 421
#     4  10  22  43  68 101 134 175 226 283 349 403
#     4  10  21  41  66 107 135 173 230 282 355 402
#     4  10  22  42  74  93 134 186 217 287 343 408
#     4  11  20  41  68 101 137 164 225 298 341 407
#     4  11  27  43  67  95 138 188 226 277 340 430
#
# _framework density 24.313942999999998
#
# number of rings (size 3 to 8) (size 9 to 14) (size 15 to 20)
#    0.000    1.500    3.750    1.500   10.500    0.000 
#    6.750    0.000    0.000    0.000    0.000    0.000 
#    0.000    0.000    0.000    0.000    0.000    0.000 
#
# Total GULP energy -396457.783025 kJ/mol
# GULP energy per Si atom -12389.305720 kJ/mol
# Density = 2.425860 g / cm^3
# Si number density = 24.313943 Si / 1000 Ang^3
#
#
#
# Elastic Constant Matrix: (Units=GPa)
#
#
# Indices 1 2 3 4 5 6 
#
# 1 81.2176 -3.2415 15.5595 0.0000 0.0000 0.0000
# 2 -3.2415 34.2918 0.1836 0.0000 0.0000 0.0000
# 3 15.5595 0.1836 111.8446 0.0000 0.0000 0.0000
# 4 0.0000 0.0000 0.0000 30.6739 0.0000 0.0000
# 5 0.0000 0.0000 0.0000 0.0000 42.7457 0.0000
# 6 0.0000 0.0000 0.0000 0.0000 0.0000 19.1490
#
#
#
# Elastic Compliance Matrix: (Units=1/GPa)
#
#
# Indices 1 2 3 4 5 6 
#
# 1 0.012700 0.001210 -0.001769 0.000000 0.000000 0.000000
# 2 0.001210 0.029277 -0.000216 0.000000 0.000000 0.000000
# 3 -0.001769 -0.000216 0.009187 0.000000 0.000000 0.000000
# 4 0.000000 0.000000 0.000000 0.032601 0.000000 0.000000
# 5 0.000000 0.000000 0.000000 0.000000 0.023394 0.000000
# 6 0.000000 0.000000 0.000000 0.000000 0.000000 0.052222
#
#
# Mechanical properties :
#
#
# Convention : Reuss Voigt Hill
#
# Bulk Modulus (GPa) = 20.15569 28.03969 24.09769
# Shear Modulus (GPa) = 28.17385 32.83723 30.50554
#
# Velocity S-wave (km/s) = 3.40774 3.67897 3.54595
# Velocity P-wave (km/s) = 4.87764 5.44094 5.16697
#
# Compressibility (1/GPa) = 0.04961379
#
# Stress axis : x y z
#
# Youngs Moduli (GPa) = 78.74173 34.15649 108.84482
#
# Poissons Ratio (x) = -0.04133 0.19252
# Poissons Ratio (y) = -0.09527 0.02355
# Poissons Ratio (z) = 0.13927 0.00739
#
# Static dielectric constant tensor:
#      x y z
#    x 4.104730 0.000000 0.000000 
#    y 0.000000 4.341630 0.000000 
#    z 0.000000 0.000000 4.736600 
# 
# 
# High freq. dielectric constant tensor:
#      x y z
#    x 1.955500 0.000000 0.000000 
#    y 0.000000 1.940480 0.000000 
#    z 0.000000 0.000000 1.985160 
# 
# From -- ./inp_files/4388.got.cif
#   From: 2010.03.12/outbox.cif.g09.slc.cpg/sg33_3_cif.got.tgz:4388.got - 2010.04.14 01:49:19.
