data_PCOD8170232
_publ_section_title
;
Structure prediction by ZEFSAII (Michael W. Deem and Ramdas Pophale) SiO2 
 PCOD8170232
Probable space group: P M N 21
;
_chemical_formula_sum "Si O2"
_cell_formula_units_Z 32
_cell_length_a 8.855399
_cell_length_b 12.086485
_cell_length_c 14.608738
_cell_angle_alpha 90.000000
_cell_angle_beta 90.000000
_cell_angle_gamma 90.000000
_cell_volume 1563.582683
_symmetry_space_group_name_H-M "P M N 21"
_symmetry_group_IT_number 31
_symmetry_cell_setting 'orthorhombic'
loop_
_space_group_symop_operation_xyz
x,y,z
1/2-x,-y,1/2+z
-x,y,z
1/2+x,-y,1/2+z
loop_
_atom_site_type_symbol
_atom_site_label
_atom_site_fract_x
_atom_site_fract_y
_atom_site_fract_z
Si Si1 0.673280 0.112951 0.206990
Si Si2 0.826281 0.716082 0.546490
Si Si3 0.827418 0.273150 0.342270
Si Si4 0.174297 0.273794 0.558244
Si Si5 0.322073 0.119871 0.699098
Si Si6 0.678914 0.734265 0.353157
Si Si7 0.831375 0.504206 0.060561
Si Si8 0.667043 0.490907 0.343180
O O1 0.500000 0.076030 0.220090
O O2 0.693995 0.183608 0.115729
O O3 0.722261 0.182673 0.295388
O O4 0.780710 0.008289 0.197187
O O5 0.748528 0.752978 0.452783
O O6 0.750306 0.608096 0.592522
O O7 0.000000 0.687918 0.526673
O O8 0.802426 0.261157 0.450270
O O9 0.781269 0.396552 0.308839
O O10 0.000000 0.253389 0.314019
O O11 0.263955 0.174522 0.605544
O O12 0.237733 0.390278 0.595778
O O13 0.000000 0.266651 0.586640
O O14 0.500000 0.134579 0.707063
O O15 0.243885 0.173684 0.786794
O O16 0.500000 0.746124 0.362174
O O17 0.720924 0.612930 0.311565
O O18 0.000000 0.508281 0.102086
O O19 0.837885 0.505290 0.951971
O O20 0.500000 0.462957 0.304892
#
# Coordination Sequence:
#
# PCOD8170232 Si02
#       8
#     4   4   4   4   4   4   4   4
#     4  11  25  43  61  82 114 155 198 244 290 343
#     4  10  21  38  61  89 120 155 195 240 292 348
#     4  10  21  37  61  90 119 152 191 239 289 341
#     4  10  21  39  62  88 120 155 192 239 295 350
#     4  12  26  42  61  85 114 151 199 248 290 345
#     4  10  21  39  63  89 120 156 192 237 292 348
#     4   9  17  32  57  89 121 153 192 237 289 349
#     4   8  16  32  56  86 118 151 187 228 281 346
#
# _framework density 20.465817999999999
#
# number of rings (size 3 to 8) (size 9 to 14) (size 15 to 20)
#    0.000    2.000    0.000    4.125    0.000    9.000 
#    0.000    2.500    0.000    0.000    0.000    0.000 
#    0.000    0.000    0.000    0.000    0.000    0.000 
#
# Total GULP energy -396889.408377 kJ/mol
# GULP energy per Si atom -12402.794012 kJ/mol
# Density = 2.041924 g / cm^3
# Si number density = 20.465818 Si / 1000 Ang^3
#
#
#
# Elastic Constant Matrix: (Units=GPa)
#
#
# Indices 1 2 3 4 5 6 
#
# 1 96.0310 40.7874 39.9742 0.0000 0.0000 0.0000
# 2 40.7874 119.0328 33.4730 0.0000 0.0000 0.0000
# 3 39.9742 33.4730 61.8090 0.0000 0.0000 0.0000
# 4 0.0000 0.0000 0.0000 32.0292 0.0000 0.0000
# 5 0.0000 0.0000 0.0000 0.0000 29.2558 0.0000
# 6 0.0000 0.0000 0.0000 0.0000 0.0000 41.0995
#
#
#
# Elastic Compliance Matrix: (Units=1/GPa)
#
#
# Indices 1 2 3 4 5 6 
#
# 1 0.015027 -0.002850 -0.008175 0.000000 0.000000 0.000000
# 2 -0.002850 0.010451 -0.003816 0.000000 0.000000 0.000000
# 3 -0.008175 -0.003816 0.023533 0.000000 0.000000 0.000000
# 4 0.000000 0.000000 0.000000 0.031221 0.000000 0.000000
# 5 0.000000 0.000000 0.000000 0.000000 0.034181 0.000000
# 6 0.000000 0.000000 0.000000 0.000000 0.000000 0.024331
#
#
# Mechanical properties :
#
#
# Convention : Reuss Voigt Hill
#
# Bulk Modulus (GPa) = 51.73996 56.14910 53.94453
# Shear Modulus (GPa) = 28.59275 31.31945 29.95610
#
# Velocity S-wave (km/s) = 3.74183 3.91619 3.83000
# Velocity P-wave (km/s) = 6.63359 6.92415 6.78042
#
# Compressibility (1/GPa) = 0.01932742
#
# Stress axis : x y z
#
# Youngs Moduli (GPa) = 66.54797 95.68562 42.49423
#
# Poissons Ratio (x) = 0.27272 0.34738
# Poissons Ratio (y) = 0.18967 0.16218
# Poissons Ratio (z) = 0.54402 0.36518
#
# Static dielectric constant tensor:
#      x y z
#    x 3.915260 0.000000 0.000000 
#    y 0.000000 3.810990 0.000000 
#    z 0.000000 0.000000 3.518680 
# 
# 
# High freq. dielectric constant tensor:
#      x y z
#    x 1.813350 0.000000 0.000000 
#    y 0.000000 1.801170 0.000000 
#    z 0.000000 0.000000 1.793720 
# 
# From -- ./inp_files/5005.got.cif
#   From: 2010.03.12/outbox.cif.g09.slc.cpg/sg31_3_cif.got.tgz:5005.got - 2010.04.14 01:42:59.
