data_PCOD8170978
_publ_section_title
;
Structure prediction by ZEFSAII (Michael W. Deem and Ramdas Pophale) SiO2 
 PCOD8170978
Probable space group: P N A 21
;
_chemical_formula_sum "Si O2"
_cell_formula_units_Z 32
_cell_length_a 14.571243
_cell_length_b 19.473831
_cell_length_c 5.163073
_cell_angle_alpha 90.000000
_cell_angle_beta 90.000000
_cell_angle_gamma 90.000000
_cell_volume 1465.062874
_symmetry_space_group_name_H-M "P N A 21"
_symmetry_group_IT_number 33
_symmetry_cell_setting 'orthorhombic'
loop_
_space_group_symop_operation_xyz
x,y,z
-x,-y,1/2+z
1/2-x,1/2+y,1/2+z
1/2+x,1/2-y,z
loop_
_atom_site_type_symbol
_atom_site_label
_atom_site_fract_x
_atom_site_fract_y
_atom_site_fract_z
Si Si1 0.601130 0.047809 0.090890
Si Si2 0.893638 0.459392 0.087896
Si Si3 0.741219 0.837378 0.595096
Si Si4 0.591640 0.661176 0.363588
Si Si5 0.791837 0.253364 0.585363
Si Si6 0.565109 0.397300 0.135605
Si Si7 0.741888 0.635437 0.745063
Si Si8 0.092988 0.951816 0.982629
O O1 0.495961 0.072248 0.067196
O O2 0.667610 0.114013 0.084270
O O3 0.618625 0.017138 0.373290
O O4 0.626012 0.993395 0.866858
O O5 0.821831 0.400893 0.018560
O O6 0.752845 0.790584 0.336755
O O7 0.839260 0.862232 0.706759
O O8 0.693405 0.803345 0.843551
O O9 0.606431 0.721002 0.149386
O O10 0.489384 0.661853 0.477063
O O11 0.673503 0.679095 0.562967
O O12 0.606374 0.582446 0.264020
O O13 0.732171 0.186663 0.485303
O O14 0.501792 0.418150 0.377863
O O15 0.585532 0.466438 0.973825
O O16 0.683903 0.567467 0.821437
#
# Coordination Sequence:
#
# PCOD8170978 Si02
#       8
#     4   4   4   4   4   4   4   4
#     4  10  22  41  70  97 127 159 221 275 343 396
#     4  10  23  43  64 100 130 162 210 285 339 391
#     4  12  26  43  68  96 139 180 225 274 331 399
#     4  10  22  44  65  92 134 177 216 277 328 401
#     4  11  25  47  61  92 133 183 233 261 310 405
#     4  11  23  38  67 105 136 173 216 283 350 418
#     4  10  22  41  70  91 129 179 218 278 323 397
#     4  10  21  37  65 103 136 163 217 273 360 409
#
# _framework density 21.842065000000002
#
# number of rings (size 3 to 8) (size 9 to 14) (size 15 to 20)
#    0.000    1.500    2.500    1.500    7.000    0.000 
#    4.500    0.000    0.000    0.000    0.000    0.000 
#    0.000    0.000    0.000    0.000    0.000    0.000 
#
# Total GULP energy -396504.683314 kJ/mol
# GULP energy per Si atom -12390.771354 kJ/mol
# Density = 2.179235 g / cm^3
# Si number density = 21.842065 Si / 1000 Ang^3
#
#
#
# Elastic Constant Matrix: (Units=GPa)
#
#
# Indices 1 2 3 4 5 6 
#
# 1 111.0936 43.8447 24.7747 0.0000 0.0000 0.0000
# 2 43.8447 73.1407 22.3585 0.0000 0.0000 0.0000
# 3 24.7747 22.3585 95.1523 0.0000 0.0000 0.0000
# 4 0.0000 0.0000 0.0000 29.0958 0.0000 0.0000
# 5 0.0000 0.0000 0.0000 0.0000 18.9923 0.0000
# 6 0.0000 0.0000 0.0000 0.0000 0.0000 17.5687
#
#
#
# Elastic Compliance Matrix: (Units=1/GPa)
#
#
# Indices 1 2 3 4 5 6 
#
# 1 0.011998 -0.006720 -0.001545 0.000000 0.000000 0.000000
# 2 -0.006720 0.018494 -0.002596 0.000000 0.000000 0.000000
# 3 -0.001545 -0.002596 0.011522 0.000000 0.000000 0.000000
# 4 0.000000 0.000000 0.000000 0.034369 0.000000 0.000000
# 5 0.000000 0.000000 0.000000 0.000000 0.052653 0.000000
# 6 0.000000 0.000000 0.000000 0.000000 0.000000 0.056919
#
#
# Mechanical properties :
#
#
# Convention : Reuss Voigt Hill
#
# Bulk Modulus (GPa) = 49.28018 51.26027 50.27022
# Shear Modulus (GPa) = 23.31638 25.69195 24.50417
#
# Velocity S-wave (km/s) = 3.27080 3.43339 3.35308
# Velocity P-wave (km/s) = 6.07250 6.26395 6.16897
#
# Compressibility (1/GPa) = 0.02029213
#
# Stress axis : x y z
#
# Youngs Moduli (GPa) = 83.34643 54.07082 86.79273
#
# Poissons Ratio (x) = 0.36336 0.13408
# Poissons Ratio (y) = 0.56010 0.22531
# Poissons Ratio (z) = 0.12876 0.14037
#
# Static dielectric constant tensor:
#      x y z
#    x 3.959730 0.000000 0.000000 
#    y 0.000000 3.804290 0.000000 
#    z 0.000000 0.000000 4.132740 
# 
# 
# High freq. dielectric constant tensor:
#      x y z
#    x 1.845210 0.000000 0.000000 
#    y 0.000000 1.845900 0.000000 
#    z 0.000000 0.000000 1.870020 
# 
# From -- ./inp_files/1524.got.cif
#   From: 2010.03.12/outbox.cif.g09.slc.cpg/sg33_1_cif.got.tgz:1524.got - 2010.04.14 01:49:19.
