data_PCOD8170543
_publ_section_title
;
Structure prediction by ZEFSAII (Michael W. Deem and Ramdas Pophale) SiO2 
 PCOD8170543
Probable space group: P B A 2
;
_chemical_formula_sum "Si O2"
_cell_formula_units_Z 32
_cell_length_a 17.867247
_cell_length_b 13.318596
_cell_length_c 6.903200
_cell_angle_alpha 90.000000
_cell_angle_beta 90.000000
_cell_angle_gamma 90.000000
_cell_volume 1642.731340
_symmetry_space_group_name_H-M "P B A 2"
_symmetry_group_IT_number 32
_symmetry_cell_setting 'orthorhombic'
loop_
_space_group_symop_operation_xyz
x,y,z
-x,-y,z
1/2-x,1/2+y,z
1/2+x,1/2-y,z
loop_
_atom_site_type_symbol
_atom_site_label
_atom_site_fract_x
_atom_site_fract_y
_atom_site_fract_z
Si Si1 0.332893 0.290749 0.129980
Si Si2 0.017737 0.614355 0.499751
Si Si3 0.938504 0.920484 0.495647
Si Si4 0.291309 0.453659 0.428187
Si Si5 0.579002 0.236754 0.778439
Si Si6 0.687934 0.867807 0.450688
Si Si7 0.005058 0.225469 0.178991
Si Si8 0.750048 0.711956 0.728148
O O1 0.301485 0.390409 0.232678
O O2 0.310636 0.192416 0.250210
O O3 0.421933 0.298925 0.105430
O O4 0.295826 0.279316 0.923617
O O5 0.105256 0.629249 0.539875
O O6 0.000000 0.500000 0.454486
O O7 0.974901 0.651472 0.691077
O O8 0.991530 0.676553 0.313292
O O9 0.860515 0.973681 0.459686
O O10 0.930565 0.840402 0.665687
O O11 0.964805 0.870040 0.296068
O O12 0.000000 0.000000 0.565964
O O13 0.216662 0.520174 0.407649
O O14 0.284485 0.380718 0.611060
O O15 0.662874 0.194652 0.768171
O O16 0.559743 0.254720 0.001103
O O17 0.741067 0.814550 0.607691
#
# Coordination Sequence:
#
# PCOD8170543 Si02
#       8
#     4   4   4   4   4   4   4   4
#     4  10  23  40  61  90 125 163 200 258 307 371
#     4  10  22  42  66  87 122 164 211 253 305 366
#     4  11  23  41  64  92 125 164 209 254 314 373
#     4  11  23  41  64  90 123 163 206 254 311 373
#     4  11  24  40  65  93 126 168 207 261 306 378
#     4  10  22  42  61  87 124 162 197 254 310 364
#     4  10  23  40  63  92 125 161 208 254 313 366
#     4  11  24  39  61  92 126 158 207 251 314 368
#
# _framework density 19.479751
#
# number of rings (size 3 to 8) (size 9 to 14) (size 15 to 20)
#    0.000    1.500    2.500    1.500    5.250    5.000 
#    0.000    2.500    0.000    0.000    0.000    0.000 
#    0.000    0.000    0.000    0.000    0.000    0.000 
#
# Total GULP energy -397001.354277 kJ/mol
# GULP energy per Si atom -12406.292321 kJ/mol
# Density = 1.943541 g / cm^3
# Si number density = 19.479751 Si / 1000 Ang^3
#
#
#
# Elastic Constant Matrix: (Units=GPa)
#
#
# Indices 1 2 3 4 5 6 
#
# 1 90.2197 27.2665 34.2822 0.0000 0.0000 0.0000
# 2 27.2665 104.3619 27.6398 0.0000 0.0000 0.0000
# 3 34.2822 27.6398 86.0325 0.0000 0.0000 0.0000
# 4 0.0000 0.0000 0.0000 0.3106 0.0000 0.0000
# 5 0.0000 0.0000 0.0000 0.0000 26.7856 0.0000
# 6 0.0000 0.0000 0.0000 0.0000 0.0000 42.5687
#
#
#
# Elastic Compliance Matrix: (Units=1/GPa)
#
#
# Indices 1 2 3 4 5 6 
#
# 1 0.013552 -0.002307 -0.004659 0.000000 0.000000 0.000000
# 2 -0.002307 0.010866 -0.002572 0.000000 0.000000 0.000000
# 3 -0.004659 -0.002572 0.014306 0.000000 0.000000 0.000000
# 4 0.000000 0.000000 0.000000 3.219569 0.000000 0.000000
# 5 0.000000 0.000000 0.000000 0.000000 0.037334 0.000000
# 6 0.000000 0.000000 0.000000 0.000000 0.000000 0.023491
#
#
# Mechanical properties :
#
#
# Convention : Reuss Voigt Hill
#
# Bulk Modulus (GPa) = 50.89344 50.99900 50.94622
# Shear Modulus (GPa) = 1.49488 26.69468 14.09478
#
# Velocity S-wave (km/s) = 0.87697 3.70588 2.69283
# Velocity P-wave (km/s) = 5.21617 6.67449 5.98988
#
# Compressibility (1/GPa) = 0.01964890
#
# Stress axis : x y z
#
# Youngs Moduli (GPa) = 73.79245 92.03175 69.89961
#
# Poissons Ratio (x) = 0.21229 0.32566
# Poissons Ratio (y) = 0.17022 0.17976
# Poissons Ratio (z) = 0.34379 0.23668
#
# Static dielectric constant tensor:
#      x y z
#    x 3.907640 0.000000 0.000000 
#    y 0.000000 3.994720 0.000000 
#    z 0.000000 0.000000 3.428930 
# 
# 
# High freq. dielectric constant tensor:
#      x y z
#    x 1.776000 0.000000 0.000000 
#    y 0.000000 1.767360 0.000000 
#    z 0.000000 0.000000 1.754980 
# 
# From -- ./inp_files/1475.got.cif
#   From: 2010.03.12/outbox.cif.g09.slc.cpg/sg32_1_cif.got.tgz:1475.got - 2010.04.14 01:46:39.
