data_PCOD8170477
_publ_section_title
;
Structure prediction by ZEFSAII (Michael W. Deem and Ramdas Pophale) SiO2 
 PCOD8170477
Probable space group: P B A 2
;
_chemical_formula_sum "Si O2"
_cell_formula_units_Z 20
_cell_length_a 9.396335
_cell_length_b 11.244607
_cell_length_c 8.171142
_cell_angle_alpha 90.000000
_cell_angle_beta 90.000000
_cell_angle_gamma 90.000000
_cell_volume 863.347292
_symmetry_space_group_name_H-M "P B A 2"
_symmetry_group_IT_number 32
_symmetry_cell_setting 'orthorhombic'
loop_
_space_group_symop_operation_xyz
x,y,z
-x,-y,z
1/2-x,1/2+y,z
1/2+x,1/2-y,z
loop_
_atom_site_type_symbol
_atom_site_label
_atom_site_fract_x
_atom_site_fract_y
_atom_site_fract_z
Si Si1 0.023828 0.141230 0.962820
Si Si2 0.555360 0.270037 0.604882
Si Si3 0.616434 0.913369 0.441801
Si Si4 0.281097 0.250767 0.152166
Si Si5 0.200631 0.878393 0.451407
O O1 0.076233 0.178456 0.784569
O O2 0.139972 0.184785 0.093590
O O3 0.000000 0.000000 0.975279
O O4 0.879340 0.214258 0.998468
O O5 0.457274 0.151692 0.597687
O O6 0.711744 0.234851 0.534409
O O7 0.466950 0.366130 0.494221
O O8 0.643263 0.828208 0.289503
O O9 0.500000 0.000000 0.365133
O O10 0.751072 0.990076 0.510462
O O11 0.260425 0.373163 0.256835
#
# Coordination Sequence:
#
# PCOD8170477 Si02
#       5
#     4   4   4   4   4
#     4  12  26  42  62  95 132 166 202 257 319 369
#     4  10  22  38  59  87 122 157 203 249 300 370
#     4   9  19  39  65  89 116 161 211 256 305 363
#     4  11  23  41  65  93 126 161 210 259 308 376
#     4  10  20  40  64  88 118 161 208 255 303 362
#
# _framework density 23.165649999999999
#
# number of rings (size 3 to 8) (size 9 to 14) (size 15 to 20)
#    0.000    1.600    0.000    6.000    0.000    4.800 
#    0.000   17.000    0.000    0.000    0.000    0.000 
#    0.000    0.000    0.000    0.000    0.000    0.000 
#
# Total GULP energy -247764.817181 kJ/mol
# GULP energy per Si atom -12388.240859 kJ/mol
# Density = 2.311292 g / cm^3
# Si number density = 23.165650 Si / 1000 Ang^3
#
#
#
# Elastic Constant Matrix: (Units=GPa)
#
#
# Indices 1 2 3 4 5 6 
#
# 1 78.9549 -2.0901 13.2298 0.0000 0.0000 0.0000
# 2 -2.0901 64.8574 4.0380 0.0000 0.0000 0.0000
# 3 13.2298 4.0380 103.1016 0.0000 0.0000 0.0000
# 4 0.0000 0.0000 0.0000 26.7345 0.0000 0.0000
# 5 0.0000 0.0000 0.0000 0.0000 33.5485 0.0000
# 6 0.0000 0.0000 0.0000 0.0000 0.0000 21.6774
#
#
#
# Elastic Compliance Matrix: (Units=1/GPa)
#
#
# Indices 1 2 3 4 5 6 
#
# 1 0.012961 0.000523 -0.001684 0.000000 0.000000 0.000000
# 2 0.000523 0.015477 -0.000673 0.000000 0.000000 0.000000
# 3 -0.001684 -0.000673 0.009942 0.000000 0.000000 0.000000
# 4 0.000000 0.000000 0.000000 0.037405 0.000000 0.000000
# 5 0.000000 0.000000 0.000000 0.000000 0.029808 0.000000
# 6 0.000000 0.000000 0.000000 0.000000 0.000000 0.046131
#
#
# Mechanical properties :
#
#
# Convention : Reuss Voigt Hill
#
# Bulk Modulus (GPa) = 28.80891 30.80771 29.80831
# Shear Modulus (GPa) = 29.94678 31.84114 30.89396
#
# Velocity S-wave (km/s) = 3.59935 3.71144 3.65583
# Velocity P-wave (km/s) = 5.45314 5.62976 5.54215
#
# Compressibility (1/GPa) = 0.03471148
#
# Stress axis : x y z
#
# Youngs Moduli (GPa) = 77.15213 64.61117 100.58758
#
# Poissons Ratio (x) = -0.03376 0.16935
# Poissons Ratio (y) = -0.04031 0.06772
# Poissons Ratio (z) = 0.12990 0.04350
#
# Static dielectric constant tensor:
#      x y z
#    x 4.397770 0.000000 0.000000 
#    y 0.000000 4.676820 0.000000 
#    z 0.000000 0.000000 3.927840 
# 
# 
# High freq. dielectric constant tensor:
#      x y z
#    x 1.933940 0.000000 0.000000 
#    y 0.000000 1.933190 0.000000 
#    z 0.000000 0.000000 1.889580 
# 
# From -- ./inp_files/2190.got.cif
#   From: 2010.03.12/outbox.cif.g09.slc.cpg/sg32_2_cif.got.tgz:2190.got - 2010.04.14 01:46:39.
