data_PCOD8170058
_publ_section_title
;
Structure prediction by ZEFSAII (Michael W. Deem and Ramdas Pophale) SiO2 
 PCOD8170058
Probable space group: P M N 21
;
_chemical_formula_sum "Si O2"
_cell_formula_units_Z 24
_cell_length_a 8.901505
_cell_length_b 15.203022
_cell_length_c 9.291910
_cell_angle_alpha 90.000000
_cell_angle_beta 90.000000
_cell_angle_gamma 90.000000
_cell_volume 1257.472102
_symmetry_space_group_name_H-M "P M N 21"
_symmetry_group_IT_number 31
_symmetry_cell_setting 'orthorhombic'
loop_
_space_group_symop_operation_xyz
x,y,z
1/2-x,-y,1/2+z
-x,y,z
1/2+x,-y,1/2+z
loop_
_atom_site_type_symbol
_atom_site_label
_atom_site_fract_x
_atom_site_fract_y
_atom_site_fract_z
Si Si1 0.675253 0.404236 0.090440
Si Si2 0.174273 0.278255 0.585400
Si Si3 0.827189 0.081872 0.599309
Si Si4 0.825870 0.924647 0.804997
Si Si5 0.178362 0.253714 0.264003
Si Si6 0.676145 0.569556 0.287729
O O1 0.500000 0.386080 0.074641
O O2 0.755203 0.315363 0.140905
O O3 0.709656 0.479161 0.206502
O O4 0.738166 0.434580 0.937664
O O5 0.204149 0.181678 0.652307
O O6 0.239400 0.282799 0.422354
O O7 0.245835 0.351251 0.690504
O O8 0.000000 0.300505 0.573830
O O9 0.719495 0.058329 0.468387
O O10 0.000000 0.074147 0.547582
O O11 0.788345 0.015752 0.726430
O O12 0.731994 0.845633 0.733303
O O13 0.000000 0.900022 0.794479
O O14 0.000000 0.256423 0.256440
O O15 0.500000 0.583586 0.317105
#
# Coordination Sequence:
#
# PCOD8170058 Si02
#       6
#     4   4   4   4   4   4
#     4  11  23  37  55  83 114 142 180 226 268 319
#     4   8  16  34  57  78 102 139 184 221 261 322
#     4   9  19  35  54  78 110 146 182 222 271 326
#     4  10  20  34  54  82 113 144 184 230 271 319
#     4  10  20  37  59  79 106 146 186 226 278 329
#     4  10  21  37  57  80 109 145 180 217 267 325
#
# _framework density 19.085909999999998
#
# number of rings (size 3 to 8) (size 9 to 14) (size 15 to 20)
#    0.000    2.333    0.000    3.500    0.000    5.333 
#    0.000    5.833    0.000    0.000    0.000    0.000 
#    0.000    0.000    0.000    0.000    0.000    0.000 
#
# Total GULP energy -297617.088089 kJ/mol
# GULP energy per Si atom -12400.712004 kJ/mol
# Density = 1.904247 g / cm^3
# Si number density = 19.085910 Si / 1000 Ang^3
#
#
#
# Elastic Constant Matrix: (Units=GPa)
#
#
# Indices 1 2 3 4 5 6 
#
# 1 64.3096 30.3793 30.6811 0.0000 0.0000 0.0000
# 2 30.3793 72.0944 18.8040 0.0000 0.0000 0.0000
# 3 30.6811 18.8040 62.3709 0.0000 0.0000 0.0000
# 4 0.0000 0.0000 0.0000 38.8409 0.0000 0.0000
# 5 0.0000 0.0000 0.0000 0.0000 30.5223 0.0000
# 6 0.0000 0.0000 0.0000 0.0000 0.0000 25.3667
#
#
#
# Elastic Compliance Matrix: (Units=1/GPa)
#
#
# Indices 1 2 3 4 5 6 
#
# 1 0.023532 -0.007485 -0.009319 0.000000 0.000000 0.000000
# 2 -0.007485 0.017436 -0.001575 0.000000 0.000000 0.000000
# 3 -0.009319 -0.001575 0.021092 0.000000 0.000000 0.000000
# 4 0.000000 0.000000 0.000000 0.025746 0.000000 0.000000
# 5 0.000000 0.000000 0.000000 0.000000 0.032763 0.000000
# 6 0.000000 0.000000 0.000000 0.000000 0.000000 0.039422
#
#
# Mechanical properties :
#
#
# Convention : Reuss Voigt Hill
#
# Bulk Modulus (GPa) = 39.52272 39.83374 39.67823
# Shear Modulus (GPa) = 24.36876 26.87333 25.62104
#
# Velocity S-wave (km/s) = 3.57710 3.75643 3.66786
# Velocity P-wave (km/s) = 6.14928 6.30321 6.22672
#
# Compressibility (1/GPa) = 0.02530190
#
# Stress axis : x y z
#
# Youngs Moduli (GPa) = 42.49613 57.35424 47.41161
#
# Poissons Ratio (x) = 0.42931 0.44182
# Poissons Ratio (y) = 0.31809 0.07465
# Poissons Ratio (z) = 0.39601 0.09031
#
# Static dielectric constant tensor:
#      x y z
#    x 3.355270 0.000000 0.000000 
#    y 0.000000 3.662980 0.000000 
#    z 0.000000 0.000000 3.472050 
# 
# 
# High freq. dielectric constant tensor:
#      x y z
#    x 1.729540 0.000000 0.000000 
#    y 0.000000 1.755540 0.000000 
#    z 0.000000 0.000000 1.736600 
# 
# From -- ./inp_files/1665.got.cif
#   From: 2010.03.12/outbox.cif.g09.slc.cpg/sg31_1_cif.got.tgz:1665.got - 2010.04.14 01:42:59.
