data_PCOD8170667
_publ_section_title
;
Structure prediction by ZEFSAII (Michael W. Deem and Ramdas Pophale) SiO2 
 PCOD8170667
Probable space group: P N A 21
;
_chemical_formula_sum "Si O2"
_cell_formula_units_Z 28
_cell_length_a 9.967217
_cell_length_b 11.980872
_cell_length_c 11.523817
_cell_angle_alpha 90.000000
_cell_angle_beta 90.000000
_cell_angle_gamma 90.000000
_cell_volume 1376.127567
_symmetry_space_group_name_H-M "P N A 21"
_symmetry_group_IT_number 33
_symmetry_cell_setting 'orthorhombic'
loop_
_space_group_symop_operation_xyz
x,y,z
-x,-y,1/2+z
1/2-x,1/2+y,1/2+z
1/2+x,1/2-y,z
loop_
_atom_site_type_symbol
_atom_site_label
_atom_site_fract_x
_atom_site_fract_y
_atom_site_fract_z
Si Si1 0.479096 0.549839 0.187330
Si Si2 0.500836 0.128714 0.065671
Si Si3 0.766612 0.834186 0.836431
Si Si4 0.215561 0.060723 0.090130
Si Si5 0.772836 0.014314 0.016265
Si Si6 0.492333 0.665965 0.423648
Si Si7 0.534533 0.699745 0.777340
O O1 0.626316 0.548935 0.123883
O O2 0.482338 0.643523 0.286340
O O3 0.446570 0.426644 0.236521
O O4 0.354800 0.571317 0.099875
O O5 0.373908 0.041907 0.061221
O O6 0.485940 0.214108 0.171916
O O7 0.640305 0.062204 0.078536
O O8 0.500894 0.201160 0.946529
O O9 0.788011 0.856642 0.699493
O O10 0.662065 0.734972 0.853808
O O11 0.914499 0.792118 0.872172
O O12 0.722846 0.945102 0.904550
O O13 0.142747 0.118970 0.981854
O O14 0.872981 0.112277 0.977071
#
# Coordination Sequence:
#
# PCOD8170667 Si02
#       7
#     4   4   4   4   4   4   4
#     4  10  20  36  60  83 116 153 189 230 298 354
#     4  11  20  35  63  87 114 146 203 249 280 329
#     4  10  19  36  59  87 112 147 194 240 287 339
#     4   9  19  35  55  88 108 142 195 238 279 338
#     4  11  21  37  59  86 116 153 191 241 290 351
#     4  11  19  35  61  87 113 151 193 235 291 352
#     4  10  18  34  59  88 107 146 193 241 279 339
#
# _framework density 20.346948999999999
#
# number of rings (size 3 to 8) (size 9 to 14) (size 15 to 20)
#    0.000    1.714    7.143    1.714    0.000    0.000 
#    7.714    0.000    9.429    0.000    0.000    0.000 
#    0.000    0.000    0.000    0.000    0.000    0.000 
#
# Total GULP energy -346894.633907 kJ/mol
# GULP energy per Si atom -12389.094068 kJ/mol
# Density = 2.030064 g / cm^3
# Si number density = 20.346949 Si / 1000 Ang^3
#
#
#
# Elastic Constant Matrix: (Units=GPa)
#
#
# Indices 1 2 3 4 5 6 
#
# 1 124.4117 15.9646 26.4729 0.0000 0.0000 0.0000
# 2 15.9646 37.2042 19.5741 0.0000 0.0000 0.0000
# 3 26.4729 19.5741 64.5573 0.0000 0.0000 0.0000
# 4 0.0000 0.0000 0.0000 22.4306 0.0000 0.0000
# 5 0.0000 0.0000 0.0000 0.0000 15.2008 0.0000
# 6 0.0000 0.0000 0.0000 0.0000 0.0000 19.9697
#
#
#
# Elastic Compliance Matrix: (Units=1/GPa)
#
#
# Indices 1 2 3 4 5 6 
#
# 1 0.008965 -0.002276 -0.002986 0.000000 0.000000 0.000000
# 2 -0.002276 0.032558 -0.008938 0.000000 0.000000 0.000000
# 3 -0.002986 -0.008938 0.019425 0.000000 0.000000 0.000000
# 4 0.000000 0.000000 0.000000 0.044582 0.000000 0.000000
# 5 0.000000 0.000000 0.000000 0.000000 0.065786 0.000000
# 6 0.000000 0.000000 0.000000 0.000000 0.000000 0.050076
#
#
# Mechanical properties :
#
#
# Convention : Reuss Voigt Hill
#
# Bulk Modulus (GPa) = 30.72495 38.91070 34.81782
# Shear Modulus (GPa) = 19.18339 22.46434 20.82386
#
# Velocity S-wave (km/s) = 3.07386 3.32635 3.20259
# Velocity P-wave (km/s) = 5.26607 5.82391 5.55200
#
# Compressibility (1/GPa) = 0.03254684
#
# Stress axis : x y z
#
# Youngs Moduli (GPa) = 111.54087 30.71438 51.48025
#
# Poissons Ratio (x) = 0.06990 0.15374
# Poissons Ratio (y) = 0.25385 0.46016
# Poissons Ratio (z) = 0.33310 0.27454
#
# Static dielectric constant tensor:
#      x y z
#    x 4.434650 0.000000 0.000000 
#    y 0.000000 3.241730 0.000000 
#    z 0.000000 0.000000 3.681260 
# 
# 
# High freq. dielectric constant tensor:
#      x y z
#    x 1.817710 0.000000 0.000000 
#    y 0.000000 1.741290 0.000000 
#    z 0.000000 0.000000 1.772860 
# 
# From -- ./inp_files/6437.got.cif
#   From: 2010.03.12/outbox.cif.g09.slc.cpg/sg33_4_cif.got.tgz:6437.got - 2010.04.14 01:49:19.
