data_PCOD8170803
_publ_section_title
;
Structure prediction by ZEFSAII (Michael W. Deem and Ramdas Pophale) SiO2 
 PCOD8170803
Probable space group: P N A 21
;
_chemical_formula_sum "Si O2"
_cell_formula_units_Z 32
_cell_length_a 4.964773
_cell_length_b 15.438770
_cell_length_c 24.866142
_cell_angle_alpha 90.000000
_cell_angle_beta 90.000000
_cell_angle_gamma 90.000000
_cell_volume 1905.989497
_symmetry_space_group_name_H-M "P N A 21"
_symmetry_group_IT_number 33
_symmetry_cell_setting 'orthorhombic'
loop_
_space_group_symop_operation_xyz
x,y,z
-x,-y,1/2+z
1/2-x,1/2+y,1/2+z
1/2+x,1/2-y,z
loop_
_atom_site_type_symbol
_atom_site_label
_atom_site_fract_x
_atom_site_fract_y
_atom_site_fract_z
Si Si1 0.730513 0.307741 0.489330
Si Si2 0.351135 0.692441 0.672806
Si Si3 0.339338 0.572180 0.891377
Si Si4 0.339338 0.572180 0.576348
Si Si5 0.370114 0.024039 0.927352
Si Si6 0.351135 0.692441 0.794919
Si Si7 0.129886 0.524039 0.040373
Si Si8 0.230514 0.192259 0.978395
O O1 0.426489 0.274153 0.494495
O O2 0.767736 0.352570 0.431151
O O3 0.791012 0.374587 0.538323
O O4 0.555115 0.770909 0.661302
O O5 0.407789 0.611098 0.634481
O O6 0.383613 0.658877 0.733863
O O7 0.603258 0.530960 0.917237
O O8 0.407789 0.611098 0.833244
O O9 0.101852 0.500027 0.883821
O O10 0.603258 0.530960 0.550488
O O11 0.232264 0.647430 0.536574
O O12 0.101852 0.500027 0.583904
O O13 0.291012 0.125413 0.929403
O O14 0.500000 1.000000 0.983863
O O15 0.555115 0.770909 0.806423
O O16 0.426489 0.274153 0.973231
#
# Coordination Sequence:
#
# PCOD8170803 Si02
#       8
#     4   4   4   4   4   4   4   4
#     4  11  19  29  45  66  92 122 156 187 224 274
#     4  10  20  33  49  72  99 126 161 199 229 268
#     4  11  19  32  48  66  95 130 158 186 235 279
#     4  11  19  32  48  66  95 130 158 186 235 279
#     4  10  20  32  45  66  94 124 158 196 230 275
#     4  10  20  33  49  72  99 126 161 199 229 268
#     4  10  20  32  45  66  94 124 158 196 230 275
#     4  11  19  29  45  66  92 122 156 187 224 274
#
# _framework density 16.789180999999999
#
# number of rings (size 3 to 8) (size 9 to 14) (size 15 to 20)
#    0.000    1.500    0.000   10.500    0.000    0.000 
#    0.000    0.000    0.000    0.000    0.000    0.000 
#    0.000   20.000    0.000    0.000    0.000    0.000 
#
# Total GULP energy -396784.724667 kJ/mol
# GULP energy per Si atom -12399.522646 kJ/mol
# Density = 1.675097 g / cm^3
# Si number density = 16.789181 Si / 1000 Ang^3
#
#
#
# Elastic Constant Matrix: (Units=GPa)
#
#
# Indices 1 2 3 4 5 6 
#
# 1 99.0579 33.1465 25.2872 0.0000 0.0000 0.0000
# 2 33.1465 78.7675 49.0406 0.0000 0.0000 0.0000
# 3 25.2872 49.0406 74.5546 0.0000 0.0000 0.0000
# 4 0.0000 0.0000 0.0000 24.9242 0.0000 0.0000
# 5 0.0000 0.0000 0.0000 0.0000 17.9801 0.0000
# 6 0.0000 0.0000 0.0000 0.0000 0.0000 39.7836
#
#
#
# Elastic Compliance Matrix: (Units=1/GPa)
#
#
# Indices 1 2 3 4 5 6 
#
# 1 0.011818 -0.004196 -0.001248 0.000000 0.000000 0.000000
# 2 -0.004196 0.022991 -0.013700 0.000000 0.000000 0.000000
# 3 -0.001248 -0.013700 0.022848 0.000000 0.000000 0.000000
# 4 0.000000 0.000000 0.000000 0.040122 0.000000 0.000000
# 5 0.000000 0.000000 0.000000 0.000000 0.055617 0.000000
# 6 0.000000 0.000000 0.000000 0.000000 0.000000 0.025136
#
#
# Mechanical properties :
#
#
# Convention : Reuss Voigt Hill
#
# Bulk Modulus (GPa) = 51.63039 51.92540 51.77789
# Shear Modulus (GPa) = 22.39393 26.19799 24.29596
#
# Velocity S-wave (km/s) = 3.65613 3.95449 3.80823
# Velocity P-wave (km/s) = 6.97438 7.20039 7.08829
#
# Compressibility (1/GPa) = 0.01936844
#
# Stress axis : x y z
#
# Youngs Moduli (GPa) = 84.61824 43.49583 43.76784
#
# Poissons Ratio (x) = 0.18250 0.05464
# Poissons Ratio (y) = 0.35505 0.59961
# Poissons Ratio (z) = 0.10563 0.59588
#
# Static dielectric constant tensor:
#      x y z
#    x 3.470080 0.000000 0.000000 
#    y 0.000000 3.349170 0.000000 
#    z 0.000000 0.000000 3.000720 
# 
# 
# High freq. dielectric constant tensor:
#      x y z
#    x 1.677550 0.000000 0.000000 
#    y 0.000000 1.634670 0.000000 
#    z 0.000000 0.000000 1.602550 
# 
# From -- ./inp_files/9214.got.cif
#   From: 2010.03.12/outbox.cif.g09.slc.cpg/sg33_5_cif.got.tgz:9214.got - 2010.04.14 01:49:19.
