data_PCOD8170118
_publ_section_title
;
Structure prediction by ZEFSAII (Michael W. Deem and Ramdas Pophale) SiO2 
 PCOD8170118
Probable space group: P M N 21
;
_chemical_formula_sum "Si O2"
_cell_formula_units_Z 28
_cell_length_a 10.250084
_cell_length_b 5.204481
_cell_length_c 27.699405
_cell_angle_alpha 90.000000
_cell_angle_beta 90.000000
_cell_angle_gamma 90.000000
_cell_volume 1477.662637
_symmetry_space_group_name_H-M "P M N 21"
_symmetry_group_IT_number 31
_symmetry_cell_setting 'orthorhombic'
loop_
_space_group_symop_operation_xyz
x,y,z
1/2-x,-y,1/2+z
-x,y,z
1/2+x,-y,1/2+z
loop_
_atom_site_type_symbol
_atom_site_label
_atom_site_fract_x
_atom_site_fract_y
_atom_site_fract_z
Si Si1 0.228456 0.514414 0.689420
Si Si2 0.843949 0.989022 0.943100
Si Si3 0.846955 0.483963 0.000672
Si Si4 0.640119 0.974761 0.145719
Si Si5 0.151680 0.956969 0.353975
Si Si6 0.852614 0.685851 0.101180
Si Si7 0.148702 0.460420 0.292766
O O1 0.133992 0.271319 0.681541
O O2 0.346772 0.486251 0.650016
O O3 0.270742 0.513705 0.744302
O O4 0.156020 0.778520 0.679064
O O5 0.795945 0.217504 0.978472
O O6 0.756799 0.008469 0.895741
O O7 0.000000 0.004416 0.931421
O O8 0.803539 0.722378 0.967729
O O9 0.000000 0.469717 0.002360
O O10 0.797657 0.523590 0.055620
O O11 0.500000 0.993659 0.118789
O O12 0.757886 0.935508 0.107146
O O13 0.186669 0.686205 0.329527
O O14 0.000000 0.961361 0.372206
O O15 0.175753 0.185022 0.316237
O O16 0.000000 0.784507 0.092099
O O17 0.000000 0.490268 0.277236
#
# Coordination Sequence:
#
# PCOD8170118 Si02
#       7
#     4   4   4   4   4   4   4
#     4  10  21  36  60  82 114 151 195 220 279 336
#     4  10  20  37  57  79 111 145 181 229 284 332
#     4   9  19  34  57  84 111 142 182 233 279 323
#     4  10  22  38  55  78 118 158 185 224 281 329
#     4  10  21  37  58  81 111 142 182 234 284 331
#     4   9  21  36  60  89 113 147 197 237 276 333
#     4  10  20  36  57  85 112 143 182 235 285 324
#
# _framework density 18.948844000000001
#
# number of rings (size 3 to 8) (size 9 to 14) (size 15 to 20)
#    0.857    1.429    0.000    2.571    2.000    1.143 
#    0.000    5.714    0.000    0.000    0.000    0.000 
#    0.000    0.000    0.000    0.000    0.000    0.000 
#
# Total GULP energy -346917.380192 kJ/mol
# GULP energy per Si atom -12389.906435 kJ/mol
# Density = 1.890572 g / cm^3
# Si number density = 18.948844 Si / 1000 Ang^3
#
#
#
# Elastic Constant Matrix: (Units=GPa)
#
#
# Indices 1 2 3 4 5 6 
#
# 1 77.1976 5.5543 29.3603 0.0000 0.0000 0.0000
# 2 5.5543 90.5071 -3.5745 0.0000 0.0000 0.0000
# 3 29.3603 -3.5745 72.9122 0.0000 0.0000 0.0000
# 4 0.0000 0.0000 0.0000 18.7167 0.0000 0.0000
# 5 0.0000 0.0000 0.0000 0.0000 36.3651 0.0000
# 6 0.0000 0.0000 0.0000 0.0000 0.0000 24.5641
#
#
#
# Elastic Compliance Matrix: (Units=1/GPa)
#
#
# Indices 1 2 3 4 5 6 
#
# 1 0.015424 -0.001194 -0.006270 0.000000 0.000000 0.000000
# 2 -0.001194 0.011163 0.001028 0.000000 0.000000 0.000000
# 3 -0.006270 0.001028 0.016290 0.000000 0.000000 0.000000
# 4 0.000000 0.000000 0.000000 0.053428 0.000000 0.000000
# 5 0.000000 0.000000 0.000000 0.000000 0.027499 0.000000
# 6 0.000000 0.000000 0.000000 0.000000 0.000000 0.040710
#
#
# Mechanical properties :
#
#
# Convention : Reuss Voigt Hill
#
# Bulk Modulus (GPa) = 33.32683 33.69968 33.51326
# Shear Modulus (GPa) = 26.68274 29.88098 28.28186
#
# Velocity S-wave (km/s) = 3.75660 3.97536 3.86753
# Velocity P-wave (km/s) = 6.03672 6.23655 6.13745
#
# Compressibility (1/GPa) = 0.03000586
#
# Stress axis : x y z
#
# Youngs Moduli (GPa) = 64.83330 89.58372 61.38680
#
# Poissons Ratio (x) = 0.10698 0.38487
# Poissons Ratio (y) = 0.07742 -0.06311
# Poissons Ratio (z) = 0.40648 -0.09210
#
# Static dielectric constant tensor:
#      x y z
#    x 2.989120 0.000000 0.000000 
#    y 0.000000 4.387390 0.000000 
#    z 0.000000 0.000000 3.442830 
# 
# 
# High freq. dielectric constant tensor:
#      x y z
#    x 1.714890 0.000000 0.000000 
#    y 0.000000 1.752490 0.000000 
#    z 0.000000 0.000000 1.728000 
# 
# From -- ./inp_files/6308.got.cif
#   From: 2010.03.12/outbox.cif.g09.slc.cpg/sg31_4_cif.got.tgz:6308.got - 2010.04.14 01:42:59.
