data_PCOD8170717
_publ_section_title
;
Structure prediction by ZEFSAII (Michael W. Deem and Ramdas Pophale) SiO2 
 PCOD8170717
Probable space group: P N A 21
;
_chemical_formula_sum "Si O2"
_cell_formula_units_Z 32
_cell_length_a 10.387998
_cell_length_b 16.580153
_cell_length_c 9.428009
_cell_angle_alpha 90.000000
_cell_angle_beta 90.000000
_cell_angle_gamma 90.000000
_cell_volume 1623.829323
_symmetry_space_group_name_H-M "P N A 21"
_symmetry_group_IT_number 33
_symmetry_cell_setting 'orthorhombic'
loop_
_space_group_symop_operation_xyz
x,y,z
-x,-y,1/2+z
1/2-x,1/2+y,1/2+z
1/2+x,1/2-y,z
loop_
_atom_site_type_symbol
_atom_site_label
_atom_site_fract_x
_atom_site_fract_y
_atom_site_fract_z
Si Si1 0.392127 0.925206 0.762550
Si Si2 0.010008 0.973252 0.579065
Si Si3 0.586969 0.409067 0.361603
Si Si4 0.553490 0.248833 0.236819
Si Si5 0.796190 0.283714 0.053138
Si Si6 0.670944 0.986910 0.768503
Si Si7 0.245218 0.387136 0.984237
Si Si8 0.742117 0.955513 0.463283
O O1 0.396362 0.832013 0.817840
O O2 0.524594 0.967680 0.802089
O O3 0.366948 0.913552 0.594531
O O4 0.286204 0.984858 0.831152
O O5 0.972624 0.971993 0.744845
O O6 0.894167 0.946181 0.477111
O O7 0.121047 0.908924 0.556894
O O8 0.056775 0.060804 0.521560
O O9 0.525385 0.319664 0.350964
O O10 0.741490 0.414225 0.332920
O O11 0.669529 0.292029 0.151021
O O12 0.426618 0.228844 0.144577
O O13 0.760101 0.207892 0.953764
O O14 0.815462 0.364029 0.956562
O O15 0.685170 0.999381 0.601352
O O16 0.714208 0.071296 0.836352
#
# Coordination Sequence:
#
# PCOD8170717 Si02
#       8
#     4   4   4   4   4   4   4   4
#     4  11  22  34  59  88 112 153 192 236 289 355
#     4  10  19  35  55  85 109 148 191 233 283 337
#     4  10  19  35  59  80 114 148 189 242 278 338
#     4  11  20  36  58  88 113 148 199 234 284 338
#     4  11  20  36  59  87 111 152 194 240 274 346
#     4  10  20  37  54  82 119 151 185 237 295 342
#     4  10  21  35  62  82 113 155 196 229 287 346
#     4  11  21  36  58  84 119 145 190 245 290 338
#
# _framework density 19.706506000000001
#
# number of rings (size 3 to 8) (size 9 to 14) (size 15 to 20)
#    0.000    1.500    5.000    1.500    3.500    0.000 
#    0.000    0.000    8.250    3.000    0.000    0.000 
#    0.000    0.000    0.000    0.000    0.000    0.000 
#
# Total GULP energy -396427.548455 kJ/mol
# GULP energy per Si atom -12388.360889 kJ/mol
# Density = 1.966165 g / cm^3
# Si number density = 19.706506 Si / 1000 Ang^3
#
#
#
# Elastic Constant Matrix: (Units=GPa)
#
#
# Indices 1 2 3 4 5 6 
#
# 1 88.1518 9.4297 1.2464 0.0000 0.0000 0.0000
# 2 9.4297 132.5172 36.6257 0.0000 0.0000 0.0000
# 3 1.2464 36.6257 42.5451 0.0000 0.0000 0.0000
# 4 0.0000 0.0000 0.0000 32.8973 0.0000 0.0000
# 5 0.0000 0.0000 0.0000 0.0000 20.2525 0.0000
# 6 0.0000 0.0000 0.0000 0.0000 0.0000 18.7342
#
#
#
# Elastic Compliance Matrix: (Units=1/GPa)
#
#
# Indices 1 2 3 4 5 6 
#
# 1 0.011439 -0.000947 0.000480 0.000000 0.000000 0.000000
# 2 -0.000947 0.009981 -0.008564 0.000000 0.000000 0.000000
# 3 0.000480 -0.008564 0.030863 0.000000 0.000000 0.000000
# 4 0.000000 0.000000 0.000000 0.030398 0.000000 0.000000
# 5 0.000000 0.000000 0.000000 0.000000 0.049377 0.000000
# 6 0.000000 0.000000 0.000000 0.000000 0.000000 0.053378
#
#
# Mechanical properties :
#
#
# Convention : Reuss Voigt Hill
#
# Bulk Modulus (GPa) = 29.22254 39.75752 34.49003
# Shear Modulus (GPa) = 23.26624 28.77094 26.01859
#
# Velocity S-wave (km/s) = 3.43977 3.82510 3.63754
# Velocity P-wave (km/s) = 5.53508 6.30295 5.93145
#
# Compressibility (1/GPa) = 0.03422016
#
# Stress axis : x y z
#
# Youngs Moduli (GPa) = 87.42375 100.19475 32.40119
#
# Poissons Ratio (x) = 0.09484 -0.01554
# Poissons Ratio (y) = 0.08275 0.27749
# Poissons Ratio (z) = -0.04194 0.85809
#
# Static dielectric constant tensor:
#      x y z
#    x 3.854060 0.000000 0.000000 
#    y 0.000000 3.804870 0.000000 
#    z 0.000000 0.000000 3.235030 
# 
# 
# High freq. dielectric constant tensor:
#      x y z
#    x 1.791240 0.000000 0.000000 
#    y 0.000000 1.770510 0.000000 
#    z 0.000000 0.000000 1.718270 
# 
# From -- ./inp_files/4096.got.cif
#   From: 2010.03.12/outbox.cif.g09.slc.cpg/sg33_3_cif.got.tgz:4096.got - 2010.04.14 01:49:19.
