data_PCOD8170656
_publ_section_title
;
Structure prediction by ZEFSAII (Michael W. Deem and Ramdas Pophale) SiO2 
 PCOD8170656
Probable space group: P N A 21
;
_chemical_formula_sum "Si O2"
_cell_formula_units_Z 28
_cell_length_a 25.236649
_cell_length_b 13.047968
_cell_length_c 5.084069
_cell_angle_alpha 90.000000
_cell_angle_beta 90.000000
_cell_angle_gamma 90.000000
_cell_volume 1674.117771
_symmetry_space_group_name_H-M "P N A 21"
_symmetry_group_IT_number 33
_symmetry_cell_setting 'orthorhombic'
loop_
_space_group_symop_operation_xyz
x,y,z
-x,-y,1/2+z
1/2-x,1/2+y,1/2+z
1/2+x,1/2-y,z
loop_
_atom_site_type_symbol
_atom_site_label
_atom_site_fract_x
_atom_site_fract_y
_atom_site_fract_z
Si Si1 0.688667 0.756134 0.328710
Si Si2 0.247202 0.049663 0.798663
Si Si3 0.579316 0.459648 0.351621
Si Si4 0.809773 0.877011 0.791362
Si Si5 0.526916 0.624315 0.656052
Si Si6 0.920039 0.173590 0.665163
Si Si7 0.746050 0.682129 0.821259
O O1 0.703186 0.875959 0.361060
O O2 0.627935 0.748903 0.236924
O O3 0.698769 0.699432 0.607841
O O4 0.725264 0.702386 0.113013
O O5 0.227474 0.069833 0.505001
O O6 0.267459 0.933352 0.810496
O O7 0.200293 0.068709 0.010358
O O8 0.629780 0.386647 0.391275
O O9 0.554790 0.510805 0.619711
O O10 0.534612 0.390811 0.214068
O O11 0.598998 0.554525 0.169789
O O12 0.795465 0.756877 0.760770
O O13 0.533721 0.687896 0.384992
O O14 0.555600 0.693022 0.878690
#
# Coordination Sequence:
#
# PCOD8170656 Si02
#       7
#     4   4   4   4   4   4   4
#     4  10  20  31  49  69  95 124 165 188 239 280
#     4  10  20  34  47  71  97 127 156 204 223 286
#     4  10  19  31  44  68  97 123 153 194 234 293
#     4  10  22  29  52  69  94 132 160 182 251 280
#     4  10  20  28  45  66  97 120 156 189 242 273
#     4  10  18  29  44  67  88 126 149 191 231 284
#     4  10  19  34  45  72  94 124 161 198 228 290
#
# _framework density 16.725228999999999
#
# number of rings (size 3 to 8) (size 9 to 14) (size 15 to 20)
#    0.857    1.143    1.429    3.429    4.000    0.000 
#    0.000    0.000    0.000    0.000    0.000    2.000 
#    0.000    0.000    0.000    0.000    0.000    0.000 
#
# Total GULP energy -346999.901684 kJ/mol
# GULP energy per Si atom -12392.853632 kJ/mol
# Density = 1.668716 g / cm^3
# Si number density = 16.725229 Si / 1000 Ang^3
#
#
#
# Elastic Constant Matrix: (Units=GPa)
#
#
# Indices 1 2 3 4 5 6 
#
# 1 70.8436 22.2749 4.2340 0.0000 0.0000 0.0000
# 2 22.2749 90.8156 14.1493 0.0000 0.0000 0.0000
# 3 4.2340 14.1493 78.9308 0.0000 0.0000 0.0000
# 4 0.0000 0.0000 0.0000 15.3216 0.0000 0.0000
# 5 0.0000 0.0000 0.0000 0.0000 19.0855 0.0000
# 6 0.0000 0.0000 0.0000 0.0000 0.0000 20.7131
#
#
#
# Elastic Compliance Matrix: (Units=1/GPa)
#
#
# Indices 1 2 3 4 5 6 
#
# 1 0.015297 -0.003728 -0.000152 0.000000 0.000000 0.000000
# 2 -0.003728 0.012236 -0.001994 0.000000 0.000000 0.000000
# 3 -0.000152 -0.001994 0.013035 0.000000 0.000000 0.000000
# 4 0.000000 0.000000 0.000000 0.065267 0.000000 0.000000
# 5 0.000000 0.000000 0.000000 0.000000 0.052396 0.000000
# 6 0.000000 0.000000 0.000000 0.000000 0.000000 0.048279
#
#
# Mechanical properties :
#
#
# Convention : Reuss Voigt Hill
#
# Bulk Modulus (GPa) = 34.69793 35.76737 35.23265
# Shear Modulus (GPa) = 21.94285 24.35282 23.14783
#
# Velocity S-wave (km/s) = 3.62603 3.81997 3.72426
# Velocity P-wave (km/s) = 6.19045 6.39436 6.29323
#
# Compressibility (1/GPa) = 0.02882017
#
# Stress axis : x y z
#
# Youngs Moduli (GPa) = 65.37246 81.72350 76.71734
#
# Poissons Ratio (x) = 0.30469 0.01168
# Poissons Ratio (y) = 0.24373 0.15294
# Poissons Ratio (z) = 0.00995 0.16292
#
# Static dielectric constant tensor:
#      x y z
#    x 2.859640 0.000000 0.000000 
#    y 0.000000 2.961670 0.000000 
#    z 0.000000 0.000000 3.316180 
# 
# 
# High freq. dielectric constant tensor:
#      x y z
#    x 1.619860 0.000000 0.000000 
#    y 0.000000 1.604390 0.000000 
#    z 0.000000 0.000000 1.665720 
# 
# From -- ./inp_files/2106.got.cif
#   From: 2010.03.12/outbox.cif.g09.slc.cpg/sg33_2_cif.got.tgz:2106.got - 2010.04.14 01:49:19.
