data_PCOD8170771
_publ_section_title
;
Structure prediction by ZEFSAII (Michael W. Deem and Ramdas Pophale) SiO2 
 PCOD8170771
Probable space group: P N A 21
;
_chemical_formula_sum "Si O2"
_cell_formula_units_Z 28
_cell_length_a 13.995228
_cell_length_b 9.276433
_cell_length_c 11.079799
_cell_angle_alpha 90.000000
_cell_angle_beta 90.000000
_cell_angle_gamma 90.000000
_cell_volume 1438.443712
_symmetry_space_group_name_H-M "P N A 21"
_symmetry_group_IT_number 33
_symmetry_cell_setting 'orthorhombic'
loop_
_space_group_symop_operation_xyz
x,y,z
-x,-y,1/2+z
1/2-x,1/2+y,1/2+z
1/2+x,1/2-y,z
loop_
_atom_site_type_symbol
_atom_site_label
_atom_site_fract_x
_atom_site_fract_y
_atom_site_fract_z
Si Si1 0.779876 0.209585 0.935630
Si Si2 0.858428 0.975155 0.096619
Si Si3 0.442630 0.273488 0.240183
Si Si4 0.306755 0.070185 0.126406
Si Si5 0.548517 0.625217 0.005098
Si Si6 0.384053 0.675747 0.571014
Si Si7 0.726420 0.723573 0.154717
O O1 0.796528 0.212800 0.794933
O O2 0.830654 0.350259 0.998151
O O3 0.667062 0.211601 0.977717
O O4 0.831436 0.063375 0.976737
O O5 0.767917 0.880824 0.132458
O O6 0.948628 0.870433 0.076457
O O7 0.878935 0.089100 0.202923
O O8 0.380596 0.126859 0.227407
O O9 0.469950 0.295417 0.378623
O O10 0.534678 0.253711 0.153754
O O11 0.197663 0.115194 0.162700
O O12 0.305835 0.896827 0.116685
O O13 0.575814 0.456478 0.990189
O O14 0.629034 0.709918 0.079473
#
# Coordination Sequence:
#
# PCOD8170771 Si02
#       7
#     4   4   4   4   4   4   4
#     4   9  20  40  61  85 119 159 200 249 301 365
#     4  10  23  37  62  91 114 161 212 237 314 358
#     4  10  19  38  62  86 118 157 210 248 301 372
#     4   8  20  38  57  87 112 164 192 247 313 342
#     4  10  22  35  63  89 118 158 204 254 301 363
#     4   8  18  38  56  85 117 157 202 244 310 350
#     4  11  22  40  59  87 128 152 204 255 306 362
#
# _framework density 19.465484
#
# number of rings (size 3 to 8) (size 9 to 14) (size 15 to 20)
#    0.857    1.714    0.000    0.857    8.000    0.000 
#    5.143    0.000    0.000    0.000    0.000    0.000 
#    0.000    0.000    0.000    0.000    0.000    0.000 
#
# Total GULP energy -346940.563047 kJ/mol
# GULP energy per Si atom -12390.734395 kJ/mol
# Density = 1.942118 g / cm^3
# Si number density = 19.465484 Si / 1000 Ang^3
#
#
#
# Elastic Constant Matrix: (Units=GPa)
#
#
# Indices 1 2 3 4 5 6 
#
# 1 70.7871 7.1905 8.7562 0.0000 0.0000 0.0000
# 2 7.1905 42.8762 11.0485 0.0000 0.0000 0.0000
# 3 8.7562 11.0485 83.4778 0.0000 0.0000 0.0000
# 4 0.0000 0.0000 0.0000 17.0586 0.0000 0.0000
# 5 0.0000 0.0000 0.0000 0.0000 22.7556 0.0000
# 6 0.0000 0.0000 0.0000 0.0000 0.0000 35.7309
#
#
#
# Elastic Compliance Matrix: (Units=1/GPa)
#
#
# Indices 1 2 3 4 5 6 
#
# 1 0.014495 -0.002111 -0.001241 0.000000 0.000000 0.000000
# 2 -0.002111 0.024454 -0.003015 0.000000 0.000000 0.000000
# 3 -0.001241 -0.003015 0.012508 0.000000 0.000000 0.000000
# 4 0.000000 0.000000 0.000000 0.058622 0.000000 0.000000
# 5 0.000000 0.000000 0.000000 0.000000 0.043945 0.000000
# 6 0.000000 0.000000 0.000000 0.000000 0.000000 0.027987
#
#
# Mechanical properties :
#
#
# Convention : Reuss Voigt Hill
#
# Bulk Modulus (GPa) = 25.82449 27.90350 26.86399
# Shear Modulus (GPa) = 24.07864 26.45208 25.26536
#
# Velocity S-wave (km/s) = 3.52091 3.69036 3.60663
# Velocity P-wave (km/s) = 5.46119 5.70301 5.58341
#
# Compressibility (1/GPa) = 0.03872293
#
# Stress axis : x y z
#
# Youngs Moduli (GPa) = 68.99017 40.89318 79.94591
#
# Poissons Ratio (x) = 0.08633 0.09921
# Poissons Ratio (y) = 0.14564 0.24105
# Poissons Ratio (z) = 0.08562 0.12330
#
# Static dielectric constant tensor:
#      x y z
#    x 3.569490 0.000000 0.000000 
#    y 0.000000 3.508580 0.000000 
#    z 0.000000 0.000000 3.253790 
# 
# 
# High freq. dielectric constant tensor:
#      x y z
#    x 1.755990 0.000000 0.000000 
#    y 0.000000 1.741840 0.000000 
#    z 0.000000 0.000000 1.739230 
# 
# From -- ./inp_files/6751.got.cif
#   From: 2010.03.12/outbox.cif.g09.slc.cpg/sg33_4_cif.got.tgz:6751.got - 2010.04.14 01:49:19.
