data_PCOD8170835
_publ_section_title
;
Structure prediction by ZEFSAII (Michael W. Deem and Ramdas Pophale) SiO2 
 PCOD8170835
Probable space group: P N A 21
;
_chemical_formula_sum "Si O2"
_cell_formula_units_Z 32
_cell_length_a 10.769598
_cell_length_b 11.729078
_cell_length_c 12.461388
_cell_angle_alpha 90.000000
_cell_angle_beta 90.000000
_cell_angle_gamma 90.000000
_cell_volume 1574.090818
_symmetry_space_group_name_H-M "P N A 21"
_symmetry_group_IT_number 33
_symmetry_cell_setting 'orthorhombic'
loop_
_space_group_symop_operation_xyz
x,y,z
-x,-y,1/2+z
1/2-x,1/2+y,1/2+z
1/2+x,1/2-y,z
loop_
_atom_site_type_symbol
_atom_site_label
_atom_site_fract_x
_atom_site_fract_y
_atom_site_fract_z
Si Si1 0.861985 0.791605 0.781320
Si Si2 0.061132 0.189306 0.044514
Si Si3 0.062496 0.843429 0.965148
Si Si4 0.824515 0.530944 0.729244
Si Si5 0.745514 0.959299 0.442838
Si Si6 0.493355 0.952556 0.532441
Si Si7 0.881662 0.996874 0.068943
Si Si8 0.827552 0.386856 0.430423
O O1 0.897029 0.840418 0.665613
O O2 0.849003 0.656481 0.774466
O O3 0.727741 0.845534 0.815832
O O4 0.969425 0.823620 0.865447
O O5 0.170403 0.150571 0.964983
O O6 0.038020 0.320156 0.020299
O O7 0.937107 0.115909 0.024131
O O8 0.125352 0.723775 0.997602
O O9 0.173361 0.927025 0.932344
O O10 0.989742 0.899193 0.067367
O O11 0.826816 0.443211 0.829281
O O12 0.929290 0.498705 0.641057
O O13 0.684101 0.519639 0.682320
O O14 0.641459 0.970241 0.536473
O O15 0.441860 0.023353 0.428308
O O16 0.779444 0.956117 0.987168
#
# Coordination Sequence:
#
# PCOD8170835 Si02
#       8
#     4   4   4   4   4   4   4   4
#     4  10  20  35  67  93 118 150 216 264 301 357
#     4  10  23  38  61  91 123 167 201 260 314 372
#     4  10  20  37  62  97 122 157 200 262 313 364
#     4  10  20  40  63  92 118 165 205 264 300 366
#     4  11  22  39  62  88 126 161 204 259 315 364
#     4  10  24  37  62  90 126 158 211 256 311 370
#     4   9  21  38  60  89 127 157 204 254 315 366
#     4  10  20  36  63  92 120 157 205 261 305 367
#
# _framework density 20.329196
#
# number of rings (size 3 to 8) (size 9 to 14) (size 15 to 20)
#    0.000    2.000    1.250    1.500    7.000    2.000 
#    0.000    2.500   11.000    0.000    0.000    0.000 
#    0.000    0.000    0.000    0.000    0.000    0.000 
#
# Total GULP energy -396516.802968 kJ/mol
# GULP energy per Si atom -12391.150093 kJ/mol
# Density = 2.028293 g / cm^3
# Si number density = 20.329196 Si / 1000 Ang^3
#
#
#
# Elastic Constant Matrix: (Units=GPa)
#
#
# Indices 1 2 3 4 5 6 
#
# 1 105.6408 38.8892 39.8009 0.0000 0.0000 0.0000
# 2 38.8892 103.5371 38.6652 0.0000 0.0000 0.0000
# 3 39.8009 38.6652 71.6661 0.0000 0.0000 0.0000
# 4 0.0000 0.0000 0.0000 26.6849 0.0000 0.0000
# 5 0.0000 0.0000 0.0000 0.0000 29.6240 0.0000
# 6 0.0000 0.0000 0.0000 0.0000 0.0000 39.0710
#
#
#
# Elastic Compliance Matrix: (Units=1/GPa)
#
#
# Indices 1 2 3 4 5 6 
#
# 1 0.012521 -0.002637 -0.005531 0.000000 0.000000 0.000000
# 2 -0.002637 0.012651 -0.005361 0.000000 0.000000 0.000000
# 3 -0.005531 -0.005361 0.019917 0.000000 0.000000 0.000000
# 4 0.000000 0.000000 0.000000 0.037474 0.000000 0.000000
# 5 0.000000 0.000000 0.000000 0.000000 0.033756 0.000000
# 6 0.000000 0.000000 0.000000 0.000000 0.000000 0.025594
#
#
# Mechanical properties :
#
#
# Convention : Reuss Voigt Hill
#
# Bulk Modulus (GPa) = 55.45869 57.28384 56.37126
# Shear Modulus (GPa) = 28.57439 29.97523 29.27481
#
# Velocity S-wave (km/s) = 3.75318 3.84408 3.79890
# Velocity P-wave (km/s) = 6.79127 6.92401 6.85796
#
# Compressibility (1/GPa) = 0.01803144
#
# Stress axis : x y z
#
# Youngs Moduli (GPa) = 79.86804 79.04570 50.20777
#
# Poissons Ratio (x) = 0.20848 0.27768
# Poissons Ratio (y) = 0.21065 0.26914
# Poissons Ratio (z) = 0.44172 0.42373
#
# Static dielectric constant tensor:
#      x y z
#    x 4.251410 0.000000 0.000000 
#    y 0.000000 3.841910 0.000000 
#    z 0.000000 0.000000 3.737110 
# 
# 
# High freq. dielectric constant tensor:
#      x y z
#    x 1.818210 0.000000 0.000000 
#    y 0.000000 1.790890 0.000000 
#    z 0.000000 0.000000 1.764910 
# 
# From -- ./inp_files/6480.got.cif
#   From: 2010.03.12/outbox.cif.g09.slc.cpg/sg33_4_cif.got.tgz:6480.got - 2010.04.14 01:49:19.
