data_PCOD8170631
_publ_section_title
;
Structure prediction by ZEFSAII (Michael W. Deem and Ramdas Pophale) SiO2 
 PCOD8170631
Probable space group: P B A 2
;
_chemical_formula_sum "Si O2"
_cell_formula_units_Z 18
_cell_length_a 8.186765
_cell_length_b 9.657093
_cell_length_c 8.713422
_cell_angle_alpha 90.000000
_cell_angle_beta 90.000000
_cell_angle_gamma 90.000000
_cell_volume 688.886202
_symmetry_space_group_name_H-M "P B A 2"
_symmetry_group_IT_number 32
_symmetry_cell_setting 'orthorhombic'
loop_
_space_group_symop_operation_xyz
x,y,z
-x,-y,z
1/2-x,1/2+y,z
1/2+x,1/2-y,z
loop_
_atom_site_type_symbol
_atom_site_label
_atom_site_fract_x
_atom_site_fract_y
_atom_site_fract_z
Si Si1 0.823124 0.568245 0.549560
Si Si2 0.500000 0.500000 0.680060
Si Si3 0.062394 0.267849 0.832228
Si Si4 0.161782 0.911200 0.239885
Si Si5 0.318020 0.148767 0.050429
O O1 0.669022 0.466493 0.587425
O O2 0.767169 0.635203 0.388730
O O3 0.000000 0.500000 0.527776
O O4 0.837170 0.677886 0.686894
O O5 0.541867 0.634012 0.780662
O O6 0.937920 0.380884 0.904787
O O7 0.159903 0.217115 0.979005
O O8 0.280699 0.003020 0.131596
O O9 0.108720 0.765273 0.165532
O O10 0.000000 0.000000 0.281418
#
# Coordination Sequence:
#
# PCOD8170631 Si02
#       5
#     4   2   4   4   4
#     4  12  30  48  80 119 163 215 278 333 423 492
#     4  12  26  52  78 114 168 204 272 342 408 478
#     4  12  26  49  82 113 158 211 278 340 405 500
#     4  12  29  53  78 117 169 219 269 350 418 501
#     4  12  27  49  82 115 160 213 279 334 418 491
#
# _framework density 26.129135000000002
#
# number of rings (size 3 to 8) (size 9 to 14) (size 15 to 20)
#    0.000    0.000    5.556    2.667    9.333    0.000 
#    0.000    0.000    0.000    0.000    0.000    0.000 
#    0.000    0.000    0.000    0.000    0.000    0.000 
#
# Total GULP energy -223013.157492 kJ/mol
# GULP energy per Si atom -12389.619861 kJ/mol
# Density = 2.606966 g / cm^3
# Si number density = 26.129135 Si / 1000 Ang^3
#
#
#
# Elastic Constant Matrix: (Units=GPa)
#
#
# Indices 1 2 3 4 5 6 
#
# 1 140.7496 12.2939 49.8476 0.0000 0.0000 0.0000
# 2 12.2939 94.3968 43.5829 0.0000 0.0000 0.0000
# 3 49.8476 43.5829 156.6395 0.0000 0.0000 0.0000
# 4 0.0000 0.0000 0.0000 34.3698 0.0000 0.0000
# 5 0.0000 0.0000 0.0000 0.0000 43.0839 0.0000
# 6 0.0000 0.0000 0.0000 0.0000 0.0000 33.7801
#
#
#
# Elastic Compliance Matrix: (Units=1/GPa)
#
#
# Indices 1 2 3 4 5 6 
#
# 1 0.008009 0.000153 -0.002591 0.000000 0.000000 0.000000
# 2 0.000153 0.012158 -0.003432 0.000000 0.000000 0.000000
# 3 -0.002591 -0.003432 0.008164 0.000000 0.000000 0.000000
# 4 0.000000 0.000000 0.000000 0.029095 0.000000 0.000000
# 5 0.000000 0.000000 0.000000 0.000000 0.023211 0.000000
# 6 0.000000 0.000000 0.000000 0.000000 0.000000 0.029603
#
#
# Mechanical properties :
#
#
# Convention : Reuss Voigt Hill
#
# Bulk Modulus (GPa) = 60.27227 67.02609 63.64918
# Shear Modulus (GPa) = 39.21275 41.31755 40.26515
#
# Velocity S-wave (km/s) = 3.87813 3.98085 3.92982
# Velocity P-wave (km/s) = 6.57041 6.84376 6.70848
#
# Compressibility (1/GPa) = 0.01659138
#
# Stress axis : x y z
#
# Youngs Moduli (GPa) = 124.85634 82.25056 122.49546
#
# Poissons Ratio (x) = -0.01262 0.31744
# Poissons Ratio (y) = -0.01915 0.42036
# Poissons Ratio (z) = 0.32356 0.28225
#
# Static dielectric constant tensor:
#      x y z
#    x 4.853140 0.000000 0.000000 
#    y 0.000000 4.134030 0.000000 
#    z 0.000000 0.000000 4.963960 
# 
# 
# High freq. dielectric constant tensor:
#      x y z
#    x 2.068380 0.000000 0.000000 
#    y 0.000000 2.023670 0.000000 
#    z 0.000000 0.000000 2.058020 
# 
# From -- ./inp_files/2169.got.cif
#   From: 2010.03.12/outbox.cif.g09.slc.cpg/sg32_2_cif.got.tgz:2169.got - 2010.04.14 01:46:39.
