data_PCOD8170522
_publ_section_title
;
Structure prediction by ZEFSAII (Michael W. Deem and Ramdas Pophale) SiO2 
 PCOD8170522
Probable space group: P B A 2
;
_chemical_formula_sum "Si O2"
_cell_formula_units_Z 30
_cell_length_a 19.264766
_cell_length_b 14.096884
_cell_length_c 6.286405
_cell_angle_alpha 90.000000
_cell_angle_beta 90.000000
_cell_angle_gamma 90.000000
_cell_volume 1707.218944
_symmetry_space_group_name_H-M "P B A 2"
_symmetry_group_IT_number 32
_symmetry_cell_setting 'orthorhombic'
loop_
_space_group_symop_operation_xyz
x,y,z
-x,-y,z
1/2-x,1/2+y,z
1/2+x,1/2-y,z
loop_
_atom_site_type_symbol
_atom_site_label
_atom_site_fract_x
_atom_site_fract_y
_atom_site_fract_z
Si Si1 0.396688 0.513709 0.998740
Si Si2 0.625170 0.664872 0.272157
Si Si3 0.500000 0.500000 0.663366
Si Si4 0.031889 0.149589 0.320354
Si Si5 0.672450 0.266307 0.369206
Si Si6 0.278288 0.585285 0.708888
Si Si7 0.272576 0.239010 0.987189
Si Si8 0.761758 0.126104 0.610514
O O1 0.438192 0.459686 0.811173
O O2 0.335563 0.572093 0.890543
O O3 0.366877 0.437600 0.162770
O O4 0.449033 0.586079 0.115990
O O5 0.544875 0.693919 0.299578
O O6 0.659272 0.748879 0.132918
O O7 0.665847 0.653891 0.494918
O O8 0.467189 0.583712 0.527083
O O9 0.088622 0.233006 0.348263
O O10 0.693988 0.358793 0.503918
O O11 0.705202 0.272851 0.135568
O O12 0.696472 0.169773 0.483414
O O13 0.248292 0.486173 0.624329
O O14 0.219525 0.649178 0.827642
O O15 0.263748 0.334472 0.849242
#
# Coordination Sequence:
#
# PCOD8170522 Si02
#       8
#     4   4   2   4   4   4   4   4
#     4  12  20  31  53  84 116 149 174 215 289 357
#     4  11  21  34  51  82 117 146 185 225 286 348
#     4  12  20  30  48  84 118 146 176 202 288 364
#     4  12  21  32  51  80 117 152 177 221 283 353
#     4  10  22  36  53  84 112 145 191 229 281 343
#     4  11  20  35  58  77 113 149 184 233 278 332
#     4  10  22  36  53  81 112 144 192 232 275 334
#     4  10  22  37  55  81 111 150 191 232 277 331
#
# _framework density 17.572438999999999
#
# number of rings (size 3 to 8) (size 9 to 14) (size 15 to 20)
#    0.000    1.067    6.667    1.600    0.000    0.000 
#    0.000    0.000    0.000    0.000    0.000   22.400 
#    0.000    0.000    0.000    0.000    0.000    0.000 
#
# Total GULP energy -371901.981213 kJ/mol
# GULP energy per Si atom -12396.732707 kJ/mol
# Density = 1.753244 g / cm^3
# Si number density = 17.572439 Si / 1000 Ang^3
#
#
#
# Elastic Constant Matrix: (Units=GPa)
#
#
# Indices 1 2 3 4 5 6 
#
# 1 106.9154 40.0332 37.1370 0.0000 0.0000 0.0000
# 2 40.0332 85.0986 26.9034 0.0000 0.0000 0.0000
# 3 37.1370 26.9034 85.5123 0.0000 0.0000 0.0000
# 4 0.0000 0.0000 0.0000 34.0677 0.0000 0.0000
# 5 0.0000 0.0000 0.0000 0.0000 33.6981 0.0000
# 6 0.0000 0.0000 0.0000 0.0000 0.0000 28.2592
#
#
#
# Elastic Compliance Matrix: (Units=1/GPa)
#
#
# Indices 1 2 3 4 5 6 
#
# 1 0.012453 -0.004607 -0.003959 0.000000 0.000000 0.000000
# 2 -0.004607 0.014753 -0.002641 0.000000 0.000000 0.000000
# 3 -0.003959 -0.002641 0.014244 0.000000 0.000000 0.000000
# 4 0.000000 0.000000 0.000000 0.029353 0.000000 0.000000
# 5 0.000000 0.000000 0.000000 0.000000 0.029675 0.000000
# 6 0.000000 0.000000 0.000000 0.000000 0.000000 0.035387
#
#
# Mechanical properties :
#
#
# Convention : Reuss Voigt Hill
#
# Bulk Modulus (GPa) = 52.52771 53.96373 53.24572
# Shear Modulus (GPa) = 30.37200 30.76852 30.57026
#
# Velocity S-wave (km/s) = 4.16190 4.18898 4.17546
# Velocity P-wave (km/s) = 7.28369 7.36021 7.32205
#
# Compressibility (1/GPa) = 0.01903757
#
# Stress axis : x y z
#
# Youngs Moduli (GPa) = 80.30002 67.78202 70.20303
#
# Poissons Ratio (x) = 0.31226 0.27793
# Poissons Ratio (y) = 0.36993 0.18540
# Poissons Ratio (z) = 0.31790 0.17900
#
# Static dielectric constant tensor:
#      x y z
#    x 3.309970 0.000000 0.000000 
#    y 0.000000 3.096200 0.000000 
#    z 0.000000 0.000000 3.543320 
# 
# 
# High freq. dielectric constant tensor:
#      x y z
#    x 1.665610 0.000000 0.000000 
#    y 0.000000 1.647230 0.000000 
#    z 0.000000 0.000000 1.708790 
# 
# From -- ./inp_files/1322.got.cif
#   From: 2010.03.12/outbox.cif.g09.slc.cpg/sg32_1_cif.got.tgz:1322.got - 2010.04.14 01:46:39.
