data_PCOD8170917
_publ_section_title
;
Structure prediction by ZEFSAII (Michael W. Deem and Ramdas Pophale) SiO2 
 PCOD8170917
Probable space group: P N A 21
;
_chemical_formula_sum "Si O2"
_cell_formula_units_Z 32
_cell_length_a 11.552156
_cell_length_b 15.575360
_cell_length_c 8.460327
_cell_angle_alpha 90.000000
_cell_angle_beta 90.000000
_cell_angle_gamma 90.000000
_cell_volume 1522.258079
_symmetry_space_group_name_H-M "P N A 21"
_symmetry_group_IT_number 33
_symmetry_cell_setting 'orthorhombic'
loop_
_space_group_symop_operation_xyz
x,y,z
-x,-y,1/2+z
1/2-x,1/2+y,1/2+z
1/2+x,1/2-y,z
loop_
_atom_site_type_symbol
_atom_site_label
_atom_site_fract_x
_atom_site_fract_y
_atom_site_fract_z
Si Si1 0.084474 0.871206 0.795430
Si Si2 0.641919 0.834853 0.301531
Si Si3 0.818668 0.858061 0.711416
Si Si4 0.377552 0.196831 0.439295
Si Si5 0.429238 0.921105 0.465294
Si Si6 0.232618 0.801447 0.514828
Si Si7 0.044900 0.429028 0.329956
Si Si8 0.268539 0.516448 0.434740
O O1 0.128487 0.798882 0.917958
O O2 0.143793 0.852610 0.626450
O O3 0.947129 0.869223 0.777530
O O4 0.122097 0.962962 0.868493
O O5 0.540429 0.866875 0.415776
O O6 0.668531 0.740978 0.367368
O O7 0.746654 0.903198 0.316667
O O8 0.609224 0.827969 0.120642
O O9 0.731413 0.850937 0.859275
O O10 0.805737 0.770546 0.609819
O O11 0.790002 0.943257 0.608209
O O12 0.499410 0.167242 0.359214
O O13 0.314626 0.868779 0.425594
O O14 0.422957 0.941713 0.649953
O O15 0.434587 0.011009 0.373199
O O16 0.156131 0.453240 0.437365
#
# Coordination Sequence:
#
# PCOD8170917 Si02
#       8
#     4   4   4   4   4   4   4   4
#     4  11  23  42  69  93 134 180 223 276 342 419
#     4  10  23  41  59  95 135 166 221 284 329 401
#     4  10  23  43  66  94 135 177 219 276 339 405
#     4  11  24  40  65  99 130 173 228 283 329 395
#     4  11  21  38  66  94 124 168 212 279 335 391
#     4  10  20  41  65  93 127 176 218 265 342 400
#     4  11  20  39  65  95 127 163 219 276 336 386
#     4  10  22  42  67  93 130 177 220 273 346 409
#
# _framework density 21.021404
#
# number of rings (size 3 to 8) (size 9 to 14) (size 15 to 20)
#    0.000    1.500    1.250    6.000    1.750    2.000 
#    6.750    1.250    0.000    0.000    0.000    0.000 
#    0.000    0.000    0.000    0.000    0.000    0.000 
#
# Total GULP energy -396712.103243 kJ/mol
# GULP energy per Si atom -12397.253226 kJ/mol
# Density = 2.097356 g / cm^3
# Si number density = 21.021404 Si / 1000 Ang^3
#
#
#
# Elastic Constant Matrix: (Units=GPa)
#
#
# Indices 1 2 3 4 5 6 
#
# 1 105.4445 24.6421 31.0956 0.0000 0.0000 0.0000
# 2 24.6421 63.1644 30.4258 0.0000 0.0000 0.0000
# 3 31.0956 30.4258 71.1443 0.0000 0.0000 0.0000
# 4 0.0000 0.0000 0.0000 28.8291 0.0000 0.0000
# 5 0.0000 0.0000 0.0000 0.0000 24.9588 0.0000
# 6 0.0000 0.0000 0.0000 0.0000 0.0000 41.1273
#
#
#
# Elastic Compliance Matrix: (Units=1/GPa)
#
#
# Indices 1 2 3 4 5 6 
#
# 1 0.011200 -0.002533 -0.003812 0.000000 0.000000 0.000000
# 2 -0.002533 0.020512 -0.007665 0.000000 0.000000 0.000000
# 3 -0.003812 -0.007665 0.019000 0.000000 0.000000 0.000000
# 4 0.000000 0.000000 0.000000 0.034687 0.000000 0.000000
# 5 0.000000 0.000000 0.000000 0.000000 0.040066 0.000000
# 6 0.000000 0.000000 0.000000 0.000000 0.000000 0.024315
#
#
# Mechanical properties :
#
#
# Convention : Reuss Voigt Hill
#
# Bulk Modulus (GPa) = 44.06879 45.78670 44.92775
# Shear Modulus (GPa) = 26.97393 29.22235 28.09814
#
# Velocity S-wave (km/s) = 3.58602 3.73248 3.65998
# Velocity P-wave (km/s) = 6.17700 6.35637 6.26733
#
# Compressibility (1/GPa) = 0.02269180
#
# Stress axis : x y z
#
# Youngs Moduli (GPa) = 89.28758 48.75151 52.63133
#
# Poissons Ratio (x) = 0.12350 0.20062
# Poissons Ratio (y) = 0.22618 0.40342
# Poissons Ratio (z) = 0.34035 0.37369
#
# Static dielectric constant tensor:
#      x y z
#    x 3.844840 0.000000 0.000000 
#    y 0.000000 4.055450 0.000000 
#    z 0.000000 0.000000 3.596580 
# 
# 
# High freq. dielectric constant tensor:
#      x y z
#    x 1.816820 0.000000 0.000000 
#    y 0.000000 1.831750 0.000000 
#    z 0.000000 0.000000 1.815020 
# 
# From -- ./inp_files/3955.got.cif
#   From: 2010.03.12/outbox.cif.g09.slc.cpg/sg33_2_cif.got.tgz:3955.got - 2010.04.14 01:49:19.
