data_PCOD8170589
_publ_section_title
;
Structure prediction by ZEFSAII (Michael W. Deem and Ramdas Pophale) SiO2 
 PCOD8170589
Probable space group: P B A 2
;
_chemical_formula_sum "Si O2"
_cell_formula_units_Z 20
_cell_length_a 9.766809
_cell_length_b 10.476017
_cell_length_c 7.981940
_cell_angle_alpha 90.000000
_cell_angle_beta 90.000000
_cell_angle_gamma 90.000000
_cell_volume 816.690207
_symmetry_space_group_name_H-M "P B A 2"
_symmetry_group_IT_number 32
_symmetry_cell_setting 'orthorhombic'
loop_
_space_group_symop_operation_xyz
x,y,z
-x,-y,z
1/2-x,1/2+y,z
1/2+x,1/2-y,z
loop_
_atom_site_type_symbol
_atom_site_label
_atom_site_fract_x
_atom_site_fract_y
_atom_site_fract_z
Si Si1 0.994466 0.141418 0.535960
Si Si2 0.500000 0.000000 0.496265
Si Si3 0.505534 0.141418 0.175890
Si Si4 0.707337 0.661294 0.046702
Si Si5 0.000000 0.000000 0.215586
Si Si6 0.792663 0.661294 0.665148
O O1 0.839798 0.192332 0.554177
O O2 0.099732 0.225287 0.640138
O O3 0.000000 0.000000 0.618345
O O4 0.026786 0.125999 0.334510
O O5 0.526786 0.874001 0.377340
O O6 0.366068 0.971500 0.608145
O O7 0.500000 0.000000 0.093505
O O8 0.400268 0.225287 0.071711
O O9 0.660202 0.192332 0.157673
O O10 0.750001 0.648288 0.855925
O O11 0.633932 0.528500 0.103705
#
# Coordination Sequence:
#
# PCOD8170589 Si02
#       6
#     4   2   4   4   2   4
#     4  10  27  47  75 110 160 206 254 307 388 466
#     4  10  26  46  76 108 158 204 252 310 388 464
#     4  10  27  47  75 110 160 206 254 307 388 466
#     4  12  26  47  79 115 153 203 261 324 381 453
#     4  10  26  46  76 108 158 204 252 310 388 464
#     4  12  26  47  79 115 153 203 261 324 381 453
#
# _framework density 24.489090999999998
#
# number of rings (size 3 to 8) (size 9 to 14) (size 15 to 20)
#    1.200    0.000    0.000    3.600    8.400    1.600 
#    0.000    0.000    0.000    0.000    0.000    0.000 
#    0.000    0.000    0.000    0.000    0.000    0.000 
#
# Total GULP energy -247983.796920 kJ/mol
# GULP energy per Si atom -12399.189846 kJ/mol
# Density = 2.443335 g / cm^3
# Si number density = 24.489091 Si / 1000 Ang^3
#
#
#
# Elastic Constant Matrix: (Units=GPa)
#
#
# Indices 1 2 3 4 5 6 
#
# 1 227.2455 89.8936 92.8117 0.0000 0.0000 0.0000
# 2 89.8936 77.7023 61.7076 0.0000 0.0000 0.0000
# 3 92.8117 61.7076 189.7304 0.0000 0.0000 0.0000
# 4 0.0000 0.0000 0.0000 28.6596 0.0000 0.0000
# 5 0.0000 0.0000 0.0000 0.0000 52.2149 0.0000
# 6 0.0000 0.0000 0.0000 0.0000 0.0000 60.0469
#
#
#
# Elastic Compliance Matrix: (Units=1/GPa)
#
#
# Indices 1 2 3 4 5 6 
#
# 1 0.008334 -0.008634 -0.001269 0.000000 0.000000 0.000000
# 2 -0.008634 0.026297 -0.004329 0.000000 0.000000 0.000000
# 3 -0.001269 -0.004329 0.007299 0.000000 0.000000 0.000000
# 4 0.000000 0.000000 0.000000 0.034892 0.000000 0.000000
# 5 0.000000 0.000000 0.000000 0.000000 0.019152 0.000000
# 6 0.000000 0.000000 0.000000 0.000000 0.000000 0.016654
#
#
# Mechanical properties :
#
#
# Convention : Reuss Voigt Hill
#
# Bulk Modulus (GPa) = 74.26092 109.27821 91.76957
# Shear Modulus (GPa) = 34.34534 44.86863 39.60698
#
# Velocity S-wave (km/s) = 3.74903 4.28505 4.02597
# Velocity P-wave (km/s) = 7.00929 8.31879 7.69196
#
# Compressibility (1/GPa) = 0.01346603
#
# Stress axis : x y z
#
# Youngs Moduli (GPa) = 119.98667 38.02786 137.00152
#
# Poissons Ratio (x) = 0.32835 0.17381
# Poissons Ratio (y) = 1.03601 0.59307
# Poissons Ratio (z) = 0.15223 0.16462
#
# Static dielectric constant tensor:
#      x y z
#    x 4.539080 0.000000 0.000000 
#    y 0.000000 4.595930 0.000000 
#    z 0.000000 0.000000 4.182470 
# 
# 
# High freq. dielectric constant tensor:
#      x y z
#    x 1.980730 0.000000 0.000000 
#    y 0.000000 1.986310 0.000000 
#    z 0.000000 0.000000 1.966330 
# 
# From -- ./inp_files/2227.got.cif
#   From: 2010.03.12/outbox.cif.g09.slc.cpg/sg32_2_cif.got.tgz:2227.got - 2010.04.14 01:46:39.
