data_PCOD8170235
_publ_section_title
;
Structure prediction by ZEFSAII (Michael W. Deem and Ramdas Pophale) SiO2 
 PCOD8170235
Probable space group: P M N 21
;
_chemical_formula_sum "Si O2"
_cell_formula_units_Z 32
_cell_length_a 14.820939
_cell_length_b 9.359752
_cell_length_c 10.715433
_cell_angle_alpha 90.000000
_cell_angle_beta 90.000000
_cell_angle_gamma 90.000000
_cell_volume 1486.448224
_symmetry_space_group_name_H-M "P M N 21"
_symmetry_group_IT_number 31
_symmetry_cell_setting 'orthorhombic'
loop_
_space_group_symop_operation_xyz
x,y,z
1/2-x,-y,1/2+z
-x,y,z
1/2+x,-y,1/2+z
loop_
_atom_site_type_symbol
_atom_site_label
_atom_site_fract_x
_atom_site_fract_y
_atom_site_fract_z
Si Si1 0.399422 0.545927 0.751750
Si Si2 0.401665 0.489151 0.223209
Si Si3 0.720145 0.128677 0.840724
Si Si4 0.262953 0.346881 0.635336
Si Si5 0.673575 0.256645 0.382155
Si Si6 0.394257 0.962550 0.465573
Si Si7 0.900514 0.662957 0.468657
Si Si8 0.671471 0.849004 0.731523
O O1 0.500000 0.504826 0.709118
O O2 0.330291 0.482677 0.649610
O O3 0.375802 0.476472 0.885803
O O4 0.395008 0.717903 0.760946
O O5 0.500000 0.560819 0.236269
O O6 0.332679 0.616272 0.197309
O O7 0.383403 0.397480 0.348082
O O8 0.398851 0.377065 0.111537
O O9 0.700929 0.210988 0.711751
O O10 0.828000 0.111427 0.864040
O O11 0.674061 0.214499 0.953171
O O12 0.666434 0.978276 0.831765
O O13 0.255829 0.304546 0.490426
O O14 0.726792 0.210819 0.255653
O O15 0.610151 0.132858 0.440260
O O16 0.500000 0.914840 0.454959
O O17 0.350660 0.914933 0.596843
O O18 0.000000 0.720068 0.430415
#
# Coordination Sequence:
#
# PCOD8170235 Si02
#       8
#     4   4   4   4   4   4   4   4
#     4  10  21  37  64  97 129 167 219 277 327 379
#     4  11  23  39  66  94 127 168 217 271 328 386
#     4  10  23  40  63  92 129 177 211 264 329 389
#     4  11  23  42  65  95 132 171 213 267 327 395
#     4  11  23  42  67  94 133 178 216 266 328 392
#     4  11  24  41  66  98 135 170 218 273 323 388
#     4   9  20  40  63  92 127 169 219 269 321 390
#     4  11  21  41  62  94 130 170 215 267 325 377
#
# _framework density 21.527829000000001
#
# number of rings (size 3 to 8) (size 9 to 14) (size 15 to 20)
#    0.000    1.500    2.500    2.250    1.750    2.500 
#    0.000    0.625    0.000    0.750    0.000    0.000 
#    0.000    0.000    0.000    0.000    0.000    0.000 
#
# Total GULP energy -396535.919154 kJ/mol
# GULP energy per Si atom -12391.747474 kJ/mol
# Density = 2.147883 g / cm^3
# Si number density = 21.527829 Si / 1000 Ang^3
#
#
#
# Elastic Constant Matrix: (Units=GPa)
#
#
# Indices 1 2 3 4 5 6 
#
# 1 110.0752 39.6373 20.6909 0.0000 0.0000 0.0000
# 2 39.6373 101.8628 19.5127 0.0000 0.0000 0.0000
# 3 20.6909 19.5127 72.2050 0.0000 0.0000 0.0000
# 4 0.0000 0.0000 0.0000 29.1322 0.0000 0.0000
# 5 0.0000 0.0000 0.0000 0.0000 24.1392 0.0000
# 6 0.0000 0.0000 0.0000 0.0000 0.0000 29.7819
#
#
#
# Elastic Compliance Matrix: (Units=1/GPa)
#
#
# Indices 1 2 3 4 5 6 
#
# 1 0.010852 -0.003825 -0.002076 0.000000 0.000000 0.000000
# 2 -0.003825 0.011701 -0.002066 0.000000 0.000000 0.000000
# 3 -0.002076 -0.002066 0.015003 0.000000 0.000000 0.000000
# 4 0.000000 0.000000 0.000000 0.034326 0.000000 0.000000
# 5 0.000000 0.000000 0.000000 0.000000 0.041426 0.000000
# 6 0.000000 0.000000 0.000000 0.000000 0.000000 0.033577
#
#
# Mechanical properties :
#
#
# Convention : Reuss Voigt Hill
#
# Bulk Modulus (GPa) = 46.24975 49.31385 47.78180
# Shear Modulus (GPa) = 29.40683 30.23081 29.81882
#
# Velocity S-wave (km/s) = 3.69994 3.75142 3.72577
# Velocity P-wave (km/s) = 6.30738 6.45918 6.38373
#
# Compressibility (1/GPa) = 0.02162174
#
# Stress axis : x y z
#
# Youngs Moduli (GPa) = 92.14568 85.46001 66.65469
#
# Poissons Ratio (x) = 0.32690 0.13838
# Poissons Ratio (y) = 0.35248 0.13771
# Poissons Ratio (z) = 0.19130 0.17656
#
# Static dielectric constant tensor:
#      x y z
#    x 3.964820 0.000000 0.000000 
#    y 0.000000 3.908130 0.000000 
#    z 0.000000 0.000000 3.699770 
# 
# 
# High freq. dielectric constant tensor:
#      x y z
#    x 1.839450 0.000000 0.000000 
#    y 0.000000 1.845990 0.000000 
#    z 0.000000 0.000000 1.835420 
# 
# From -- ./inp_files/4298.got.cif
#   From: 2010.03.12/outbox.cif.g09.slc.cpg/sg31_3_cif.got.tgz:4298.got - 2010.04.14 01:42:59.
