data_PCOD8170202
_publ_section_title
;
Structure prediction by ZEFSAII (Michael W. Deem and Ramdas Pophale) SiO2 
 PCOD8170202
Probable space group: P M N 21
;
_chemical_formula_sum "Si O2"
_cell_formula_units_Z 32
_cell_length_a 9.075436
_cell_length_b 14.532689
_cell_length_c 13.870147
_cell_angle_alpha 90.000000
_cell_angle_beta 90.000000
_cell_angle_gamma 90.000000
_cell_volume 1829.340469
_symmetry_space_group_name_H-M "P M N 21"
_symmetry_group_IT_number 31
_symmetry_cell_setting 'orthorhombic'
loop_
_space_group_symop_operation_xyz
x,y,z
1/2-x,-y,1/2+z
-x,y,z
1/2+x,-y,1/2+z
loop_
_atom_site_type_symbol
_atom_site_label
_atom_site_fract_x
_atom_site_fract_y
_atom_site_fract_z
Si Si1 0.826735 0.667436 0.981870
Si Si2 0.825887 0.852689 0.597221
Si Si3 0.829699 0.985838 0.428861
Si Si4 0.671175 0.005005 0.711376
Si Si5 0.667958 0.490221 0.980534
Si Si6 0.673510 0.656757 0.598200
Si Si7 0.333048 0.607777 0.809620
Si Si8 0.828844 0.865103 0.041277
O O1 0.743204 0.580226 0.030678
O O2 0.773702 0.676956 0.869616
O O3 0.000000 0.649271 0.985705
O O4 0.779323 0.758772 0.039635
O O5 0.769804 0.917032 0.684221
O O6 0.742373 0.757015 0.602438
O O7 0.000000 0.836833 0.606897
O O8 0.781291 0.900533 0.495967
O O9 0.791470 0.961709 0.318872
O O10 0.748367 0.079497 0.456004
O O11 0.000000 0.005991 0.444600
O O12 0.500000 0.977403 0.699739
O O13 0.712644 0.091823 0.644516
O O14 0.500000 0.480844 0.015929
O O15 0.676218 0.507292 0.863564
O O16 0.755774 0.398826 0.009430
O O17 0.500000 0.664298 0.581092
O O18 0.713197 0.603100 0.697783
O O19 0.500000 0.646021 0.817002
O O20 0.000000 0.871899 0.019065
#
# Coordination Sequence:
#
# PCOD8170202 Si02
#       8
#     4   4   4   4   4   4   4   4
#     4   9  17  31  51  76 102 131 167 212 260 309
#     4  10  21  35  51  79 109 139 178 221 266 314
#     4   9  19  34  52  72 102 140 176 213 261 314
#     4   9  18  34  52  72 101 140 179 214 256 313
#     4   9  19  36  53  75 105 137 170 216 264 311
#     4  11  21  36  57  80 106 141 178 218 265 320
#     4   8  19  35  52  75 103 133 169 209 259 312
#     4   9  18  31  50  75 102 131 169 215 261 305
#
# _framework density 17.492643000000001
#
# number of rings (size 3 to 8) (size 9 to 14) (size 15 to 20)
#    0.750    2.000    0.000    1.125    1.750    3.000 
#    0.000    1.250    0.000    4.500    0.000    0.000 
#    0.000    0.000    0.000    0.000    0.000    0.000 
#
# Total GULP energy -396570.350382 kJ/mol
# GULP energy per Si atom -12392.823449 kJ/mol
# Density = 1.745283 g / cm^3
# Si number density = 17.492643 Si / 1000 Ang^3
#
#
#
# Elastic Constant Matrix: (Units=GPa)
#
#
# Indices 1 2 3 4 5 6 
#
# 1 75.6180 39.0871 30.0761 0.0000 0.0000 0.0000
# 2 39.0871 75.9755 29.3755 0.0000 0.0000 0.0000
# 3 30.0761 29.3755 81.8943 0.0000 0.0000 0.0000
# 4 0.0000 0.0000 0.0000 18.3827 0.0000 0.0000
# 5 0.0000 0.0000 0.0000 0.0000 23.0368 0.0000
# 6 0.0000 0.0000 0.0000 0.0000 0.0000 28.8311
#
#
#
# Elastic Compliance Matrix: (Units=1/GPa)
#
#
# Indices 1 2 3 4 5 6 
#
# 1 0.019108 -0.008263 -0.004053 0.000000 0.000000 0.000000
# 2 -0.008263 0.018855 -0.003729 0.000000 0.000000 0.000000
# 3 -0.004053 -0.003729 0.015037 0.000000 0.000000 0.000000
# 4 0.000000 0.000000 0.000000 0.054399 0.000000 0.000000
# 5 0.000000 0.000000 0.000000 0.000000 0.043409 0.000000
# 6 0.000000 0.000000 0.000000 0.000000 0.000000 0.034685
#
#
# Mechanical properties :
#
#
# Convention : Reuss Voigt Hill
#
# Bulk Modulus (GPa) = 47.82555 47.84058 47.83306
# Shear Modulus (GPa) = 22.26653 23.04673 22.65663
#
# Velocity S-wave (km/s) = 3.57165 3.63369 3.60281
# Velocity P-wave (km/s) = 6.66398 6.70919 6.68663
#
# Compressibility (1/GPa) = 0.02090933
#
# Stress axis : x y z
#
# Youngs Moduli (GPa) = 52.33468 53.03663 66.50281
#
# Poissons Ratio (x) = 0.43825 0.26957
# Poissons Ratio (y) = 0.43245 0.24796
# Poissons Ratio (z) = 0.21214 0.19775
#
# Static dielectric constant tensor:
#      x y z
#    x 3.293080 0.000000 0.000000 
#    y 0.000000 3.143690 0.000000 
#    z 0.000000 0.000000 3.283030 
# 
# 
# High freq. dielectric constant tensor:
#      x y z
#    x 1.684440 0.000000 0.000000 
#    y 0.000000 1.662460 0.000000 
#    z 0.000000 0.000000 1.662210 
# 
# From -- ./inp_files/5142.got.cif
#   From: 2010.03.12/outbox.cif.g09.slc.cpg/sg31_3_cif.got.tgz:5142.got - 2010.04.14 01:42:59.
