data_PCOD8170582
_publ_section_title
;
Structure prediction by ZEFSAII (Michael W. Deem and Ramdas Pophale) SiO2 
 PCOD8170582
Probable space group: P B A 2
;
_chemical_formula_sum "Si O2"
_cell_formula_units_Z 32
_cell_length_a 12.680464
_cell_length_b 13.387216
_cell_length_c 7.515299
_cell_angle_alpha 90.000000
_cell_angle_beta 90.000000
_cell_angle_gamma 90.000000
_cell_volume 1275.767928
_symmetry_space_group_name_H-M "P B A 2"
_symmetry_group_IT_number 32
_symmetry_cell_setting 'orthorhombic'
loop_
_space_group_symop_operation_xyz
x,y,z
-x,-y,z
1/2-x,1/2+y,z
1/2+x,1/2-y,z
loop_
_atom_site_type_symbol
_atom_site_label
_atom_site_fract_x
_atom_site_fract_y
_atom_site_fract_z
Si Si1 0.175668 0.998492 0.893850
Si Si2 0.256097 0.852465 0.147736
Si Si3 0.423241 0.698155 0.035679
Si Si4 0.324107 0.031792 0.347776
Si Si5 0.393855 0.547410 0.520935
Si Si6 0.610832 0.031643 0.722114
Si Si7 0.412436 0.236894 0.325414
Si Si8 0.541722 0.246397 0.662002
O O1 0.121934 0.982401 0.701905
O O2 0.301187 0.010406 0.856857
O O3 0.124308 0.087051 0.010798
O O4 0.167936 0.898896 0.013470
O O5 0.322758 0.770861 0.042193
O O6 0.190376 0.806734 0.311970
O O7 0.338704 0.935235 0.222264
O O8 0.491127 0.714293 0.214322
O O9 0.494173 0.723962 0.862051
O O10 0.197708 0.039082 0.375778
O O11 0.376460 0.128009 0.252624
O O12 0.382044 0.023447 0.534323
O O13 0.500000 0.500000 0.434939
O O14 0.392722 0.663332 0.575160
O O15 0.617226 0.149962 0.680639
O O16 0.500000 0.000000 0.810112
O O17 0.441788 0.227760 0.533792
#
# Coordination Sequence:
#
# PCOD8170582 Si02
#       8
#     4   4   4   4   4   4   4   4
#     4  10  25  47  71 108 151 197 264 322 398 484
#     4  12  26  46  74 108 155 203 255 333 399 475
#     4  11  27  51  75 111 156 204 264 325 399 487
#     4  11  26  46  70 110 150 195 266 321 402 478
#     4  10  24  47  73 107 148 203 256 326 395 489
#     4  11  22  46  74 108 148 201 252 333 391 482
#     4  12  28  48  77 112 154 207 261 336 396 482
#     4  11  24  47  76 106 148 202 253 315 405 466
#
# _framework density 25.082932
#
# number of rings (size 3 to 8) (size 9 to 14) (size 15 to 20)
#    0.000    1.000    2.500    2.250    8.750    2.000 
#    2.250    0.000    0.000    0.000    0.000    0.000 
#    0.000    0.000    0.000    0.000    0.000    0.000 
#
# Total GULP energy -396672.807857 kJ/mol
# GULP energy per Si atom -12396.025246 kJ/mol
# Density = 2.502584 g / cm^3
# Si number density = 25.082932 Si / 1000 Ang^3
#
#
#
# Elastic Constant Matrix: (Units=GPa)
#
#
# Indices 1 2 3 4 5 6 
#
# 1 109.1934 25.0218 23.5089 0.0000 0.0000 0.0000
# 2 25.0218 90.2404 6.9577 0.0000 0.0000 0.0000
# 3 23.5089 6.9577 85.8243 0.0000 0.0000 0.0000
# 4 0.0000 0.0000 0.0000 30.8067 0.0000 0.0000
# 5 0.0000 0.0000 0.0000 0.0000 30.8737 0.0000
# 6 0.0000 0.0000 0.0000 0.0000 0.0000 44.3083
#
#
#
# Elastic Compliance Matrix: (Units=1/GPa)
#
#
# Indices 1 2 3 4 5 6 
#
# 1 0.010331 -0.002663 -0.002614 0.000000 0.000000 0.000000
# 2 -0.002663 0.011838 -0.000230 0.000000 0.000000 0.000000
# 3 -0.002614 -0.000230 0.012386 0.000000 0.000000 0.000000
# 4 0.000000 0.000000 0.000000 0.032461 0.000000 0.000000
# 5 0.000000 0.000000 0.000000 0.000000 0.032390 0.000000
# 6 0.000000 0.000000 0.000000 0.000000 0.000000 0.022569
#
#
# Mechanical properties :
#
#
# Convention : Reuss Voigt Hill
#
# Bulk Modulus (GPa) = 42.47970 44.02609 43.25290
# Shear Modulus (GPa) = 35.50223 36.51571 36.00897
#
# Velocity S-wave (km/s) = 3.76625 3.81963 3.79304
# Velocity P-wave (km/s) = 5.99044 6.08630 6.03856
#
# Compressibility (1/GPa) = 0.02354066
#
# Stress axis : x y z
#
# Youngs Moduli (GPa) = 96.79521 84.47602 80.73376
#
# Poissons Ratio (x) = 0.22496 0.21104
# Poissons Ratio (y) = 0.25777 0.01859
# Poissons Ratio (z) = 0.25302 0.01945
#
# Static dielectric constant tensor:
#      x y z
#    x 4.360150 0.000000 0.000000 
#    y 0.000000 4.677810 0.000000 
#    z 0.000000 0.000000 4.564790 
# 
# 
# High freq. dielectric constant tensor:
#      x y z
#    x 1.987010 0.000000 0.000000 
#    y 0.000000 2.012640 0.000000 
#    z 0.000000 0.000000 2.001680 
# 
# From -- ./inp_files/2857.got.cif
#   From: 2010.03.12/outbox.cif.g09.slc.cpg/sg32_2_cif.got.tgz:2857.got - 2010.04.14 01:46:39.
