data_PCOD8170586
_publ_section_title
;
Structure prediction by ZEFSAII (Michael W. Deem and Ramdas Pophale) SiO2 
 PCOD8170586
Probable space group: P B A 2
;
_chemical_formula_sum "Si O2"
_cell_formula_units_Z 32
_cell_length_a 14.885213
_cell_length_b 8.395692
_cell_length_c 11.047689
_cell_angle_alpha 90.000000
_cell_angle_beta 90.000000
_cell_angle_gamma 90.000000
_cell_volume 1380.648074
_symmetry_space_group_name_H-M "P B A 2"
_symmetry_group_IT_number 32
_symmetry_cell_setting 'orthorhombic'
loop_
_space_group_symop_operation_xyz
x,y,z
-x,-y,z
1/2-x,1/2+y,z
1/2+x,1/2-y,z
loop_
_atom_site_type_symbol
_atom_site_label
_atom_site_fract_x
_atom_site_fract_y
_atom_site_fract_z
Si Si1 0.143754 0.234736 0.058370
Si Si2 0.801212 0.352203 0.435138
Si Si3 0.203931 0.553465 0.159154
Si Si4 0.138301 0.327378 0.545135
Si Si5 0.538544 0.669122 0.521777
Si Si6 0.188016 0.192476 0.792319
Si Si7 0.624559 0.667814 0.780098
Si Si8 0.958758 0.326352 0.008204
O O1 0.184033 0.368870 0.145617
O O2 0.197397 0.077820 0.099729
O O3 0.036221 0.224859 0.078117
O O4 0.163155 0.278178 0.918267
O O5 0.795754 0.413883 0.300199
O O6 0.832240 0.491430 0.526265
O O7 0.704336 0.293241 0.476384
O O8 0.873314 0.209215 0.443181
O O9 0.129218 0.660771 0.091538
O O10 0.134994 0.283729 0.686901
O O11 0.037558 0.301909 0.495710
O O12 0.500000 0.500000 0.479511
O O13 0.563293 0.664420 0.662514
O O14 0.294005 0.207916 0.764602
O O15 0.163437 0.007550 0.803438
O O16 0.562112 0.725762 0.888903
O O17 0.000000 0.500000 0.976847
#
# Coordination Sequence:
#
# PCOD8170586 Si02
#       8
#     4   4   4   4   4   4   4   4
#     4  11  24  44  72 100 143 186 238 298 367 424
#     4  12  27  47  75 102 146 196 248 302 359 430
#     4  11  25  48  68 104 140 191 247 298 350 436
#     4  12  25  46  72 106 143 192 238 299 374 429
#     4  12  26  46  70 107 146 185 242 303 364 443
#     4  12  24  44  77 104 146 191 230 304 369 440
#     4  12  25  45  73 111 153 182 242 300 372 442
#     4  10  25  43  71 105 147 188 239 295 367 437
#
# _framework density 23.177523000000001
#
# number of rings (size 3 to 8) (size 9 to 14) (size 15 to 20)
#    0.000    0.500    3.750    4.125    1.750    5.000 
#    0.000    0.000    0.000    0.000    0.000    0.000 
#    0.000    0.000    0.000    0.000    0.000    0.000 
#
# Total GULP energy -396950.144050 kJ/mol
# GULP energy per Si atom -12404.692002 kJ/mol
# Density = 2.312477 g / cm^3
# Si number density = 23.177523 Si / 1000 Ang^3
#
#
#
# Elastic Constant Matrix: (Units=GPa)
#
#
# Indices 1 2 3 4 5 6 
#
# 1 104.7196 19.8071 -3.5977 0.0000 0.0000 0.0000
# 2 19.8071 77.9964 20.4185 0.0000 0.0000 0.0000
# 3 -3.5977 20.4185 102.6093 0.0000 0.0000 0.0000
# 4 0.0000 0.0000 0.0000 26.5292 0.0000 0.0000
# 5 0.0000 0.0000 0.0000 0.0000 17.8029 0.0000
# 6 0.0000 0.0000 0.0000 0.0000 0.0000 43.6638
#
#
#
# Elastic Compliance Matrix: (Units=1/GPa)
#
#
# Indices 1 2 3 4 5 6 
#
# 1 0.010112 -0.002807 0.000913 0.000000 0.000000 0.000000
# 2 -0.002807 0.014305 -0.002945 0.000000 0.000000 0.000000
# 3 0.000913 -0.002945 0.010364 0.000000 0.000000 0.000000
# 4 0.000000 0.000000 0.000000 0.037694 0.000000 0.000000
# 5 0.000000 0.000000 0.000000 0.000000 0.056171 0.000000
# 6 0.000000 0.000000 0.000000 0.000000 0.000000 0.022902
#
#
# Mechanical properties :
#
#
# Convention : Reuss Voigt Hill
#
# Bulk Modulus (GPa) = 39.83637 39.84233 39.83935
# Shear Modulus (GPa) = 29.48246 34.17903 31.83075
#
# Velocity S-wave (km/s) = 3.57042 3.84430 3.70989
# Velocity P-wave (km/s) = 5.84996 6.07719 5.96466
#
# Compressibility (1/GPa) = 0.02510269
#
# Stress axis : x y z
#
# Youngs Moduli (GPa) = 98.89650 69.90628 96.49019
#
# Poissons Ratio (x) = 0.19622 -0.08810
# Poissons Ratio (y) = 0.27759 0.28416
# Poissons Ratio (z) = -0.09030 0.20587
#
# Static dielectric constant tensor:
#      x y z
#    x 4.551510 0.000000 0.000000 
#    y 0.000000 4.172580 0.000000 
#    z 0.000000 0.000000 4.034510 
# 
# 
# High freq. dielectric constant tensor:
#      x y z
#    x 1.936890 0.000000 0.000000 
#    y 0.000000 1.915380 0.000000 
#    z 0.000000 0.000000 1.908030 
# 
# From -- ./inp_files/3946.got.cif
#   From: 2010.03.12/outbox.cif.g09.slc.cpg/sg32_2_cif.got.tgz:3946.got - 2010.04.14 01:46:39.
