data_PCOD8170916
_publ_section_title
;
Structure prediction by ZEFSAII (Michael W. Deem and Ramdas Pophale) SiO2 
 PCOD8170916
Probable space group: P N A 21
;
_chemical_formula_sum "Si O2"
_cell_formula_units_Z 32
_cell_length_a 9.395050
_cell_length_b 13.820269
_cell_length_c 10.856885
_cell_angle_alpha 90.000000
_cell_angle_beta 90.000000
_cell_angle_gamma 90.000000
_cell_volume 1409.680946
_symmetry_space_group_name_H-M "P N A 21"
_symmetry_group_IT_number 33
_symmetry_cell_setting 'orthorhombic'
loop_
_space_group_symop_operation_xyz
x,y,z
-x,-y,1/2+z
1/2-x,1/2+y,1/2+z
1/2+x,1/2-y,z
loop_
_atom_site_type_symbol
_atom_site_label
_atom_site_fract_x
_atom_site_fract_y
_atom_site_fract_z
Si Si1 0.161745 0.654796 0.024850
Si Si2 0.939143 0.777062 0.913035
Si Si3 0.712129 0.031542 0.882814
Si Si4 0.119908 0.361167 0.198015
Si Si5 0.238939 0.560326 0.278176
Si Si6 0.465979 0.151471 0.955917
Si Si7 0.470607 0.540197 0.767279
Si Si8 0.894629 0.149225 0.058148
O O1 0.200395 0.629206 0.164300
O O2 0.280319 0.720943 0.961780
O O3 0.131225 0.560568 0.940570
O O4 0.026757 0.725757 0.022079
O O5 0.953154 0.714894 0.787999
O O6 0.989747 0.886347 0.883035
O O7 0.594622 0.116775 0.862541
O O8 0.809382 0.004915 0.763748
O O9 0.833778 0.061395 0.979237
O O10 0.157712 0.458777 0.269188
O O11 0.262629 0.311896 0.141375
O O12 0.005776 0.389348 0.091419
O O13 0.183882 0.611901 0.403520
O O14 0.408930 0.542957 0.281499
O O15 0.458862 0.267679 0.969987
O O16 0.483089 0.601626 0.641740
#
# Coordination Sequence:
#
# PCOD8170916 Si02
#       8
#     4   4   4   4   4   4   4   4
#     4  11  22  44  66  96 132 177 220 278 339 401
#     4  11  23  40  72  97 128 174 238 279 320 413
#     4  10  22  42  66  94 130 171 224 277 332 408
#     4  10  21  40  69  99 131 174 233 276 338 404
#     4  11  23  44  64  95 145 174 214 288 349 418
#     4  11  22  41  66 102 134 174 225 292 341 399
#     4  10  21  42  67  91 128 182 223 272 337 406
#     4  10  20  41  64  96 132 174 223 278 342 405
#
# _framework density 22.70017
#
# number of rings (size 3 to 8) (size 9 to 14) (size 15 to 20)
#    0.000    1.500    5.000    2.250    0.000    2.000 
#    6.750    0.000    0.000    0.000    0.000    0.000 
#    0.000    0.000    0.000    0.000    0.000    0.000 
#
# Total GULP energy -396642.680777 kJ/mol
# GULP energy per Si atom -12395.083774 kJ/mol
# Density = 2.264850 g / cm^3
# Si number density = 22.700170 Si / 1000 Ang^3
#
#
#
# Elastic Constant Matrix: (Units=GPa)
#
#
# Indices 1 2 3 4 5 6 
#
# 1 69.2690 50.4468 34.3238 0.0000 0.0000 0.0000
# 2 50.4468 100.1092 28.7951 0.0000 0.0000 0.0000
# 3 34.3238 28.7951 56.8468 0.0000 0.0000 0.0000
# 4 0.0000 0.0000 0.0000 42.3888 0.0000 0.0000
# 5 0.0000 0.0000 0.0000 0.0000 35.0914 0.0000
# 6 0.0000 0.0000 0.0000 0.0000 0.0000 40.9735
#
#
#
# Elastic Compliance Matrix: (Units=1/GPa)
#
#
# Indices 1 2 3 4 5 6 
#
# 1 0.027961 -0.010809 -0.011408 0.000000 0.000000 0.000000
# 2 -0.010809 0.015871 -0.001513 0.000000 0.000000 0.000000
# 3 -0.011408 -0.001513 0.025245 0.000000 0.000000 0.000000
# 4 0.000000 0.000000 0.000000 0.023591 0.000000 0.000000
# 5 0.000000 0.000000 0.000000 0.000000 0.028497 0.000000
# 6 0.000000 0.000000 0.000000 0.000000 0.000000 0.024406
#
#
# Mechanical properties :
#
#
# Convention : Reuss Voigt Hill
#
# Bulk Modulus (GPa) = 46.25651 50.37292 48.31472
# Shear Modulus (GPa) = 24.97053 31.20135 28.08594
#
# Velocity S-wave (km/s) = 3.32025 3.71145 3.52128
# Velocity P-wave (km/s) = 5.92622 6.37222 6.15326
#
# Compressibility (1/GPa) = 0.02161858
#
# Stress axis : x y z
#
# Youngs Moduli (GPa) = 35.76441 63.00807 39.61122
#
# Poissons Ratio (x) = 0.68103 0.45187
# Poissons Ratio (y) = 0.38657 0.05993
# Poissons Ratio (z) = 0.40798 0.09533
#
# Static dielectric constant tensor:
#      x y z
#    x 4.259530 0.000000 0.000000 
#    y 0.000000 4.064950 0.000000 
#    z 0.000000 0.000000 3.968740 
# 
# 
# High freq. dielectric constant tensor:
#      x y z
#    x 1.893550 0.000000 0.000000 
#    y 0.000000 1.894580 0.000000 
#    z 0.000000 0.000000 1.870820 
# 
# From -- ./inp_files/6036.got.cif
#   From: 2010.03.12/outbox.cif.g09.slc.cpg/sg33_4_cif.got.tgz:6036.got - 2010.04.14 01:49:19.
