data_PCOD8170247
_publ_section_title
;
Structure prediction by ZEFSAII (Michael W. Deem and Ramdas Pophale) SiO2 
 PCOD8170247
Probable space group: P M N 21
;
_chemical_formula_sum "Si O2"
_cell_formula_units_Z 24
_cell_length_a 9.146493
_cell_length_b 15.178961
_cell_length_c 8.771477
_cell_angle_alpha 90.000000
_cell_angle_beta 90.000000
_cell_angle_gamma 90.000000
_cell_volume 1217.781523
_symmetry_space_group_name_H-M "P M N 21"
_symmetry_group_IT_number 31
_symmetry_cell_setting 'orthorhombic'
loop_
_space_group_symop_operation_xyz
x,y,z
1/2-x,-y,1/2+z
-x,y,z
1/2+x,-y,1/2+z
loop_
_atom_site_type_symbol
_atom_site_label
_atom_site_fract_x
_atom_site_fract_y
_atom_site_fract_z
Si Si1 0.330462 0.765549 0.225450
Si Si2 0.831414 0.570331 0.716802
Si Si3 0.171324 0.100178 0.199932
Si Si4 0.830782 0.746246 0.540645
Si Si5 0.171421 0.402840 0.531389
Si Si6 0.831299 0.057579 0.546136
O O1 0.500000 0.757021 0.272089
O O2 0.231541 0.756565 0.372556
O O3 0.295652 0.859186 0.150988
O O4 0.286808 0.690318 0.105450
O O5 0.806966 0.646360 0.592756
O O6 0.771435 0.480410 0.641907
O O7 0.744350 0.591889 0.868045
O O8 0.000000 0.560909 0.762767
O O9 0.247375 0.191526 0.158640
O O10 0.209324 0.080552 0.373877
O O11 0.000000 0.110274 0.171282
O O12 0.229815 0.022925 0.092838
O O13 0.000000 0.773125 0.538741
O O14 0.000000 0.412827 0.505149
O O15 0.000000 0.029441 0.561272
#
# Coordination Sequence:
#
# PCOD8170247 Si02
#       6
#     4   4   4   4   4   4
#     4  10  21  38  60  85 114 149 190 234 280 334
#     4  10  22  38  57  85 118 151 189 234 283 334
#     4  11  23  39  60  84 112 149 189 231 282 336
#     4  11  23  38  57  84 117 150 188 234 282 335
#     4  10  21  38  60  86 116 151 192 235 279 334
#     4  10  22  39  58  84 115 146 186 234 282 335
#
# _framework density 19.707967
#
# number of rings (size 3 to 8) (size 9 to 14) (size 15 to 20)
#    0.000    1.667    0.000    4.000    0.000    8.667 
#    0.000    0.000    0.000    0.000    0.000    0.000 
#    0.000    0.000    0.000    0.000    0.000    0.000 
#
# Total GULP energy -297753.342436 kJ/mol
# GULP energy per Si atom -12406.389268 kJ/mol
# Density = 1.966311 g / cm^3
# Si number density = 19.707967 Si / 1000 Ang^3
#
#
#
# Elastic Constant Matrix: (Units=GPa)
#
#
# Indices 1 2 3 4 5 6 
#
# 1 66.2765 15.5115 36.8059 0.0000 0.0000 0.0000
# 2 15.5115 57.4669 -7.3061 0.0000 0.0000 0.0000
# 3 36.8059 -7.3061 90.9821 0.0000 0.0000 0.0000
# 4 0.0000 0.0000 0.0000 33.0015 0.0000 0.0000
# 5 0.0000 0.0000 0.0000 0.0000 38.2334 0.0000
# 6 0.0000 0.0000 0.0000 0.0000 0.0000 23.5539
#
#
#
# Elastic Compliance Matrix: (Units=1/GPa)
#
#
# Indices 1 2 3 4 5 6 
#
# 1 0.022031 -0.007153 -0.009487 0.000000 0.000000 0.000000
# 2 -0.007153 0.019903 0.004492 0.000000 0.000000 0.000000
# 3 -0.009487 0.004492 0.015190 0.000000 0.000000 0.000000
# 4 0.000000 0.000000 0.000000 0.030302 0.000000 0.000000
# 5 0.000000 0.000000 0.000000 0.000000 0.026155 0.000000
# 6 0.000000 0.000000 0.000000 0.000000 0.000000 0.042456
#
#
# Mechanical properties :
#
#
# Convention : Reuss Voigt Hill
#
# Bulk Modulus (GPa) = 30.46151 33.86089 32.16120
# Shear Modulus (GPa) = 26.14058 30.27205 28.20631
#
# Velocity S-wave (km/s) = 3.64592 3.92348 3.78724
# Velocity P-wave (km/s) = 5.76313 6.14357 5.95639
#
# Compressibility (1/GPa) = 0.03282831
#
# Stress axis : x y z
#
# Youngs Moduli (GPa) = 45.39139 50.24365 65.83452
#
# Poissons Ratio (x) = 0.35937 0.62455
# Poissons Ratio (y) = 0.32467 -0.29571
# Poissons Ratio (z) = 0.43061 -0.22568
#
# Static dielectric constant tensor:
#      x y z
#    x 3.621790 0.000000 0.000000 
#    y 0.000000 3.899080 0.000000 
#    z 0.000000 0.000000 3.584350 
# 
# 
# High freq. dielectric constant tensor:
#      x y z
#    x 1.765960 0.000000 0.000000 
#    y 0.000000 1.786930 0.000000 
#    z 0.000000 0.000000 1.780790 
# 
# From -- ./inp_files/1700.got.cif
#   From: 2010.03.12/outbox.cif.g09.slc.cpg/sg31_1_cif.got.tgz:1700.got - 2010.04.14 01:42:59.
