data_PCOD8170990
_publ_section_title
;
Structure prediction by ZEFSAII (Michael W. Deem and Ramdas Pophale) SiO2 
 PCOD8170990
Probable space group: P N A 21
;
_chemical_formula_sum "Si O2"
_cell_formula_units_Z 28
_cell_length_a 12.302738
_cell_length_b 12.464084
_cell_length_c 7.914154
_cell_angle_alpha 90.000000
_cell_angle_beta 90.000000
_cell_angle_gamma 90.000000
_cell_volume 1213.575051
_symmetry_space_group_name_H-M "P N A 21"
_symmetry_group_IT_number 33
_symmetry_cell_setting 'orthorhombic'
loop_
_space_group_symop_operation_xyz
x,y,z
-x,-y,1/2+z
1/2-x,1/2+y,1/2+z
1/2+x,1/2-y,z
loop_
_atom_site_type_symbol
_atom_site_label
_atom_site_fract_x
_atom_site_fract_y
_atom_site_fract_z
Si Si1 0.976993 0.420990 0.062870
Si Si2 0.861529 0.994410 0.726294
Si Si3 0.798472 0.637741 0.410379
Si Si4 0.062556 0.357814 0.423164
Si Si5 0.218178 0.909398 0.769394
Si Si6 0.007419 0.874150 0.973112
Si Si7 0.248036 0.126782 0.932722
O O1 0.078111 0.394545 0.942339
O O2 0.995863 0.382379 0.252831
O O3 0.872793 0.360245 0.988659
O O4 0.959027 0.549459 0.060589
O O5 0.954937 0.070708 0.647100
O O6 0.827582 0.903525 0.592615
O O7 0.753620 0.063993 0.764522
O O8 0.906165 0.939556 0.895597
O O9 0.724744 0.623838 0.576138
O O10 0.793334 0.761840 0.354113
O O11 0.190049 0.349814 0.380143
O O12 0.026372 0.247696 0.510679
O O13 0.102195 0.872189 0.834748
O O14 0.235716 0.037632 0.786821
#
# Coordination Sequence:
#
# PCOD8170990 Si02
#       7
#     4   4   4   4   4   4   4
#     4  10  21  38  62  90 123 162 212 256 307 372
#     4  11  24  41  64  96 124 163 215 252 307 385
#     4  11  22  39  64  91 122 165 207 259 313 364
#     4  10  21  38  61  88 122 164 205 258 312 365
#     4   9  21  39  59  88 123 161 211 252 306 379
#     4  11  23  42  62  88 128 167 203 260 313 361
#     4  10  22  41  60  89 128 164 207 259 308 368
#
# _framework density 23.072329
#
# number of rings (size 3 to 8) (size 9 to 14) (size 15 to 20)
#    0.000    1.714    0.000    4.286    0.000    6.857 
#    0.000   14.286    0.000    0.000    0.000    0.000 
#    0.000    0.000    0.000    0.000    0.000    0.000 
#
# Total GULP energy -347363.073655 kJ/mol
# GULP energy per Si atom -12405.824059 kJ/mol
# Density = 2.301982 g / cm^3
# Si number density = 23.072329 Si / 1000 Ang^3
#
#
#
# Elastic Constant Matrix: (Units=GPa)
#
#
# Indices 1 2 3 4 5 6 
#
# 1 74.7479 26.1838 -5.9751 0.0000 0.0000 0.0000
# 2 26.1838 119.7552 10.5289 0.0000 0.0000 0.0000
# 3 -5.9751 10.5289 40.9664 0.0000 0.0000 0.0000
# 4 0.0000 0.0000 0.0000 25.0079 0.0000 0.0000
# 5 0.0000 0.0000 0.0000 0.0000 34.1887 0.0000
# 6 0.0000 0.0000 0.0000 0.0000 0.0000 11.8565
#
#
#
# Elastic Compliance Matrix: (Units=1/GPa)
#
#
# Indices 1 2 3 4 5 6 
#
# 1 0.014856 -0.003518 0.003071 0.000000 0.000000 0.000000
# 2 -0.003518 0.009377 -0.002923 0.000000 0.000000 0.000000
# 3 0.003071 -0.002923 0.025609 0.000000 0.000000 0.000000
# 4 0.000000 0.000000 0.000000 0.039987 0.000000 0.000000
# 5 0.000000 0.000000 0.000000 0.000000 0.029249 0.000000
# 6 0.000000 0.000000 0.000000 0.000000 0.000000 0.084342
#
#
# Mechanical properties :
#
#
# Convention : Reuss Voigt Hill
#
# Bulk Modulus (GPa) = 23.20090 32.99387 28.09738
# Shear Modulus (GPa) = 22.26887 27.85942 25.06415
#
# Velocity S-wave (km/s) = 3.11010 3.47865 3.29953
# Velocity P-wave (km/s) = 4.79317 5.51960 5.16916
#
# Compressibility (1/GPa) = 0.04310178
#
# Stress axis : x y z
#
# Youngs Moduli (GPa) = 67.31192 106.64833 39.04814
#
# Poissons Ratio (x) = 0.37521 -0.11992
# Poissons Ratio (y) = 0.23682 0.11414
# Poissons Ratio (z) = -0.20672 0.31174
#
# Static dielectric constant tensor:
#      x y z
#    x 4.223760 0.000000 0.000000 
#    y 0.000000 4.094320 0.000000 
#    z 0.000000 0.000000 3.861470 
# 
# 
# High freq. dielectric constant tensor:
#      x y z
#    x 1.924160 0.000000 0.000000 
#    y 0.000000 1.911510 0.000000 
#    z 0.000000 0.000000 1.899300 
# 
# From -- ./inp_files/3825.got.cif
#   From: 2010.03.12/outbox.cif.g09.slc.cpg/sg33_2_cif.got.tgz:3825.got - 2010.04.14 01:49:19.
