data_PCOD8170842
_publ_section_title
;
Structure prediction by ZEFSAII (Michael W. Deem and Ramdas Pophale) SiO2 
 PCOD8170842
Probable space group: P N A 21
;
_chemical_formula_sum "Si O2"
_cell_formula_units_Z 28
_cell_length_a 19.707390
_cell_length_b 8.937809
_cell_length_c 7.444434
_cell_angle_alpha 90.000000
_cell_angle_beta 90.000000
_cell_angle_gamma 90.000000
_cell_volume 1311.269213
_symmetry_space_group_name_H-M "P N A 21"
_symmetry_group_IT_number 33
_symmetry_cell_setting 'orthorhombic'
loop_
_space_group_symop_operation_xyz
x,y,z
-x,-y,1/2+z
1/2-x,1/2+y,1/2+z
1/2+x,1/2-y,z
loop_
_atom_site_type_symbol
_atom_site_label
_atom_site_fract_x
_atom_site_fract_y
_atom_site_fract_z
Si Si1 0.787383 0.516588 0.802580
Si Si2 0.199884 0.554254 0.920527
Si Si3 0.572047 0.557083 0.399219
Si Si4 0.338902 0.701192 0.973945
Si Si5 0.577260 0.487140 0.008255
Si Si6 0.849728 0.181588 0.216443
Si Si7 0.186753 0.209415 0.882521
O O1 0.823498 0.437844 0.630982
O O2 0.726694 0.619101 0.722215
O O3 0.755738 0.385377 0.928723
O O4 0.838036 0.622643 0.917466
O O5 0.149020 0.647846 0.791995
O O6 0.200577 0.382422 0.869774
O O7 0.274398 0.619850 0.886476
O O8 0.592516 0.380930 0.411722
O O9 0.577780 0.590691 0.186627
O O10 0.496466 0.580429 0.470850
O O11 0.621476 0.667582 0.512837
O O12 0.337444 0.666660 0.184258
O O13 0.600536 0.588614 0.844050
O O14 0.628867 0.343576 0.023435
#
# Coordination Sequence:
#
# PCOD8170842 Si02
#       7
#     4   4   4   4   4   4   4
#     4   9  19  37  57  87 123 155 197 249 309 371
#     4  10  20  36  60  85 129 154 199 256 308 368
#     4  12  20  39  67  88 120 161 212 255 316 364
#     4  10  20  36  59  91 121 157 201 258 304 374
#     4  11  22  38  68  85 116 165 211 260 305 371
#     4  10  21  40  57  91 122 155 209 251 299 377
#     4  10  20  38  58  87 123 161 205 249 309 369
#
# _framework density 21.353356000000002
#
# number of rings (size 3 to 8) (size 9 to 14) (size 15 to 20)
#    0.000    1.714    5.714    0.857    0.000    6.857 
#    2.571    0.000    6.286    0.000    0.000    0.000 
#    0.000    0.000    0.000    0.000    0.000    0.000 
#
# Total GULP energy -346998.877355 kJ/mol
# GULP energy per Si atom -12392.817048 kJ/mol
# Density = 2.130476 g / cm^3
# Si number density = 21.353356 Si / 1000 Ang^3
#
#
#
# Elastic Constant Matrix: (Units=GPa)
#
#
# Indices 1 2 3 4 5 6 
#
# 1 55.1013 24.8006 22.8268 0.0000 0.0000 0.0000
# 2 24.8006 129.3180 20.7399 0.0000 0.0000 0.0000
# 3 22.8268 20.7399 94.1550 0.0000 0.0000 0.0000
# 4 0.0000 0.0000 0.0000 30.0113 0.0000 0.0000
# 5 0.0000 0.0000 0.0000 0.0000 24.0212 0.0000
# 6 0.0000 0.0000 0.0000 0.0000 0.0000 13.1775
#
#
#
# Elastic Compliance Matrix: (Units=1/GPa)
#
#
# Indices 1 2 3 4 5 6 
#
# 1 0.021536 -0.003413 -0.004469 0.000000 0.000000 0.000000
# 2 -0.003413 0.008557 -0.001057 0.000000 0.000000 0.000000
# 3 -0.004469 -0.001057 0.011937 0.000000 0.000000 0.000000
# 4 0.000000 0.000000 0.000000 0.033321 0.000000 0.000000
# 5 0.000000 0.000000 0.000000 0.000000 0.041630 0.000000
# 6 0.000000 0.000000 0.000000 0.000000 0.000000 0.075887
#
#
# Mechanical properties :
#
#
# Convention : Reuss Voigt Hill
#
# Bulk Modulus (GPa) = 41.40729 46.14543 43.77636
# Shear Modulus (GPa) = 22.85210 27.45581 25.15395
#
# Velocity S-wave (km/s) = 3.27492 3.58967 3.43590
# Velocity P-wave (km/s) = 5.80807 6.23204 6.02379
#
# Compressibility (1/GPa) = 0.02415034
#
# Stress axis : x y z
#
# Youngs Moduli (GPa) = 46.43334 116.86229 83.77154
#
# Poissons Ratio (x) = 0.39890 0.37440
# Poissons Ratio (y) = 0.15850 0.08858
# Poissons Ratio (z) = 0.20753 0.12356
#
# Static dielectric constant tensor:
#      x y z
#    x 3.606060 0.000000 0.000000 
#    y 0.000000 3.972740 0.000000 
#    z 0.000000 0.000000 4.195150 
# 
# 
# High freq. dielectric constant tensor:
#      x y z
#    x 1.794690 0.000000 0.000000 
#    y 0.000000 1.826200 0.000000 
#    z 0.000000 0.000000 1.856160 
# 
# From -- ./inp_files/4761.got.cif
#   From: 2010.03.12/outbox.cif.g09.slc.cpg/sg33_3_cif.got.tgz:4761.got - 2010.04.14 01:49:19.
