data_PCOD8170886
_publ_section_title
;
Structure prediction by ZEFSAII (Michael W. Deem and Ramdas Pophale) SiO2 
 PCOD8170886
Probable space group: P N A 21
;
_chemical_formula_sum "Si O2"
_cell_formula_units_Z 28
_cell_length_a 5.615619
_cell_length_b 25.916917
_cell_length_c 8.533369
_cell_angle_alpha 90.000000
_cell_angle_beta 90.000000
_cell_angle_gamma 90.000000
_cell_volume 1241.942527
_symmetry_space_group_name_H-M "P N A 21"
_symmetry_group_IT_number 33
_symmetry_cell_setting 'orthorhombic'
loop_
_space_group_symop_operation_xyz
x,y,z
-x,-y,1/2+z
1/2-x,1/2+y,1/2+z
1/2+x,1/2-y,z
loop_
_atom_site_type_symbol
_atom_site_label
_atom_site_fract_x
_atom_site_fract_y
_atom_site_fract_z
Si Si1 0.692953 0.059812 0.763600
Si Si2 0.000000 0.104491 0.009950
Si Si3 0.500000 0.219771 0.009950
Si Si4 0.500000 0.617804 0.009950
Si Si5 0.192952 0.559812 0.756301
Si Si6 0.175617 0.354340 0.255915
Si Si7 0.324384 0.145660 0.763985
O O1 0.796088 0.068880 0.936779
O O2 0.881588 0.079219 0.634917
O O3 0.448640 0.090501 0.742269
O O4 0.630605 1.000000 0.759950
O O5 0.106899 0.143212 0.883752
O O6 0.893101 0.143212 0.136148
O O7 0.203913 0.068881 0.083121
O O8 0.750000 0.250000 0.009950
O O9 0.504136 0.187105 0.844262
O O10 0.495864 0.187105 0.175638
O O11 0.381588 0.579219 0.884983
O O12 0.698192 0.655591 0.926217
O O13 0.301806 0.655590 0.093683
O O14 0.948639 0.590501 0.777633
#
# Coordination Sequence:
#
# PCOD8170886 Si02
#       7
#     4   4   4   4   4   4   4
#     4  11  22  38  64 100 141 189 236 281 359 439
#     4  10  20  38  64  90 140 182 234 281 349 412
#     4  12  27  48  81 108 132 191 260 315 382 440
#     4  10  25  40  65  96 154 183 228 292 381 416
#     4  11  22  38  64 100 141 189 236 281 359 439
#     4  11  23  44  67 100 139 180 235 307 356 445
#     4  11  23  44  67 100 139 180 235 307 356 445
#
# _framework density 22.545324999999998
#
# number of rings (size 3 to 8) (size 9 to 14) (size 15 to 20)
#    0.000    1.143    2.857    2.571    4.000    9.143 
#    0.000    1.429    0.000    0.000    0.000    0.000 
#    0.000    0.000    0.000    0.000    0.000    0.000 
#
# Total GULP energy -346882.055159 kJ/mol
# GULP energy per Si atom -12388.644827 kJ/mol
# Density = 2.249401 g / cm^3
# Si number density = 22.545325 Si / 1000 Ang^3
#
#
#
# Elastic Constant Matrix: (Units=GPa)
#
#
# Indices 1 2 3 4 5 6 
#
# 1 124.8241 46.2398 41.3816 0.0000 0.0000 0.0000
# 2 46.2398 98.4671 34.2242 0.0000 0.0000 0.0000
# 3 41.3816 34.2242 114.9380 0.0000 0.0000 0.0000
# 4 0.0000 0.0000 0.0000 20.6976 0.0000 0.0000
# 5 0.0000 0.0000 0.0000 0.0000 52.4316 0.0000
# 6 0.0000 0.0000 0.0000 0.0000 0.0000 38.8630
#
#
#
# Elastic Compliance Matrix: (Units=1/GPa)
#
#
# Indices 1 2 3 4 5 6 
#
# 1 0.010321 -0.003965 -0.002535 0.000000 0.000000 0.000000
# 2 -0.003965 0.012852 -0.002399 0.000000 0.000000 0.000000
# 3 -0.002535 -0.002399 0.010327 0.000000 0.000000 0.000000
# 4 0.000000 0.000000 0.000000 0.048315 0.000000 0.000000
# 5 0.000000 0.000000 0.000000 0.000000 0.019072 0.000000
# 6 0.000000 0.000000 0.000000 0.000000 0.000000 0.025731
#
#
# Mechanical properties :
#
#
# Convention : Reuss Voigt Hill
#
# Bulk Modulus (GPa) = 63.69155 64.65782 64.17469
# Shear Modulus (GPa) = 33.41110 36.82402 35.11756
#
# Velocity S-wave (km/s) = 3.85379 4.04584 3.95098
# Velocity P-wave (km/s) = 6.93643 7.11100 7.02426
#
# Compressibility (1/GPa) = 0.01570067
#
# Stress axis : x y z
#
# Youngs Moduli (GPa) = 96.89326 77.81090 96.82995
#
# Poissons Ratio (x) = 0.30855 0.24547
# Poissons Ratio (y) = 0.38422 0.23230
# Poissons Ratio (z) = 0.24563 0.18667
#
# Static dielectric constant tensor:
#      x y z
#    x 4.265790 0.000000 0.000000 
#    y 0.000000 3.839510 0.000000 
#    z 0.000000 0.000000 4.813090 
# 
# 
# High freq. dielectric constant tensor:
#      x y z
#    x 1.910710 0.000000 0.000000 
#    y 0.000000 1.848340 0.000000 
#    z 0.000000 0.000000 1.901620 
# 
# From -- ./inp_files/2814.got.cif
#   From: 2010.03.12/outbox.cif.g09.slc.cpg/sg33_2_cif.got.tgz:2814.got - 2010.04.14 01:49:19.
