data_PCOD8170157
_publ_section_title
;
Structure prediction by ZEFSAII (Michael W. Deem and Ramdas Pophale) SiO2 
 PCOD8170157
Probable space group: P M N 21
;
_chemical_formula_sum "Si O2"
_cell_formula_units_Z 32
_cell_length_a 8.683317
_cell_length_b 12.360175
_cell_length_c 14.414407
_cell_angle_alpha 90.000000
_cell_angle_beta 90.000000
_cell_angle_gamma 90.000000
_cell_volume 1547.059640
_symmetry_space_group_name_H-M "P M N 21"
_symmetry_group_IT_number 31
_symmetry_cell_setting 'orthorhombic'
loop_
_space_group_symop_operation_xyz
x,y,z
1/2-x,-y,1/2+z
-x,y,z
1/2+x,-y,1/2+z
loop_
_atom_site_type_symbol
_atom_site_label
_atom_site_fract_x
_atom_site_fract_y
_atom_site_fract_z
Si Si1 0.170119 0.039025 0.095670
Si Si2 0.323939 0.914360 0.379966
Si Si3 0.676021 0.222572 0.185220
Si Si4 0.679651 0.860728 0.856594
Si Si5 0.317313 0.320100 0.863001
Si Si6 0.817569 0.603150 0.164256
Si Si7 0.322418 0.194655 0.547260
Si Si8 0.818728 0.394553 0.054483
O O1 0.302809 0.098502 0.153097
O O2 0.000000 0.072955 0.131973
O O3 0.193279 0.911411 0.110955
O O4 0.185855 0.071068 0.989253
O O5 0.500000 0.913855 0.345541
O O6 0.245619 0.801407 0.353144
O O7 0.237827 0.017308 0.334898
O O8 0.500000 0.260124 0.178810
O O9 0.736596 0.227152 0.290300
O O10 0.781148 0.291497 0.116574
O O11 0.500000 0.857365 0.837803
O O12 0.715004 0.819138 0.958764
O O13 0.500000 0.312577 0.869572
O O14 0.263206 0.387708 0.771598
O O15 0.256684 0.383859 0.953106
O O16 0.758196 0.706481 0.107246
O O17 0.752035 0.497487 0.111533
O O18 0.000000 0.599882 0.162668
O O19 0.500000 0.210009 0.515243
O O20 0.000000 0.403177 0.038859
#
# Coordination Sequence:
#
# PCOD8170157 Si02
#       8
#     4   4   4   4   4   4   4   4
#     4   9  18  33  58  87 122 160 199 247 310 371
#     4  10  20  37  60  90 126 164 204 252 312 374
#     4  12  24  38  59  89 124 164 214 260 307 369
#     4  11  23  38  59  90 129 170 209 256 315 375
#     4  11  22  39  64  94 122 159 210 261 312 373
#     4   9  22  42  66  93 123 164 209 256 315 376
#     4   9  19  40  63  88 124 163 205 253 313 375
#     4  11  23  43  65  89 126 168 210 259 316 371
#
# _framework density 20.684401000000001
#
# number of rings (size 3 to 8) (size 9 to 14) (size 15 to 20)
#    0.000    1.750    1.250    4.125    1.750    3.000 
#    0.000    7.500    0.000    0.000    0.000    0.000 
#    0.000    0.000    0.000    0.000    0.000    0.000 
#
# Total GULP energy -396763.440841 kJ/mol
# GULP energy per Si atom -12398.857526 kJ/mol
# Density = 2.063732 g / cm^3
# Si number density = 20.684401 Si / 1000 Ang^3
#
#
#
# Elastic Constant Matrix: (Units=GPa)
#
#
# Indices 1 2 3 4 5 6 
#
# 1 83.0608 28.2146 25.9084 0.0000 0.0000 0.0000
# 2 28.2146 101.9867 68.1845 0.0000 0.0000 0.0000
# 3 25.9084 68.1845 115.0196 0.0000 0.0000 0.0000
# 4 0.0000 0.0000 0.0000 26.0409 0.0000 0.0000
# 5 0.0000 0.0000 0.0000 0.0000 29.3359 0.0000
# 6 0.0000 0.0000 0.0000 0.0000 0.0000 17.4003
#
#
#
# Elastic Compliance Matrix: (Units=1/GPa)
#
#
# Indices 1 2 3 4 5 6 
#
# 1 0.013416 -0.002801 -0.001361 0.000000 0.000000 0.000000
# 2 -0.002801 0.016828 -0.009345 0.000000 0.000000 0.000000
# 3 -0.001361 -0.009345 0.014540 0.000000 0.000000 0.000000
# 4 0.000000 0.000000 0.000000 0.038401 0.000000 0.000000
# 5 0.000000 0.000000 0.000000 0.000000 0.034088 0.000000
# 6 0.000000 0.000000 0.000000 0.000000 0.000000 0.057470
#
#
# Mechanical properties :
#
#
# Convention : Reuss Voigt Hill
#
# Bulk Modulus (GPa) = 56.27699 60.52026 58.39862
# Shear Modulus (GPa) = 24.07547 26.40604 25.24076
#
# Velocity S-wave (km/s) = 3.41536 3.57685 3.49704
# Velocity P-wave (km/s) = 6.54366 6.81035 6.67834
#
# Compressibility (1/GPa) = 0.01776925
#
# Stress axis : x y z
#
# Youngs Moduli (GPa) = 74.54036 59.42616 68.77437
#
# Poissons Ratio (x) = 0.16647 0.09362
# Poissons Ratio (y) = 0.20881 0.64266
# Poissons Ratio (z) = 0.10147 0.55531
#
# Static dielectric constant tensor:
#      x y z
#    x 3.590750 0.000000 0.000000 
#    y 0.000000 3.930480 0.000000 
#    z 0.000000 0.000000 3.850160 
# 
# 
# High freq. dielectric constant tensor:
#      x y z
#    x 1.797850 0.000000 0.000000 
#    y 0.000000 1.804190 0.000000 
#    z 0.000000 0.000000 1.818630 
# 
# From -- ./inp_files/5030.got.cif
#   From: 2010.03.12/outbox.cif.g09.slc.cpg/sg31_3_cif.got.tgz:5030.got - 2010.04.14 01:42:59.
