data_PCOD8170119
_publ_section_title
;
Structure prediction by ZEFSAII (Michael W. Deem and Ramdas Pophale) SiO2 
 PCOD8170119
Probable space group: P M N 21
;
_chemical_formula_sum "Si O2"
_cell_formula_units_Z 32
_cell_length_a 9.382204
_cell_length_b 11.280418
_cell_length_c 15.999445
_cell_angle_alpha 90.000000
_cell_angle_beta 90.000000
_cell_angle_gamma 90.000000
_cell_volume 1693.304188
_symmetry_space_group_name_H-M "P M N 21"
_symmetry_group_IT_number 31
_symmetry_cell_setting 'orthorhombic'
loop_
_space_group_symop_operation_xyz
x,y,z
1/2-x,-y,1/2+z
-x,y,z
1/2+x,-y,1/2+z
loop_
_atom_site_type_symbol
_atom_site_label
_atom_site_fract_x
_atom_site_fract_y
_atom_site_fract_z
Si Si1 0.338230 0.254450 0.853780
Si Si2 0.164913 0.237358 0.604917
Si Si3 0.161006 0.346296 0.147898
Si Si4 0.665067 0.694219 0.924688
Si Si5 0.168686 0.803315 0.769492
Si Si6 0.166515 0.077263 0.756855
Si Si7 0.664193 0.436105 0.995255
Si Si8 0.657659 0.407424 0.700755
O O1 0.500000 0.211121 0.843170
O O2 0.239437 0.140972 0.836279
O O3 0.293793 0.354582 0.788164
O O4 0.314403 0.316036 0.942108
O O5 0.194583 0.220458 0.505834
O O6 0.219444 0.130536 0.666216
O O7 0.237013 0.362122 0.628620
O O8 0.000000 0.256925 0.620288
O O9 0.262920 0.244902 0.183573
O O10 0.224367 0.413154 0.068175
O O11 0.158220 0.451663 0.215956
O O12 0.000000 0.298667 0.130643
O O13 0.500000 0.704881 0.897009
O O14 0.764037 0.741946 0.850658
O O15 0.702378 0.557080 0.945707
O O16 0.000000 0.780077 0.769234
O O17 0.207688 0.940989 0.765469
O O18 0.000000 0.097171 0.765935
O O19 0.500000 0.444670 0.026526
O O20 0.500000 0.363543 0.675190
#
# Coordination Sequence:
#
# PCOD8170119 Si02
#       8
#     4   4   4   4   4   4   4   4
#     4   9  18  33  56  82 108 143 180 224 279 336
#     4   9  17  33  59  84 107 143 185 232 282 333
#     4  11  22  36  56  82 116 150 185 231 281 341
#     4  10  20  36  60  87 116 146 189 239 286 348
#     4  11  24  40  57  79 115 156 194 240 287 334
#     4   9  20  39  58  79 110 146 193 239 277 331
#     4  10  20  36  57  86 120 147 181 229 286 347
#     4   9  17  31  53  81 112 141 175 222 276 332
#
# _framework density 18.897964000000002
#
# number of rings (size 3 to 8) (size 9 to 14) (size 15 to 20)
#    0.000    2.250    1.250    1.500    0.000    5.000 
#    2.250    2.500    0.000    0.000    0.000    0.000 
#    0.000    0.000    0.000    0.000    0.000    0.000 
#
# Total GULP energy -396566.752432 kJ/mol
# GULP energy per Si atom -12392.711014 kJ/mol
# Density = 1.885495 g / cm^3
# Si number density = 18.897964 Si / 1000 Ang^3
#
#
#
# Elastic Constant Matrix: (Units=GPa)
#
#
# Indices 1 2 3 4 5 6 
#
# 1 75.8569 54.1420 38.4703 0.0000 0.0000 0.0000
# 2 54.1420 113.6372 40.7716 0.0000 0.0000 0.0000
# 3 38.4703 40.7716 59.8641 0.0000 0.0000 0.0000
# 4 0.0000 0.0000 0.0000 25.6622 0.0000 0.0000
# 5 0.0000 0.0000 0.0000 0.0000 27.9402 0.0000
# 6 0.0000 0.0000 0.0000 0.0000 0.0000 29.4009
#
#
#
# Elastic Compliance Matrix: (Units=1/GPa)
#
#
# Indices 1 2 3 4 5 6 
#
# 1 0.023785 -0.007739 -0.010014 0.000000 0.000000 0.000000
# 2 -0.007739 0.014164 -0.004673 0.000000 0.000000 0.000000
# 3 -0.010014 -0.004673 0.026322 0.000000 0.000000 0.000000
# 4 0.000000 0.000000 0.000000 0.038968 0.000000 0.000000
# 5 0.000000 0.000000 0.000000 0.000000 0.035791 0.000000
# 6 0.000000 0.000000 0.000000 0.000000 0.000000 0.034013
#
#
# Mechanical properties :
#
#
# Convention : Reuss Voigt Hill
#
# Bulk Modulus (GPa) = 51.49676 57.34734 54.42205
# Shear Modulus (GPa) = 22.28478 24.33228 23.30853
#
# Velocity S-wave (km/s) = 3.43770 3.59215 3.51577
# Velocity P-wave (km/s) = 6.56247 6.90046 6.73359
#
# Compressibility (1/GPa) = 0.01941870
#
# Stress axis : x y z
#
# Youngs Moduli (GPa) = 42.04304 70.60138 37.99055
#
# Poissons Ratio (x) = 0.54642 0.38043
# Poissons Ratio (y) = 0.32539 0.17753
# Poissons Ratio (z) = 0.42101 0.32993
#
# Static dielectric constant tensor:
#      x y z
#    x 3.468320 0.000000 0.000000 
#    y 0.000000 3.519460 0.000000 
#    z 0.000000 0.000000 3.569050 
# 
# 
# High freq. dielectric constant tensor:
#      x y z
#    x 1.733760 0.000000 0.000000 
#    y 0.000000 1.725220 0.000000 
#    z 0.000000 0.000000 1.730230 
# 
# From -- ./inp_files/5877.got.cif
#   From: 2010.03.12/outbox.cif.g09.slc.cpg/sg31_3_cif.got.tgz:5877.got - 2010.04.14 01:42:59.
