data_PCOD8170341
_publ_section_title
;
Structure prediction by ZEFSAII (Michael W. Deem and Ramdas Pophale) SiO2 
 PCOD8170341
Probable space group: P M N 21
;
_chemical_formula_sum "Si O2"
_cell_formula_units_Z 24
_cell_length_a 8.549970
_cell_length_b 11.714953
_cell_length_c 11.826027
_cell_angle_alpha 90.000000
_cell_angle_beta 90.000000
_cell_angle_gamma 90.000000
_cell_volume 1184.524390
_symmetry_space_group_name_H-M "P M N 21"
_symmetry_group_IT_number 31
_symmetry_cell_setting 'orthorhombic'
loop_
_space_group_symop_operation_xyz
x,y,z
1/2-x,-y,1/2+z
-x,y,z
1/2+x,-y,1/2+z
loop_
_atom_site_type_symbol
_atom_site_label
_atom_site_fract_x
_atom_site_fract_y
_atom_site_fract_z
Si Si1 0.180456 0.580248 0.075670
Si Si2 0.182855 0.231051 0.720512
Si Si3 0.179464 0.655417 0.637338
Si Si4 0.818807 0.166012 0.972228
Si Si5 0.179082 0.291252 0.371780
Si Si6 0.820702 0.072273 0.516680
O O1 0.224490 0.655091 0.185475
O O2 0.210575 0.448654 0.102092
O O3 0.000000 0.597937 0.045610
O O4 0.282927 0.616878 0.968383
O O5 0.234806 0.196703 0.845672
O O6 0.225477 0.126908 0.637214
O O7 0.000000 0.259429 0.711483
O O8 0.214658 0.762964 0.558521
O O9 0.209040 0.691063 0.765977
O O10 0.000000 0.618933 0.624096
O O11 0.000000 0.195019 0.991267
O O12 0.792968 0.032641 0.993702
O O13 0.207548 0.164381 0.418404
O O14 0.000000 0.308544 0.334437
O O15 0.000000 0.030579 0.517463
#
# Coordination Sequence:
#
# PCOD8170341 Si02
#       6
#     4   4   4   4   4   4
#     4  11  23  41  66  94 124 162 207 254 312 372
#     4   9  21  42  64  88 124 166 207 256 309 364
#     4  12  26  42  63  91 127 166 208 257 310 366
#     4  11  24  40  62  93 127 163 209 258 306 365
#     4  10  22  43  67  93 125 162 207 256 310 370
#     4   9  20  40  64  91 123 161 202 253 313 369
#
# _framework density 20.261296000000002
#
# number of rings (size 3 to 8) (size 9 to 14) (size 15 to 20)
#    0.000    1.667    0.000    5.000    4.667    4.667 
#    0.000    0.000    0.000    0.000    0.000    0.000 
#    0.000    0.000    0.000    0.000    0.000    0.000 
#
# Total GULP energy -297769.689280 kJ/mol
# GULP energy per Si atom -12407.070387 kJ/mol
# Density = 2.021518 g / cm^3
# Si number density = 20.261296 Si / 1000 Ang^3
#
#
#
# Elastic Constant Matrix: (Units=GPa)
#
#
# Indices 1 2 3 4 5 6 
#
# 1 67.3804 24.0380 17.5120 0.0000 0.0000 0.0000
# 2 24.0380 107.5682 42.0935 0.0000 0.0000 0.0000
# 3 17.5120 42.0935 108.4649 0.0000 0.0000 0.0000
# 4 0.0000 0.0000 0.0000 21.1935 0.0000 0.0000
# 5 0.0000 0.0000 0.0000 0.0000 28.7785 0.0000
# 6 0.0000 0.0000 0.0000 0.0000 0.0000 34.7714
#
#
#
# Elastic Compliance Matrix: (Units=1/GPa)
#
#
# Indices 1 2 3 4 5 6 
#
# 1 0.016315 -0.003083 -0.001437 0.000000 0.000000 0.000000
# 2 -0.003083 0.011544 -0.003982 0.000000 0.000000 0.000000
# 3 -0.001437 -0.003982 0.010997 0.000000 0.000000 0.000000
# 4 0.000000 0.000000 0.000000 0.047184 0.000000 0.000000
# 5 0.000000 0.000000 0.000000 0.000000 0.034748 0.000000
# 6 0.000000 0.000000 0.000000 0.000000 0.000000 0.028759
#
#
# Mechanical properties :
#
#
# Convention : Reuss Voigt Hill
#
# Bulk Modulus (GPa) = 45.76731 50.07784 47.92257
# Shear Modulus (GPa) = 28.76272 30.26669 29.51470
#
# Velocity S-wave (km/s) = 3.77183 3.86919 3.82082
# Velocity P-wave (km/s) = 6.45031 6.68808 6.57027
#
# Compressibility (1/GPa) = 0.02184966
#
# Stress axis : x y z
#
# Youngs Moduli (GPa) = 61.29455 86.62717 90.93341
#
# Poissons Ratio (x) = 0.26710 0.13072
# Poissons Ratio (y) = 0.18899 0.36211
# Poissons Ratio (z) = 0.08811 0.34496
#
# Static dielectric constant tensor:
#      x y z
#    x 3.575110 0.000000 0.000000 
#    y 0.000000 3.555440 0.000000 
#    z 0.000000 0.000000 3.776530 
# 
# 
# High freq. dielectric constant tensor:
#      x y z
#    x 1.793530 0.000000 0.000000 
#    y 0.000000 1.794390 0.000000 
#    z 0.000000 0.000000 1.798490 
# 
# From -- ./inp_files/3445.got.cif
#   From: 2010.03.12/outbox.cif.g09.slc.cpg/sg31_2_cif.got.tgz:3445.got - 2010.04.14 01:42:59.
