data_PCOD8170938
_publ_section_title
;
Structure prediction by ZEFSAII (Michael W. Deem and Ramdas Pophale) SiO2 
 PCOD8170938
Probable space group: P N A 21
;
_chemical_formula_sum "Si O2"
_cell_formula_units_Z 16
_cell_length_a 13.327904
_cell_length_b 10.331531
_cell_length_c 5.093122
_cell_angle_alpha 90.000000
_cell_angle_beta 90.000000
_cell_angle_gamma 90.000000
_cell_volume 701.310948
_symmetry_space_group_name_H-M "P N A 21"
_symmetry_group_IT_number 33
_symmetry_cell_setting 'orthorhombic'
loop_
_space_group_symop_operation_xyz
x,y,z
-x,-y,1/2+z
1/2-x,1/2+y,1/2+z
1/2+x,1/2-y,z
loop_
_atom_site_type_symbol
_atom_site_label
_atom_site_fract_x
_atom_site_fract_y
_atom_site_fract_z
Si Si1 0.440810 0.461049 0.295090
Si Si2 0.115515 0.428919 0.743363
Si Si3 0.718818 0.996335 0.229482
Si Si4 0.433833 0.178068 0.498414
O O1 0.483026 0.531313 0.552745
O O2 0.337341 0.529237 0.209212
O O3 0.416800 0.312137 0.354681
O O4 0.195309 0.444742 0.511510
O O5 0.051922 0.563828 0.780264
O O6 0.034879 0.316632 0.677483
O O7 0.179789 0.400795 0.007385
O O8 0.663581 0.858003 0.176919
#
# Coordination Sequence:
#
# PCOD8170938 Si02
#       4
#     4   4   4   4
#     4  12  29  46  66 110 151 190 230 302 370 415
#     4  10  20  42  74 103 127 189 238 296 341 418
#     4  10  22  44  67 101 137 188 243 272 364 421
#     4  10  23  44  75 104 141 177 251 292 349 442
#
# _framework density 22.814416999999999
#
# number of rings (size 3 to 8) (size 9 to 14) (size 15 to 20)
#    1.500    0.000    2.500    1.500    3.500    2.000 
#    4.500    0.000    0.000    0.000    0.000    0.000 
#    0.000    0.000    0.000    0.000    0.000    0.000 
#
# Total GULP energy -198341.800138 kJ/mol
# GULP energy per Si atom -12396.362509 kJ/mol
# Density = 2.276249 g / cm^3
# Si number density = 22.814417 Si / 1000 Ang^3
#
#
#
# Elastic Constant Matrix: (Units=GPa)
#
#
# Indices 1 2 3 4 5 6 
#
# 1 133.3540 42.0135 49.9450 0.0000 0.0000 0.0000
# 2 42.0135 46.4210 12.9887 0.0000 0.0000 0.0000
# 3 49.9450 12.9887 143.7141 0.0000 0.0000 0.0000
# 4 0.0000 0.0000 0.0000 29.4280 0.0000 0.0000
# 5 0.0000 0.0000 0.0000 0.0000 46.9787 0.0000
# 6 0.0000 0.0000 0.0000 0.0000 0.0000 19.6762
#
#
#
# Elastic Compliance Matrix: (Units=1/GPa)
#
#
# Indices 1 2 3 4 5 6 
#
# 1 0.011776 -0.009760 -0.003210 0.000000 0.000000 0.000000
# 2 -0.009760 0.030189 0.000663 0.000000 0.000000 0.000000
# 3 -0.003210 0.000663 0.008014 0.000000 0.000000 0.000000
# 4 0.000000 0.000000 0.000000 0.033981 0.000000 0.000000
# 5 0.000000 0.000000 0.000000 0.000000 0.021286 0.000000
# 6 0.000000 0.000000 0.000000 0.000000 0.000000 0.050823
#
#
# Mechanical properties :
#
#
# Convention : Reuss Voigt Hill
#
# Bulk Modulus (GPa) = 39.42309 59.26482 49.34395
# Shear Modulus (GPa) = 26.43559 33.78603 30.11081
#
# Velocity S-wave (km/s) = 3.40770 3.85243 3.63687
# Velocity P-wave (km/s) = 5.72718 6.76917 6.26986
#
# Compressibility (1/GPa) = 0.02536585
#
# Stress axis : x y z
#
# Youngs Moduli (GPa) = 84.91797 33.12418 124.78089
#
# Poissons Ratio (x) = 0.32328 0.40061
# Poissons Ratio (y) = 0.82877 -0.08277
# Poissons Ratio (z) = 0.27263 -0.02197
#
# Static dielectric constant tensor:
#      x y z
#    x 3.983470 0.000000 0.000000 
#    y 0.000000 3.556110 0.000000 
#    z 0.000000 0.000000 4.114500 
# 
# 
# High freq. dielectric constant tensor:
#      x y z
#    x 1.906640 0.000000 0.000000 
#    y 0.000000 1.855880 0.000000 
#    z 0.000000 0.000000 1.911330 
# 
# From -- ./inp_files/659.got.cif
#   From: 2010.03.12/outbox.cif.g09.slc.cpg/sg33_1_cif.got.tgz:659.got - 2010.04.14 01:49:19.
