data_PCOD8170207
_publ_section_title
;
Structure prediction by ZEFSAII (Michael W. Deem and Ramdas Pophale) SiO2 
 PCOD8170207
Probable space group: P M N 21
;
_chemical_formula_sum "Si O2"
_cell_formula_units_Z 32
_cell_length_a 9.581692
_cell_length_b 16.090320
_cell_length_c 10.759393
_cell_angle_alpha 90.000000
_cell_angle_beta 90.000000
_cell_angle_gamma 90.000000
_cell_volume 1658.802414
_symmetry_space_group_name_H-M "P M N 21"
_symmetry_group_IT_number 31
_symmetry_cell_setting 'orthorhombic'
loop_
_space_group_symop_operation_xyz
x,y,z
1/2-x,-y,1/2+z
-x,y,z
1/2+x,-y,1/2+z
loop_
_atom_site_type_symbol
_atom_site_label
_atom_site_fract_x
_atom_site_fract_y
_atom_site_fract_z
Si Si1 0.162361 0.164166 0.916320
Si Si2 0.654344 0.140695 0.558655
Si Si3 0.662689 0.455089 0.680329
Si Si4 0.843136 0.034180 0.707913
Si Si5 0.656199 0.146407 0.148270
Si Si6 0.152045 0.725152 0.268928
Si Si7 0.666293 0.450524 0.394610
Si Si8 0.839187 0.734999 0.863222
O O1 0.197250 0.085110 0.830582
O O2 0.232488 0.250736 0.871077
O O3 0.000000 0.182468 0.928872
O O4 0.224434 0.140669 0.047821
O O5 0.500000 0.109471 0.516569
O O6 0.746874 0.060513 0.591292
O O7 0.641424 0.197808 0.678269
O O8 0.730844 0.196396 0.453308
O O9 0.500000 0.476074 0.703981
O O10 0.693523 0.357122 0.692959
O O11 0.702258 0.480218 0.536787
O O12 0.755472 0.498187 0.787036
O O13 0.000000 0.056985 0.668501
O O14 0.826950 0.935763 0.734957
O O15 0.500000 0.146562 0.089449
O O16 0.678464 0.231385 0.223980
O O17 0.000000 0.711700 0.333191
O O18 0.500000 0.456529 0.371444
O O19 0.724260 0.356658 0.376874
O O20 0.000000 0.729553 0.905408
#
# Coordination Sequence:
#
# PCOD8170207 Si02
#       8
#     4   4   4   4   4   4   4   4
#     4  10  21  36  53  79 113 143 180 230 283 334
#     4   9  16  31  59  82  98 133 183 224 262 319
#     4  10  21  38  60  88 118 151 194 244 294 355
#     4   9  20  35  51  77 110 142 176 225 279 325
#     4  10  21  36  54  77 109 148 188 228 277 337
#     4   9  17  34  59  81 103 138 183 225 271 331
#     4  10  21  39  61  87 119 153 196 247 298 351
#     4   9  18  35  59  81 104 144 190 229 272 330
#
# _framework density 19.291025000000001
#
# number of rings (size 3 to 8) (size 9 to 14) (size 15 to 20)
#    0.000    2.500    1.250    0.375    1.750    3.000 
#    0.000    5.625    0.000    0.000    0.000    0.000 
#    0.000    0.000    0.000    0.000    0.000    0.000 
#
# Total GULP energy -396547.817315 kJ/mol
# GULP energy per Si atom -12392.119291 kJ/mol
# Density = 1.924712 g / cm^3
# Si number density = 19.291025 Si / 1000 Ang^3
#
#
#
# Elastic Constant Matrix: (Units=GPa)
#
#
# Indices 1 2 3 4 5 6 
#
# 1 76.2365 30.5011 52.5067 0.0000 0.0000 0.0000
# 2 30.5011 68.0041 35.4372 0.0000 0.0000 0.0000
# 3 52.5067 35.4372 100.3681 0.0000 0.0000 0.0000
# 4 0.0000 0.0000 0.0000 29.0558 0.0000 0.0000
# 5 0.0000 0.0000 0.0000 0.0000 23.5251 0.0000
# 6 0.0000 0.0000 0.0000 0.0000 0.0000 23.4072
#
#
#
# Elastic Compliance Matrix: (Units=1/GPa)
#
#
# Indices 1 2 3 4 5 6 
#
# 1 0.021650 -0.004667 -0.009678 0.000000 0.000000 0.000000
# 2 -0.004667 0.019027 -0.004276 0.000000 0.000000 0.000000
# 3 -0.009678 -0.004276 0.016536 0.000000 0.000000 0.000000
# 4 0.000000 0.000000 0.000000 0.034417 0.000000 0.000000
# 5 0.000000 0.000000 0.000000 0.000000 0.042508 0.000000
# 6 0.000000 0.000000 0.000000 0.000000 0.000000 0.042722
#
#
# Mechanical properties :
#
#
# Convention : Reuss Voigt Hill
#
# Bulk Modulus (GPa) = 50.07558 53.49987 51.78772
# Shear Modulus (GPa) = 22.64915 23.60852 23.12883
#
# Velocity S-wave (km/s) = 3.43020 3.50209 3.46633
# Velocity P-wave (km/s) = 6.45776 6.64425 6.55167
#
# Compressibility (1/GPa) = 0.01996981
#
# Stress axis : x y z
#
# Youngs Moduli (GPa) = 46.18933 52.55797 60.47333
#
# Poissons Ratio (x) = 0.24529 0.58527
# Poissons Ratio (y) = 0.21557 0.25860
# Poissons Ratio (z) = 0.44703 0.22475
#
# Static dielectric constant tensor:
#      x y z
#    x 3.543550 0.000000 0.000000 
#    y 0.000000 3.557730 0.000000 
#    z 0.000000 0.000000 3.428900 
# 
# 
# High freq. dielectric constant tensor:
#      x y z
#    x 1.730200 0.000000 0.000000 
#    y 0.000000 1.748820 0.000000 
#    z 0.000000 0.000000 1.744640 
# 
# From -- ./inp_files/3591.got.cif
#   From: 2010.03.12/outbox.cif.g09.slc.cpg/sg31_2_cif.got.tgz:3591.got - 2010.04.14 01:42:59.
