data_PCOD8170372
_publ_section_title
;
Structure prediction by ZEFSAII (Michael W. Deem and Ramdas Pophale) SiO2 
 PCOD8170372
Probable space group: P M N 21
;
_chemical_formula_sum "Si O2"
_cell_formula_units_Z 16
_cell_length_a 19.437732
_cell_length_b 4.881324
_cell_length_c 8.550205
_cell_angle_alpha 90.000000
_cell_angle_beta 90.000000
_cell_angle_gamma 90.000000
_cell_volume 811.259420
_symmetry_space_group_name_H-M "P M N 21"
_symmetry_group_IT_number 31
_symmetry_cell_setting 'orthorhombic'
loop_
_space_group_symop_operation_xyz
x,y,z
1/2-x,-y,1/2+z
-x,y,z
1/2+x,-y,1/2+z
loop_
_atom_site_type_symbol
_atom_site_label
_atom_site_fract_x
_atom_site_fract_y
_atom_site_fract_z
Si Si1 0.425520 0.442761 0.166000
Si Si2 0.214521 0.841017 0.385326
Si Si3 0.925338 0.056800 0.453263
Si Si4 0.717294 0.341397 0.243434
O O1 0.500000 0.517343 0.244853
O O2 0.411620 0.636218 0.015309
O O3 0.359914 0.457613 0.282105
O O4 0.428702 0.132115 0.106560
O O5 0.228673 0.584790 0.272539
O O6 0.222555 0.749733 0.563909
O O7 0.137915 0.957088 0.344982
O O8 0.268498 0.084224 0.354897
O O9 0.000000 0.043754 0.365033
#
# Coordination Sequence:
#
# PCOD8170372 Si02
#       4
#     4   4   4   4
#     4   9  17  31  52  77 102 133 179 224 255 297
#     4  11  21  35  55  80 109 140 176 219 268 318
#     4   9  17  31  52  77 102 133 179 224 255 297
#     4  11  21  35  55  80 109 140 176 219 268 318
#
# _framework density 19.722422999999999
#
# number of rings (size 3 to 8) (size 9 to 14) (size 15 to 20)
#    0.000    2.000    0.000    7.500    0.000    0.000 
#    0.000    0.000    0.000    9.000    0.000    0.000 
#    0.000    0.000    0.000    0.000    0.000    0.000 
#
# Total GULP energy -198240.741718 kJ/mol
# GULP energy per Si atom -12390.046357 kJ/mol
# Density = 1.967753 g / cm^3
# Si number density = 19.722423 Si / 1000 Ang^3
#
#
#
# Elastic Constant Matrix: (Units=GPa)
#
#
# Indices 1 2 3 4 5 6 
#
# 1 175.8539 52.6110 61.9314 0.0000 0.0000 0.0000
# 2 52.6110 100.2360 23.7131 0.0000 0.0000 0.0000
# 3 61.9314 23.7131 40.4711 0.0000 0.0000 0.0000
# 4 0.0000 0.0000 0.0000 30.0007 0.0000 0.0000
# 5 0.0000 0.0000 0.0000 0.0000 18.7777 0.0000
# 6 0.0000 0.0000 0.0000 0.0000 0.0000 23.9610
#
#
#
# Elastic Compliance Matrix: (Units=1/GPa)
#
#
# Indices 1 2 3 4 5 6 
#
# 1 0.012821 -0.002424 -0.018199 0.000000 0.000000 0.000000
# 2 -0.002424 0.012040 -0.003345 0.000000 0.000000 0.000000
# 3 -0.018199 -0.003345 0.054519 0.000000 0.000000 0.000000
# 4 0.000000 0.000000 0.000000 0.033333 0.000000 0.000000
# 5 0.000000 0.000000 0.000000 0.000000 0.053255 0.000000
# 6 0.000000 0.000000 0.000000 0.000000 0.000000 0.041734
#
#
# Mechanical properties :
#
#
# Convention : Reuss Voigt Hill
#
# Bulk Modulus (GPa) = 31.80378 65.89687 48.85032
# Shear Modulus (GPa) = 18.78850 26.43491 22.61171
#
# Velocity S-wave (km/s) = 3.08985 3.66505 3.38967
# Velocity P-wave (km/s) = 5.37496 7.16902 6.33581
#
# Compressibility (1/GPa) = 0.03144281
#
# Stress axis : x y z
#
# Youngs Moduli (GPa) = 77.99644 83.05553 18.34225
#
# Poissons Ratio (x) = 0.20132 0.33382
# Poissons Ratio (y) = 0.18906 0.06136
# Poissons Ratio (z) = 1.41949 0.27785
#
# Static dielectric constant tensor:
#      x y z
#    x 4.470410 0.000000 0.000000 
#    y 0.000000 3.837120 0.000000 
#    z 0.000000 0.000000 2.922280 
# 
# 
# High freq. dielectric constant tensor:
#      x y z
#    x 1.796120 0.000000 0.000000 
#    y 0.000000 1.799070 0.000000 
#    z 0.000000 0.000000 1.679680 
# 
# From -- ./inp_files/724.got.cif
#   From: 2010.03.12/outbox.cif.g09.slc.cpg/sg31_1_cif.got.tgz:724.got - 2010.04.14 01:42:59.
