data_PCOD8170148
_publ_section_title
;
Structure prediction by ZEFSAII (Michael W. Deem and Ramdas Pophale) SiO2 
 PCOD8170148
Probable space group: P M N 21
;
_chemical_formula_sum "Si O2"
_cell_formula_units_Z 32
_cell_length_a 8.730048
_cell_length_b 11.616023
_cell_length_c 14.480710
_cell_angle_alpha 90.000000
_cell_angle_beta 90.000000
_cell_angle_gamma 90.000000
_cell_volume 1468.466187
_symmetry_space_group_name_H-M "P M N 21"
_symmetry_group_IT_number 31
_symmetry_cell_setting 'orthorhombic'
loop_
_space_group_symop_operation_xyz
x,y,z
1/2-x,-y,1/2+z
-x,y,z
1/2+x,-y,1/2+z
loop_
_atom_site_type_symbol
_atom_site_label
_atom_site_fract_x
_atom_site_fract_y
_atom_site_fract_z
Si Si1 0.677376 0.949908 0.862130
Si Si2 0.330048 0.818112 0.351040
Si Si3 0.671644 0.688202 0.531863
Si Si4 0.681983 0.908524 0.064384
Si Si5 0.181270 0.668951 0.086250
Si Si6 0.180151 0.123996 0.168274
Si Si7 0.681248 0.580358 0.261618
Si Si8 0.320324 0.521742 0.936779
O O1 0.500000 0.945635 0.881218
O O2 0.723722 0.866923 0.777049
O O3 0.717925 0.078091 0.828993
O O4 0.753337 0.915977 0.960029
O O5 0.500000 0.852323 0.317153
O O6 0.330082 0.793286 0.459889
O O7 0.271958 0.705504 0.298757
O O8 0.500000 0.633910 0.538572
O O9 0.723405 0.750290 0.626810
O O10 0.787991 0.589805 0.500490
O O11 0.500000 0.895036 0.065714
O O12 0.754397 0.795270 0.111491
O O13 0.725823 0.021782 0.120885
O O14 0.242200 0.573612 0.160464
O O15 0.000000 0.669921 0.086868
O O16 0.244306 0.632147 0.985716
O O17 0.000000 0.098437 0.154792
O O18 0.500000 0.561567 0.255616
O O19 0.750727 0.488469 0.333703
O O20 0.500000 0.541767 0.928464
#
# Coordination Sequence:
#
# PCOD8170148 Si02
#       8
#     4   4   4   4   4   4   4   4
#     4  10  21  34  53  83 119 157 198 245 299 362
#     4   9  17  31  55  83 114 152 192 242 295 351
#     4   9  18  35  58  82 113 152 199 252 303 356
#     4  11  23  39  58  88 127 163 201 257 315 366
#     4  12  25  43  65  90 122 166 211 257 312 371
#     4  10  20  37  59  85 118 161 205 247 302 368
#     4  10  21  40  65  95 124 157 205 259 309 367
#     4  11  23  41  65  92 123 160 203 257 313 369
#
# _framework density 21.791446000000001
#
# number of rings (size 3 to 8) (size 9 to 14) (size 15 to 20)
#    0.000    1.750    1.250    4.500    0.000    6.000 
#    2.250    0.000    0.000    0.000    0.000    0.000 
#    0.000    0.000    0.000    0.000    0.000    0.000 
#
# Total GULP energy -396757.672855 kJ/mol
# GULP energy per Si atom -12398.677277 kJ/mol
# Density = 2.174185 g / cm^3
# Si number density = 21.791446 Si / 1000 Ang^3
#
#
#
# Elastic Constant Matrix: (Units=GPa)
#
#
# Indices 1 2 3 4 5 6 
#
# 1 97.4105 12.4885 32.3386 0.0000 0.0000 0.0000
# 2 12.4885 30.0443 -9.5559 0.0000 0.0000 0.0000
# 3 32.3386 -9.5559 79.6547 0.0000 0.0000 0.0000
# 4 0.0000 0.0000 0.0000 27.4146 0.0000 0.0000
# 5 0.0000 0.0000 0.0000 0.0000 22.5744 0.0000
# 6 0.0000 0.0000 0.0000 0.0000 0.0000 30.6618
#
#
#
# Elastic Compliance Matrix: (Units=1/GPa)
#
#
# Indices 1 2 3 4 5 6 
#
# 1 0.013331 -0.007551 -0.006318 0.000000 0.000000 0.000000
# 2 -0.007551 0.038882 0.007730 0.000000 0.000000 0.000000
# 3 -0.006318 0.007730 0.016047 0.000000 0.000000 0.000000
# 4 0.000000 0.000000 0.000000 0.036477 0.000000 0.000000
# 5 0.000000 0.000000 0.000000 0.000000 0.044298 0.000000
# 6 0.000000 0.000000 0.000000 0.000000 0.000000 0.032614
#
#
# Mechanical properties :
#
#
# Convention : Reuss Voigt Hill
#
# Bulk Modulus (GPa) = 17.86312 30.85022 24.35667
# Shear Modulus (GPa) = 23.51976 27.58607 25.55291
#
# Velocity S-wave (km/s) = 3.28885 3.56183 3.42806
# Velocity P-wave (km/s) = 4.75785 5.57703 5.18365
#
# Compressibility (1/GPa) = 0.05598128
#
# Stress axis : x y z
#
# Youngs Moduli (GPa) = 75.01044 25.71911 62.31828
#
# Poissons Ratio (x) = 0.19421 0.39374
# Poissons Ratio (y) = 0.56641 -0.48173
# Poissons Ratio (z) = 0.47394 -0.19881
#
# Static dielectric constant tensor:
#      x y z
#    x 3.699790 0.000000 0.000000 
#    y 0.000000 3.655800 0.000000 
#    z 0.000000 0.000000 4.329560 
# 
# 
# High freq. dielectric constant tensor:
#      x y z
#    x 1.844160 0.000000 0.000000 
#    y 0.000000 1.837300 0.000000 
#    z 0.000000 0.000000 1.872070 
# 
# From -- ./inp_files/4973.got.cif
#   From: 2010.03.12/outbox.cif.g09.slc.cpg/sg31_3_cif.got.tgz:4973.got - 2010.04.14 01:42:59.
