data_PCOD8170813
_publ_section_title
;
Structure prediction by ZEFSAII (Michael W. Deem and Ramdas Pophale) SiO2 
 PCOD8170813
Probable space group: P N A 21
;
_chemical_formula_sum "Si O2"
_cell_formula_units_Z 32
_cell_length_a 17.896021
_cell_length_b 10.686315
_cell_length_c 8.327251
_cell_angle_alpha 90.000000
_cell_angle_beta 90.000000
_cell_angle_gamma 90.000000
_cell_volume 1592.524446
_symmetry_space_group_name_H-M "P N A 21"
_symmetry_group_IT_number 33
_symmetry_cell_setting 'orthorhombic'
loop_
_space_group_symop_operation_xyz
x,y,z
-x,-y,1/2+z
1/2-x,1/2+y,1/2+z
1/2+x,1/2-y,z
loop_
_atom_site_type_symbol
_atom_site_label
_atom_site_fract_x
_atom_site_fract_y
_atom_site_fract_z
Si Si1 0.509808 0.061504 0.505390
Si Si2 0.644166 0.723200 0.670559
Si Si3 0.162582 0.533125 0.501246
Si Si4 0.810675 0.116777 0.503763
Si Si5 0.521040 0.174154 0.161418
Si Si6 0.102792 0.701597 0.227749
Si Si7 0.928953 0.076873 0.937182
Si Si8 0.422886 0.572173 0.622948
O O1 0.529082 0.096977 0.324673
O O2 0.457499 0.161229 0.593775
O O3 0.591646 0.036638 0.584927
O O4 0.471424 0.923971 0.514424
O O5 0.687543 0.845872 0.605836
O O6 0.678258 0.689507 0.839132
O O7 0.555913 0.750836 0.676262
O O8 0.645287 0.602885 0.548570
O O9 0.225503 0.427547 0.504645
O O10 0.140705 0.584913 0.321841
O O11 0.832015 0.213681 0.645748
O O12 0.859794 0.990636 0.512830
O O13 0.585822 0.277211 0.131675
O O14 0.055567 0.788761 0.349928
O O15 0.913514 0.971414 0.806548
O O16 0.998738 0.031204 0.043734
#
# Coordination Sequence:
#
# PCOD8170813 Si02
#       8
#     4   4   4   4   4   4   4   4
#     4  11  20  38  64  86 116 164 216 257 296 361
#     4   9  19  39  61  83 123 163 198 248 313 369
#     4  10  23  41  59  92 124 160 216 255 307 386
#     4  11  22  41  64  91 129 166 194 265 332 371
#     4  10  20  34  59  91 114 157 211 255 293 361
#     4  10  21  41  64  86 122 170 208 257 316 369
#     4   9  19  34  60  86 119 158 202 250 301 375
#     4  10  20  34  57  93 123 154 201 249 314 364
#
# _framework density 20.093881
#
# number of rings (size 3 to 8) (size 9 to 14) (size 15 to 20)
#    0.000    2.000    2.500    2.250    1.750    1.000 
#    2.250    3.750    0.000    0.000    0.000    0.000 
#    0.000    0.000    0.000    0.000    0.000    0.000 
#
# Total GULP energy -396434.886748 kJ/mol
# GULP energy per Si atom -12388.590211 kJ/mol
# Density = 2.004815 g / cm^3
# Si number density = 20.093881 Si / 1000 Ang^3
#
#
#
# Elastic Constant Matrix: (Units=GPa)
#
#
# Indices 1 2 3 4 5 6 
#
# 1 64.8861 38.3750 22.6406 0.0000 0.0000 0.0000
# 2 38.3750 96.7720 34.2576 0.0000 0.0000 0.0000
# 3 22.6406 34.2576 83.8212 0.0000 0.0000 0.0000
# 4 0.0000 0.0000 0.0000 35.8968 0.0000 0.0000
# 5 0.0000 0.0000 0.0000 0.0000 17.9895 0.0000
# 6 0.0000 0.0000 0.0000 0.0000 0.0000 40.1570
#
#
#
# Elastic Compliance Matrix: (Units=1/GPa)
#
#
# Indices 1 2 3 4 5 6 
#
# 1 0.020608 -0.007251 -0.002603 0.000000 0.000000 0.000000
# 2 -0.007251 0.014633 -0.004022 0.000000 0.000000 0.000000
# 3 -0.002603 -0.004022 0.014277 0.000000 0.000000 0.000000
# 4 0.000000 0.000000 0.000000 0.027858 0.000000 0.000000
# 5 0.000000 0.000000 0.000000 0.000000 0.055588 0.000000
# 6 0.000000 0.000000 0.000000 0.000000 0.000000 0.024902
#
#
# Mechanical properties :
#
#
# Convention : Reuss Voigt Hill
#
# Bulk Modulus (GPa) = 45.94211 48.44730 47.19471
# Shear Modulus (GPa) = 25.92392 28.82241 27.37317
#
# Velocity S-wave (km/s) = 3.59575 3.79144 3.69489
# Velocity P-wave (km/s) = 6.33661 6.58251 6.46073
#
# Compressibility (1/GPa) = 0.02176652
#
# Stress axis : x y z
#
# Youngs Moduli (GPa) = 48.52467 68.34065 70.04280
#
# Poissons Ratio (x) = 0.49552 0.18232
# Poissons Ratio (y) = 0.35184 0.28170
# Poissons Ratio (z) = 0.12631 0.27486
#
# Static dielectric constant tensor:
#      x y z
#    x 3.314760 0.000000 0.000000 
#    y 0.000000 3.907560 0.000000 
#    z 0.000000 0.000000 3.926080 
# 
# 
# High freq. dielectric constant tensor:
#      x y z
#    x 1.740750 0.000000 0.000000 
#    y 0.000000 1.794280 0.000000 
#    z 0.000000 0.000000 1.792060 
# 
# From -- ./inp_files/4849.got.cif
#   From: 2010.03.12/outbox.cif.g09.slc.cpg/sg33_3_cif.got.tgz:4849.got - 2010.04.14 01:49:19.
