data_PCOD8170751
_publ_section_title
;
Structure prediction by ZEFSAII (Michael W. Deem and Ramdas Pophale) SiO2 
 PCOD8170751
Probable space group: P N A 21
;
_chemical_formula_sum "Si O2"
_cell_formula_units_Z 32
_cell_length_a 5.473882
_cell_length_b 17.424360
_cell_length_c 14.069318
_cell_angle_alpha 90.000000
_cell_angle_beta 90.000000
_cell_angle_gamma 90.000000
_cell_volume 1341.915942
_symmetry_space_group_name_H-M "P N A 21"
_symmetry_group_IT_number 33
_symmetry_cell_setting 'orthorhombic'
loop_
_space_group_symop_operation_xyz
x,y,z
-x,-y,1/2+z
1/2-x,1/2+y,1/2+z
1/2+x,1/2-y,z
loop_
_atom_site_type_symbol
_atom_site_label
_atom_site_fract_x
_atom_site_fract_y
_atom_site_fract_z
Si Si1 0.471535 0.558848 0.302590
Si Si2 0.149070 0.273980 0.348043
Si Si3 0.781957 0.785111 0.056257
Si Si4 0.528196 0.441162 0.586763
Si Si5 0.149536 0.273969 0.041286
Si Si6 0.718570 0.285118 0.833069
Si Si7 0.698506 0.061705 0.971465
Si Si8 0.301802 0.938312 0.917888
O O1 0.563753 0.545986 0.194695
O O2 0.262919 0.624462 0.307130
O O3 0.684313 0.589978 0.372120
O O4 0.385821 0.477191 0.344125
O O5 0.411400 0.261781 0.293143
O O6 0.210148 0.225811 0.443203
O O7 0.091888 0.363447 0.366431
O O8 0.535441 0.748135 0.100920
O O9 0.763261 0.875530 0.082174
O O10 0.613929 0.522815 0.545236
O O11 0.315293 0.410067 0.517263
O O12 0.411892 0.261809 0.096184
O O13 0.210703 0.225809 0.946125
O O14 0.092203 0.363432 0.022923
O O15 0.465141 0.251828 0.788411
O O16 0.500159 0.000014 0.944651
#
# Coordination Sequence:
#
# PCOD8170751 Si02
#       8
#     4   4   4   4   4   4   4   4
#     4  11  25  40  61  96 134 174 220 271 331 397
#     4  10  19  36  63  93 121 167 219 267 323 392
#     4  10  19  37  58  92 130 170 208 262 326 396
#     4  11  25  40  61  96 134 174 220 271 331 397
#     4  10  19  36  63  93 121 167 219 267 323 392
#     4  10  19  37  58  92 130 170 208 262 326 396
#     4  11  23  41  66  91 133 179 218 269 333 398
#     4  11  23  41  66  91 133 179 218 269 333 398
#
# _framework density 23.846502999999998
#
# number of rings (size 3 to 8) (size 9 to 14) (size 15 to 20)
#    0.000    1.500    5.000    3.000    3.500    2.000 
#    0.000    0.000    0.000    1.500    0.000    0.000 
#    0.000    0.000    0.000    0.000    0.000    0.000 
#
# Total GULP energy -396497.274033 kJ/mol
# GULP energy per Si atom -12390.539814 kJ/mol
# Density = 2.379223 g / cm^3
# Si number density = 23.846503 Si / 1000 Ang^3
#
#
#
# Elastic Constant Matrix: (Units=GPa)
#
#
# Indices 1 2 3 4 5 6 
#
# 1 168.3539 38.0092 -4.9617 0.0000 0.0000 0.0000
# 2 38.0092 129.1644 13.4092 0.0000 0.0000 0.0000
# 3 -4.9617 13.4092 90.7733 0.0000 0.0000 0.0000
# 4 0.0000 0.0000 0.0000 9.1901 0.0000 0.0000
# 5 0.0000 0.0000 0.0000 0.0000 -6.5505 0.0000
# 6 0.0000 0.0000 0.0000 0.0000 0.0000 42.6812
#
#
#
# Elastic Compliance Matrix: (Units=1/GPa)
#
#
# Indices 1 2 3 4 5 6 
#
# 1 0.006399 -0.001949 0.000638 0.000000 0.000000 0.000000
# 2 -0.001949 0.008456 -0.001356 0.000000 0.000000 0.000000
# 3 0.000638 -0.001356 0.011252 0.000000 0.000000 0.000000
# 4 0.000000 0.000000 0.000000 0.108813 0.000000 0.000000
# 5 0.000000 0.000000 0.000000 0.000000 -0.152659 0.000000
# 6 0.000000 0.000000 0.000000 0.000000 0.000000 0.023430
#
#
# Mechanical properties :
#
#
# Convention : Reuss Voigt Hill
#
# Bulk Modulus (GPa) = 48.14105 53.46724 50.80415
# Shear Modulus (GPa) = 278.58264 31.85315 155.21789
#
# Velocity S-wave (km/s) = 10.82021 3.65877 8.07662
# Velocity P-wave (km/s) = 13.27909 6.34971 10.40800
#
# Compressibility (1/GPa) = 0.02077229
#
# Stress axis : x y z
#
# Youngs Moduli (GPa) = 156.28127 118.25377 88.87643
#
# Poissons Ratio (x) = 0.23049 -0.05668
# Poissons Ratio (y) = 0.30462 0.12049
# Poissons Ratio (z) = -0.09966 0.16032
#
# Static dielectric constant tensor:
#      x y z
#    x 5.363190 0.000000 0.000000 
#    y 0.000000 4.526110 0.000000 
#    z 0.000000 0.000000 3.797050 
# 
# 
# High freq. dielectric constant tensor:
#      x y z
#    x 1.952800 0.000000 0.000000 
#    y 0.000000 1.954570 0.000000 
#    z 0.000000 0.000000 1.898340 
# 
# From -- ./inp_files/7439.got.cif
#   From: 2010.03.12/outbox.cif.g09.slc.cpg/sg33_4_cif.got.tgz:7439.got - 2010.04.14 01:49:19.
