data_PCOD8170480
_publ_section_title
;
Structure prediction by ZEFSAII (Michael W. Deem and Ramdas Pophale) SiO2 
 PCOD8170480
Probable space group: P B A 2
;
_chemical_formula_sum "Si O2"
_cell_formula_units_Z 30
_cell_length_a 15.123779
_cell_length_b 8.415840
_cell_length_c 12.271414
_cell_angle_alpha 90.000000
_cell_angle_beta 90.000000
_cell_angle_gamma 90.000000
_cell_volume 1561.897036
_symmetry_space_group_name_H-M "P B A 2"
_symmetry_group_IT_number 32
_symmetry_cell_setting 'orthorhombic'
loop_
_space_group_symop_operation_xyz
x,y,z
-x,-y,z
1/2-x,1/2+y,z
1/2+x,1/2-y,z
loop_
_atom_site_type_symbol
_atom_site_label
_atom_site_fract_x
_atom_site_fract_y
_atom_site_fract_z
Si Si1 0.843429 0.803717 0.843600
Si Si2 0.211304 0.499949 0.469172
Si Si3 0.000000 0.000000 0.506848
Si Si4 0.135700 0.805389 0.367505
Si Si5 0.653281 0.295102 0.596008
Si Si6 0.071530 0.864788 0.130957
Si Si7 0.482689 0.181396 0.939934
Si Si8 0.318982 0.365333 0.927791
O O1 0.833586 0.742770 0.720486
O O2 0.942755 0.786982 0.884460
O O3 0.778939 0.707766 0.925355
O O4 0.819830 0.988757 0.844926
O O5 0.150115 0.623343 0.403851
O O6 0.278001 0.414006 0.385508
O O7 0.264412 0.595751 0.561353
O O8 0.149949 0.366126 0.524775
O O9 0.062990 0.106048 0.582890
O O10 0.946271 0.121337 0.431890
O O11 0.115159 0.800890 0.240068
O O12 0.150986 0.923371 0.049562
O O13 0.000000 0.000000 0.156858
O O14 0.020445 0.720236 0.069597
O O15 0.388946 0.231906 0.885712
O O16 0.500000 0.000000 0.915938
#
# Coordination Sequence:
#
# PCOD8170480 Si02
#       8
#     4   4   2   4   4   4   4   4
#     4  12  21  40  65  87 128 171 201 265 320 373
#     4   9  21  42  58  93 121 152 218 265 296 393
#     4  10  22  36  60  88 118 160 212 252 312 374
#     4  10  20  41  65  85 124 162 203 260 325 362
#     4  10  22  39  62  89 121 164 206 262 319 370
#     4  10  20  42  63  88 128 166 201 261 319 375
#     4  10  22  42  56  91 129 157 215 259 298 392
#     4  10  23  37  61  94 122 164 215 258 308 389
#
# _framework density 19.207412999999999
#
# number of rings (size 3 to 8) (size 9 to 14) (size 15 to 20)
#    0.800    1.067    2.000    2.000    1.867    1.600 
#    4.800    0.000    0.000    0.000    0.000    0.000 
#    0.000    0.000    0.000    0.000    0.000    0.000 
#
# Total GULP energy -371927.296649 kJ/mol
# GULP energy per Si atom -12397.576555 kJ/mol
# Density = 1.916370 g / cm^3
# Si number density = 19.207413 Si / 1000 Ang^3
#
#
#
# Elastic Constant Matrix: (Units=GPa)
#
#
# Indices 1 2 3 4 5 6 
#
# 1 78.6266 29.3470 42.7450 0.0000 0.0000 0.0000
# 2 29.3470 112.5724 34.0658 0.0000 0.0000 0.0000
# 3 42.7450 34.0658 118.3035 0.0000 0.0000 0.0000
# 4 0.0000 0.0000 0.0000 24.8985 0.0000 0.0000
# 5 0.0000 0.0000 0.0000 0.0000 19.2676 0.0000
# 6 0.0000 0.0000 0.0000 0.0000 0.0000 40.2541
#
#
#
# Elastic Compliance Matrix: (Units=1/GPa)
#
#
# Indices 1 2 3 4 5 6 
#
# 1 0.016568 -0.002747 -0.005195 0.000000 0.000000 0.000000
# 2 -0.002747 0.010187 -0.001941 0.000000 0.000000 0.000000
# 3 -0.005195 -0.001941 0.010889 0.000000 0.000000 0.000000
# 4 0.000000 0.000000 0.000000 0.040163 0.000000 0.000000
# 5 0.000000 0.000000 0.000000 0.000000 0.051901 0.000000
# 6 0.000000 0.000000 0.000000 0.000000 0.000000 0.024842
#
#
# Mechanical properties :
#
#
# Convention : Reuss Voigt Hill
#
# Bulk Modulus (GPa) = 55.93659 57.97978 56.95818
# Shear Modulus (GPa) = 27.73547 30.44035 29.08791
#
# Velocity S-wave (km/s) = 3.80412 3.98530 3.89577
# Velocity P-wave (km/s) = 6.96281 7.17137 7.06786
#
# Compressibility (1/GPa) = 0.01787739
#
# Stress axis : x y z
#
# Youngs Moduli (GPa) = 60.35707 98.16829 91.83741
#
# Poissons Ratio (x) = 0.26967 0.47712
# Poissons Ratio (y) = 0.16580 0.17823
# Poissons Ratio (z) = 0.31357 0.19052
#
# Static dielectric constant tensor:
#      x y z
#    x 3.561720 0.000000 0.000000 
#    y 0.000000 3.496230 0.000000 
#    z 0.000000 0.000000 3.259060 
# 
# 
# High freq. dielectric constant tensor:
#      x y z
#    x 1.748690 0.000000 0.000000 
#    y 0.000000 1.751870 0.000000 
#    z 0.000000 0.000000 1.734130 
# 
# From -- ./inp_files/3935.got.cif
#   From: 2010.03.12/outbox.cif.g09.slc.cpg/sg32_2_cif.got.tgz:3935.got - 2010.04.14 01:46:39.
