data_PCOD8170114
_publ_section_title
;
Structure prediction by ZEFSAII (Michael W. Deem and Ramdas Pophale) SiO2 
 PCOD8170114
Probable space group: P M N 21
;
_chemical_formula_sum "Si O2"
_cell_formula_units_Z 32
_cell_length_a 13.133718
_cell_length_b 12.345061
_cell_length_c 9.942492
_cell_angle_alpha 90.000000
_cell_angle_beta 90.000000
_cell_angle_gamma 90.000000
_cell_volume 1612.041350
_symmetry_space_group_name_H-M "P M N 21"
_symmetry_group_IT_number 31
_symmetry_cell_setting 'orthorhombic'
loop_
_space_group_symop_operation_xyz
x,y,z
1/2-x,-y,1/2+z
-x,y,z
1/2+x,-y,1/2+z
loop_
_atom_site_type_symbol
_atom_site_label
_atom_site_fract_x
_atom_site_fract_y
_atom_site_fract_z
Si Si1 0.687229 0.386351 0.662870
Si Si2 0.383342 0.624042 0.712978
Si Si3 0.757589 0.169291 0.243206
Si Si4 0.113350 0.871700 0.521534
Si Si5 0.619800 0.037559 0.743470
Si Si6 0.888455 0.637389 0.443099
Si Si7 0.387892 0.588691 0.028425
Si Si8 0.116748 0.809484 0.003819
O O1 0.653961 0.512074 0.643498
O O2 0.689278 0.355490 0.819616
O O3 0.801704 0.355729 0.616988
O O4 0.614608 0.307786 0.576553
O O5 0.500000 0.647548 0.666683
O O6 0.306143 0.722293 0.675236
O O7 0.377726 0.618746 0.873159
O O8 0.687102 0.097456 0.143152
O O9 0.693447 0.193249 0.377675
O O10 0.851101 0.087498 0.263860
O O11 0.160805 0.902162 0.377281
O O12 0.109647 0.742282 0.534503
O O13 0.000000 0.921645 0.541899
O O14 0.500000 0.048239 0.741662
O O15 0.658303 0.098665 0.608331
O O16 0.866231 0.539344 0.544329
O O17 0.000000 0.616919 0.375327
O O18 0.500000 0.621488 0.082887
O O19 0.000000 0.833388 0.957248
#
# Coordination Sequence:
#
# PCOD8170114 Si02
#       8
#     4   4   4   4   4   4   4   4
#     4  11  18  34  60  82 109 151 194 236 283 334
#     4  10  21  35  54  81 114 153 192 227 280 355
#     4  12  22  37  58  89 117 150 184 246 296 339
#     4  10  20  36  57  83 110 145 190 235 282 337
#     4  10  22  40  61  83 112 152 197 233 281 355
#     4   9  17  32  56  78 105 147 192 229 274 344
#     4   9  18  32  51  80 113 145 185 232 281 340
#     4  11  22  38  61  90 116 147 196 250 287 334
#
# _framework density 19.850605999999999
#
# number of rings (size 3 to 8) (size 9 to 14) (size 15 to 20)
#    0.000    1.750    2.500    4.125    0.000    0.000 
#    0.000    0.625    0.000    2.250    0.000    0.000 
#    0.000    0.000    0.000    0.000    0.000    0.000 
#
# Total GULP energy -396552.027877 kJ/mol
# GULP energy per Si atom -12392.250871 kJ/mol
# Density = 1.980542 g / cm^3
# Si number density = 19.850606 Si / 1000 Ang^3
#
#
#
# Elastic Constant Matrix: (Units=GPa)
#
#
# Indices 1 2 3 4 5 6 
#
# 1 72.0812 10.3993 25.2748 0.0000 0.0000 0.0000
# 2 10.3993 83.7689 7.8200 0.0000 0.0000 0.0000
# 3 25.2748 7.8200 54.5137 0.0000 0.0000 0.0000
# 4 0.0000 0.0000 0.0000 17.6859 0.0000 0.0000
# 5 0.0000 0.0000 0.0000 0.0000 30.5057 0.0000
# 6 0.0000 0.0000 0.0000 0.0000 0.0000 27.0977
#
#
#
# Elastic Compliance Matrix: (Units=1/GPa)
#
#
# Indices 1 2 3 4 5 6 
#
# 1 0.016720 -0.001370 -0.007556 0.000000 0.000000 0.000000
# 2 -0.001370 0.012212 -0.001116 0.000000 0.000000 0.000000
# 3 -0.007556 -0.001116 0.022007 0.000000 0.000000 0.000000
# 4 0.000000 0.000000 0.000000 0.056542 0.000000 0.000000
# 5 0.000000 0.000000 0.000000 0.000000 0.032781 0.000000
# 6 0.000000 0.000000 0.000000 0.000000 0.000000 0.036903
#
#
# Mechanical properties :
#
#
# Convention : Reuss Voigt Hill
#
# Bulk Modulus (GPa) = 32.41009 33.03913 32.72461
# Shear Modulus (GPa) = 24.09222 26.18249 25.13736
#
# Velocity S-wave (km/s) = 3.48757 3.63571 3.56241
# Velocity P-wave (km/s) = 5.70788 5.85701 5.78293
#
# Compressibility (1/GPa) = 0.03085459
#
# Stress axis : x y z
#
# Youngs Moduli (GPa) = 59.80759 81.88701 45.43958
#
# Poissons Ratio (x) = 0.11222 0.34332
# Poissons Ratio (y) = 0.08196 0.05073
# Poissons Ratio (z) = 0.45188 0.09142
#
# Static dielectric constant tensor:
#      x y z
#    x 3.754070 0.000000 0.000000 
#    y 0.000000 3.586660 0.000000 
#    z 0.000000 0.000000 3.378150 
# 
# 
# High freq. dielectric constant tensor:
#      x y z
#    x 1.775990 0.000000 0.000000 
#    y 0.000000 1.768840 0.000000 
#    z 0.000000 0.000000 1.752320 
# 
# From -- ./inp_files/4077.got.cif
#   From: 2010.03.12/outbox.cif.g09.slc.cpg/sg31_3_cif.got.tgz:4077.got - 2010.04.14 01:42:59.
