data_PCOD8170841
_publ_section_title
;
Structure prediction by ZEFSAII (Michael W. Deem and Ramdas Pophale) SiO2 
 PCOD8170841
Probable space group: P N A 21
;
_chemical_formula_sum "Si O2"
_cell_formula_units_Z 24
_cell_length_a 8.980693
_cell_length_b 8.956233
_cell_length_c 15.432404
_cell_angle_alpha 90.000000
_cell_angle_beta 90.000000
_cell_angle_gamma 90.000000
_cell_volume 1241.277313
_symmetry_space_group_name_H-M "P N A 21"
_symmetry_group_IT_number 33
_symmetry_cell_setting 'orthorhombic'
loop_
_space_group_symop_operation_xyz
x,y,z
-x,-y,1/2+z
1/2-x,1/2+y,1/2+z
1/2+x,1/2-y,z
loop_
_atom_site_type_symbol
_atom_site_label
_atom_site_fract_x
_atom_site_fract_y
_atom_site_fract_z
Si Si1 0.437355 0.170838 0.640700
Si Si2 0.094888 0.109634 0.207224
Si Si3 0.747423 0.570800 0.067012
Si Si4 0.246315 0.419455 0.216977
Si Si5 0.279372 0.591542 0.389257
Si Si6 0.415649 0.338573 0.820170
O O1 0.363840 0.288080 0.573792
O O2 0.593680 0.118242 0.603780
O O3 0.467447 0.245795 0.734823
O O4 0.326735 0.029294 0.646009
O O5 0.148628 0.273193 0.229379
O O6 0.917240 0.110119 0.192074
O O7 0.178101 0.065807 0.119668
O O8 0.145832 0.996785 0.284177
O O9 0.766753 0.507296 0.971049
O O10 0.229818 0.494923 0.308850
O O11 0.453011 0.627136 0.387067
O O12 0.200547 0.752825 0.380951
#
# Coordination Sequence:
#
# PCOD8170841 Si02
#       6
#     4   4   4   4   4   4
#     4  10  20  39  61  80 112 153 188 228 284 345
#     4  10  20  36  59  84 112 149 191 230 276 343
#     4  11  22  37  58  86 113 146 190 238 285 330
#     4  10  21  38  60  84 113 151 191 228 278 344
#     4  10  22  37  57  84 112 146 189 236 284 328
#     4   9  19  39  59  78 110 151 187 226 281 346
#
# _framework density 19.334921000000001
#
# number of rings (size 3 to 8) (size 9 to 14) (size 15 to 20)
#    0.000    2.000    0.000    6.000    0.000    6.667 
#    0.000    3.333    0.000    0.000    0.000    0.000 
#    0.000    0.000    0.000    0.000    0.000    0.000 
#
# Total GULP energy -297542.405247 kJ/mol
# GULP energy per Si atom -12397.600219 kJ/mol
# Density = 1.929091 g / cm^3
# Si number density = 19.334921 Si / 1000 Ang^3
#
#
#
# Elastic Constant Matrix: (Units=GPa)
#
#
# Indices 1 2 3 4 5 6 
#
# 1 80.2833 37.1647 23.1503 0.0000 0.0000 0.0000
# 2 37.1647 115.2487 16.7802 0.0000 0.0000 0.0000
# 3 23.1503 16.7802 57.0615 0.0000 0.0000 0.0000
# 4 0.0000 0.0000 0.0000 26.2560 0.0000 0.0000
# 5 0.0000 0.0000 0.0000 0.0000 19.1871 0.0000
# 6 0.0000 0.0000 0.0000 0.0000 0.0000 39.1883
#
#
#
# Elastic Compliance Matrix: (Units=1/GPa)
#
#
# Indices 1 2 3 4 5 6 
#
# 1 0.015990 -0.004400 -0.005193 0.000000 0.000000 0.000000
# 2 -0.004400 0.010276 -0.001237 0.000000 0.000000 0.000000
# 3 -0.005193 -0.001237 0.019996 0.000000 0.000000 0.000000
# 4 0.000000 0.000000 0.000000 0.038086 0.000000 0.000000
# 5 0.000000 0.000000 0.000000 0.000000 0.052118 0.000000
# 6 0.000000 0.000000 0.000000 0.000000 0.000000 0.025518
#
#
# Mechanical properties :
#
#
# Convention : Reuss Voigt Hill
#
# Bulk Modulus (GPa) = 40.64837 45.19822 42.92329
# Shear Modulus (GPa) = 26.06259 28.62618 27.34438
#
# Velocity S-wave (km/s) = 3.67543 3.85196 3.76473
# Velocity P-wave (km/s) = 6.25145 6.57348 6.41449
#
# Compressibility (1/GPa) = 0.02460123
#
# Stress axis : x y z
#
# Youngs Moduli (GPa) = 62.53732 97.31472 50.01098
#
# Poissons Ratio (x) = 0.42822 0.25973
# Poissons Ratio (y) = 0.27519 0.06184
# Poissons Ratio (z) = 0.32478 0.12034
#
# Static dielectric constant tensor:
#      x y z
#    x 3.641200 0.000000 0.000000 
#    y 0.000000 3.808080 0.000000 
#    z 0.000000 0.000000 3.317040 
# 
# 
# High freq. dielectric constant tensor:
#      x y z
#    x 1.762090 0.000000 0.000000 
#    y 0.000000 1.768920 0.000000 
#    z 0.000000 0.000000 1.727000 
# 
# From -- ./inp_files/7524.got.cif
#   From: 2010.03.12/outbox.cif.g09.slc.cpg/sg33_4_cif.got.tgz:7524.got - 2010.04.14 01:49:19.
