data_PCOD8170013
_publ_section_title
;
Structure prediction by ZEFSAII (Michael W. Deem and Ramdas Pophale) SiO2 
 PCOD8170013
Probable space group: P M N 21
;
_chemical_formula_sum "Si O2"
_cell_formula_units_Z 32
_cell_length_a 9.311625
_cell_length_b 9.940736
_cell_length_c 19.794584
_cell_angle_alpha 90.000000
_cell_angle_beta 90.000000
_cell_angle_gamma 90.000000
_cell_volume 1832.273907
_symmetry_space_group_name_H-M "P M N 21"
_symmetry_group_IT_number 31
_symmetry_cell_setting 'orthorhombic'
loop_
_space_group_symop_operation_xyz
x,y,z
1/2-x,-y,1/2+z
-x,y,z
1/2+x,-y,1/2+z
loop_
_atom_site_type_symbol
_atom_site_label
_atom_site_fract_x
_atom_site_fract_y
_atom_site_fract_z
Si Si1 0.831334 0.945706 0.097420
Si Si2 0.667983 0.821778 0.497433
Si Si3 0.167422 0.152782 0.843081
Si Si4 0.667476 0.601147 0.255321
Si Si5 0.170034 0.045509 0.245817
Si Si6 0.332601 0.686548 0.111724
Si Si7 0.667701 0.312124 0.227027
Si Si8 0.663938 0.390355 0.074240
O O1 0.786030 0.989901 0.172515
O O2 0.753305 0.807682 0.076845
O O3 0.000000 0.922923 0.090841
O O4 0.776709 0.058587 0.045347
O O5 0.500000 0.799405 0.505760
O O6 0.709144 0.858698 0.421097
O O7 0.740372 0.681938 0.518168
O O8 0.202356 0.305595 0.819385
O O9 0.265526 0.049774 0.802888
O O10 0.000000 0.119627 0.829877
O O11 0.500000 0.586871 0.239543
O O12 0.731706 0.668542 0.187506
O O13 0.720984 0.447780 0.266171
O O14 0.000000 0.054194 0.254677
O O15 0.236838 0.192474 0.256283
O O16 0.500000 0.724579 0.112546
O O17 0.304747 0.549658 0.070304
O O18 0.500000 0.280434 0.239825
O O19 0.700275 0.332741 0.148050
O O20 0.500000 0.360485 0.056302
#
# Coordination Sequence:
#
# PCOD8170013 Si02
#       8
#     4   4   4   4   4   4   4   4
#     4  10  20  33  49  76 109 137 169 214 262 310
#     4  10  21  36  53  76 107 142 177 215 263 317
#     4  10  20  36  57  76 101 141 182 218 260 314
#     4   8  15  30  52  77  99 123 169 221 253 296
#     4  11  21  33  51  78 110 138 170 218 266 310
#     4   9  17  31  53  79 102 129 171 217 256 300
#     4   9  17  31  53  78 102 130 169 214 259 307
#     4   9  18  32  52  78 104 132 169 215 261 308
#
# _framework density 17.464637
#
# number of rings (size 3 to 8) (size 9 to 14) (size 15 to 20)
#    0.000    2.500    2.500    1.875    0.000    2.000 
#    0.000    3.750    0.000    6.000    0.000    0.000 
#    0.000    0.000    0.000    0.000    0.000    0.000 
#
# Total GULP energy -396773.916517 kJ/mol
# GULP energy per Si atom -12399.184891 kJ/mol
# Density = 1.742489 g / cm^3
# Si number density = 17.464637 Si / 1000 Ang^3
#
#
#
# Elastic Constant Matrix: (Units=GPa)
#
#
# Indices 1 2 3 4 5 6 
#
# 1 52.0280 55.4102 40.4286 0.0000 0.0000 0.0000
# 2 55.4102 139.4911 58.4947 0.0000 0.0000 0.0000
# 3 40.4286 58.4947 95.5381 0.0000 0.0000 0.0000
# 4 0.0000 0.0000 0.0000 24.7991 0.0000 0.0000
# 5 0.0000 0.0000 0.0000 0.0000 20.7881 0.0000
# 6 0.0000 0.0000 0.0000 0.0000 0.0000 27.5469
#
#
#
# Elastic Compliance Matrix: (Units=1/GPa)
#
#
# Indices 1 2 3 4 5 6 
#
# 1 0.038678 -0.011437 -0.009365 0.000000 0.000000 0.000000
# 2 -0.011437 0.013027 -0.003136 0.000000 0.000000 0.000000
# 3 -0.009365 -0.003136 0.016350 0.000000 0.000000 0.000000
# 4 0.000000 0.000000 0.000000 0.040324 0.000000 0.000000
# 5 0.000000 0.000000 0.000000 0.000000 0.048104 0.000000
# 6 0.000000 0.000000 0.000000 0.000000 0.000000 0.036302
#
#
# Mechanical properties :
#
#
# Convention : Reuss Voigt Hill
#
# Bulk Modulus (GPa) = 49.55633 66.19157 57.87395
# Shear Modulus (GPa) = 20.21118 23.47506 21.84312
#
# Velocity S-wave (km/s) = 3.40555 3.67024 3.54037
# Velocity P-wave (km/s) = 6.62575 7.47954 7.06555
#
# Compressibility (1/GPa) = 0.02017906
#
# Stress axis : x y z
#
# Youngs Moduli (GPa) = 25.85470 76.76201 61.16147
#
# Poissons Ratio (x) = 0.87793 0.57276
# Poissons Ratio (y) = 0.29570 0.19183
# Poissons Ratio (z) = 0.24212 0.24076
#
# Static dielectric constant tensor:
#      x y z
#    x 3.032190 0.000000 0.000000 
#    y 0.000000 3.372140 0.000000 
#    z 0.000000 0.000000 3.046740 
# 
# 
# High freq. dielectric constant tensor:
#      x y z
#    x 1.658900 0.000000 0.000000 
#    y 0.000000 1.687980 0.000000 
#    z 0.000000 0.000000 1.648680 
# 
# From -- ./inp_files/6045.got.cif
#   From: 2010.03.12/outbox.cif.g09.slc.cpg/sg31_4_cif.got.tgz:6045.got - 2010.04.14 01:42:59.
