data_PCOD8170677
_publ_section_title
;
Structure prediction by ZEFSAII (Michael W. Deem and Ramdas Pophale) SiO2 
 PCOD8170677
Probable space group: P N A 21
;
_chemical_formula_sum "Si O2"
_cell_formula_units_Z 28
_cell_length_a 13.579232
_cell_length_b 8.781462
_cell_length_c 10.797446
_cell_angle_alpha 90.000000
_cell_angle_beta 90.000000
_cell_angle_gamma 90.000000
_cell_volume 1287.546953
_symmetry_space_group_name_H-M "P N A 21"
_symmetry_group_IT_number 33
_symmetry_cell_setting 'orthorhombic'
loop_
_space_group_symop_operation_xyz
x,y,z
-x,-y,1/2+z
1/2-x,1/2+y,1/2+z
1/2+x,1/2-y,z
loop_
_atom_site_type_symbol
_atom_site_label
_atom_site_fract_x
_atom_site_fract_y
_atom_site_fract_z
Si Si1 0.319864 0.352778 0.010810
Si Si2 0.228288 0.350401 0.636028
Si Si3 0.257340 0.779646 0.868514
Si Si4 0.834079 0.861368 0.633339
Si Si5 0.026528 0.228764 0.926324
Si Si6 0.333028 0.556663 0.243062
Si Si7 0.853497 0.504006 0.354858
O O1 0.263078 0.210052 0.069518
O O2 0.361259 0.466099 0.117879
O O3 0.410199 0.291591 0.928705
O O4 0.247639 0.438032 0.917708
O O5 0.190333 0.296951 0.501292
O O6 0.326934 0.453825 0.628879
O O7 0.148672 0.456483 0.707991
O O8 0.242357 0.195082 0.713886
O O9 0.336196 0.703677 0.774088
O O10 0.227689 0.949407 0.833284
O O11 0.154919 0.678416 0.874399
O O12 0.932148 0.817169 0.561148
O O13 0.051846 0.409984 0.911022
O O14 0.072306 0.126325 0.815161
#
# Coordination Sequence:
#
# PCOD8170677 Si02
#       7
#     4   4   4   4   4   4   4
#     4  10  20  37  58  83 118 151 194 242 292 350
#     4  10  18  35  62  84 114 150 195 238 294 350
#     4  10  18  35  62  84 114 150 195 238 294 350
#     4   9  20  36  60  83 111 157 190 236 299 343
#     4  10  20  37  58  83 118 151 194 242 292 350
#     4  10  20  34  58  88 116 150 198 244 286 354
#     4   9  20  36  60  83 111 157 190 236 299 343
#
# _framework density 21.746780999999999
#
# number of rings (size 3 to 8) (size 9 to 14) (size 15 to 20)
#    0.000    2.286    2.857    0.000    0.000    2.286 
#    0.000    1.429   18.857    0.000    0.000    0.000 
#    0.000    0.000    0.000    0.000    0.000    0.000 
#
# Total GULP energy -346880.343166 kJ/mol
# GULP energy per Si atom -12388.583684 kJ/mol
# Density = 2.169728 g / cm^3
# Si number density = 21.746781 Si / 1000 Ang^3
#
#
#
# Elastic Constant Matrix: (Units=GPa)
#
#
# Indices 1 2 3 4 5 6 
#
# 1 52.2786 12.0478 17.2215 0.0000 0.0000 0.0000
# 2 12.0478 116.4319 29.2476 0.0000 0.0000 0.0000
# 3 17.2215 29.2476 115.1316 0.0000 0.0000 0.0000
# 4 0.0000 0.0000 0.0000 34.6530 0.0000 0.0000
# 5 0.0000 0.0000 0.0000 0.0000 19.0452 0.0000
# 6 0.0000 0.0000 0.0000 0.0000 0.0000 11.5804
#
#
#
# Elastic Compliance Matrix: (Units=1/GPa)
#
#
# Indices 1 2 3 4 5 6 
#
# 1 0.020341 -0.001432 -0.002679 0.000000 0.000000 0.000000
# 2 -0.001432 0.009275 -0.002142 0.000000 0.000000 0.000000
# 3 -0.002679 -0.002142 0.009631 0.000000 0.000000 0.000000
# 4 0.000000 0.000000 0.000000 0.028858 0.000000 0.000000
# 5 0.000000 0.000000 0.000000 0.000000 0.052507 0.000000
# 6 0.000000 0.000000 0.000000 0.000000 0.000000 0.086353
#
#
# Mechanical properties :
#
#
# Convention : Reuss Voigt Hill
#
# Bulk Modulus (GPa) = 37.39594 44.54176 40.96885
# Shear Modulus (GPa) = 21.89310 28.07739 24.98524
#
# Velocity S-wave (km/s) = 3.17634 3.59709 3.39324
# Velocity P-wave (km/s) = 5.53946 6.14643 5.85082
#
# Compressibility (1/GPa) = 0.02674087
#
# Stress axis : x y z
#
# Youngs Moduli (GPa) = 49.16247 107.81744 103.83617
#
# Poissons Ratio (x) = 0.15438 0.27816
# Poissons Ratio (y) = 0.07039 0.22242
# Poissons Ratio (z) = 0.13170 0.23094
#
# Static dielectric constant tensor:
#      x y z
#    x 3.134590 0.000000 0.000000 
#    y 0.000000 4.349630 0.000000 
#    z 0.000000 0.000000 4.314940 
# 
# 
# High freq. dielectric constant tensor:
#      x y z
#    x 1.776610 0.000000 0.000000 
#    y 0.000000 1.874960 0.000000 
#    z 0.000000 0.000000 1.878390 
# 
# From -- ./inp_files/6749.got.cif
#   From: 2010.03.12/outbox.cif.g09.slc.cpg/sg33_4_cif.got.tgz:6749.got - 2010.04.14 01:49:19.
