data_PCOD8170340
_publ_section_title
;
Structure prediction by ZEFSAII (Michael W. Deem and Ramdas Pophale) SiO2 
 PCOD8170340
Probable space group: P M N 21
;
_chemical_formula_sum "Si O2"
_cell_formula_units_Z 24
_cell_length_a 8.551366
_cell_length_b 11.849650
_cell_length_c 11.692917
_cell_angle_alpha 90.000000
_cell_angle_beta 90.000000
_cell_angle_gamma 90.000000
_cell_volume 1184.851396
_symmetry_space_group_name_H-M "P M N 21"
_symmetry_group_IT_number 31
_symmetry_cell_setting 'orthorhombic'
loop_
_space_group_symop_operation_xyz
x,y,z
1/2-x,-y,1/2+z
-x,y,z
1/2+x,-y,1/2+z
loop_
_atom_site_type_symbol
_atom_site_label
_atom_site_fract_x
_atom_site_fract_y
_atom_site_fract_z
Si Si1 0.680286 0.211406 0.277390
Si Si2 0.679102 0.931335 0.972887
Si Si3 0.821170 0.282795 0.623284
Si Si4 0.179443 0.162470 0.038107
Si Si5 0.182396 0.414551 0.398920
Si Si6 0.318978 0.329785 0.860677
O O1 0.500000 0.188860 0.304482
O O2 0.782747 0.124832 0.351285
O O3 0.710720 0.190956 0.144473
O O4 0.722621 0.340329 0.307518
O O5 0.500000 0.972124 0.969972
O O6 0.707112 0.841987 0.073999
O O7 0.790496 0.036721 0.993558
O O8 0.778495 0.375057 0.527297
O O9 0.705386 0.301322 0.728077
O O10 0.000000 0.297322 0.663707
O O11 0.000000 0.174011 0.075099
O O12 0.213748 0.248154 0.935991
O O13 0.235889 0.542967 0.385447
O O14 0.000000 0.397430 0.372126
O O15 0.500000 0.312765 0.892083
#
# Coordination Sequence:
#
# PCOD8170340 Si02
#       6
#     4   4   4   4   4   4
#     4  11  23  41  66  94 125 163 207 254 312 369
#     4  10  22  43  67  91 123 163 209 257 309 369
#     4   9  20  40  64  89 122 162 205 255 309 367
#     4  12  26  42  63  92 127 165 209 256 309 368
#     4   9  21  42  64  90 125 165 207 254 308 366
#     4  11  24  40  62  94 128 162 207 258 309 365
#
# _framework density 20.255706
#
# number of rings (size 3 to 8) (size 9 to 14) (size 15 to 20)
#    0.000    1.667    0.000    5.000    4.667    4.667 
#    0.000    0.000    0.000    0.000    0.000    0.000 
#    0.000    0.000    0.000    0.000    0.000    0.000 
#
# Total GULP energy -297774.691064 kJ/mol
# GULP energy per Si atom -12407.278794 kJ/mol
# Density = 2.020960 g / cm^3
# Si number density = 20.255706 Si / 1000 Ang^3
#
#
#
# Elastic Constant Matrix: (Units=GPa)
#
#
# Indices 1 2 3 4 5 6 
#
# 1 72.3840 33.0246 16.5374 0.0000 0.0000 0.0000
# 2 33.0246 129.8034 49.0721 0.0000 0.0000 0.0000
# 3 16.5374 49.0721 99.2495 0.0000 0.0000 0.0000
# 4 0.0000 0.0000 0.0000 21.8218 0.0000 0.0000
# 5 0.0000 0.0000 0.0000 0.0000 35.8791 0.0000
# 6 0.0000 0.0000 0.0000 0.0000 0.0000 29.0049
#
#
#
# Elastic Compliance Matrix: (Units=1/GPa)
#
#
# Indices 1 2 3 4 5 6 
#
# 1 0.015679 -0.003691 -0.000787 0.000000 0.000000 0.000000
# 2 -0.003691 0.010344 -0.004499 0.000000 0.000000 0.000000
# 3 -0.000787 -0.004499 0.012431 0.000000 0.000000 0.000000
# 4 0.000000 0.000000 0.000000 0.045826 0.000000 0.000000
# 5 0.000000 0.000000 0.000000 0.000000 0.027871 0.000000
# 6 0.000000 0.000000 0.000000 0.000000 0.000000 0.034477
#
#
# Mechanical properties :
#
#
# Convention : Reuss Voigt Hill
#
# Bulk Modulus (GPa) = 48.78422 55.41168 52.09795
# Shear Modulus (GPa) = 29.16843 30.86134 30.01489
#
# Velocity S-wave (km/s) = 3.79886 3.90755 3.85359
# Velocity P-wave (km/s) = 6.58622 6.91188 6.75101
#
# Compressibility (1/GPa) = 0.02049843
#
# Stress axis : x y z
#
# Youngs Moduli (GPa) = 63.77839 96.67333 80.44120
#
# Poissons Ratio (x) = 0.35686 0.06334
# Poissons Ratio (y) = 0.23543 0.36193
# Poissons Ratio (z) = 0.05022 0.43497
#
# Static dielectric constant tensor:
#      x y z
#    x 3.570180 0.000000 0.000000 
#    y 0.000000 3.780750 0.000000 
#    z 0.000000 0.000000 3.544350 
# 
# 
# High freq. dielectric constant tensor:
#      x y z
#    x 1.793370 0.000000 0.000000 
#    y 0.000000 1.799000 0.000000 
#    z 0.000000 0.000000 1.793190 
# 
# From -- ./inp_files/3460.got.cif
#   From: 2010.03.12/outbox.cif.g09.slc.cpg/sg31_2_cif.got.tgz:3460.got - 2010.04.14 01:42:59.
