data_PCOD8170915
_publ_section_title
;
Structure prediction by ZEFSAII (Michael W. Deem and Ramdas Pophale) SiO2 
 PCOD8170915
Probable space group: P N A 21
;
_chemical_formula_sum "Si O2"
_cell_formula_units_Z 32
_cell_length_a 9.608925
_cell_length_b 9.002918
_cell_length_c 18.335046
_cell_angle_alpha 90.000000
_cell_angle_beta 90.000000
_cell_angle_gamma 90.000000
_cell_volume 1586.134830
_symmetry_space_group_name_H-M "P N A 21"
_symmetry_group_IT_number 33
_symmetry_cell_setting 'orthorhombic'
loop_
_space_group_symop_operation_xyz
x,y,z
-x,-y,1/2+z
1/2-x,1/2+y,1/2+z
1/2+x,1/2-y,z
loop_
_atom_site_type_symbol
_atom_site_label
_atom_site_fract_x
_atom_site_fract_y
_atom_site_fract_z
Si Si1 0.969887 0.604524 0.111440
Si Si2 0.357794 0.087974 0.982223
Si Si3 0.095573 0.400463 0.877378
Si Si4 0.155438 0.923468 0.481815
Si Si5 0.459032 0.105806 0.247113
Si Si6 0.106298 0.065545 0.889281
Si Si7 0.712219 0.388415 0.619860
Si Si8 0.279638 0.392068 0.255046
O O1 0.875913 0.741958 0.135237
O O2 0.959663 0.480362 0.172067
O O3 0.129107 0.656279 0.101979
O O4 0.914221 0.533807 0.037217
O O5 0.438952 0.078824 0.905518
O O6 0.371269 0.256560 0.012042
O O7 0.199195 0.051282 0.962296
O O8 0.194408 0.442007 0.944946
O O9 0.120740 0.229685 0.853848
O O10 0.116587 0.506509 0.808506
O O11 0.048047 0.968493 0.418083
O O12 0.143534 0.029565 0.551053
O O13 0.364595 0.247690 0.232005
O O14 0.617568 0.147545 0.268625
O O15 0.149882 0.947187 0.829328
O O16 0.703487 0.487587 0.691807
#
# Coordination Sequence:
#
# PCOD8170915 Si02
#       8
#     4   4   4   4   4   4   4   4
#     4  11  25  43  64  90 125 164 206 259 309 366
#     4  10  20  41  64  91 127 162 202 249 307 361
#     4  10  20  41  64  91 127 162 202 249 307 361
#     4  10  22  39  66  95 124 166 205 249 304 369
#     4  11  25  43  64  90 125 164 206 259 309 366
#     4  10  22  39  66  95 124 166 205 249 304 369
#     4  11  25  44  63  91 125 162 209 255 309 368
#     4  11  25  44  63  91 125 162 209 255 309 368
#
# _framework density 20.174828999999999
#
# number of rings (size 3 to 8) (size 9 to 14) (size 15 to 20)
#    0.000    1.500    2.500    1.500    3.500    3.000 
#    0.000    0.000    0.000    0.000    0.000    0.000 
#    0.000    0.000    0.000    0.000    0.000    0.000 
#
# Total GULP energy -396895.555241 kJ/mol
# GULP energy per Si atom -12402.986101 kJ/mol
# Density = 2.012891 g / cm^3
# Si number density = 20.174829 Si / 1000 Ang^3
#
#
#
# Elastic Constant Matrix: (Units=GPa)
#
#
# Indices 1 2 3 4 5 6 
#
# 1 101.1864 53.8284 22.9310 0.0000 0.0000 0.0000
# 2 53.8284 85.9370 21.7412 0.0000 0.0000 0.0000
# 3 22.9310 21.7412 59.4606 0.0000 0.0000 0.0000
# 4 0.0000 0.0000 0.0000 31.3716 0.0000 0.0000
# 5 0.0000 0.0000 0.0000 0.0000 24.6854 0.0000
# 6 0.0000 0.0000 0.0000 0.0000 0.0000 34.7748
#
#
#
# Elastic Compliance Matrix: (Units=1/GPa)
#
#
# Indices 1 2 3 4 5 6 
#
# 1 0.015183 -0.008847 -0.002620 0.000000 0.000000 0.000000
# 2 -0.008847 0.017978 -0.003161 0.000000 0.000000 0.000000
# 3 -0.002620 -0.003161 0.018984 0.000000 0.000000 0.000000
# 4 0.000000 0.000000 0.000000 0.031876 0.000000 0.000000
# 5 0.000000 0.000000 0.000000 0.000000 0.040510 0.000000
# 6 0.000000 0.000000 0.000000 0.000000 0.000000 0.028756
#
#
# Mechanical properties :
#
#
# Convention : Reuss Voigt Hill
#
# Bulk Modulus (GPa) = 43.69298 49.28725 46.49011
# Shear Modulus (GPa) = 26.29154 28.03858 27.16506
#
# Velocity S-wave (km/s) = 3.61388 3.73202 3.67343
# Velocity P-wave (km/s) = 6.25442 6.56153 6.40982
#
# Compressibility (1/GPa) = 0.02288697
#
# Stress axis : x y z
#
# Youngs Moduli (GPa) = 65.86259 55.62369 52.67487
#
# Poissons Ratio (x) = 0.49212 0.13803
# Poissons Ratio (y) = 0.58271 0.16653
# Poissons Ratio (z) = 0.17259 0.17585
#
# Static dielectric constant tensor:
#      x y z
#    x 3.859030 0.000000 0.000000 
#    y 0.000000 3.567270 0.000000 
#    z 0.000000 0.000000 3.455270 
# 
# 
# High freq. dielectric constant tensor:
#      x y z
#    x 1.801930 0.000000 0.000000 
#    y 0.000000 1.784150 0.000000 
#    z 0.000000 0.000000 1.787260 
# 
# From -- ./inp_files/8495.got.cif
#   From: 2010.03.12/outbox.cif.g09.slc.cpg/sg33_5_cif.got.tgz:8495.got - 2010.04.14 01:49:19.
