data_PCOD8170439
_publ_section_title
;
Structure prediction by ZEFSAII (Michael W. Deem and Ramdas Pophale) SiO2 
 PCOD8170439
Probable space group: P B A 2
;
_chemical_formula_sum "Si O2"
_cell_formula_units_Z 26
_cell_length_a 9.814450
_cell_length_b 15.011125
_cell_length_c 8.338207
_cell_angle_alpha 90.000000
_cell_angle_beta 90.000000
_cell_angle_gamma 90.000000
_cell_volume 1228.434149
_symmetry_space_group_name_H-M "P B A 2"
_symmetry_group_IT_number 32
_symmetry_cell_setting 'orthorhombic'
loop_
_space_group_symop_operation_xyz
x,y,z
-x,-y,z
1/2-x,1/2+y,z
1/2+x,1/2-y,z
loop_
_atom_site_type_symbol
_atom_site_label
_atom_site_fract_x
_atom_site_fract_y
_atom_site_fract_z
Si Si1 0.449270 0.198809 0.319770
Si Si2 0.045322 0.882994 0.458134
Si Si3 0.707104 0.410116 0.272621
Si Si4 0.842735 0.225219 0.991621
Si Si5 0.381774 0.646961 0.935601
Si Si6 0.000000 0.000000 0.742938
Si Si7 0.292074 0.903733 0.222365
O O1 0.492840 0.277204 0.443612
O O2 0.310817 0.149847 0.378102
O O3 0.412938 0.226081 0.139475
O O4 0.570565 0.128586 0.305056
O O5 0.069093 0.920973 0.636676
O O6 0.178643 0.889421 0.354888
O O7 0.914683 0.939788 0.391501
O O8 0.793193 0.490368 0.192028
O O9 0.631125 0.357516 0.128960
O O10 0.744598 0.146129 0.056811
O O11 0.747614 0.291541 0.882753
O O12 0.970002 0.188213 0.888528
O O13 0.383686 0.548730 0.852671
#
# Coordination Sequence:
#
# PCOD8170439 Si02
#       7
#     4   4   4   4   4   2   4
#     4  10  20  35  62  94 121 150 201 266 319 360
#     4  11  21  40  58  87 118 164 212 247 305 372
#     4  11  20  36  66  92 118 157 205 263 314 370
#     4  10  19  37  63  91 119 159 202 260 316 372
#     4  11  22  40  62  91 125 164 212 256 316 373
#     4  12  26  40  58  90 126 176 216 252 298 390
#     4  11  18  34  62  95 119 148 203 261 311 364
#
# _framework density 21.165154999999999
#
# number of rings (size 3 to 8) (size 9 to 14) (size 15 to 20)
#    0.000    1.231    6.154    3.231    0.000    0.000 
#    5.538    0.000    0.000    1.846    0.000    0.000 
#    0.000    0.000    0.000    0.000    0.000    0.000 
#
# Total GULP energy -322135.555615 kJ/mol
# GULP energy per Si atom -12389.829062 kJ/mol
# Density = 2.111698 g / cm^3
# Si number density = 21.165155 Si / 1000 Ang^3
#
#
#
# Elastic Constant Matrix: (Units=GPa)
#
#
# Indices 1 2 3 4 5 6 
#
# 1 129.8986 57.0672 34.1223 0.0000 0.0000 0.0000
# 2 57.0672 113.2420 25.8311 0.0000 0.0000 0.0000
# 3 34.1223 25.8311 42.2629 0.0000 0.0000 0.0000
# 4 0.0000 0.0000 0.0000 35.8649 0.0000 0.0000
# 5 0.0000 0.0000 0.0000 0.0000 8.7217 0.0000
# 6 0.0000 0.0000 0.0000 0.0000 0.0000 45.5591
#
#
#
# Elastic Compliance Matrix: (Units=1/GPa)
#
#
# Indices 1 2 3 4 5 6 
#
# 1 0.011249 -0.004180 -0.006528 0.000000 0.000000 0.000000
# 2 -0.004180 0.011814 -0.003846 0.000000 0.000000 0.000000
# 3 -0.006528 -0.003846 0.031283 0.000000 0.000000 0.000000
# 4 0.000000 0.000000 0.000000 0.027882 0.000000 0.000000
# 5 0.000000 0.000000 0.000000 0.000000 0.114656 0.000000
# 6 0.000000 0.000000 0.000000 0.000000 0.000000 0.021950
#
#
# Mechanical properties :
#
#
# Convention : Reuss Voigt Hill
#
# Bulk Modulus (GPa) = 39.62182 57.71609 48.66896
# Shear Modulus (GPa) = 19.50417 29.25467 24.37942
#
# Velocity S-wave (km/s) = 3.03895 3.72184 3.39760
# Velocity P-wave (km/s) = 5.57446 6.76743 6.19970
#
# Compressibility (1/GPa) = 0.02523862
#
# Stress axis : x y z
#
# Youngs Moduli (GPa) = 88.89347 84.64218 31.96674
#
# Poissons Ratio (x) = 0.35381 0.20867
# Poissons Ratio (y) = 0.37158 0.12295
# Poissons Ratio (z) = 0.58027 0.32554
#
# Static dielectric constant tensor:
#      x y z
#    x 3.977700 0.000000 0.000000 
#    y 0.000000 4.706390 0.000000 
#    z 0.000000 0.000000 3.314410 
# 
# 
# High freq. dielectric constant tensor:
#      x y z
#    x 1.832070 0.000000 0.000000 
#    y 0.000000 1.850580 0.000000 
#    z 0.000000 0.000000 1.769830 
# 
# From -- ./inp_files/2442.got.cif
#   From: 2010.03.12/outbox.cif.g09.slc.cpg/sg32_2_cif.got.tgz:2442.got - 2010.04.14 01:46:39.
