data_PCOD8170852
_publ_section_title
;
Structure prediction by ZEFSAII (Michael W. Deem and Ramdas Pophale) SiO2 
 PCOD8170852
Probable space group: P N A 21
;
_chemical_formula_sum "Si O2"
_cell_formula_units_Z 28
_cell_length_a 14.333229
_cell_length_b 9.948655
_cell_length_c 9.606892
_cell_angle_alpha 90.000000
_cell_angle_beta 90.000000
_cell_angle_gamma 90.000000
_cell_volume 1369.907737
_symmetry_space_group_name_H-M "P N A 21"
_symmetry_group_IT_number 33
_symmetry_cell_setting 'orthorhombic'
loop_
_space_group_symop_operation_xyz
x,y,z
-x,-y,1/2+z
1/2-x,1/2+y,1/2+z
1/2+x,1/2-y,z
loop_
_atom_site_type_symbol
_atom_site_label
_atom_site_fract_x
_atom_site_fract_y
_atom_site_fract_z
Si Si1 0.848133 0.179771 0.508480
Si Si2 0.695021 0.249873 0.725314
Si Si3 0.216520 0.898028 0.461569
Si Si4 0.869691 0.049549 0.233984
Si Si5 0.062025 0.931286 0.262691
Si Si6 0.089240 0.535757 0.024225
Si Si7 0.994529 0.632683 0.290195
O O1 0.756106 0.215507 0.592649
O O2 0.910289 0.078045 0.600488
O O3 0.908797 0.311226 0.469028
O O4 0.816962 0.109872 0.366327
O O5 0.750945 0.232203 0.871968
O O6 0.664912 0.400959 0.704924
O O7 0.607677 0.148851 0.722165
O O8 0.148113 0.983694 0.358302
O O9 0.155740 0.859932 0.598796
O O10 0.306241 0.979296 0.513614
O O11 0.980057 0.041681 0.268724
O O12 0.035982 0.781224 0.319135
O O13 0.015734 0.447849 0.935574
O O14 0.058087 0.543295 0.186376
#
# Coordination Sequence:
#
# PCOD8170852 Si02
#       7
#     4   4   4   4   4   4   4
#     4  10  20  37  59  85 117 156 199 240 300 348
#     4   9  20  40  53  84 121 157 192 246 296 344
#     4  10  20  37  61  83 119 152 195 242 290 351
#     4  11  20  36  61  84 114 157 198 243 293 353
#     4   9  20  38  58  83 118 154 191 247 302 347
#     4  10  20  38  58  87 115 153 194 242 289 351
#     4   9  20  36  60  80 120 157 191 242 298 344
#
# _framework density 20.439333000000001
#
# number of rings (size 3 to 8) (size 9 to 14) (size 15 to 20)
#    0.000    2.286    1.429    0.857    0.000    2.286 
#    7.714    1.429    0.000    0.000    0.000    0.000 
#    0.000    0.000    0.000    0.000    0.000    0.000 
#
# Total GULP energy -347048.743802 kJ/mol
# GULP energy per Si atom -12394.597993 kJ/mol
# Density = 2.039281 g / cm^3
# Si number density = 20.439333 Si / 1000 Ang^3
#
#
#
# Elastic Constant Matrix: (Units=GPa)
#
#
# Indices 1 2 3 4 5 6 
#
# 1 87.7322 5.9044 30.6248 0.0000 0.0000 0.0000
# 2 5.9044 20.8618 17.6380 0.0000 0.0000 0.0000
# 3 30.6248 17.6380 113.6565 0.0000 0.0000 0.0000
# 4 0.0000 0.0000 0.0000 24.6464 0.0000 0.0000
# 5 0.0000 0.0000 0.0000 0.0000 33.9066 0.0000
# 6 0.0000 0.0000 0.0000 0.0000 0.0000 19.7348
#
#
#
# Elastic Compliance Matrix: (Units=1/GPa)
#
#
# Indices 1 2 3 4 5 6 
#
# 1 0.012593 -0.000800 -0.003269 0.000000 0.000000 0.000000
# 2 -0.000800 0.055224 -0.008354 0.000000 0.000000 0.000000
# 3 -0.003269 -0.008354 0.010976 0.000000 0.000000 0.000000
# 4 0.000000 0.000000 0.000000 0.040574 0.000000 0.000000
# 5 0.000000 0.000000 0.000000 0.000000 0.029493 0.000000
# 6 0.000000 0.000000 0.000000 0.000000 0.000000 0.050672
#
#
# Mechanical properties :
#
#
# Convention : Reuss Voigt Hill
#
# Bulk Modulus (GPa) = 18.53711 36.73166 27.63439
# Shear Modulus (GPa) = 20.63031 26.86310 23.74670
#
# Velocity S-wave (km/s) = 3.18046 3.62924 3.41224
# Velocity P-wave (km/s) = 4.75144 5.96422 5.39203
#
# Compressibility (1/GPa) = 0.05394584
#
# Stress axis : x y z
#
# Youngs Moduli (GPa) = 79.40713 18.10793 91.10956
#
# Poissons Ratio (x) = 0.01449 0.29784
# Poissons Ratio (y) = 0.06355 0.76117
# Poissons Ratio (z) = 0.25959 0.15128
#
# Static dielectric constant tensor:
#      x y z
#    x 4.009010 0.000000 0.000000 
#    y 0.000000 3.435100 0.000000 
#    z 0.000000 0.000000 3.705680 
# 
# 
# High freq. dielectric constant tensor:
#      x y z
#    x 1.812360 0.000000 0.000000 
#    y 0.000000 1.764170 0.000000 
#    z 0.000000 0.000000 1.800410 
# 
# From -- ./inp_files/4319.got.cif
#   From: 2010.03.12/outbox.cif.g09.slc.cpg/sg33_3_cif.got.tgz:4319.got - 2010.04.14 01:49:19.
