data_PCOD8170218
_publ_section_title
;
Structure prediction by ZEFSAII (Michael W. Deem and Ramdas Pophale) SiO2 
 PCOD8170218
Probable space group: P M N 21
;
_chemical_formula_sum "Si O2"
_cell_formula_units_Z 32
_cell_length_a 9.402543
_cell_length_b 16.319431
_cell_length_c 10.234738
_cell_angle_alpha 90.000000
_cell_angle_beta 90.000000
_cell_angle_gamma 90.000000
_cell_volume 1570.460690
_symmetry_space_group_name_H-M "P M N 21"
_symmetry_group_IT_number 31
_symmetry_cell_setting 'orthorhombic'
loop_
_space_group_symop_operation_xyz
x,y,z
1/2-x,-y,1/2+z
-x,y,z
1/2+x,-y,1/2+z
loop_
_atom_site_type_symbol
_atom_site_label
_atom_site_fract_x
_atom_site_fract_y
_atom_site_fract_z
Si Si1 0.668275 0.528416 0.324730
Si Si2 0.158941 0.932308 0.069922
Si Si3 0.339232 0.757893 0.680194
Si Si4 0.347148 0.167441 0.829241
Si Si5 0.833834 0.425256 0.117930
Si Si6 0.335606 0.089217 0.086748
Si Si7 0.161540 0.204387 0.469308
Si Si8 0.334970 0.702222 0.225852
O O1 0.500000 0.513857 0.313809
O O2 0.748164 0.457854 0.244100
O O3 0.712569 0.533764 0.478809
O O4 0.717646 0.610520 0.249868
O O5 0.148153 0.870838 0.188188
O O6 0.000000 0.955872 0.019046
O O7 0.243168 0.010656 0.125177
O O8 0.245201 0.879745 0.961324
O O9 0.500000 0.786375 0.644549
O O10 0.303533 0.672171 0.609651
O O11 0.225669 0.826704 0.643594
O O12 0.325887 0.745375 0.835920
O O13 0.500000 0.207640 0.862588
O O14 0.231563 0.239112 0.836658
O O15 0.316626 0.094906 0.930803
O O16 0.000000 0.441327 0.143639
O O17 0.500000 0.078064 0.130684
O O18 0.211139 0.268083 0.581546
O O19 0.000000 0.175745 0.497345
O O20 0.500000 0.708029 0.251242
#
# Coordination Sequence:
#
# PCOD8170218 Si02
#       8
#     4   4   4   4   4   4   4   4
#     4  10  22  39  62  93 126 159 205 256 302 367
#     4  10  21  37  56  82 113 150 191 235 289 349
#     4  10  22  40  61  85 118 157 199 248 304 360
#     4   9  20  37  55  77 109 144 183 233 286 343
#     4  10  23  41  62  92 126 164 209 255 310 372
#     4  11  23  37  56  82 113 150 193 239 291 351
#     4   9  19  36  59  86 116 151 192 242 297 354
#     4   9  18  35  61  87 111 145 192 240 291 352
#
# _framework density 20.376187999999999
#
# number of rings (size 3 to 8) (size 9 to 14) (size 15 to 20)
#    0.000    2.250    0.000    1.500    3.500    4.500 
#    0.000    0.000    0.000    0.000    0.000    0.000 
#    0.000    0.000    0.000    0.000    0.000    0.000 
#
# Total GULP energy -396630.900078 kJ/mol
# GULP energy per Si atom -12394.715627 kJ/mol
# Density = 2.032981 g / cm^3
# Si number density = 20.376188 Si / 1000 Ang^3
#
#
#
# Elastic Constant Matrix: (Units=GPa)
#
#
# Indices 1 2 3 4 5 6 
#
# 1 83.1408 43.6611 29.9698 0.0000 0.0000 0.0000
# 2 43.6611 83.4445 21.3605 0.0000 0.0000 0.0000
# 3 29.9698 21.3605 73.2799 0.0000 0.0000 0.0000
# 4 0.0000 0.0000 0.0000 25.3009 0.0000 0.0000
# 5 0.0000 0.0000 0.0000 0.0000 27.3490 0.0000
# 6 0.0000 0.0000 0.0000 0.0000 0.0000 34.8624
#
#
#
# Elastic Compliance Matrix: (Units=1/GPa)
#
#
# Indices 1 2 3 4 5 6 
#
# 1 0.018153 -0.008210 -0.005031 0.000000 0.000000 0.000000
# 2 -0.008210 0.016664 -0.001500 0.000000 0.000000 0.000000
# 3 -0.005031 -0.001500 0.016141 0.000000 0.000000 0.000000
# 4 0.000000 0.000000 0.000000 0.039524 0.000000 0.000000
# 5 0.000000 0.000000 0.000000 0.000000 0.036564 0.000000
# 6 0.000000 0.000000 0.000000 0.000000 0.000000 0.028684
#
#
# Mechanical properties :
#
#
# Convention : Reuss Voigt Hill
#
# Bulk Modulus (GPa) = 46.56340 47.76091 47.16215
# Shear Modulus (GPa) = 25.99146 27.16071 26.57608
#
# Velocity S-wave (km/s) = 3.57540 3.65494 3.61539
# Velocity P-wave (km/s) = 6.32030 6.42665 6.37370
#
# Compressibility (1/GPa) = 0.02147610
#
# Stress axis : x y z
#
# Youngs Moduli (GPa) = 55.08744 60.01011 61.95440
#
# Poissons Ratio (x) = 0.49271 0.31168
# Poissons Ratio (y) = 0.45229 0.09290
# Poissons Ratio (z) = 0.27714 0.08999
#
# Static dielectric constant tensor:
#      x y z
#    x 3.954760 0.000000 0.000000 
#    y 0.000000 3.636840 0.000000 
#    z 0.000000 0.000000 3.783700 
# 
# 
# High freq. dielectric constant tensor:
#      x y z
#    x 1.794340 0.000000 0.000000 
#    y 0.000000 1.787170 0.000000 
#    z 0.000000 0.000000 1.799080 
# 
# From -- ./inp_files/3668.got.cif
#   From: 2010.03.12/outbox.cif.g09.slc.cpg/sg31_2_cif.got.tgz:3668.got - 2010.04.14 01:42:59.
