data_PCOD8170487
_publ_section_title
;
Structure prediction by ZEFSAII (Michael W. Deem and Ramdas Pophale) SiO2 
 PCOD8170487
Probable space group: P B A 2
;
_chemical_formula_sum "Si O2"
_cell_formula_units_Z 32
_cell_length_a 17.475084
_cell_length_b 5.176556
_cell_length_c 16.609439
_cell_angle_alpha 90.000000
_cell_angle_beta 90.000000
_cell_angle_gamma 90.000000
_cell_volume 1502.502324
_symmetry_space_group_name_H-M "P B A 2"
_symmetry_group_IT_number 32
_symmetry_cell_setting 'orthorhombic'
loop_
_space_group_symop_operation_xyz
x,y,z
-x,-y,z
1/2-x,1/2+y,z
1/2+x,1/2-y,z
loop_
_atom_site_type_symbol
_atom_site_label
_atom_site_fract_x
_atom_site_fract_y
_atom_site_fract_z
Si Si1 0.033535 0.751679 0.858720
Si Si2 0.703070 0.669645 0.818782
Si Si3 0.203120 0.333091 0.082371
Si Si4 0.910207 0.010995 0.498691
Si Si5 0.703719 0.155970 0.270274
Si Si6 0.203849 0.843015 0.630657
Si Si7 0.410193 0.989016 0.402618
Si Si8 0.965394 0.748315 0.037344
O O1 0.124998 0.765043 0.865263
O O2 0.000000 0.500000 0.812529
O O3 0.000000 0.000000 0.811461
O O4 0.997137 0.749920 0.947105
O O5 0.736632 0.391689 0.843914
O O6 0.683950 0.660129 0.724587
O O7 0.235785 0.612809 0.057804
O O8 0.183313 0.341053 0.176447
O O9 0.126109 0.264945 0.034669
O O10 0.872814 0.082063 0.583768
O O11 0.884258 0.231312 0.435095
O O12 0.884259 0.731338 0.466215
O O13 0.000000 0.000000 0.513817
O O14 0.732957 0.441035 0.293399
O O15 0.627205 0.081805 0.317548
O O16 0.232851 0.557850 0.607316
O O17 0.500000 0.000000 0.387501
O O18 0.000000 0.500000 0.083591
O O19 0.000000 0.000000 0.082533
#
# Coordination Sequence:
#
# PCOD8170487 Si02
#       8
#     4   4   4   4   4   4   4   4
#     4  10  21  39  59  86 117 146 187 234 281 343
#     4  10  21  39  60  84 116 152 191 238 289 342
#     4  10  21  39  60  84 116 152 191 238 289 342
#     4  10  21  36  53  78 112 147 186 231 281 334
#     4  10  21  36  56  82 109 144 190 232 278 333
#     4  10  21  36  56  82 109 144 190 232 278 333
#     4  10  21  36  53  78 112 147 186 231 281 334
#     4  10  21  39  59  86 117 146 187 234 281 343
#
# _framework density 21.297802999999998
#
# number of rings (size 3 to 8) (size 9 to 14) (size 15 to 20)
#    0.000    2.000    0.000    3.000    0.000    4.000 
#    0.000   18.750    0.000    0.000    0.000    0.000 
#    0.000    0.000    0.000    0.000    0.000    0.000 
#
# Total GULP energy -396707.705770 kJ/mol
# GULP energy per Si atom -12397.115805 kJ/mol
# Density = 2.124933 g / cm^3
# Si number density = 21.297803 Si / 1000 Ang^3
#
#
#
# Elastic Constant Matrix: (Units=GPa)
#
#
# Indices 1 2 3 4 5 6 
#
# 1 107.6317 40.5061 43.2044 0.0000 0.0000 0.0000
# 2 40.5061 169.2432 18.6341 0.0000 0.0000 0.0000
# 3 43.2044 18.6341 49.8703 0.0000 0.0000 0.0000
# 4 0.0000 0.0000 0.0000 10.8758 0.0000 0.0000
# 5 0.0000 0.0000 0.0000 0.0000 33.7086 0.0000
# 6 0.0000 0.0000 0.0000 0.0000 0.0000 40.8366
#
#
#
# Elastic Compliance Matrix: (Units=1/GPa)
#
#
# Indices 1 2 3 4 5 6 
#
# 1 0.015027 -0.002256 -0.012176 0.000000 0.000000 0.000000
# 2 -0.002256 0.006501 -0.000475 0.000000 0.000000 0.000000
# 3 -0.012176 -0.000475 0.030778 0.000000 0.000000 0.000000
# 4 0.000000 0.000000 0.000000 0.091948 0.000000 0.000000
# 5 0.000000 0.000000 0.000000 0.000000 0.029666 0.000000
# 6 0.000000 0.000000 0.000000 0.000000 0.000000 0.024488
#
#
# Mechanical properties :
#
#
# Convention : Reuss Voigt Hill
#
# Bulk Modulus (GPa) = 44.45806 59.04827 51.75317
# Shear Modulus (GPa) = 21.21178 32.04425 26.62801
#
# Velocity S-wave (km/s) = 3.15931 3.88310 3.53975
# Velocity P-wave (km/s) = 5.85048 6.92025 6.40773
#
# Compressibility (1/GPa) = 0.02249311
#
# Stress axis : x y z
#
# Youngs Moduli (GPa) = 66.54470 153.82583 32.49104
#
# Poissons Ratio (x) = 0.34704 0.39561
# Poissons Ratio (y) = 0.15013 0.01542
# Poissons Ratio (z) = 0.81024 0.07300
#
# Static dielectric constant tensor:
#      x y z
#    x 3.651080 0.000000 0.000000 
#    y 0.000000 0.662870 0.000000 
#    z 0.000000 0.000000 3.526890 
# 
# 
# High freq. dielectric constant tensor:
#      x y z
#    x 1.831500 0.000000 0.000000 
#    y 0.000000 1.869480 0.000000 
#    z 0.000000 0.000000 1.804080 
# 
# From -- ./inp_files/4248.got.cif
#   From: 2010.03.12/outbox.cif.g09.slc.cpg/sg32_3_cif.got.tgz:4248.got - 2010.04.14 01:46:39.
