data_PCOD8170500
_publ_section_title
;
Structure prediction by ZEFSAII (Michael W. Deem and Ramdas Pophale) SiO2 
 PCOD8170500
Probable space group: P B A 2
;
_chemical_formula_sum "Si O2"
_cell_formula_units_Z 28
_cell_length_a 20.269214
_cell_length_b 10.371026
_cell_length_c 5.335270
_cell_angle_alpha 90.000000
_cell_angle_beta 90.000000
_cell_angle_gamma 90.000000
_cell_volume 1121.540687
_symmetry_space_group_name_H-M "P B A 2"
_symmetry_group_IT_number 32
_symmetry_cell_setting 'orthorhombic'
loop_
_space_group_symop_operation_xyz
x,y,z
-x,-y,z
1/2-x,1/2+y,z
1/2+x,1/2-y,z
loop_
_atom_site_type_symbol
_atom_site_label
_atom_site_fract_x
_atom_site_fract_y
_atom_site_fract_z
Si Si1 0.569518 0.226054 0.187980
Si Si2 0.463462 0.867900 0.684731
Si Si3 0.412533 0.307806 0.597516
Si Si4 0.716803 0.547255 0.845958
Si Si5 0.718855 0.816169 0.637947
Si Si6 0.450750 0.388575 0.096401
Si Si7 0.672386 0.435616 0.350034
O O1 0.577648 0.126489 0.422017
O O2 0.491699 0.257981 0.149585
O O3 0.609180 0.356059 0.250418
O O4 0.587163 0.162578 0.916650
O O5 0.515110 0.751576 0.640748
O O6 0.500000 0.000000 0.743427
O O7 0.356767 0.200071 0.545019
O O8 0.413908 0.412509 0.364558
O O9 0.397335 0.372155 0.871872
O O10 0.742681 0.692247 0.800087
O O11 0.776432 0.443965 0.812076
O O12 0.663903 0.516550 0.614194
O O13 0.689145 0.533513 0.125781
O O14 0.767827 0.833505 0.399205
O O15 0.500000 0.500000 0.013658
#
# Coordination Sequence:
#
# PCOD8170500 Si02
#       7
#     4   4   4   4   4   4   4
#     4  10  21  39  60  90 123 158 220 257 327 387
#     4  10  21  40  61  92 127 170 213 271 329 399
#     4  10  23  38  62  90 128 162 213 267 328 390
#     4  10  25  40  67  90 135 164 229 266 345 391
#     4  10  26  43  66  98 132 178 222 282 336 408
#     4  10  22  36  61  91 122 160 203 257 326 386
#     4  10  24  42  65  94 127 176 220 279 331 407
#
# _framework density 24.965655000000002
#
# number of rings (size 3 to 8) (size 9 to 14) (size 15 to 20)
#    0.857    1.143    0.000    1.714    8.000    1.143 
#    0.000    0.000    0.000    0.000    0.000    0.000 
#    0.000    0.000    0.000    0.000    0.000    0.000 
#
# Total GULP energy -346994.004452 kJ/mol
# GULP energy per Si atom -12392.643016 kJ/mol
# Density = 2.490883 g / cm^3
# Si number density = 24.965655 Si / 1000 Ang^3
#
#
#
# Elastic Constant Matrix: (Units=GPa)
#
#
# Indices 1 2 3 4 5 6 
#
# 1 61.4629 -9.6006 39.0792 0.0000 0.0000 0.0000
# 2 -9.6006 80.8106 36.8218 0.0000 0.0000 0.0000
# 3 39.0792 36.8218 222.2222 0.0000 0.0000 0.0000
# 4 0.0000 0.0000 0.0000 41.1866 0.0000 0.0000
# 5 0.0000 0.0000 0.0000 0.0000 33.0477 0.0000
# 6 0.0000 0.0000 0.0000 0.0000 0.0000 39.7611
#
#
#
# Elastic Compliance Matrix: (Units=1/GPa)
#
#
# Indices 1 2 3 4 5 6 
#
# 1 0.019557 0.004208 -0.004137 0.000000 0.000000 0.000000
# 2 0.004208 0.014291 -0.003108 0.000000 0.000000 0.000000
# 3 -0.004137 -0.003108 0.005742 0.000000 0.000000 0.000000
# 4 0.000000 0.000000 0.000000 0.024280 0.000000 0.000000
# 5 0.000000 0.000000 0.000000 0.000000 0.030259 0.000000
# 6 0.000000 0.000000 0.000000 0.000000 0.000000 0.025150
#
#
# Mechanical properties :
#
#
# Convention : Reuss Voigt Hill
#
# Bulk Modulus (GPa) = 29.83460 55.23293 42.53376
# Shear Modulus (GPa) = 36.62328 42.67877 39.65102
#
# Velocity S-wave (km/s) = 3.83423 4.13909 3.98957
# Velocity P-wave (km/s) = 5.61943 6.70928 6.18839
#
# Compressibility (1/GPa) = 0.03351814
#
# Stress axis : x y z
#
# Youngs Moduli (GPa) = 51.13138 69.97520 174.14186
#
# Poissons Ratio (x) = -0.29448 0.72036
# Poissons Ratio (y) = -0.21518 0.54124
# Poissons Ratio (z) = 0.21151 0.21748
#
# Static dielectric constant tensor:
#      x y z
#    x 4.314240 0.000000 0.000000 
#    y 0.000000 4.285680 0.000000 
#    z 0.000000 0.000000 5.032130 
# 
# 
# High freq. dielectric constant tensor:
#      x y z
#    x 1.987210 0.000000 0.000000 
#    y 0.000000 1.984720 0.000000 
#    z 0.000000 0.000000 2.023800 
# 
# From -- ./inp_files/1563.got.cif
#   From: 2010.03.12/outbox.cif.g09.slc.cpg/sg32_1_cif.got.tgz:1563.got - 2010.04.14 01:46:39.
