data_PCOD8170846
_publ_section_title
;
Structure prediction by ZEFSAII (Michael W. Deem and Ramdas Pophale) SiO2 
 PCOD8170846
Probable space group: P N A 21
;
_chemical_formula_sum "Si O2"
_cell_formula_units_Z 32
_cell_length_a 12.266213
_cell_length_b 14.989994
_cell_length_c 8.048986
_cell_angle_alpha 90.000000
_cell_angle_beta 90.000000
_cell_angle_gamma 90.000000
_cell_volume 1479.970752
_symmetry_space_group_name_H-M "P N A 21"
_symmetry_group_IT_number 33
_symmetry_cell_setting 'orthorhombic'
loop_
_space_group_symop_operation_xyz
x,y,z
-x,-y,1/2+z
1/2-x,1/2+y,1/2+z
1/2+x,1/2-y,z
loop_
_atom_site_type_symbol
_atom_site_label
_atom_site_fract_x
_atom_site_fract_y
_atom_site_fract_z
Si Si1 0.295133 0.935809 0.757780
Si Si2 0.100451 0.818222 0.615834
Si Si3 0.047433 0.058256 0.304110
Si Si4 0.502592 0.834996 0.821551
Si Si5 0.127429 0.196366 0.543479
Si Si6 0.857936 0.062351 0.539336
Si Si7 0.063985 0.782568 0.244907
Si Si8 0.845393 0.377886 0.600755
O O1 0.211472 0.863678 0.680597
O O2 0.419048 0.902251 0.731502
O O3 0.292044 0.031565 0.667776
O O4 0.261734 0.947360 0.954086
O O5 0.110398 0.815999 0.418333
O O6 0.994106 0.875081 0.661595
O O7 0.078358 0.719999 0.692637
O O8 0.119402 0.102912 0.445796
O O9 0.940555 0.021262 0.400475
O O10 0.125960 0.986728 0.215977
O O11 0.423103 0.774083 0.932070
O O12 0.585429 0.893626 0.933039
O O13 0.255215 0.200885 0.576169
O O14 0.064823 0.195429 0.721577
O O15 0.881416 0.166119 0.584276
O O16 0.078647 0.675076 0.232609
#
# Coordination Sequence:
#
# PCOD8170846 Si02
#       8
#     4   4   4   4   4   4   4   4
#     4  11  25  42  65  97 134 171 228 273 335 407
#     4  10  22  40  68  97 125 169 226 272 335 395
#     4   9  19  32  60  94 121 157 204 273 316 376
#     4  10  22  47  64  85 132 179 217 270 337 399
#     4   9  20  39  64  87 122 169 210 261 325 393
#     4  10  20  36  62  94 135 165 211 270 339 392
#     4  10  22  38  63  94 130 163 212 274 334 399
#     4  11  24  42  62  92 127 173 216 269 331 395
#
# _framework density 21.622050000000002
#
# number of rings (size 3 to 8) (size 9 to 14) (size 15 to 20)
#    0.000    2.000    0.000    4.500   10.500    2.000 
#    6.750    1.250    0.000    0.000    0.000    0.000 
#    0.000    0.000    0.000    0.000    0.000    0.000 
#
# Total GULP energy -396422.981150 kJ/mol
# GULP energy per Si atom -12388.218161 kJ/mol
# Density = 2.157284 g / cm^3
# Si number density = 21.622050 Si / 1000 Ang^3
#
#
#
# Elastic Constant Matrix: (Units=GPa)
#
#
# Indices 1 2 3 4 5 6 
#
# 1 101.6852 36.1382 37.7470 0.0000 0.0000 0.0000
# 2 36.1382 75.7907 32.8257 0.0000 0.0000 0.0000
# 3 37.7470 32.8257 107.0635 0.0000 0.0000 0.0000
# 4 0.0000 0.0000 0.0000 20.8221 0.0000 0.0000
# 5 0.0000 0.0000 0.0000 0.0000 24.3305 0.0000
# 6 0.0000 0.0000 0.0000 0.0000 0.0000 35.4550
#
#
#
# Elastic Compliance Matrix: (Units=1/GPa)
#
#
# Indices 1 2 3 4 5 6 
#
# 1 0.012627 -0.004719 -0.003005 0.000000 0.000000 0.000000
# 2 -0.004719 0.016978 -0.003542 0.000000 0.000000 0.000000
# 3 -0.003005 -0.003542 0.011486 0.000000 0.000000 0.000000
# 4 0.000000 0.000000 0.000000 0.048026 0.000000 0.000000
# 5 0.000000 0.000000 0.000000 0.000000 0.041101 0.000000
# 6 0.000000 0.000000 0.000000 0.000000 0.000000 0.028205
#
#
# Mechanical properties :
#
#
# Convention : Reuss Voigt Hill
#
# Bulk Modulus (GPa) = 53.88187 55.32902 54.60544
# Shear Modulus (GPa) = 26.71790 27.97675 27.34733
#
# Velocity S-wave (km/s) = 3.51904 3.60098 3.56025
# Velocity P-wave (km/s) = 6.44092 6.55242 6.49691
#
# Compressibility (1/GPa) = 0.01855912
#
# Stress axis : x y z
#
# Youngs Moduli (GPa) = 79.19587 58.89835 87.06578
#
# Poissons Ratio (x) = 0.27796 0.26162
# Poissons Ratio (y) = 0.37375 0.30836
# Poissons Ratio (z) = 0.23798 0.20860
#
# Static dielectric constant tensor:
#      x y z
#    x 3.917490 0.000000 0.000000 
#    y 0.000000 3.805490 0.000000 
#    z 0.000000 0.000000 3.771400 
# 
# 
# High freq. dielectric constant tensor:
#      x y z
#    x 1.838070 0.000000 0.000000 
#    y 0.000000 1.840120 0.000000 
#    z 0.000000 0.000000 1.839730 
# 
# From -- ./inp_files/3954.got.cif
#   From: 2010.03.12/outbox.cif.g09.slc.cpg/sg33_2_cif.got.tgz:3954.got - 2010.04.14 01:49:19.
