data_PCOD8170305
_publ_section_title
;
Structure prediction by ZEFSAII (Michael W. Deem and Ramdas Pophale) SiO2 
 PCOD8170305
Probable space group: P M N 21
;
_chemical_formula_sum "Si O2"
_cell_formula_units_Z 24
_cell_length_a 8.941963
_cell_length_b 9.870883
_cell_length_c 13.897901
_cell_angle_alpha 90.000000
_cell_angle_beta 90.000000
_cell_angle_gamma 90.000000
_cell_volume 1226.699212
_symmetry_space_group_name_H-M "P M N 21"
_symmetry_group_IT_number 31
_symmetry_cell_setting 'orthorhombic'
loop_
_space_group_symop_operation_xyz
x,y,z
1/2-x,-y,1/2+z
-x,y,z
1/2+x,-y,1/2+z
loop_
_atom_site_type_symbol
_atom_site_label
_atom_site_fract_x
_atom_site_fract_y
_atom_site_fract_z
Si Si1 0.676227 0.277881 0.541580
Si Si2 0.332146 0.111978 0.839444
Si Si3 0.172963 0.345257 0.731643
Si Si4 0.673888 0.378645 0.332896
Si Si5 0.329954 0.849694 0.718407
Si Si6 0.174437 0.986038 0.544604
O O1 0.500000 0.270164 0.553256
O O2 0.740624 0.363726 0.630901
O O3 0.723139 0.353529 0.443202
O O4 0.735944 0.125511 0.543945
O O5 0.500000 0.168725 0.823816
O O6 0.217583 0.206386 0.783463
O O7 0.319269 0.959633 0.802099
O O8 0.289787 0.104118 0.951151
O O9 0.208186 0.466500 0.805289
O O10 0.000000 0.337658 0.705470
O O11 0.500000 0.341599 0.319082
O O12 0.772056 0.290439 0.260923
O O13 0.500000 0.831845 0.682025
O O14 0.224406 0.891933 0.631465
O O15 0.000000 0.021690 0.552222
#
# Coordination Sequence:
#
# PCOD8170305 Si02
#       6
#     4   4   4   4   4   4
#     4  11  22  39  63  89 121 161 205 253 307 365
#     4  10  22  39  60  90 123 156 204 253 298 359
#     4  11  24  41  63  91 125 164 205 250 307 367
#     4  10  24  43  62  89 125 164 207 252 303 365
#     4  11  22  38  62  93 123 156 204 252 302 360
#     4  11  22  38  62  92 125 161 205 254 303 360
#
# _framework density 19.564696999999999
#
# number of rings (size 3 to 8) (size 9 to 14) (size 15 to 20)
#    0.000    1.333    3.333    2.000    0.000    5.333 
#    0.000    3.333    0.000    0.000    0.000    0.000 
#    0.000    0.000    0.000    0.000    0.000    0.000 
#
# Total GULP energy -297716.034344 kJ/mol
# GULP energy per Si atom -12404.834764 kJ/mol
# Density = 1.952017 g / cm^3
# Si number density = 19.564697 Si / 1000 Ang^3
#
#
#
# Elastic Constant Matrix: (Units=GPa)
#
#
# Indices 1 2 3 4 5 6 
#
# 1 73.5114 24.6564 41.0766 0.0000 0.0000 0.0000
# 2 24.6564 66.1416 20.8679 0.0000 0.0000 0.0000
# 3 41.0766 20.8679 123.2057 0.0000 0.0000 0.0000
# 4 0.0000 0.0000 0.0000 28.7115 0.0000 0.0000
# 5 0.0000 0.0000 0.0000 0.0000 27.8107 0.0000
# 6 0.0000 0.0000 0.0000 0.0000 0.0000 26.8587
#
#
#
# Elastic Compliance Matrix: (Units=1/GPa)
#
#
# Indices 1 2 3 4 5 6 
#
# 1 0.018244 -0.005158 -0.005209 0.000000 0.000000 0.000000
# 2 -0.005158 0.017431 -0.001233 0.000000 0.000000 0.000000
# 3 -0.005209 -0.001233 0.010062 0.000000 0.000000 0.000000
# 4 0.000000 0.000000 0.000000 0.034829 0.000000 0.000000
# 5 0.000000 0.000000 0.000000 0.000000 0.035957 0.000000
# 6 0.000000 0.000000 0.000000 0.000000 0.000000 0.037232
#
#
# Mechanical properties :
#
#
# Convention : Reuss Voigt Hill
#
# Bulk Modulus (GPa) = 44.36958 48.45116 46.41037
# Shear Modulus (GPa) = 27.10525 28.42670 27.76597
#
# Velocity S-wave (km/s) = 3.72616 3.81591 3.77130
# Velocity P-wave (km/s) = 6.42183 6.65080 6.53732
#
# Compressibility (1/GPa) = 0.02253796
#
# Stress axis : x y z
#
# Youngs Moduli (GPa) = 54.81299 57.37021 99.38419
#
# Poissons Ratio (x) = 0.29589 0.51768
# Poissons Ratio (y) = 0.28270 0.12252
# Poissons Ratio (z) = 0.28552 0.07073
#
# Static dielectric constant tensor:
#      x y z
#    x 3.666390 0.000000 0.000000 
#    y 0.000000 3.385970 0.000000 
#    z 0.000000 0.000000 3.849750 
# 
# 
# High freq. dielectric constant tensor:
#      x y z
#    x 1.771150 0.000000 0.000000 
#    y 0.000000 1.751610 0.000000 
#    z 0.000000 0.000000 1.777920 
# 
# From -- ./inp_files/4729.got.cif
#   From: 2010.03.12/outbox.cif.g09.slc.cpg/sg31_3_cif.got.tgz:4729.got - 2010.04.14 01:42:59.
