data_PCOD8170973
_publ_section_title
;
Structure prediction by ZEFSAII (Michael W. Deem and Ramdas Pophale) SiO2 
 PCOD8170973
Probable space group: P N A 21
;
_chemical_formula_sum "Si O2"
_cell_formula_units_Z 32
_cell_length_a 8.970872
_cell_length_b 19.103765
_cell_length_c 9.123182
_cell_angle_alpha 90.000000
_cell_angle_beta 90.000000
_cell_angle_gamma 90.000000
_cell_volume 1563.507489
_symmetry_space_group_name_H-M "P N A 21"
_symmetry_group_IT_number 33
_symmetry_cell_setting 'orthorhombic'
loop_
_space_group_symop_operation_xyz
x,y,z
-x,-y,1/2+z
1/2-x,1/2+y,1/2+z
1/2+x,1/2-y,z
loop_
_atom_site_type_symbol
_atom_site_label
_atom_site_fract_x
_atom_site_fract_y
_atom_site_fract_z
Si Si1 0.444033 0.816947 0.394310
Si Si2 0.930963 0.829498 0.109363
Si Si3 0.590393 0.447948 0.088916
Si Si4 0.649333 0.049818 0.539232
Si Si5 0.886147 0.964217 0.914955
Si Si6 0.577662 0.029925 0.860852
Si Si7 0.776650 0.697380 0.087871
Si Si8 0.704517 0.317613 0.924618
O O1 0.404616 0.895877 0.447295
O O2 0.371140 0.805463 0.236568
O O3 0.367072 0.754851 0.489812
O O4 0.621248 0.806712 0.394700
O O5 0.830127 0.771781 0.020713
O O6 0.874695 0.841338 0.274642
O O7 0.100961 0.803347 0.115926
O O8 0.913123 0.902148 0.027367
O O9 0.691315 0.516644 0.071243
O O10 0.539573 0.443973 0.258796
O O11 0.451248 0.463325 0.981732
O O12 0.676557 0.377286 0.045711
O O13 0.553635 0.045600 0.688942
O O14 0.675205 0.130464 0.490401
O O15 0.572153 0.008721 0.408432
O O16 0.711450 0.977159 0.892487
#
# Coordination Sequence:
#
# PCOD8170973 Si02
#       8
#     4   4   4   4   4   4   4   4
#     4  10  21  37  61  93 116 162 204 248 299 365
#     4  11  22  39  63  91 119 163 207 254 301 360
#     4  11  23  42  61  89 122 159 200 253 304 361
#     4  10  21  41  59  89 119 152 199 251 296 362
#     4  11  25  40  63  89 124 159 203 252 308 361
#     4  10  23  37  63  87 121 153 202 246 305 359
#     4  10  21  37  62  88 122 156 207 246 296 366
#     4  11  22  37  66  86 123 158 208 250 303 360
#
# _framework density 20.466802999999999
#
# number of rings (size 3 to 8) (size 9 to 14) (size 15 to 20)
#    0.000    1.500    2.500    3.750   10.500    1.000 
#    0.000    2.500    0.000    0.000    0.000    0.000 
#    0.000    0.000    0.000    0.000    0.000    0.000 
#
# Total GULP energy -396651.723653 kJ/mol
# GULP energy per Si atom -12395.366364 kJ/mol
# Density = 2.042022 g / cm^3
# Si number density = 20.466803 Si / 1000 Ang^3
#
#
#
# Elastic Constant Matrix: (Units=GPa)
#
#
# Indices 1 2 3 4 5 6 
#
# 1 103.8345 25.6928 20.3353 0.0000 0.0000 0.0000
# 2 25.6928 116.3813 16.0860 0.0000 0.0000 0.0000
# 3 20.3353 16.0860 56.1902 0.0000 0.0000 0.0000
# 4 0.0000 0.0000 0.0000 29.0848 0.0000 0.0000
# 5 0.0000 0.0000 0.0000 0.0000 20.7287 0.0000
# 6 0.0000 0.0000 0.0000 0.0000 0.0000 38.8943
#
#
#
# Elastic Compliance Matrix: (Units=1/GPa)
#
#
# Indices 1 2 3 4 5 6 
#
# 1 0.010759 -0.001913 -0.003346 0.000000 0.000000 0.000000
# 2 -0.001913 0.009286 -0.001966 0.000000 0.000000 0.000000
# 3 -0.003346 -0.001966 0.019571 0.000000 0.000000 0.000000
# 4 0.000000 0.000000 0.000000 0.034382 0.000000 0.000000
# 5 0.000000 0.000000 0.000000 0.000000 0.048242 0.000000
# 6 0.000000 0.000000 0.000000 0.000000 0.000000 0.025711
#
#
# Mechanical properties :
#
#
# Convention : Reuss Voigt Hill
#
# Bulk Modulus (GPa) = 39.73634 44.51491 42.12563
# Shear Modulus (GPa) = 29.27558 32.02770 30.65164
#
# Velocity S-wave (km/s) = 3.78616 3.96012 3.87412
# Velocity P-wave (km/s) = 6.21051 6.53507 6.37486
#
# Compressibility (1/GPa) = 0.02516588
#
# Stress axis : x y z
#
# Youngs Moduli (GPa) = 92.94248 107.68336 51.09698
#
# Poissons Ratio (x) = 0.20597 0.17098
# Poissons Ratio (y) = 0.17778 0.10047
# Poissons Ratio (z) = 0.31101 0.21174
#
# Static dielectric constant tensor:
#      x y z
#    x 3.726710 0.000000 0.000000 
#    y 0.000000 4.427750 0.000000 
#    z 0.000000 0.000000 3.407820 
# 
# 
# High freq. dielectric constant tensor:
#      x y z
#    x 1.808090 0.000000 0.000000 
#    y 0.000000 1.824690 0.000000 
#    z 0.000000 0.000000 1.754200 
# 
# From -- ./inp_files/3507.got.cif
#   From: 2010.03.12/outbox.cif.g09.slc.cpg/sg33_2_cif.got.tgz:3507.got - 2010.04.14 01:49:19.
