data_PCOD8170375
_publ_section_title
;
Structure prediction by ZEFSAII (Michael W. Deem and Ramdas Pophale) SiO2 
 PCOD8170375
Probable space group: P M N 21
;
_chemical_formula_sum "Si O2"
_cell_formula_units_Z 24
_cell_length_a 8.331709
_cell_length_b 26.912673
_cell_length_c 5.105342
_cell_angle_alpha 90.000000
_cell_angle_beta 90.000000
_cell_angle_gamma 90.000000
_cell_volume 1144.763484
_symmetry_space_group_name_H-M "P M N 21"
_symmetry_group_IT_number 31
_symmetry_cell_setting 'orthorhombic'
loop_
_space_group_symop_operation_xyz
x,y,z
1/2-x,-y,1/2+z
-x,y,z
1/2+x,-y,1/2+z
loop_
_atom_site_type_symbol
_atom_site_label
_atom_site_fract_x
_atom_site_fract_y
_atom_site_fract_z
Si Si1 0.687022 0.309094 0.577850
Si Si2 0.686419 0.639008 0.577243
Si Si3 0.313926 0.525751 0.542092
Si Si4 0.687324 0.026135 0.079612
Si Si5 0.691196 0.196645 0.553251
Si Si6 0.808837 0.861373 0.553226
O O1 0.500000 0.311255 0.507768
O O2 0.782978 0.342351 0.371058
O O3 0.753932 0.253017 0.561569
O O4 0.713520 0.328609 0.871199
O O5 0.500000 0.643402 0.506681
O O6 0.745436 0.582378 0.558438
O O7 0.214121 0.493408 0.748480
O O8 0.500000 0.521484 0.615252
O O9 0.500000 0.023783 0.011752
O O10 0.753662 0.082241 0.061483
O O11 0.716189 0.007078 0.373151
O O12 0.500000 0.196426 0.560158
O O13 0.759715 0.169408 0.297861
O O14 0.759757 0.165847 0.797837
O O15 0.000000 0.861091 0.560000
#
# Coordination Sequence:
#
# PCOD8170375 Si02
#       6
#     4   4   4   4   4   4
#     4  11  22  37  62  91 114 145 194 245 282 323
#     4  11  24  41  59  84 122 159 186 224 289 355
#     4  11  24  41  62  87 116 153 194 237 284 335
#     4  11  22  37  59  85 114 151 192 235 287 343
#     4   9  17  31  53  82 110 137 184 242 279 317
#     4   9  17  31  53  79 108 145 186 229 281 337
#
# _framework density 20.965029000000001
#
# number of rings (size 3 to 8) (size 9 to 14) (size 15 to 20)
#    0.000    1.667    0.000    5.000    0.000   12.000 
#    0.000    0.000    0.000   20.000    0.000    0.000 
#    0.000    0.000    0.000    0.000    0.000    0.000 
#
# Total GULP energy -297745.959637 kJ/mol
# GULP energy per Si atom -12406.081652 kJ/mol
# Density = 2.091731 g / cm^3
# Si number density = 20.965029 Si / 1000 Ang^3
#
#
#
# Elastic Constant Matrix: (Units=GPa)
#
#
# Indices 1 2 3 4 5 6 
#
# 1 31.8968 31.3294 9.9823 0.0000 0.0000 0.0000
# 2 31.3294 142.7931 30.8620 0.0000 0.0000 0.0000
# 3 9.9823 30.8620 113.3860 0.0000 0.0000 0.0000
# 4 0.0000 0.0000 0.0000 49.8237 0.0000 0.0000
# 5 0.0000 0.0000 0.0000 0.0000 28.7249 0.0000
# 6 0.0000 0.0000 0.0000 0.0000 0.0000 21.6700
#
#
#
# Elastic Compliance Matrix: (Units=1/GPa)
#
#
# Indices 1 2 3 4 5 6 
#
# 1 0.040118 -0.008541 -0.001207 0.000000 0.000000 0.000000
# 2 -0.008541 0.009259 -0.001768 0.000000 0.000000 0.000000
# 3 -0.001207 -0.001768 0.009407 0.000000 0.000000 0.000000
# 4 0.000000 0.000000 0.000000 0.020071 0.000000 0.000000
# 5 0.000000 0.000000 0.000000 0.000000 0.034813 0.000000
# 6 0.000000 0.000000 0.000000 0.000000 0.000000 0.046147
#
#
# Mechanical properties :
#
#
# Convention : Reuss Voigt Hill
#
# Bulk Modulus (GPa) = 27.97112 48.04705 38.00908
# Shear Modulus (GPa) = 25.67193 34.43720 30.05457
#
# Velocity S-wave (km/s) = 3.50310 4.05730 3.79034
# Velocity P-wave (km/s) = 5.45280 6.70197 6.10939
#
# Compressibility (1/GPa) = 0.03575116
#
# Stress axis : x y z
#
# Youngs Moduli (GPa) = 24.92639 107.99953 106.30368
#
# Poissons Ratio (x) = 0.92245 0.12832
# Poissons Ratio (y) = 0.21290 0.18798
# Poissons Ratio (z) = 0.03009 0.19097
#
# Static dielectric constant tensor:
#      x y z
#    x 3.335540 0.000000 0.000000 
#    y 0.000000 4.015200 0.000000 
#    z 0.000000 0.000000 3.784630 
# 
# 
# High freq. dielectric constant tensor:
#      x y z
#    x 1.788950 0.000000 0.000000 
#    y 0.000000 1.839520 0.000000 
#    z 0.000000 0.000000 1.835520 
# 
# From -- ./inp_files/153.got.cif
#   From: 2010.03.12/outbox.cif.g09.slc.cpg/sg31_1_cif.got.tgz:153.got - 2010.04.14 01:42:59.
