data_PCOD8170498
_publ_section_title
;
Structure prediction by ZEFSAII (Michael W. Deem and Ramdas Pophale) SiO2 
 PCOD8170498
Probable space group: P B A 2
;
_chemical_formula_sum "Si O2"
_cell_formula_units_Z 32
_cell_length_a 8.994092
_cell_length_b 15.194150
_cell_length_c 11.358971
_cell_angle_alpha 90.000000
_cell_angle_beta 90.000000
_cell_angle_gamma 90.000000
_cell_volume 1552.289522
_symmetry_space_group_name_H-M "P B A 2"
_symmetry_group_IT_number 32
_symmetry_cell_setting 'orthorhombic'
loop_
_space_group_symop_operation_xyz
x,y,z
-x,-y,z
1/2-x,1/2+y,z
1/2+x,1/2-y,z
loop_
_atom_site_type_symbol
_atom_site_label
_atom_site_fract_x
_atom_site_fract_y
_atom_site_fract_z
Si Si1 0.279302 0.465461 0.683190
Si Si2 0.152036 0.178227 0.434931
Si Si3 0.125042 0.193744 0.937587
Si Si4 0.321027 0.334583 0.058725
Si Si5 0.168239 0.498442 0.441585
Si Si6 0.176859 0.003531 0.928987
Si Si7 0.953351 0.853783 0.679700
Si Si8 0.668177 0.663442 0.330555
O O1 0.157916 0.468000 0.579214
O O2 0.221805 0.470111 0.818434
O O3 0.371237 0.374462 0.669395
O O4 0.375802 0.552796 0.669085
O O5 0.097223 0.202004 0.566826
O O6 0.249824 0.260875 0.400908
O O7 0.008733 0.164679 0.351719
O O8 0.256419 0.093007 0.426342
O O9 0.219135 0.103733 0.961489
O O10 0.082557 0.199443 0.799283
O O11 0.215532 0.278629 0.974233
O O12 0.985522 0.191277 0.022750
O O13 0.296425 0.316432 0.194807
O O14 0.291584 0.438653 0.037228
O O15 0.267370 0.430930 0.367007
O O16 0.000000 0.500000 0.392557
O O17 0.000000 0.000000 0.891562
#
# Coordination Sequence:
#
# PCOD8170498 Si02
#       8
#     4   4   4   4   4   4   4   4
#     4   9  14  34  63  91 121 152 196 258 320 385
#     4  11  24  41  64  93 126 170 215 268 329 385
#     4  10  21  38  62  90 122 157 211 266 315 380
#     4  11  23  39  60  90 120 168 211 259 310 371
#     4  11  24  41  65  95 128 166 213 271 333 394
#     4   9  17  36  64  87 117 162 206 249 312 385
#     4   9  16  34  64  92 118 159 201 257 326 386
#     4  12  25  41  62  90 130 173 221 263 312 390
#
# _framework density 20.614711
#
# number of rings (size 3 to 8) (size 9 to 14) (size 15 to 20)
#    0.000    1.750    5.000    1.875    0.000    6.000 
#    0.000    5.625    0.000    0.000    0.000    0.000 
#    0.000    0.000    0.000    0.000    0.000    0.000 
#
# Total GULP energy -396597.504066 kJ/mol
# GULP energy per Si atom -12393.672002 kJ/mol
# Density = 2.056779 g / cm^3
# Si number density = 20.614711 Si / 1000 Ang^3
#
#
#
# Elastic Constant Matrix: (Units=GPa)
#
#
# Indices 1 2 3 4 5 6 
#
# 1 51.5026 2.0777 3.7385 0.0000 0.0000 0.0000
# 2 2.0777 50.5131 19.7119 0.0000 0.0000 0.0000
# 3 3.7385 19.7119 107.0862 0.0000 0.0000 0.0000
# 4 0.0000 0.0000 0.0000 21.9936 0.0000 0.0000
# 5 0.0000 0.0000 0.0000 0.0000 19.2269 0.0000
# 6 0.0000 0.0000 0.0000 0.0000 0.0000 31.8971
#
#
#
# Elastic Compliance Matrix: (Units=1/GPa)
#
#
# Indices 1 2 3 4 5 6 
#
# 1 0.019481 -0.000577 -0.000574 0.000000 0.000000 0.000000
# 2 -0.000577 0.021346 -0.003909 0.000000 0.000000 0.000000
# 3 -0.000574 -0.003909 0.010078 0.000000 0.000000 0.000000
# 4 0.000000 0.000000 0.000000 0.045468 0.000000 0.000000
# 5 0.000000 0.000000 0.000000 0.000000 0.052010 0.000000
# 6 0.000000 0.000000 0.000000 0.000000 0.000000 0.031351
#
#
# Mechanical properties :
#
#
# Convention : Reuss Voigt Hill
#
# Bulk Modulus (GPa) = 24.51900 28.90646 26.71273
# Shear Modulus (GPa) = 24.57606 26.86177 25.71892
#
# Velocity S-wave (km/s) = 3.45651 3.61368 3.53597
# Velocity P-wave (km/s) = 5.27729 5.60930 5.44582
#
# Compressibility (1/GPa) = 0.04078469
#
# Stress axis : x y z
#
# Youngs Moduli (GPa) = 51.33093 46.84702 99.22725
#
# Poissons Ratio (x) = 0.02705 0.05694
# Poissons Ratio (y) = 0.02964 0.38789
# Poissons Ratio (z) = 0.02946 0.18313
#
# Static dielectric constant tensor:
#      x y z
#    x 3.481780 0.000000 0.000000 
#    y 0.000000 3.767560 0.000000 
#    z 0.000000 0.000000 3.927650 
# 
# 
# High freq. dielectric constant tensor:
#      x y z
#    x 1.776020 0.000000 0.000000 
#    y 0.000000 1.806590 0.000000 
#    z 0.000000 0.000000 1.812820 
# 
# From -- ./inp_files/3783.got.cif
#   From: 2010.03.12/outbox.cif.g09.slc.cpg/sg32_2_cif.got.tgz:3783.got - 2010.04.14 01:46:39.
