data_PCOD8170785
_publ_section_title
;
Structure prediction by ZEFSAII (Michael W. Deem and Ramdas Pophale) SiO2 
 PCOD8170785
Probable space group: P N A 21
;
_chemical_formula_sum "Si O2"
_cell_formula_units_Z 24
_cell_length_a 9.844604
_cell_length_b 13.334761
_cell_length_c 7.874909
_cell_angle_alpha 90.000000
_cell_angle_beta 90.000000
_cell_angle_gamma 90.000000
_cell_volume 1033.782156
_symmetry_space_group_name_H-M "P N A 21"
_symmetry_group_IT_number 33
_symmetry_cell_setting 'orthorhombic'
loop_
_space_group_symop_operation_xyz
x,y,z
-x,-y,1/2+z
1/2-x,1/2+y,1/2+z
1/2+x,1/2-y,z
loop_
_atom_site_type_symbol
_atom_site_label
_atom_site_fract_x
_atom_site_fract_y
_atom_site_fract_z
Si Si1 0.686923 0.014562 0.729690
Si Si2 0.521024 0.894765 0.996983
Si Si3 0.073714 0.032556 0.007620
Si Si4 0.231896 0.635034 0.269412
Si Si5 0.471309 0.678487 0.056102
Si Si6 0.353821 0.328912 0.889317
O O1 0.619215 0.049597 0.550318
O O2 0.718023 0.104343 0.862872
O O3 0.833944 0.966955 0.677885
O O4 0.591811 0.937939 0.830172
O O5 0.602933 0.911602 0.174228
O O6 0.498059 0.778297 0.945282
O O7 0.170430 0.049888 0.845109
O O8 0.997869 0.927791 0.963168
O O9 0.959159 0.121150 0.023285
O O10 0.316879 0.689852 0.120183
O O11 0.191976 0.713224 0.423891
O O12 0.576058 0.681615 0.208647
#
# Coordination Sequence:
#
# PCOD8170785 Si02
#       6
#     4   4   4   4   4   4
#     4  11  22  40  61  96 130 164 224 269 329 396
#     4  11  22  38  64  91 129 177 215 276 335 392
#     4  10  21  39  64  96 126 169 220 279 322 394
#     4  10  19  39  66  91 124 175 221 264 337 402
#     4   9  19  37  64  90 124 174 221 261 335 401
#     4   9  19  37  65  86 123 171 215 263 326 399
#
# _framework density 23.215722
#
# number of rings (size 3 to 8) (size 9 to 14) (size 15 to 20)
#    0.000    2.000    1.667    2.000    0.000    0.000 
#    0.000    8.333    0.000    0.000    0.000    0.000 
#    0.000    0.000    0.000    0.000    0.000    0.000 
#
# Total GULP energy -297351.683518 kJ/mol
# GULP energy per Si atom -12389.653480 kJ/mol
# Density = 2.316288 g / cm^3
# Si number density = 23.215722 Si / 1000 Ang^3
#
#
#
# Elastic Constant Matrix: (Units=GPa)
#
#
# Indices 1 2 3 4 5 6 
#
# 1 95.7736 46.5057 20.6425 0.0000 0.0000 0.0000
# 2 46.5057 131.5490 36.6331 0.0000 0.0000 0.0000
# 3 20.6425 36.6331 47.1287 0.0000 0.0000 0.0000
# 4 0.0000 0.0000 0.0000 30.0171 0.0000 0.0000
# 5 0.0000 0.0000 0.0000 0.0000 45.5826 0.0000
# 6 0.0000 0.0000 0.0000 0.0000 0.0000 29.1594
#
#
#
# Elastic Compliance Matrix: (Units=1/GPa)
#
#
# Indices 1 2 3 4 5 6 
#
# 1 0.012865 -0.003802 -0.002680 0.000000 0.000000 0.000000
# 2 -0.003802 0.010825 -0.006749 0.000000 0.000000 0.000000
# 3 -0.002680 -0.006749 0.027638 0.000000 0.000000 0.000000
# 4 0.000000 0.000000 0.000000 0.033314 0.000000 0.000000
# 5 0.000000 0.000000 0.000000 0.000000 0.021938 0.000000
# 6 0.000000 0.000000 0.000000 0.000000 0.000000 0.034294
#
#
# Mechanical properties :
#
#
# Convention : Reuss Voigt Hill
#
# Bulk Modulus (GPa) = 40.21389 53.55709 46.88549
# Shear Modulus (GPa) = 28.46957 32.32983 30.39970
#
# Velocity S-wave (km/s) = 3.50566 3.73578 3.62255
# Velocity P-wave (km/s) = 5.80910 6.45968 6.14301
#
# Compressibility (1/GPa) = 0.02486703
#
# Stress axis : x y z
#
# Youngs Moduli (GPa) = 77.73054 92.37646 36.18147
#
# Poissons Ratio (x) = 0.35120 0.09696
# Poissons Ratio (y) = 0.29552 0.24420
# Poissons Ratio (z) = 0.20830 0.62347
#
# Static dielectric constant tensor:
#      x y z
#    x 4.527240 0.000000 0.000000 
#    y 0.000000 4.765880 0.000000 
#    z 0.000000 0.000000 3.485150 
# 
# 
# High freq. dielectric constant tensor:
#      x y z
#    x 1.940270 0.000000 0.000000 
#    y 0.000000 1.919640 0.000000 
#    z 0.000000 0.000000 1.859340 
# 
# From -- ./inp_files/3773.got.cif
#   From: 2010.03.12/outbox.cif.g09.slc.cpg/sg33_2_cif.got.tgz:3773.got - 2010.04.14 01:49:19.
