data_PCOD8170922
_publ_section_title
;
Structure prediction by ZEFSAII (Michael W. Deem and Ramdas Pophale) SiO2 
 PCOD8170922
Probable space group: P N A 21
;
_chemical_formula_sum "Si O2"
_cell_formula_units_Z 32
_cell_length_a 10.666760
_cell_length_b 10.878540
_cell_length_c 12.502947
_cell_angle_alpha 90.000000
_cell_angle_beta 90.000000
_cell_angle_gamma 90.000000
_cell_volume 1450.826658
_symmetry_space_group_name_H-M "P N A 21"
_symmetry_group_IT_number 33
_symmetry_cell_setting 'orthorhombic'
loop_
_space_group_symop_operation_xyz
x,y,z
-x,-y,1/2+z
1/2-x,1/2+y,1/2+z
1/2+x,1/2-y,z
loop_
_atom_site_type_symbol
_atom_site_label
_atom_site_fract_x
_atom_site_fract_y
_atom_site_fract_z
Si Si1 0.657216 0.248730 0.818150
Si Si2 0.595264 0.650112 0.210288
Si Si3 0.718163 0.989322 0.379635
Si Si4 0.493461 0.879090 0.481301
Si Si5 0.830269 0.625920 0.670262
Si Si6 0.948444 0.100911 0.475782
Si Si7 0.912392 0.135562 0.058032
Si Si8 0.429702 0.634582 0.758959
O O1 0.527362 0.289228 0.762133
O O2 0.771510 0.212008 0.739278
O O3 0.706971 0.362181 0.887616
O O4 0.622584 0.136171 0.898005
O O5 0.613718 0.506228 0.241597
O O6 0.566923 0.676069 0.085043
O O7 0.586982 0.985960 0.443251
O O8 0.689532 0.020482 0.256781
O O9 0.806855 0.089559 0.433106
O O10 0.457106 0.904286 0.604699
O O11 0.568078 0.749783 0.479273
O O12 0.733879 0.612154 0.572148
O O13 0.827017 0.762837 0.723697
O O14 0.030264 0.164337 0.381489
O O15 0.015481 0.973481 0.501117
O O16 0.953823 0.157094 0.180683
#
# Coordination Sequence:
#
# PCOD8170922 Si02
#       8
#     4   4   4   4   4   4   4   4
#     4  12  23  47  69 103 137 176 231 288 341 409
#     4  11  25  42  74 103 138 181 234 279 344 420
#     4  12  23  44  66  99 142 174 228 290 337 404
#     4  11  24  38  72  98 130 182 227 286 338 391
#     4  11  25  43  66 101 136 173 231 288 330 411
#     4  11  22  43  71  95 134 188 219 272 361 411
#     4  10  20  41  68  96 122 176 238 266 329 411
#     4  10  22  44  66  97 133 182 226 275 336 413
#
# _framework density 22.05639
#
# number of rings (size 3 to 8) (size 9 to 14) (size 15 to 20)
#    0.000    1.000    5.000    1.500    5.250    2.000 
#    4.500    0.000    0.000    0.000    0.000    0.000 
#    0.000    0.000    0.000    0.000    0.000    0.000 
#
# Total GULP energy -396524.904595 kJ/mol
# GULP energy per Si atom -12391.403269 kJ/mol
# Density = 2.200619 g / cm^3
# Si number density = 22.056390 Si / 1000 Ang^3
#
#
#
# Elastic Constant Matrix: (Units=GPa)
#
#
# Indices 1 2 3 4 5 6 
#
# 1 117.6120 30.7584 45.9128 0.0000 0.0000 0.0000
# 2 30.7584 33.3497 8.9933 0.0000 0.0000 0.0000
# 3 45.9128 8.9933 129.6821 0.0000 0.0000 0.0000
# 4 0.0000 0.0000 0.0000 28.6086 0.0000 0.0000
# 5 0.0000 0.0000 0.0000 0.0000 39.4794 0.0000
# 6 0.0000 0.0000 0.0000 0.0000 0.0000 24.7057
#
#
#
# Elastic Compliance Matrix: (Units=1/GPa)
#
#
# Indices 1 2 3 4 5 6 
#
# 1 0.012800 -0.010785 -0.003784 0.000000 0.000000 0.000000
# 2 -0.010785 0.039644 0.001069 0.000000 0.000000 0.000000
# 3 -0.003784 0.001069 0.008977 0.000000 0.000000 0.000000
# 4 0.000000 0.000000 0.000000 0.034955 0.000000 0.000000
# 5 0.000000 0.000000 0.000000 0.000000 0.025330 0.000000
# 6 0.000000 0.000000 0.000000 0.000000 0.000000 0.040476
#
#
# Mechanical properties :
#
#
# Convention : Reuss Voigt Hill
#
# Bulk Modulus (GPa) = 29.05189 50.21919 39.63554
# Shear Modulus (GPa) = 24.91830 31.55735 28.23783
#
# Velocity S-wave (km/s) = 3.36483 3.78664 3.58195
# Velocity P-wave (km/s) = 5.31943 6.47581 5.92590
#
# Compressibility (1/GPa) = 0.03442117
#
# Stress axis : x y z
#
# Youngs Moduli (GPa) = 78.12322 25.22431 111.39988
#
# Poissons Ratio (x) = 0.27205 0.42152
# Poissons Ratio (y) = 0.84258 -0.11910
# Poissons Ratio (z) = 0.29561 -0.02697
#
# Static dielectric constant tensor:
#      x y z
#    x 4.043510 0.000000 0.000000 
#    y 0.000000 3.734800 0.000000 
#    z 0.000000 0.000000 4.218010 
# 
# 
# High freq. dielectric constant tensor:
#      x y z
#    x 1.873330 0.000000 0.000000 
#    y 0.000000 1.832120 0.000000 
#    z 0.000000 0.000000 1.885440 
# 
# From -- ./inp_files/6490.got.cif
#   From: 2010.03.12/outbox.cif.g09.slc.cpg/sg33_4_cif.got.tgz:6490.got - 2010.04.14 01:49:19.
