data_PCOD8170492
_publ_section_title
;
Structure prediction by ZEFSAII (Michael W. Deem and Ramdas Pophale) SiO2 
 PCOD8170492
Probable space group: P B A 2
;
_chemical_formula_sum "Si O2"
_cell_formula_units_Z 32
_cell_length_a 29.011281
_cell_length_b 8.671561
_cell_length_c 5.894821
_cell_angle_alpha 90.000000
_cell_angle_beta 90.000000
_cell_angle_gamma 90.000000
_cell_volume 1482.978351
_symmetry_space_group_name_H-M "P B A 2"
_symmetry_group_IT_number 32
_symmetry_cell_setting 'orthorhombic'
loop_
_space_group_symop_operation_xyz
x,y,z
-x,-y,z
1/2-x,1/2+y,z
1/2+x,1/2-y,z
loop_
_atom_site_type_symbol
_atom_site_label
_atom_site_fract_x
_atom_site_fract_y
_atom_site_fract_z
Si Si1 0.751708 0.348630 0.439090
Si Si2 0.890079 0.201168 0.759327
Si Si3 0.123740 0.491051 0.997582
Si Si4 0.979620 0.163204 0.016690
Si Si5 0.293171 0.411735 0.733805
Si Si6 0.036354 0.392569 0.771180
Si Si7 0.063187 0.620812 0.376333
Si Si8 0.780773 0.610910 0.122949
O O1 0.721606 0.423565 0.637045
O O2 0.784907 0.222134 0.549523
O O3 0.781841 0.472187 0.303527
O O4 0.717409 0.270052 0.259680
O O5 0.867709 0.358353 0.849872
O O6 0.928306 0.132386 0.926833
O O7 0.848278 0.078966 0.762274
O O8 0.913604 0.240681 0.519953
O O9 0.086062 0.379657 0.883649
O O10 0.104672 0.538595 0.242492
O O11 0.171554 0.398559 0.987923
O O12 0.011679 0.225330 0.802916
O O13 0.975186 0.290669 0.219953
O O14 0.000000 0.000000 0.104837
O O15 0.264575 0.385908 0.964646
O O16 0.040499 0.482748 0.527930
O O17 0.000000 0.500000 0.912156
#
# Coordination Sequence:
#
# PCOD8170492 Si02
#       8
#     4   4   4   4   4   4   4   4
#     4  10  23  38  63  94 128 164 224 251 335 394
#     4  10  21  39  66  91 124 172 213 253 330 391
#     4  10  21  37  66  94 119 167 222 261 311 390
#     4  11  25  44  63 100 134 167 217 277 339 387
#     4  11  22  42  65  91 131 171 209 275 320 392
#     4  11  21  41  67  94 124 170 224 263 320 396
#     4  10  21  40  68  92 127 172 220 263 323 397
#     4  11  22  42  63  93 132 168 210 277 323 382
#
# _framework density 21.578196999999999
#
# number of rings (size 3 to 8) (size 9 to 14) (size 15 to 20)
#    0.000    1.500    3.750    3.000    1.750    6.500 
#    9.000    0.000    0.000    0.000    0.000    0.000 
#    0.000    0.000    0.000    0.000    0.000    0.000 
#
# Total GULP energy -396440.996567 kJ/mol
# GULP energy per Si atom -12388.781143 kJ/mol
# Density = 2.152908 g / cm^3
# Si number density = 21.578197 Si / 1000 Ang^3
#
#
#
# Elastic Constant Matrix: (Units=GPa)
#
#
# Indices 1 2 3 4 5 6 
#
# 1 115.9641 26.6088 31.4394 0.0000 0.0000 0.0000
# 2 26.6088 73.8490 28.5319 0.0000 0.0000 0.0000
# 3 31.4394 28.5319 93.8532 0.0000 0.0000 0.0000
# 4 0.0000 0.0000 0.0000 23.4647 0.0000 0.0000
# 5 0.0000 0.0000 0.0000 0.0000 26.9989 0.0000
# 6 0.0000 0.0000 0.0000 0.0000 0.0000 32.1871
#
#
#
# Elastic Compliance Matrix: (Units=1/GPa)
#
#
# Indices 1 2 3 4 5 6 
#
# 1 0.009904 -0.002591 -0.002530 0.000000 0.000000 0.000000
# 2 -0.002591 0.016021 -0.004003 0.000000 0.000000 0.000000
# 3 -0.002530 -0.004003 0.012719 0.000000 0.000000 0.000000
# 4 0.000000 0.000000 0.000000 0.042617 0.000000 0.000000
# 5 0.000000 0.000000 0.000000 0.000000 0.037039 0.000000
# 6 0.000000 0.000000 0.000000 0.000000 0.000000 0.031068
#
#
# Mechanical properties :
#
#
# Convention : Reuss Voigt Hill
#
# Bulk Modulus (GPa) = 49.02651 50.75849 49.89250
# Shear Modulus (GPa) = 28.66738 29.66923 29.16831
#
# Velocity S-wave (km/s) = 3.64886 3.71207 3.68060
# Velocity P-wave (km/s) = 6.36569 6.47663 6.42140
#
# Compressibility (1/GPa) = 0.02039713
#
# Stress axis : x y z
#
# Youngs Moduli (GPa) = 100.97154 62.41757 78.62110
#
# Poissons Ratio (x) = 0.16172 0.19891
# Poissons Ratio (y) = 0.26162 0.31469
# Poissons Ratio (z) = 0.25545 0.24983
#
# Static dielectric constant tensor:
#      x y z
#    x 3.893440 0.000000 0.000000 
#    y 0.000000 3.807010 0.000000 
#    z 0.000000 0.000000 3.994310 
# 
# 
# High freq. dielectric constant tensor:
#      x y z
#    x 1.850600 0.000000 0.000000 
#    y 0.000000 1.825150 0.000000 
#    z 0.000000 0.000000 1.849720 
# 
# From -- ./inp_files/1820.got.cif
#   From: 2010.03.12/outbox.cif.g09.slc.cpg/sg32_1_cif.got.tgz:1820.got - 2010.04.14 01:46:39.
