data_PCOD8170312
_publ_section_title
;
Structure prediction by ZEFSAII (Michael W. Deem and Ramdas Pophale) SiO2 
 PCOD8170312
Probable space group: P M N 21
;
_chemical_formula_sum "Si O2"
_cell_formula_units_Z 24
_cell_length_a 8.880331
_cell_length_b 15.012989
_cell_length_c 8.709750
_cell_angle_alpha 90.000000
_cell_angle_beta 90.000000
_cell_angle_gamma 90.000000
_cell_volume 1161.186584
_symmetry_space_group_name_H-M "P M N 21"
_symmetry_group_IT_number 31
_symmetry_cell_setting 'orthorhombic'
loop_
_space_group_symop_operation_xyz
x,y,z
1/2-x,-y,1/2+z
-x,y,z
1/2+x,-y,1/2+z
loop_
_atom_site_type_symbol
_atom_site_label
_atom_site_fract_x
_atom_site_fract_y
_atom_site_fract_z
Si Si1 0.823877 0.222905 0.930970
Si Si2 0.322377 0.104631 0.433963
Si Si3 0.323126 0.731561 0.086162
Si Si4 0.672981 0.602761 0.614450
Si Si5 0.822707 0.940422 0.589515
Si Si6 0.826945 0.571877 0.932014
O O1 0.775324 0.250245 0.760444
O O2 0.000000 0.201239 0.939355
O O3 0.779290 0.302100 0.045952
O O4 0.733731 0.134617 0.973104
O O5 0.500000 0.101648 0.453644
O O6 0.261992 0.202293 0.471615
O O7 0.272234 0.083245 0.261162
O O8 0.249815 0.034857 0.550619
O O9 0.500000 0.742531 0.061735
O O10 0.273941 0.632130 0.043424
O O11 0.500000 0.604242 0.670173
O O12 0.779001 0.580902 0.756279
O O13 0.696612 0.530159 0.481322
O O14 0.000000 0.949570 0.574128
O O15 0.000000 0.601233 0.947759
#
# Coordination Sequence:
#
# PCOD8170312 Si02
#       6
#     4   4   4   4   4   4
#     4  10  22  40  61  86 117 155 198 242 290 349
#     4  11  24  41  61  88 120 154 197 244 291 350
#     4  11  23  40  62  88 120 157 197 242 294 350
#     4  10  22  40  61  86 119 158 197 242 296 348
#     4  11  24  40  60  88 119 153 194 242 296 350
#     4  11  23  39  61  90 121 155 199 246 293 349
#
# _framework density 20.668510999999999
#
# number of rings (size 3 to 8) (size 9 to 14) (size 15 to 20)
#    0.000    1.333    0.000    5.000    0.000   14.000 
#    0.000    0.000    0.000    0.000    0.000    0.000 
#    0.000    0.000    0.000    0.000    0.000    0.000 
#
# Total GULP energy -297799.856293 kJ/mol
# GULP energy per Si atom -12408.327346 kJ/mol
# Density = 2.062147 g / cm^3
# Si number density = 20.668511 Si / 1000 Ang^3
#
#
#
# Elastic Constant Matrix: (Units=GPa)
#
#
# Indices 1 2 3 4 5 6 
#
# 1 49.2882 11.0385 35.6523 0.0000 0.0000 0.0000
# 2 11.0385 67.5331 -5.3096 0.0000 0.0000 0.0000
# 3 35.6523 -5.3096 83.5120 0.0000 0.0000 0.0000
# 4 0.0000 0.0000 0.0000 42.5999 0.0000 0.0000
# 5 0.0000 0.0000 0.0000 0.0000 30.3900 0.0000
# 6 0.0000 0.0000 0.0000 0.0000 0.0000 35.9123
#
#
#
# Elastic Compliance Matrix: (Units=1/GPa)
#
#
# Indices 1 2 3 4 5 6 
#
# 1 0.031813 -0.006299 -0.013982 0.000000 0.000000 0.000000
# 2 -0.006299 0.016129 0.003715 0.000000 0.000000 0.000000
# 3 -0.013982 0.003715 0.018180 0.000000 0.000000 0.000000
# 4 0.000000 0.000000 0.000000 0.023474 0.000000 0.000000
# 5 0.000000 0.000000 0.000000 0.000000 0.032906 0.000000
# 6 0.000000 0.000000 0.000000 0.000000 0.000000 0.027846
#
#
# Mechanical properties :
#
#
# Convention : Reuss Voigt Hill
#
# Bulk Modulus (GPa) = 30.31309 31.45509 30.88409
# Shear Modulus (GPa) = 25.70993 32.37724 29.04359
#
# Velocity S-wave (km/s) = 3.53075 3.96220 3.75268
# Velocity P-wave (km/s) = 5.59640 6.01531 5.80963
#
# Compressibility (1/GPa) = 0.03298904
#
# Stress axis : x y z
#
# Youngs Moduli (GPa) = 31.43324 61.99913 55.00665
#
# Poissons Ratio (x) = 0.39055 0.76911
# Poissons Ratio (y) = 0.19801 -0.20433
# Poissons Ratio (z) = 0.43950 -0.23031
#
# Static dielectric constant tensor:
#      x y z
#    x 3.724460 0.000000 0.000000 
#    y 0.000000 3.856460 0.000000 
#    z 0.000000 0.000000 3.818610 
# 
# 
# High freq. dielectric constant tensor:
#      x y z
#    x 1.810840 0.000000 0.000000 
#    y 0.000000 1.823540 0.000000 
#    z 0.000000 0.000000 1.820860 
# 
# From -- ./inp_files/1669.got.cif
#   From: 2010.03.12/outbox.cif.g09.slc.cpg/sg31_1_cif.got.tgz:1669.got - 2010.04.14 01:42:59.
