data_PCOD8170719
_publ_section_title
;
Structure prediction by ZEFSAII (Michael W. Deem and Ramdas Pophale) SiO2 
 PCOD8170719
Probable space group: P N A 21
;
_chemical_formula_sum "Si O2"
_cell_formula_units_Z 32
_cell_length_a 8.725436
_cell_length_b 19.588581
_cell_length_c 8.831442
_cell_angle_alpha 90.000000
_cell_angle_beta 90.000000
_cell_angle_gamma 90.000000
_cell_volume 1509.460439
_symmetry_space_group_name_H-M "P N A 21"
_symmetry_group_IT_number 33
_symmetry_cell_setting 'orthorhombic'
loop_
_space_group_symop_operation_xyz
x,y,z
-x,-y,1/2+z
1/2-x,1/2+y,1/2+z
1/2+x,1/2-y,z
loop_
_atom_site_type_symbol
_atom_site_label
_atom_site_fract_x
_atom_site_fract_y
_atom_site_fract_z
Si Si1 0.388548 0.446143 0.170700
Si Si2 0.910861 0.229834 0.738250
Si Si3 0.989795 0.910973 0.162994
Si Si4 0.608954 0.782304 0.900370
Si Si5 0.119818 0.321594 0.908623
Si Si6 0.751577 0.046092 0.854516
Si Si7 0.661486 0.402849 0.350589
Si Si8 0.199530 0.325770 0.248824
O O1 0.381843 0.526363 0.224278
O O2 0.554657 0.411789 0.203333
O O3 0.248241 0.405548 0.250494
O O4 0.373574 0.438695 0.989575
O O5 0.891575 0.266874 0.577648
O O6 0.747570 0.203975 0.792110
O O7 0.031173 0.165472 0.732439
O O8 0.963415 0.285528 0.860977
O O9 0.164803 0.934150 0.196780
O O10 0.962619 0.905018 0.984974
O O11 0.744190 0.833841 0.854196
O O12 0.649640 0.714456 0.806714
O O13 0.444146 0.812893 0.857995
O O14 0.105476 0.404383 0.884125
O O15 0.157063 0.301640 0.080221
O O16 0.713817 0.965335 0.858093
#
# Coordination Sequence:
#
# PCOD8170719 Si02
#       8
#     4   4   4   4   4   4   4   4
#     4   9  18  35  59  81 108 144 188 236 283 337
#     4  11  21  36  57  84 112 147 187 233 287 343
#     4   9  17  32  57  81 106 142 187 230 277 340
#     4  12  24  37  58  86 119 151 189 239 293 347
#     4  10  21  38  57  78 109 146 187 231 279 339
#     4   8  18  35  57  81 109 146 189 232 280 341
#     4  10  19  35  56  83 111 145 188 234 281 339
#     4  11  22  38  57  82 112 149 187 233 286 342
#
# _framework density 21.199628000000001
#
# number of rings (size 3 to 8) (size 9 to 14) (size 15 to 20)
#    0.000    2.000    0.000    4.500    0.000    3.000 
#    0.000    6.250    0.000    0.000    0.000    0.000 
#    0.000    0.000    0.000    0.000    0.000    0.000 
#
# Total GULP energy -396433.525025 kJ/mol
# GULP energy per Si atom -12388.547657 kJ/mol
# Density = 2.115138 g / cm^3
# Si number density = 21.199628 Si / 1000 Ang^3
#
#
#
# Elastic Constant Matrix: (Units=GPa)
#
#
# Indices 1 2 3 4 5 6 
#
# 1 42.0937 10.5272 7.1894 0.0000 0.0000 0.0000
# 2 10.5272 89.1825 12.3036 0.0000 0.0000 0.0000
# 3 7.1894 12.3036 58.3337 0.0000 0.0000 0.0000
# 4 0.0000 0.0000 0.0000 26.8533 0.0000 0.0000
# 5 0.0000 0.0000 0.0000 0.0000 28.0704 0.0000
# 6 0.0000 0.0000 0.0000 0.0000 0.0000 26.4744
#
#
#
# Elastic Compliance Matrix: (Units=1/GPa)
#
#
# Indices 1 2 3 4 5 6 
#
# 1 0.024832 -0.002584 -0.002515 0.000000 0.000000 0.000000
# 2 -0.002584 0.011818 -0.002174 0.000000 0.000000 0.000000
# 3 -0.002515 -0.002174 0.017911 0.000000 0.000000 0.000000
# 4 0.000000 0.000000 0.000000 0.037239 0.000000 0.000000
# 5 0.000000 0.000000 0.000000 0.000000 0.035625 0.000000
# 6 0.000000 0.000000 0.000000 0.000000 0.000000 0.037772
#
#
# Mechanical properties :
#
#
# Convention : Reuss Voigt Hill
#
# Bulk Modulus (GPa) = 24.99115 27.73892 26.36503
# Shear Modulus (GPa) = 25.89551 26.91894 26.40722
#
# Velocity S-wave (km/s) = 3.49880 3.56727 3.53320
# Velocity P-wave (km/s) = 5.30436 5.48454 5.39520
#
# Compressibility (1/GPa) = 0.04001417
#
# Stress axis : x y z
#
# Youngs Moduli (GPa) = 40.26995 84.61707 55.83057
#
# Poissons Ratio (x) = 0.21867 0.14044
# Poissons Ratio (y) = 0.10407 0.12138
# Poissons Ratio (z) = 0.10130 0.18397
#
# Static dielectric constant tensor:
#      x y z
#    x 3.403340 0.000000 0.000000 
#    y 0.000000 4.448040 0.000000 
#    z 0.000000 0.000000 3.793440 
# 
# 
# High freq. dielectric constant tensor:
#      x y z
#    x 1.784710 0.000000 0.000000 
#    y 0.000000 1.853840 0.000000 
#    z 0.000000 0.000000 1.829850 
# 
# From -- ./inp_files/3461.got.cif
#   From: 2010.03.12/outbox.cif.g09.slc.cpg/sg33_2_cif.got.tgz:3461.got - 2010.04.14 01:49:19.
