data_PCOD8170613
_publ_section_title
;
Structure prediction by ZEFSAII (Michael W. Deem and Ramdas Pophale) SiO2 
 PCOD8170613
Probable space group: P B A 2
;
_chemical_formula_sum "Si O2"
_cell_formula_units_Z 16
_cell_length_a 9.140879
_cell_length_b 9.136064
_cell_length_c 7.338623
_cell_angle_alpha 90.000000
_cell_angle_beta 90.000000
_cell_angle_gamma 90.000000
_cell_volume 612.860556
_symmetry_space_group_name_H-M "P B A 2"
_symmetry_group_IT_number 32
_symmetry_cell_setting 'orthorhombic'
loop_
_space_group_symop_operation_xyz
x,y,z
-x,-y,z
1/2-x,1/2+y,z
1/2+x,1/2-y,z
loop_
_atom_site_type_symbol
_atom_site_label
_atom_site_fract_x
_atom_site_fract_y
_atom_site_fract_z
Si Si1 0.850165 0.934400 0.128710
Si Si2 0.346422 0.847684 0.316543
Si Si3 0.366067 0.163466 0.547487
Si Si4 0.652924 0.552263 0.724736
O O1 0.876711 0.758914 0.142419
O O2 0.708022 0.992436 0.245042
O O3 0.000000 0.000000 0.209300
O O4 0.825141 0.986474 0.923745
O O5 0.475395 0.869974 0.463198
O O6 0.213021 0.763346 0.402973
O O7 0.360464 0.269713 0.727578
O O8 0.284703 0.009921 0.596803
O O9 0.500000 0.500000 0.637610
#
# Coordination Sequence:
#
# PCOD8170613 Si02
#       4
#     4   4   4   4
#     4  11  25  48  74 108 150 192 240 301 364 431
#     4  12  25  46  75 109 143 190 244 297 362 431
#     4  12  25  46  75 109 143 190 244 297 362 431
#     4  11  25  48  74 108 150 192 240 301 364 431
#
# _framework density 26.107081999999998
#
# number of rings (size 3 to 8) (size 9 to 14) (size 15 to 20)
#    0.000    0.500    5.000    3.000    0.000    4.000 
#    0.000    2.500    0.000    0.000    0.000    0.000 
#    0.000    0.000    0.000    0.000    0.000    0.000 
#
# Total GULP energy -198232.900736 kJ/mol
# GULP energy per Si atom -12389.556296 kJ/mol
# Density = 2.604766 g / cm^3
# Si number density = 26.107082 Si / 1000 Ang^3
#
#
#
# Elastic Constant Matrix: (Units=GPa)
#
#
# Indices 1 2 3 4 5 6 
#
# 1 154.0961 48.7354 52.6952 0.0000 0.0000 0.0000
# 2 48.7354 203.1895 34.1514 0.0000 0.0000 0.0000
# 3 52.6952 34.1514 114.7856 0.0000 0.0000 0.0000
# 4 0.0000 0.0000 0.0000 29.0210 0.0000 0.0000
# 5 0.0000 0.0000 0.0000 0.0000 35.5824 0.0000
# 6 0.0000 0.0000 0.0000 0.0000 0.0000 35.0683
#
#
#
# Elastic Compliance Matrix: (Units=1/GPa)
#
#
# Indices 1 2 3 4 5 6 
#
# 1 0.008049 -0.001378 -0.003285 0.000000 0.000000 0.000000
# 2 -0.001378 0.005417 -0.000979 0.000000 0.000000 0.000000
# 3 -0.003285 -0.000979 0.010511 0.000000 0.000000 0.000000
# 4 0.000000 0.000000 0.000000 0.034458 0.000000 0.000000
# 5 0.000000 0.000000 0.000000 0.000000 0.028104 0.000000
# 6 0.000000 0.000000 0.000000 0.000000 0.000000 0.028516
#
#
# Mechanical properties :
#
#
# Convention : Reuss Voigt Hill
#
# Bulk Modulus (GPa) = 78.78753 82.58170 80.68462
# Shear Modulus (GPa) = 38.29402 42.36695 40.33049
#
# Velocity S-wave (km/s) = 3.83405 4.03279 3.93467
# Velocity P-wave (km/s) = 7.06003 7.30651 7.18433
#
# Compressibility (1/GPa) = 0.01269236
#
# Stress axis : x y z
#
# Youngs Moduli (GPa) = 124.24383 184.61645 95.13755
#
# Poissons Ratio (x) = 0.25447 0.31251
# Poissons Ratio (y) = 0.17126 0.09312
# Poissons Ratio (z) = 0.40812 0.18070
#
# Static dielectric constant tensor:
#      x y z
#    x 4.950170 0.000000 0.000000 
#    y 0.000000 6.601810 0.000000 
#    z 0.000000 0.000000 4.720290 
# 
# 
# High freq. dielectric constant tensor:
#      x y z
#    x 2.054920 0.000000 0.000000 
#    y 0.000000 2.076110 0.000000 
#    z 0.000000 0.000000 2.039300 
# 
# From -- ./inp_files/2090.got.cif
#   From: 2010.03.12/outbox.cif.g09.slc.cpg/sg32_2_cif.got.tgz:2090.got - 2010.04.14 01:46:39.
