data_PCOD8170461
_publ_section_title
;
Structure prediction by ZEFSAII (Michael W. Deem and Ramdas Pophale) SiO2 
 PCOD8170461
Probable space group: P B A 2
;
_chemical_formula_sum "Si O2"
_cell_formula_units_Z 32
_cell_length_a 15.249439
_cell_length_b 16.330973
_cell_length_c 6.905632
_cell_angle_alpha 90.000000
_cell_angle_beta 90.000000
_cell_angle_gamma 90.000000
_cell_volume 1719.766001
_symmetry_space_group_name_H-M "P B A 2"
_symmetry_group_IT_number 32
_symmetry_cell_setting 'orthorhombic'
loop_
_space_group_symop_operation_xyz
x,y,z
-x,-y,z
1/2-x,1/2+y,z
1/2+x,1/2-y,z
loop_
_atom_site_type_symbol
_atom_site_label
_atom_site_fract_x
_atom_site_fract_y
_atom_site_fract_z
Si Si1 0.484759 0.090635 0.188130
Si Si2 0.819916 0.133636 0.424040
Si Si3 0.600894 0.509489 0.141423
Si Si4 0.763509 0.066817 0.830580
Si Si5 0.706642 0.351922 0.182344
Si Si6 0.170399 0.329697 0.132365
Si Si7 0.643211 0.819607 0.467265
Si Si8 0.840878 0.406912 0.867961
O O1 0.576532 0.129921 0.136227
O O2 0.439058 0.143665 0.353689
O O3 0.500000 0.000000 0.272487
O O4 0.429043 0.085260 0.991754
O O5 0.888658 0.077315 0.308526
O O6 0.800979 0.092741 0.626987
O O7 0.728007 0.137833 0.311131
O O8 0.864213 0.221761 0.453624
O O9 0.500000 0.500000 0.084239
O O10 0.636188 0.422581 0.218255
O O11 0.653881 0.534734 0.951392
O O12 0.690293 0.996690 0.801971
O O13 0.719209 0.144985 0.934165
O O14 0.656554 0.267233 0.145531
O O15 0.765987 0.350031 0.374344
O O16 0.765697 0.365481 0.994543
O O17 0.639344 0.848461 0.687724
#
# Coordination Sequence:
#
# PCOD8170461 Si02
#       8
#     4   4   4   4   4   4   4   4
#     4  11  23  37  58  90 121 151 192 238 297 352
#     4  10  22  39  62  86 113 155 201 239 291 349
#     4  10  22  38  61  84 115 152 190 242 292 339
#     4  10  20  37  61  85 114 155 196 234 287 354
#     4   9  20  39  59  81 111 153 194 233 289 344
#     4  10  21  38  59  84 116 153 191 239 290 352
#     4  10  22  38  60  85 116 151 193 243 286 345
#     4  10  20  37  59  85 116 154 192 237 288 346
#
# _framework density 18.607182000000002
#
# number of rings (size 3 to 8) (size 9 to 14) (size 15 to 20)
#    0.000    2.000    1.250    1.500    5.250    3.000 
#    0.000    0.000    0.000    0.000    0.000    0.000 
#    0.000    0.000    0.000    0.000    0.000    0.000 
#
# Total GULP energy -396916.780039 kJ/mol
# GULP energy per Si atom -12403.649376 kJ/mol
# Density = 1.856483 g / cm^3
# Si number density = 18.607182 Si / 1000 Ang^3
#
#
#
# Elastic Constant Matrix: (Units=GPa)
#
#
# Indices 1 2 3 4 5 6 
#
# 1 104.0307 50.9692 28.0114 0.0000 0.0000 0.0000
# 2 50.9692 131.9770 46.8654 0.0000 0.0000 0.0000
# 3 28.0114 46.8654 103.8540 0.0000 0.0000 0.0000
# 4 0.0000 0.0000 0.0000 27.7419 0.0000 0.0000
# 5 0.0000 0.0000 0.0000 0.0000 13.1847 0.0000
# 6 0.0000 0.0000 0.0000 0.0000 0.0000 26.7123
#
#
#
# Elastic Compliance Matrix: (Units=1/GPa)
#
#
# Indices 1 2 3 4 5 6 
#
# 1 0.012016 -0.004156 -0.001366 0.000000 0.000000 0.000000
# 2 -0.004156 0.010460 -0.003599 0.000000 0.000000 0.000000
# 3 -0.001366 -0.003599 0.011622 0.000000 0.000000 0.000000
# 4 0.000000 0.000000 0.000000 0.036047 0.000000 0.000000
# 5 0.000000 0.000000 0.000000 0.000000 0.075845 0.000000
# 6 0.000000 0.000000 0.000000 0.000000 0.000000 0.037436
#
#
# Mechanical properties :
#
#
# Convention : Reuss Voigt Hill
#
# Bulk Modulus (GPa) = 63.06615 65.72821 64.39718
# Shear Modulus (GPa) = 24.16006 27.79549 25.97777
#
# Velocity S-wave (km/s) = 3.60728 3.86917 3.74052
# Velocity P-wave (km/s) = 7.16359 7.44053 7.30337
#
# Compressibility (1/GPa) = 0.01585637
#
# Stress axis : x y z
#
# Youngs Moduli (GPa) = 83.21994 95.60075 86.04715
#
# Poissons Ratio (x) = 0.39729 0.11752
# Poissons Ratio (y) = 0.34584 0.30972
# Poissons Ratio (z) = 0.11366 0.34411
#
# Static dielectric constant tensor:
#      x y z
#    x 3.317770 0.000000 0.000000 
#    y 0.000000 3.864170 0.000000 
#    z 0.000000 0.000000 3.338140 
# 
# 
# High freq. dielectric constant tensor:
#      x y z
#    x 1.715580 0.000000 0.000000 
#    y 0.000000 1.740120 0.000000 
#    z 0.000000 0.000000 1.721290 
# 
# From -- ./inp_files/1300.got.cif
#   From: 2010.03.12/outbox.cif.g09.slc.cpg/sg32_1_cif.got.tgz:1300.got - 2010.04.14 01:46:39.
