data_PCOD8170046
_publ_section_title
;
Structure prediction by ZEFSAII (Michael W. Deem and Ramdas Pophale) SiO2 
 PCOD8170046
Probable space group: P M N 21
;
_chemical_formula_sum "Si O2"
_cell_formula_units_Z 32
_cell_length_a 9.156115
_cell_length_b 12.121426
_cell_length_c 14.467045
_cell_angle_alpha 90.000000
_cell_angle_beta 90.000000
_cell_angle_gamma 90.000000
_cell_volume 1605.627455
_symmetry_space_group_name_H-M "P M N 21"
_symmetry_group_IT_number 31
_symmetry_cell_setting 'orthorhombic'
loop_
_space_group_symop_operation_xyz
x,y,z
1/2-x,-y,1/2+z
-x,y,z
1/2+x,-y,1/2+z
loop_
_atom_site_type_symbol
_atom_site_label
_atom_site_fract_x
_atom_site_fract_y
_atom_site_fract_z
Si Si1 0.171500 0.611247 0.112500
Si Si2 0.173271 0.110750 0.026304
Si Si3 0.838140 0.194978 0.693747
Si Si4 0.830925 0.512933 0.301455
Si Si5 0.836610 0.293069 0.889259
Si Si6 0.173439 0.897831 0.910655
Si Si7 0.331245 0.056683 0.202468
Si Si8 0.671109 0.669306 0.939247
O O1 0.212252 0.734483 0.145247
O O2 0.221748 0.526409 0.194535
O O3 0.000000 0.603070 0.091915
O O4 0.261709 0.588893 0.018762
O O5 0.227729 0.220229 0.972848
O O6 0.000000 0.109022 0.031470
O O7 0.227217 0.999746 0.973885
O O8 0.238613 0.125467 0.128498
O O9 0.837080 0.210550 0.803127
O O10 0.000000 0.227028 0.655165
O O11 0.802579 0.068998 0.674564
O O12 0.756964 0.598852 0.370719
O O13 0.799456 0.390001 0.340083
O O14 0.000000 0.542553 0.304632
O O15 0.000000 0.333698 0.912300
O O16 0.224635 0.918981 0.805588
O O17 0.251108 0.787004 0.945345
O O18 0.000000 0.882088 0.917075
O O19 0.500000 0.088941 0.193602
O O20 0.500000 0.684686 0.956420
#
# Coordination Sequence:
#
# PCOD8170046 Si02
#       8
#     4   4   4   4   4   4   4   4
#     4  10  20  36  59  86 111 145 189 235 284 334
#     4  10  20  35  55  82 115 149 184 227 279 335
#     4   9  16  31  55  80 109 144 184 230 273 322
#     4   9  21  40  59  81 112 144 183 237 285 327
#     4   9  17  33  57  80 104 139 182 227 276 329
#     4  10  21  39  59  82 117 155 189 229 278 334
#     4  10  20  34  53  80 115 152 186 224 275 333
#     4  11  23  40  59  83 115 150 189 235 282 332
#
# _framework density 19.929901999999998
#
# number of rings (size 3 to 8) (size 9 to 14) (size 15 to 20)
#    0.000    2.250    1.250    1.500    0.000    5.500 
#    2.250    0.000    0.000    0.000    0.000    0.000 
#    0.000    0.000    0.000    0.000    0.000    0.000 
#
# Total GULP energy -396707.004420 kJ/mol
# GULP energy per Si atom -12397.093888 kJ/mol
# Density = 1.988454 g / cm^3
# Si number density = 19.929902 Si / 1000 Ang^3
#
#
#
# Elastic Constant Matrix: (Units=GPa)
#
#
# Indices 1 2 3 4 5 6 
#
# 1 44.2655 15.7468 25.0730 0.0000 0.0000 0.0000
# 2 15.7468 40.5295 12.4296 0.0000 0.0000 0.0000
# 3 25.0730 12.4296 103.2355 0.0000 0.0000 0.0000
# 4 0.0000 0.0000 0.0000 28.6952 0.0000 0.0000
# 5 0.0000 0.0000 0.0000 0.0000 34.5458 0.0000
# 6 0.0000 0.0000 0.0000 0.0000 0.0000 19.5650
#
#
#
# Elastic Compliance Matrix: (Units=1/GPa)
#
#
# Indices 1 2 3 4 5 6 
#
# 1 0.029390 -0.009583 -0.005984 0.000000 0.000000 0.000000
# 2 -0.009583 0.028744 -0.001133 0.000000 0.000000 0.000000
# 3 -0.005984 -0.001133 0.011276 0.000000 0.000000 0.000000
# 4 0.000000 0.000000 0.000000 0.034849 0.000000 0.000000
# 5 0.000000 0.000000 0.000000 0.000000 0.028947 0.000000
# 6 0.000000 0.000000 0.000000 0.000000 0.000000 0.051112
#
#
# Mechanical properties :
#
#
# Convention : Reuss Voigt Hill
#
# Bulk Modulus (GPa) = 27.77099 32.72547 30.24823
# Shear Modulus (GPa) = 21.76539 25.54662 23.65601
#
# Velocity S-wave (km/s) = 3.30827 3.58414 3.44897
# Velocity P-wave (km/s) = 5.34392 5.79517 5.57411
#
# Compressibility (1/GPa) = 0.03600880
#
# Stress axis : x y z
#
# Youngs Moduli (GPa) = 34.02565 34.78948 88.68085
#
# Poissons Ratio (x) = 0.33340 0.53067
# Poissons Ratio (y) = 0.32608 0.10050
# Poissons Ratio (z) = 0.20361 0.03943
#
# Static dielectric constant tensor:
#      x y z
#    x 3.461720 0.000000 0.000000 
#    y 0.000000 3.402990 0.000000 
#    z 0.000000 0.000000 3.876310 
# 
# 
# High freq. dielectric constant tensor:
#      x y z
#    x 1.765780 0.000000 0.000000 
#    y 0.000000 1.759790 0.000000 
#    z 0.000000 0.000000 1.788490 
# 
# From -- ./inp_files/5047.got.cif
#   From: 2010.03.12/outbox.cif.g09.slc.cpg/sg31_3_cif.got.tgz:5047.got - 2010.04.14 01:42:59.
