data_PCOD8170768
_publ_section_title
;
Structure prediction by ZEFSAII (Michael W. Deem and Ramdas Pophale) SiO2 
 PCOD8170768
Probable space group: P N A 21
;
_chemical_formula_sum "Si O2"
_cell_formula_units_Z 20
_cell_length_a 5.299296
_cell_length_b 18.733385
_cell_length_c 8.530083
_cell_angle_alpha 90.000000
_cell_angle_beta 90.000000
_cell_angle_gamma 90.000000
_cell_volume 846.813346
_symmetry_space_group_name_H-M "P N A 21"
_symmetry_group_IT_number 33
_symmetry_cell_setting 'orthorhombic'
loop_
_space_group_symop_operation_xyz
x,y,z
-x,-y,1/2+z
1/2-x,1/2+y,1/2+z
1/2+x,1/2-y,z
loop_
_atom_site_type_symbol
_atom_site_label
_atom_site_fract_x
_atom_site_fract_y
_atom_site_fract_z
Si Si1 0.781100 0.683161 0.186100
Si Si2 0.269543 0.951372 0.733905
Si Si3 0.230058 0.288717 0.326897
Si Si4 0.727504 0.454402 0.041590
Si Si5 0.781400 0.835700 0.312254
O O1 0.786355 0.749305 0.311471
O O2 0.533877 0.635654 0.222791
O O3 0.034199 0.636974 0.214986
O O4 0.770831 0.716134 0.014777
O O5 0.248652 0.868439 0.769391
O O6 0.536384 0.968326 0.653985
O O7 0.034591 0.973392 0.625559
O O8 0.254696 0.994310 0.893872
O O9 0.472603 0.246040 0.261884
O O10 0.726465 0.371346 0.983949
#
# Coordination Sequence:
#
# PCOD8170768 Si02
#       5
#     4   4   4   4   4
#     4  10  19  37  68 106 127 197 227 292 346 451
#     4  12  30  49  77 110 150 202 251 312 384 435
#     4  12  23  45  72 105 150 192 250 294 375 442
#     4  12  28  51  73 111 149 201 252 316 370 457
#     4  10  20  38  66  98 142 172 252 274 365 423
#
# _framework density 23.617954999999998
#
# number of rings (size 3 to 8) (size 9 to 14) (size 15 to 20)
#    0.000    0.800    4.000    3.600    5.600    0.000 
#   21.600    0.000    0.000    0.000    0.000    0.000 
#    0.000    0.000    0.000    0.000    0.000    0.000 
#
# Total GULP energy -247925.071683 kJ/mol
# GULP energy per Si atom -12396.253584 kJ/mol
# Density = 2.356420 g / cm^3
# Si number density = 23.617955 Si / 1000 Ang^3
#
#
#
# Elastic Constant Matrix: (Units=GPa)
#
#
# Indices 1 2 3 4 5 6 
#
# 1 210.3015 -10.0555 16.0782 0.0000 0.0000 0.0000
# 2 -10.0555 59.6299 17.9381 0.0000 0.0000 0.0000
# 3 16.0782 17.9381 56.6746 0.0000 0.0000 0.0000
# 4 0.0000 0.0000 0.0000 31.0285 0.0000 0.0000
# 5 0.0000 0.0000 0.0000 0.0000 39.4765 0.0000
# 6 0.0000 0.0000 0.0000 0.0000 0.0000 20.6044
#
#
#
# Elastic Compliance Matrix: (Units=1/GPa)
#
#
# Indices 1 2 3 4 5 6 
#
# 1 0.004963 0.001393 -0.001849 0.000000 0.000000 0.000000
# 2 0.001393 0.018926 -0.006385 0.000000 0.000000 0.000000
# 3 -0.001849 -0.006385 0.020190 0.000000 0.000000 0.000000
# 4 0.000000 0.000000 0.000000 0.032228 0.000000 0.000000
# 5 0.000000 0.000000 0.000000 0.000000 0.025332 0.000000
# 6 0.000000 0.000000 0.000000 0.000000 0.000000 0.048533
#
#
# Mechanical properties :
#
#
# Convention : Reuss Voigt Hill
#
# Bulk Modulus (GPa) = 32.89840 41.61418 37.25629
# Shear Modulus (GPa) = 28.73775 38.39824 33.56799
#
# Velocity S-wave (km/s) = 3.49201 4.03650 3.77409
# Velocity P-wave (km/s) = 5.49714 6.27554 5.89919
#
# Compressibility (1/GPa) = 0.03039662
#
# Stress axis : x y z
#
# Youngs Moduli (GPa) = 201.48922 52.83756 49.52896
#
# Poissons Ratio (x) = -0.07361 0.09158
# Poissons Ratio (y) = -0.28070 0.31627
# Poissons Ratio (z) = 0.37254 0.33739
#
# Static dielectric constant tensor:
#      x y z
#    x 5.514180 0.000000 0.000000 
#    y 0.000000 4.162820 0.000000 
#    z 0.000000 0.000000 4.075300 
# 
# 
# High freq. dielectric constant tensor:
#      x y z
#    x 1.975430 0.000000 0.000000 
#    y 0.000000 1.925000 0.000000 
#    z 0.000000 0.000000 1.916070 
# 
# From -- ./inp_files/2649.got.cif
#   From: 2010.03.12/outbox.cif.g09.slc.cpg/sg33_2_cif.got.tgz:2649.got - 2010.04.14 01:49:19.
