data_PCOD8170655
_publ_section_title
;
Structure prediction by ZEFSAII (Michael W. Deem and Ramdas Pophale) SiO2 
 PCOD8170655
Probable space group: P N A 21
;
_chemical_formula_sum "Si O2"
_cell_formula_units_Z 28
_cell_length_a 26.898068
_cell_length_b 13.923504
_cell_length_c 5.187009
_cell_angle_alpha 90.000000
_cell_angle_beta 90.000000
_cell_angle_gamma 90.000000
_cell_volume 1942.614529
_symmetry_space_group_name_H-M "P N A 21"
_symmetry_group_IT_number 33
_symmetry_cell_setting 'orthorhombic'
loop_
_space_group_symop_operation_xyz
x,y,z
-x,-y,1/2+z
1/2-x,1/2+y,1/2+z
1/2+x,1/2-y,z
loop_
_atom_site_type_symbol
_atom_site_label
_atom_site_fract_x
_atom_site_fract_y
_atom_site_fract_z
Si Si1 0.263117 0.169167 0.941040
Si Si2 0.139441 0.387324 0.478907
Si Si3 0.224556 0.565862 0.935733
Si Si4 0.028262 0.614081 0.579089
Si Si5 0.639957 0.895116 0.600440
Si Si6 0.471840 0.885273 0.074162
Si Si7 0.800340 0.644276 0.481466
O O1 0.249599 0.128055 0.660306
O O2 0.247287 0.093413 0.167496
O O3 0.323627 0.178009 0.947334
O O4 0.239097 0.270708 0.000461
O O5 0.139842 0.502454 0.453617
O O6 0.084530 0.348535 0.548290
O O7 0.158527 0.345608 0.206698
O O8 0.174463 0.348957 0.703962
O O9 0.164783 0.587359 0.886509
O O10 0.230865 0.454213 0.007414
O O11 0.085167 0.650159 0.601620
O O12 0.027370 0.499729 0.581598
O O13 0.999608 0.654831 0.328596
O O14 0.000898 0.655679 0.828549
#
# Coordination Sequence:
#
# PCOD8170655 Si02
#       7
#     4   4   4   4   4   4   4
#     4  10  19  29  44  63  82 112 154 177 211 257
#     4  10  18  29  43  58  86 116 146 175 208 250
#     4   9  18  30  41  62  85 111 146 179 209 255
#     4   9  16  24  39  55  80 109 139 173 200 238
#     4   8  18  27  43  57  87 111 145 173 211 248
#     4   9  17  25  36  59  78 108 146 169 196 243
#     4  11  18  30  46  60  82 121 144 180 215 247
#
# _framework density 14.413563
#
# number of rings (size 3 to 8) (size 9 to 14) (size 15 to 20)
#    0.857    1.714    1.429    1.714    2.000    3.429 
#    0.000    0.000    0.000    0.000    0.000    0.000 
#    0.000    0.000    0.000   25.714    0.000    1.429 
#
# Total GULP energy -346872.914416 kJ/mol
# GULP energy per Si atom -12388.318372 kJ/mol
# Density = 1.438076 g / cm^3
# Si number density = 14.413563 Si / 1000 Ang^3
#
#
#
# Elastic Constant Matrix: (Units=GPa)
#
#
# Indices 1 2 3 4 5 6 
#
# 1 72.6895 28.8433 18.6538 0.0000 0.0000 0.0000
# 2 28.8433 24.3500 11.0223 0.0000 0.0000 0.0000
# 3 18.6538 11.0223 94.3733 0.0000 0.0000 0.0000
# 4 0.0000 0.0000 0.0000 13.3066 0.0000 0.0000
# 5 0.0000 0.0000 0.0000 0.0000 23.1630 0.0000
# 6 0.0000 0.0000 0.0000 0.0000 0.0000 13.6379
#
#
#
# Elastic Compliance Matrix: (Units=1/GPa)
#
#
# Indices 1 2 3 4 5 6 
#
# 1 0.026196 -0.030288 -0.001641 0.000000 0.000000 0.000000
# 2 -0.030288 0.078378 -0.003167 0.000000 0.000000 0.000000
# 3 -0.001641 -0.003167 0.011290 0.000000 0.000000 0.000000
# 4 0.000000 0.000000 0.000000 0.075151 0.000000 0.000000
# 5 0.000000 0.000000 0.000000 0.000000 0.043172 0.000000
# 6 0.000000 0.000000 0.000000 0.000000 0.000000 0.073325
#
#
# Mechanical properties :
#
#
# Convention : Reuss Voigt Hill
#
# Bulk Modulus (GPa) = 21.89453 34.27238 28.08346
# Shear Modulus (GPa) = 12.72495 18.88105 15.80300
#
# Velocity S-wave (km/s) = 2.97449 3.62325 3.31478
# Velocity P-wave (km/s) = 5.19808 6.42911 5.84609
#
# Compressibility (1/GPa) = 0.04567351
#
# Stress axis : x y z
#
# Youngs Moduli (GPa) = 38.17328 12.75867 88.57057
#
# Poissons Ratio (x) = 0.38643 0.14530
# Poissons Ratio (y) = 1.15618 0.28054
# Poissons Ratio (z) = 0.06262 0.04041
#
# Static dielectric constant tensor:
#      x y z
#    x 2.784680 0.000000 0.000000 
#    y 0.000000 2.315350 0.000000 
#    z 0.000000 0.000000 2.962020 
# 
# 
# High freq. dielectric constant tensor:
#      x y z
#    x 1.537890 0.000000 0.000000 
#    y 0.000000 1.482610 0.000000 
#    z 0.000000 0.000000 1.571850 
# 
# From -- ./inp_files/2454.got.cif
#   From: 2010.03.12/outbox.cif.g09.slc.cpg/sg33_2_cif.got.tgz:2454.got - 2010.04.14 01:49:19.
