data_PCOD8170090
_publ_section_title
;
Structure prediction by ZEFSAII (Michael W. Deem and Ramdas Pophale) SiO2 
 PCOD8170090
Probable space group: P M N 21
;
_chemical_formula_sum "Si O2"
_cell_formula_units_Z 32
_cell_length_a 9.014474
_cell_length_b 11.392270
_cell_length_c 17.457536
_cell_angle_alpha 90.000000
_cell_angle_beta 90.000000
_cell_angle_gamma 90.000000
_cell_volume 1792.807276
_symmetry_space_group_name_H-M "P M N 21"
_symmetry_group_IT_number 31
_symmetry_cell_setting 'orthorhombic'
loop_
_space_group_symop_operation_xyz
x,y,z
1/2-x,-y,1/2+z
-x,y,z
1/2+x,-y,1/2+z
loop_
_atom_site_type_symbol
_atom_site_label
_atom_site_fract_x
_atom_site_fract_y
_atom_site_fract_z
Si Si1 0.330421 0.830698 0.326870
Si Si2 0.826070 0.090952 0.994034
Si Si3 0.333274 0.310515 0.707398
Si Si4 0.327346 0.665262 0.062073
Si Si5 0.325181 0.219814 0.134035
Si Si6 0.827773 0.906837 0.790044
Si Si7 0.167755 0.462607 0.126947
Si Si8 0.172942 0.140092 0.441894
O O1 0.500000 0.797106 0.312387
O O2 0.294627 0.835504 0.416886
O O3 0.230933 0.730258 0.288640
O O4 0.291558 0.955167 0.287927
O O5 0.751909 0.160625 0.062303
O O6 0.000000 0.076750 0.008843
O O7 0.757117 0.962198 0.987184
O O8 0.500000 0.262044 0.698636
O O9 0.234605 0.261687 0.636037
O O10 0.332180 0.453551 0.702687
O O11 0.500000 0.640915 0.074550
O O12 0.240899 0.539758 0.057637
O O13 0.296859 0.737861 0.985247
O O14 0.500000 0.222201 0.120599
O O15 0.281629 0.146723 0.209103
O O16 0.266135 0.350585 0.145156
O O17 0.732780 0.843737 0.855995
O O18 0.000000 0.886254 0.809576
O O19 0.000000 0.426045 0.104050
O O20 0.000000 0.108462 0.440343
#
# Coordination Sequence:
#
# PCOD8170090 Si02
#       8
#     4   4   4   4   4   4   4   4
#     4   9  18  35  55  78 109 141 175 217 266 318
#     4  10  22  37  55  80 113 148 178 220 272 323
#     4   9  19  32  53  81 106 137 176 222 267 313
#     4   9  18  33  55  79 106 140 176 221 270 316
#     4  11  22  37  57  80 107 146 185 220 271 326
#     4   9  21  37  54  79 112 145 177 219 270 325
#     4   9  20  36  53  79 108 139 183 229 268 318
#     4  10  20  35  56  84 111 140 180 224 270 319
#
# _framework density 17.849101999999998
#
# number of rings (size 3 to 8) (size 9 to 14) (size 15 to 20)
#    0.750    1.750    0.000    2.625    1.750    5.500 
#    0.000    1.250    0.000    3.000    0.000    0.000 
#    0.000    0.000    0.000    0.000    0.000    0.000 
#
# Total GULP energy -396673.230358 kJ/mol
# GULP energy per Si atom -12396.038449 kJ/mol
# Density = 1.780848 g / cm^3
# Si number density = 17.849102 Si / 1000 Ang^3
#
#
#
# Elastic Constant Matrix: (Units=GPa)
#
#
# Indices 1 2 3 4 5 6 
#
# 1 102.8151 49.3611 63.1484 0.0000 0.0000 0.0000
# 2 49.3611 83.9236 61.3379 0.0000 0.0000 0.0000
# 3 63.1484 61.3379 112.1708 0.0000 0.0000 0.0000
# 4 0.0000 0.0000 0.0000 -3.0753 0.0000 0.0000
# 5 0.0000 0.0000 0.0000 0.0000 32.8200 0.0000
# 6 0.0000 0.0000 0.0000 0.0000 0.0000 27.1214
#
#
#
# Elastic Compliance Matrix: (Units=1/GPa)
#
#
# Indices 1 2 3 4 5 6 
#
# 1 0.015898 -0.004680 -0.006391 0.000000 0.000000 0.000000
# 2 -0.004680 0.021226 -0.008972 0.000000 0.000000 0.000000
# 3 -0.006391 -0.008972 0.017419 0.000000 0.000000 0.000000
# 4 0.000000 0.000000 0.000000 -0.325170 0.000000 0.000000
# 5 0.000000 0.000000 0.000000 0.000000 0.030469 0.000000
# 6 0.000000 0.000000 0.000000 0.000000 0.000000 0.036871
#
#
# Mechanical properties :
#
#
# Convention : Reuss Voigt Hill
#
# Bulk Modulus (GPa) = 69.17088 71.84492 70.50790
# Shear Modulus (GPa) = -31.56937 19.71070 -5.92934
#
# Velocity S-wave (km/s) = -4.21013 3.32670 -1.82459
# Velocity P-wave (km/s) = 3.89919 7.42257 5.92867
#
# Compressibility (1/GPa) = 0.01445695
#
# Stress axis : x y z
#
# Youngs Moduli (GPa) = 62.89956 47.11294 57.40757
#
# Poissons Ratio (x) = 0.22047 0.36691
# Poissons Ratio (y) = 0.29435 0.51507
# Poissons Ratio (z) = 0.40201 0.42271
#
# Static dielectric constant tensor:
#      x y z
#    x 3.412710 0.000000 0.000000 
#    y 0.000000 3.171840 0.000000 
#    z 0.000000 0.000000 3.192310 
# 
# 
# High freq. dielectric constant tensor:
#      x y z
#    x 1.706960 0.000000 0.000000 
#    y 0.000000 1.676070 0.000000 
#    z 0.000000 0.000000 1.678370 
# 
# From -- ./inp_files/5926.got.cif
#   From: 2010.03.12/outbox.cif.g09.slc.cpg/sg31_3_cif.got.tgz:5926.got - 2010.04.14 01:42:59.
