data_PCOD8170824
_publ_section_title
;
Structure prediction by ZEFSAII (Michael W. Deem and Ramdas Pophale) SiO2 
 PCOD8170824
Probable space group: P N A 21
;
_chemical_formula_sum "Si O2"
_cell_formula_units_Z 32
_cell_length_a 12.886439
_cell_length_b 19.066637
_cell_length_c 6.233230
_cell_angle_alpha 90.000000
_cell_angle_beta 90.000000
_cell_angle_gamma 90.000000
_cell_volume 1531.511185
_symmetry_space_group_name_H-M "P N A 21"
_symmetry_group_IT_number 33
_symmetry_cell_setting 'orthorhombic'
loop_
_space_group_symop_operation_xyz
x,y,z
-x,-y,1/2+z
1/2-x,1/2+y,1/2+z
1/2+x,1/2-y,z
loop_
_atom_site_type_symbol
_atom_site_label
_atom_site_fract_x
_atom_site_fract_y
_atom_site_fract_z
Si Si1 0.491898 0.279109 0.771110
Si Si2 0.146338 0.992702 0.289745
Si Si3 0.033233 0.664004 0.947289
Si Si4 0.515524 0.597175 0.973414
Si Si5 0.153540 0.859134 0.582068
Si Si6 0.009394 0.434045 0.820565
Si Si7 0.883632 0.682276 0.573785
Si Si8 0.362209 0.059352 0.179566
O O1 0.433464 0.225175 0.610875
O O2 0.532827 0.345609 0.635941
O O3 0.404360 0.304551 0.931690
O O4 0.587049 0.243163 0.900802
O O5 0.167779 0.935553 0.474083
O O6 0.251063 0.024337 0.194064
O O7 0.085734 0.959433 0.092750
O O8 0.082407 0.058585 0.374016
O O9 0.129310 0.634966 0.801701
O O10 0.943148 0.695649 0.796382
O O11 0.988952 0.600342 0.087729
O O12 0.588117 0.634260 0.798715
O O13 0.262285 0.821013 0.628072
O O14 0.050960 0.512320 0.796994
O O15 0.085509 0.393105 0.981087
O O16 0.894058 0.433229 0.928417
#
# Coordination Sequence:
#
# PCOD8170824 Si02
#       8
#     4   4   4   4   4   4   4   4
#     4  10  24  44  66  93 132 177 220 285 326 398
#     4  11  24  41  66 101 131 180 220 281 345 395
#     4  10  22  40  61  95 137 169 217 280 329 403
#     4  11  24  44  68  94 137 166 231 281 332 404
#     4  11  23  42  70  97 131 182 227 274 336 409
#     4  10  20  35  57  95 132 166 213 276 320 402
#     4  10  22  41  67  93 129 176 228 263 339 402
#     4  11  21  35  63  96 135 172 214 270 343 393
#
# _framework density 20.894396
#
# number of rings (size 3 to 8) (size 9 to 14) (size 15 to 20)
#    0.000    1.500    3.750    0.750    1.750    3.000 
#    0.000    8.750    0.000    0.000    0.000    0.000 
#    0.000    0.000    0.000    0.000    0.000    0.000 
#
# Total GULP energy -396744.494535 kJ/mol
# GULP energy per Si atom -12398.265454 kJ/mol
# Density = 2.084684 g / cm^3
# Si number density = 20.894396 Si / 1000 Ang^3
#
#
#
# Elastic Constant Matrix: (Units=GPa)
#
#
# Indices 1 2 3 4 5 6 
#
# 1 90.9890 45.1766 36.1953 0.0000 0.0000 0.0000
# 2 45.1766 102.0510 45.5701 0.0000 0.0000 0.0000
# 3 36.1953 45.5701 111.4040 0.0000 0.0000 0.0000
# 4 0.0000 0.0000 0.0000 35.0125 0.0000 0.0000
# 5 0.0000 0.0000 0.0000 0.0000 6.1173 0.0000
# 6 0.0000 0.0000 0.0000 0.0000 0.0000 25.7021
#
#
#
# Elastic Compliance Matrix: (Units=1/GPa)
#
#
# Indices 1 2 3 4 5 6 
#
# 1 0.014669 -0.005341 -0.002581 0.000000 0.000000 0.000000
# 2 -0.005341 0.013934 -0.003964 0.000000 0.000000 0.000000
# 3 -0.002581 -0.003964 0.011437 0.000000 0.000000 0.000000
# 4 0.000000 0.000000 0.000000 0.028561 0.000000 0.000000
# 5 0.000000 0.000000 0.000000 0.000000 0.163470 0.000000
# 6 0.000000 0.000000 0.000000 0.000000 0.000000 0.038907
#
#
# Mechanical properties :
#
#
# Convention : Reuss Voigt Hill
#
# Bulk Modulus (GPa) = 61.47762 62.03644 61.75703
# Shear Modulus (GPa) = 16.65706 25.19985 20.92846
#
# Velocity S-wave (km/s) = 2.82654 3.47660 3.16829
# Velocity P-wave (km/s) = 6.33556 6.77278 6.55782
#
# Compressibility (1/GPa) = 0.01626608
#
# Stress axis : x y z
#
# Youngs Moduli (GPa) = 68.17063 71.76837 87.43898
#
# Poissons Ratio (x) = 0.38333 0.22569
# Poissons Ratio (y) = 0.36411 0.34663
# Poissons Ratio (z) = 0.17596 0.28451
#
# Static dielectric constant tensor:
#      x y z
#    x 3.462710 0.000000 0.000000 
#    y 0.000000 3.966300 0.000000 
#    z 0.000000 0.000000 4.101400 
# 
# 
# High freq. dielectric constant tensor:
#      x y z
#    x 1.788150 0.000000 0.000000 
#    y 0.000000 1.830600 0.000000 
#    z 0.000000 0.000000 1.836020 
# 
# From -- ./inp_files/1080.got.cif
#   From: 2010.03.12/outbox.cif.g09.slc.cpg/sg33_1_cif.got.tgz:1080.got - 2010.04.14 01:49:19.
