data_PCOD8170583
_publ_section_title
;
Structure prediction by ZEFSAII (Michael W. Deem and Ramdas Pophale) SiO2 
 PCOD8170583
Probable space group: P B A 2
;
_chemical_formula_sum "Si O2"
_cell_formula_units_Z 30
_cell_length_a 8.269212
_cell_length_b 19.899499
_cell_length_c 8.186658
_cell_angle_alpha 90.000000
_cell_angle_beta 90.000000
_cell_angle_gamma 90.000000
_cell_volume 1347.140574
_symmetry_space_group_name_H-M "P B A 2"
_symmetry_group_IT_number 32
_symmetry_cell_setting 'orthorhombic'
loop_
_space_group_symop_operation_xyz
x,y,z
-x,-y,z
1/2-x,1/2+y,z
1/2+x,1/2-y,z
loop_
_atom_site_type_symbol
_atom_site_label
_atom_site_fract_x
_atom_site_fract_y
_atom_site_fract_z
Si Si1 0.043321 0.689802 0.292820
Si Si2 0.623496 0.057713 0.397260
Si Si3 0.908783 0.681772 0.936101
Si Si4 0.367035 0.688786 0.439793
Si Si5 0.174983 0.746389 0.737540
Si Si6 0.589474 0.606197 0.607216
Si Si7 0.500000 0.500000 0.862557
Si Si8 0.172198 0.464495 0.025534
O O1 0.237029 0.682025 0.295106
O O2 0.967866 0.627985 0.389209
O O3 0.999999 0.756027 0.392784
O O4 0.989261 0.695342 0.108332
O O5 0.760622 0.064028 0.535599
O O6 0.500000 0.000000 0.454637
O O7 0.697354 0.042310 0.219402
O O8 0.766166 0.735479 0.907392
O O9 0.836212 0.606461 0.929690
O O10 0.032170 0.695127 0.786519
O O11 0.285735 0.706791 0.611758
O O12 0.458046 0.617150 0.461540
O O13 0.125436 0.817770 0.661289
O O14 0.505699 0.566536 0.753533
O O15 0.332296 0.504529 0.966223
O O16 0.000000 0.500000 0.988547
#
# Coordination Sequence:
#
# PCOD8170583 Si02
#       8
#     4   4   4   4   4   4   2   4
#     4  11  22  42  68  99 132 188 230 283 347 417
#     4  10  24  48  70  95 138 184 237 290 346 414
#     4  11  24  42  68 101 138 183 233 285 355 417
#     4  12  23  42  67 101 140 174 228 285 350 415
#     4  12  22  42  67 100 142 177 219 293 354 415
#     4  12  26  44  68 105 135 180 233 282 354 423
#     4  12  28  46  70 104 142 186 238 286 352 426
#     4  10  25  49  72  99 141 189 238 291 349 417
#
# _framework density 22.269390999999999
#
# number of rings (size 3 to 8) (size 9 to 14) (size 15 to 20)
#    0.000    0.800    5.333    0.800    3.733    2.133 
#    4.800    0.000    0.000    0.000    0.000    0.000 
#    0.000    0.000    0.000    0.000    0.000    0.000 
#
# Total GULP energy -371922.681302 kJ/mol
# GULP energy per Si atom -12397.422710 kJ/mol
# Density = 2.221870 g / cm^3
# Si number density = 22.269391 Si / 1000 Ang^3
#
#
#
# Elastic Constant Matrix: (Units=GPa)
#
#
# Indices 1 2 3 4 5 6 
#
# 1 142.2570 39.5936 44.0332 0.0000 0.0000 0.0000
# 2 39.5936 76.2278 35.0861 0.0000 0.0000 0.0000
# 3 44.0332 35.0861 74.4991 0.0000 0.0000 0.0000
# 4 0.0000 0.0000 0.0000 39.2259 0.0000 0.0000
# 5 0.0000 0.0000 0.0000 0.0000 48.3760 0.0000
# 6 0.0000 0.0000 0.0000 0.0000 0.0000 41.7832
#
#
#
# Elastic Compliance Matrix: (Units=1/GPa)
#
#
# Indices 1 2 3 4 5 6 
#
# 1 0.009068 -0.002864 -0.004011 0.000000 0.000000 0.000000
# 2 -0.002864 0.017654 -0.006622 0.000000 0.000000 0.000000
# 3 -0.004011 -0.006622 0.018912 0.000000 0.000000 0.000000
# 4 0.000000 0.000000 0.000000 0.025493 0.000000 0.000000
# 5 0.000000 0.000000 0.000000 0.000000 0.020671 0.000000
# 6 0.000000 0.000000 0.000000 0.000000 0.000000 0.023933
#
#
# Mechanical properties :
#
#
# Convention : Reuss Voigt Hill
#
# Bulk Modulus (GPa) = 53.64430 58.93441 56.28935
# Shear Modulus (GPa) = 33.57085 37.49509 35.53297
#
# Velocity S-wave (km/s) = 3.88685 4.10775 3.99883
# Velocity P-wave (km/s) = 6.65467 7.00142 6.83024
#
# Compressibility (1/GPa) = 0.01864131
#
# Stress axis : x y z
#
# Youngs Moduli (GPa) = 110.27589 56.64479 52.87599
#
# Poissons Ratio (x) = 0.16223 0.21209
# Poissons Ratio (y) = 0.31582 0.35012
# Poissons Ratio (z) = 0.44232 0.37508
#
# Static dielectric constant tensor:
#      x y z
#    x 4.322870 0.000000 0.000000 
#    y 0.000000 4.050550 0.000000 
#    z 0.000000 0.000000 4.002440 
# 
# 
# High freq. dielectric constant tensor:
#      x y z
#    x 1.892330 0.000000 0.000000 
#    y 0.000000 1.871660 0.000000 
#    z 0.000000 0.000000 1.880890 
# 
# From -- ./inp_files/2560.got.cif
#   From: 2010.03.12/outbox.cif.g09.slc.cpg/sg32_2_cif.got.tgz:2560.got - 2010.04.14 01:46:39.
