data_PCOD8170880
_publ_section_title
;
Structure prediction by ZEFSAII (Michael W. Deem and Ramdas Pophale) SiO2 
 PCOD8170880
Probable space group: P N A 21
;
_chemical_formula_sum "Si O2"
_cell_formula_units_Z 24
_cell_length_a 8.110713
_cell_length_b 9.332493
_cell_length_c 13.875238
_cell_angle_alpha 90.000000
_cell_angle_beta 90.000000
_cell_angle_gamma 90.000000
_cell_volume 1050.260781
_symmetry_space_group_name_H-M "P N A 21"
_symmetry_group_IT_number 33
_symmetry_cell_setting 'orthorhombic'
loop_
_space_group_symop_operation_xyz
x,y,z
-x,-y,1/2+z
1/2-x,1/2+y,1/2+z
1/2+x,1/2-y,z
loop_
_atom_site_type_symbol
_atom_site_label
_atom_site_fract_x
_atom_site_fract_y
_atom_site_fract_z
Si Si1 0.057340 0.728075 0.191220
Si Si2 0.763746 0.566812 0.895744
Si Si3 0.472619 0.723233 0.984883
Si Si4 0.859273 0.980198 0.198871
Si Si5 0.686190 0.567634 0.495354
Si Si6 0.989444 0.318786 0.902598
O O1 0.041340 0.904209 0.199286
O O2 0.238794 0.660152 0.192121
O O3 0.964713 0.670534 0.288660
O O4 0.972952 0.691918 0.087707
O O5 0.644573 0.638367 0.974351
O O6 0.931945 0.662459 0.900499
O O7 0.676239 0.575281 0.792309
O O8 0.817060 0.404486 0.921178
O O9 0.330205 0.602101 0.977869
O O10 0.838351 0.090265 0.110296
O O11 0.547530 0.655688 0.435718
O O12 0.867890 0.614078 0.466184
#
# Coordination Sequence:
#
# PCOD8170880 Si02
#       6
#     4   4   4   4   4   4
#     4  10  20  38  62  84 116 160 204 234 294 376
#     4  11  23  39  61  88 123 159 204 253 308 360
#     4  11  22  40  62  90 121 160 205 254 302 362
#     4  10  22  38  60  90 120 160 202 250 306 362
#     4  11  23  39  61  88 123 159 204 253 308 360
#     4  11  22  40  62  90 121 160 205 254 302 362
#
# _framework density 22.851467
#
# number of rings (size 3 to 8) (size 9 to 14) (size 15 to 20)
#    0.000    1.333    0.000    8.000    0.000    1.333 
#    0.000    3.333    0.000    0.000    0.000    0.000 
#    0.000    0.000    0.000    0.000    0.000    0.000 
#
# Total GULP energy -297313.627577 kJ/mol
# GULP energy per Si atom -12388.067816 kJ/mol
# Density = 2.279946 g / cm^3
# Si number density = 22.851467 Si / 1000 Ang^3
#
#
#
# Elastic Constant Matrix: (Units=GPa)
#
#
# Indices 1 2 3 4 5 6 
#
# 1 47.7150 7.6197 37.4210 0.0000 0.0000 0.0000
# 2 7.6197 67.4175 54.0020 0.0000 0.0000 0.0000
# 3 37.4210 54.0020 139.4263 0.0000 0.0000 0.0000
# 4 0.0000 0.0000 0.0000 39.5725 0.0000 0.0000
# 5 0.0000 0.0000 0.0000 0.0000 26.9477 0.0000
# 6 0.0000 0.0000 0.0000 0.0000 0.0000 45.5955
#
#
#
# Elastic Compliance Matrix: (Units=1/GPa)
#
#
# Indices 1 2 3 4 5 6 
#
# 1 0.027281 0.004033 -0.008884 0.000000 0.000000 0.000000
# 2 0.004033 0.022101 -0.009642 0.000000 0.000000 0.000000
# 3 -0.008884 -0.009642 0.013291 0.000000 0.000000 0.000000
# 4 0.000000 0.000000 0.000000 0.025270 0.000000 0.000000
# 5 0.000000 0.000000 0.000000 0.000000 0.037109 0.000000
# 6 0.000000 0.000000 0.000000 0.000000 0.000000 0.021932
#
#
# Mechanical properties :
#
#
# Convention : Reuss Voigt Hill
#
# Bulk Modulus (GPa) = 29.68586 50.29379 39.98983
# Shear Modulus (GPa) = 26.70940 32.79089 29.75014
#
# Velocity S-wave (km/s) = 3.42252 3.79219 3.61209
# Velocity P-wave (km/s) = 5.35137 6.42114 5.91051
#
# Compressibility (1/GPa) = 0.03368607
#
# Stress axis : x y z
#
# Youngs Moduli (GPa) = 36.65535 45.24728 75.23716
#
# Poissons Ratio (x) = -0.18247 0.66841
# Poissons Ratio (y) = -0.14782 0.72546
# Poissons Ratio (z) = 0.32565 0.43629
#
# Static dielectric constant tensor:
#      x y z
#    x 4.023050 0.000000 0.000000 
#    y 0.000000 4.106360 0.000000 
#    z 0.000000 0.000000 4.251250 
# 
# 
# High freq. dielectric constant tensor:
#      x y z
#    x 1.897750 0.000000 0.000000 
#    y 0.000000 1.885870 0.000000 
#    z 0.000000 0.000000 1.908780 
# 
# From -- ./inp_files/7551.got.cif
#   From: 2010.03.12/outbox.cif.g09.slc.cpg/sg33_4_cif.got.tgz:7551.got - 2010.04.14 01:49:19.
