data_PCOD8170220
_publ_section_title
;
Structure prediction by ZEFSAII (Michael W. Deem and Ramdas Pophale) SiO2 
 PCOD8170220
Probable space group: P M N 21
;
_chemical_formula_sum "Si O2"
_cell_formula_units_Z 32
_cell_length_a 8.712362
_cell_length_b 6.949534
_cell_length_c 27.927650
_cell_angle_alpha 90.000000
_cell_angle_beta 90.000000
_cell_angle_gamma 90.000000
_cell_volume 1690.931401
_symmetry_space_group_name_H-M "P M N 21"
_symmetry_group_IT_number 31
_symmetry_cell_setting 'orthorhombic'
loop_
_space_group_symop_operation_xyz
x,y,z
1/2-x,-y,1/2+z
-x,y,z
1/2+x,-y,1/2+z
loop_
_atom_site_type_symbol
_atom_site_label
_atom_site_fract_x
_atom_site_fract_y
_atom_site_fract_z
Si Si1 0.678340 0.754464 0.726640
Si Si2 0.177858 0.490744 0.050923
Si Si3 0.823376 0.478904 0.652010
Si Si4 0.676988 0.198810 0.983818
Si Si5 0.821535 0.488690 0.800960
Si Si6 0.324736 0.841001 0.229004
Si Si7 0.176971 0.493343 0.402324
Si Si8 0.677706 0.207800 0.471023
O O1 0.500000 0.718313 0.717395
O O2 0.773539 0.661382 0.683417
O O3 0.726228 0.662004 0.777274
O O4 0.710310 0.980765 0.728235
O O5 0.221080 0.536970 0.105035
O O6 0.000000 0.436111 0.047358
O O7 0.274933 0.309473 0.032036
O O8 0.216971 0.678896 0.019717
O O9 0.798097 0.283094 0.681269
O O10 0.000000 0.506776 0.637638
O O11 0.500000 0.139189 0.987711
O O12 0.709954 0.332240 0.938251
O O13 0.780262 0.012158 0.978536
O O14 0.782548 0.287898 0.775044
O O15 0.779171 0.468061 0.856096
O O16 0.000000 0.538192 0.794680
O O17 0.500000 0.913765 0.232050
O O18 0.000000 0.480789 0.387438
O O19 0.225155 0.293370 0.426993
O O20 0.500000 0.226804 0.457600
#
# Coordination Sequence:
#
# PCOD8170220 Si02
#       8
#     4   4   4   4   4   4   4   4
#     4  11  22  36  57  83 113 145 179 225 274 324
#     4  10  21  37  57  82 111 143 183 228 273 323
#     4  10  21  38  59  81 109 145 183 225 272 323
#     4  10  21  37  57  81 112 147 183 226 273 324
#     4  10  21  38  59  81 109 145 183 225 272 323
#     4   9  20  38  57  79 109 145 185 225 268 324
#     4  10  21  37  57  82 111 143 183 228 273 323
#     4  10  21  37  57  81 112 147 183 226 273 324
#
# _framework density 18.924482000000001
#
# number of rings (size 3 to 8) (size 9 to 14) (size 15 to 20)
#    0.000    2.000    0.000    4.125    0.000    8.000 
#    0.000    5.000    0.000    0.000    0.000    0.000 
#    0.000    0.000    0.000    0.000    0.000    0.000 
#
# Total GULP energy -396986.436235 kJ/mol
# GULP energy per Si atom -12405.826132 kJ/mol
# Density = 1.888141 g / cm^3
# Si number density = 18.924482 Si / 1000 Ang^3
#
#
#
# Elastic Constant Matrix: (Units=GPa)
#
#
# Indices 1 2 3 4 5 6 
#
# 1 60.1563 32.7034 20.1050 0.0000 0.0000 0.0000
# 2 32.7034 104.2068 25.5840 0.0000 0.0000 0.0000
# 3 20.1050 25.5840 101.5368 0.0000 0.0000 0.0000
# 4 0.0000 0.0000 0.0000 12.3300 0.0000 0.0000
# 5 0.0000 0.0000 0.0000 0.0000 36.9439 0.0000
# 6 0.0000 0.0000 0.0000 0.0000 0.0000 33.7640
#
#
#
# Elastic Compliance Matrix: (Units=1/GPa)
#
#
# Indices 1 2 3 4 5 6 
#
# 1 0.020677 -0.005846 -0.002621 0.000000 0.000000 0.000000
# 2 -0.005846 0.011882 -0.001836 0.000000 0.000000 0.000000
# 3 -0.002621 -0.001836 0.010830 0.000000 0.000000 0.000000
# 4 0.000000 0.000000 0.000000 0.081103 0.000000 0.000000
# 5 0.000000 0.000000 0.000000 0.000000 0.027068 0.000000
# 6 0.000000 0.000000 0.000000 0.000000 0.000000 0.029617
#
#
# Mechanical properties :
#
#
# Convention : Reuss Voigt Hill
#
# Bulk Modulus (GPa) = 43.89275 46.96498 45.42887
# Shear Modulus (GPa) = 23.88015 29.10806 26.49411
#
# Velocity S-wave (km/s) = 3.55613 3.92614 3.74570
# Velocity P-wave (km/s) = 6.33288 6.73971 6.53946
#
# Compressibility (1/GPa) = 0.02278281
#
# Stress axis : x y z
#
# Youngs Moduli (GPa) = 48.36200 84.16305 92.33274
#
# Poissons Ratio (x) = 0.49199 0.24204
# Poissons Ratio (y) = 0.28271 0.16955
# Poissons Ratio (z) = 0.12677 0.15455
#
# Static dielectric constant tensor:
#      x y z
#    x 3.496900 0.000000 0.000000 
#    y 0.000000 3.352130 0.000000 
#    z 0.000000 0.000000 3.449230 
# 
# 
# High freq. dielectric constant tensor:
#      x y z
#    x 1.748080 0.000000 0.000000 
#    y 0.000000 1.733420 0.000000 
#    z 0.000000 0.000000 1.736340 
# 
# From -- ./inp_files/6622.got.cif
#   From: 2010.03.12/outbox.cif.g09.slc.cpg/sg31_4_cif.got.tgz:6622.got - 2010.04.14 01:42:59.
