data_PCOD8170811
_publ_section_title
;
Structure prediction by ZEFSAII (Michael W. Deem and Ramdas Pophale) SiO2 
 PCOD8170811
Probable space group: P N A 21
;
_chemical_formula_sum "Si O2"
_cell_formula_units_Z 32
_cell_length_a 13.752746
_cell_length_b 9.042752
_cell_length_c 13.958066
_cell_angle_alpha 90.000000
_cell_angle_beta 90.000000
_cell_angle_gamma 90.000000
_cell_volume 1735.862375
_symmetry_space_group_name_H-M "P N A 21"
_symmetry_group_IT_number 33
_symmetry_cell_setting 'orthorhombic'
loop_
_space_group_symop_operation_xyz
x,y,z
-x,-y,1/2+z
1/2-x,1/2+y,1/2+z
1/2+x,1/2-y,z
loop_
_atom_site_type_symbol
_atom_site_label
_atom_site_fract_x
_atom_site_fract_y
_atom_site_fract_z
Si Si1 0.505706 0.438511 0.346730
Si Si2 0.977375 0.400394 0.345440
Si Si3 0.005706 0.061489 0.564482
Si Si4 0.850045 0.906913 0.227785
Si Si5 0.847757 0.565308 0.707473
Si Si6 0.652243 0.065308 0.703739
Si Si7 0.477375 0.099606 0.565772
Si Si8 0.149955 0.093087 0.183427
O O1 0.461811 0.274734 0.334697
O O2 0.534272 0.473672 0.455606
O O3 0.424921 0.554720 0.312623
O O4 0.603831 0.455283 0.285089
O O5 0.884977 0.478691 0.297357
O O6 0.076122 0.451645 0.293989
O O7 0.983927 0.449298 0.455606
O O8 0.103831 0.044717 0.626123
O O9 0.961811 0.225266 0.576515
O O10 0.924921 0.945281 0.598589
O O11 0.828738 0.733766 0.232163
O O12 0.751477 0.995137 0.244810
O O13 0.828738 0.733767 0.679049
O O14 0.884977 0.478691 0.613855
O O15 0.576123 0.048354 0.617223
O O16 0.751477 0.995137 0.666402
#
# Coordination Sequence:
#
# PCOD8170811 Si02
#       8
#     4   4   4   4   4   4   4   4
#     4   9  19  36  55  74 100 136 175 214 257 305
#     4   9  19  36  55  74 100 136 175 214 257 305
#     4   9  19  36  55  74 100 136 175 214 257 305
#     4  10  20  34  53  78 106 136 171 212 258 307
#     4  10  20  34  53  78 106 136 171 212 258 307
#     4  10  20  34  53  78 106 136 171 212 258 307
#     4   9  19  36  55  74 100 136 175 214 257 305
#     4  10  20  34  53  78 106 136 171 212 258 307
#
# _framework density 18.434640999999999
#
# number of rings (size 3 to 8) (size 9 to 14) (size 15 to 20)
#    0.000    2.500    0.000    1.500    0.000    5.000 
#    0.000    5.000    0.000    0.000    0.000    0.000 
#    0.000    0.000    0.000    0.000    0.000    0.000 
#
# Total GULP energy -396935.491083 kJ/mol
# GULP energy per Si atom -12404.234096 kJ/mol
# Density = 1.839268 g / cm^3
# Si number density = 18.434641 Si / 1000 Ang^3
#
#
#
# Elastic Constant Matrix: (Units=GPa)
#
#
# Indices 1 2 3 4 5 6 
#
# 1 55.9237 12.8277 -1.5120 0.0000 0.0000 0.0000
# 2 12.8277 49.4443 3.6634 0.0000 0.0000 0.0000
# 3 -1.5120 3.6634 94.8660 0.0000 0.0000 0.0000
# 4 0.0000 0.0000 0.0000 27.2390 0.0000 0.0000
# 5 0.0000 0.0000 0.0000 0.0000 13.4399 0.0000
# 6 0.0000 0.0000 0.0000 0.0000 0.0000 36.0691
#
#
#
# Elastic Compliance Matrix: (Units=1/GPa)
#
#
# Indices 1 2 3 4 5 6 
#
# 1 0.019036 -0.004975 0.000496 0.000000 0.000000 0.000000
# 2 -0.004975 0.021583 -0.000913 0.000000 0.000000 0.000000
# 3 0.000496 -0.000913 0.010584 0.000000 0.000000 0.000000
# 4 0.000000 0.000000 0.000000 0.036712 0.000000 0.000000
# 5 0.000000 0.000000 0.000000 0.000000 0.074405 0.000000
# 6 0.000000 0.000000 0.000000 0.000000 0.000000 0.027725
#
#
# Mechanical properties :
#
#
# Convention : Reuss Voigt Hill
#
# Bulk Modulus (GPa) = 24.74119 25.57691 25.15905
# Shear Modulus (GPa) = 23.33137 27.69992 25.51565
#
# Velocity S-wave (km/s) = 3.56142 3.88055 3.72440
# Velocity P-wave (km/s) = 5.51016 5.82947 5.67206
#
# Compressibility (1/GPa) = 0.04041843
#
# Stress axis : x y z
#
# Youngs Moduli (GPa) = 52.53160 46.33233 94.47924
#
# Poissons Ratio (x) = 0.23052 -0.04682
# Poissons Ratio (y) = 0.26137 0.08624
# Poissons Ratio (z) = -0.02603 0.04229
#
# Static dielectric constant tensor:
#      x y z
#    x 3.241160 0.000000 0.000000 
#    y 0.000000 3.434320 0.000000 
#    z 0.000000 0.000000 3.412290 
# 
# 
# High freq. dielectric constant tensor:
#      x y z
#    x 1.711050 0.000000 0.000000 
#    y 0.000000 1.720620 0.000000 
#    z 0.000000 0.000000 1.712500 
# 
# From -- ./inp_files/3976.got.cif
#   From: 2010.03.12/outbox.cif.g09.slc.cpg/sg33_2_cif.got.tgz:3976.got - 2010.04.14 01:49:19.
