data_PCOD8170276
_publ_section_title
;
Structure prediction by ZEFSAII (Michael W. Deem and Ramdas Pophale) SiO2 
 PCOD8170276
Probable space group: P M N 21
;
_chemical_formula_sum "Si O2"
_cell_formula_units_Z 32
_cell_length_a 12.805498
_cell_length_b 22.274378
_cell_length_c 5.369940
_cell_angle_alpha 90.000000
_cell_angle_beta 90.000000
_cell_angle_gamma 90.000000
_cell_volume 1531.692167
_symmetry_space_group_name_H-M "P M N 21"
_symmetry_group_IT_number 31
_symmetry_cell_setting 'orthorhombic'
loop_
_space_group_symop_operation_xyz
x,y,z
1/2-x,-y,1/2+z
-x,y,z
1/2+x,-y,1/2+z
loop_
_atom_site_type_symbol
_atom_site_label
_atom_site_fract_x
_atom_site_fract_y
_atom_site_fract_z
Si Si1 0.311818 0.436842 0.279210
Si Si2 0.621828 0.756743 0.062904
Si Si3 0.232964 0.210108 0.081932
Si Si4 0.771010 0.076377 0.022012
Si Si5 0.623981 0.966077 0.021557
Si Si6 0.621176 0.314789 0.019056
Si Si7 0.613377 0.550326 0.478921
Si Si8 0.218259 0.357978 0.663171
O O1 0.364270 0.378351 0.157240
O O2 0.392950 0.492000 0.295577
O O3 0.269625 0.416044 0.544032
O O4 0.207984 0.464231 0.158754
O O5 0.500000 0.767540 0.083518
O O6 0.668730 0.770338 0.336319
O O7 0.651084 0.687340 0.991955
O O8 0.662014 0.795761 0.830425
O O9 0.276341 0.143450 0.031119
O O10 0.326964 0.256523 0.151616
O O11 0.843731 0.065764 0.263611
O O12 0.671856 0.032715 0.026106
O O13 0.836767 0.069819 0.765834
O O14 0.500000 0.971189 0.033396
O O15 0.500000 0.301848 0.972736
O O16 0.683273 0.319899 0.762274
O O17 0.500000 0.555373 0.610915
O O18 0.636141 0.615438 0.361026
#
# Coordination Sequence:
#
# PCOD8170276 Si02
#       8
#     4   4   4   4   4   4   4   4
#     4  11  21  42  57  84 118 146 199 249 301 378
#     4  11  23  40  62  87 123 166 203 254 315 365
#     4  11  23  41  61  94 127 157 212 254 296 369
#     4  10  22  38  61  92 128 163 203 259 299 350
#     4  10  21  39  63  91 126 168 205 246 307 359
#     4  10  23  41  63  84 115 160 198 247 306 362
#     4  11  23  37  60  86 113 151 193 250 315 370
#     4  10  22  42  57  82 118 149 199 253 301 375
#
# _framework density 20.891928
#
# number of rings (size 3 to 8) (size 9 to 14) (size 15 to 20)
#    0.000    1.500    2.500    2.250    0.000    5.500 
#    0.000    0.000    0.000    4.500    0.000    0.000 
#    0.000    0.000    0.000    0.000    0.000    0.000 
#
# Total GULP energy -396430.665390 kJ/mol
# GULP energy per Si atom -12388.458293 kJ/mol
# Density = 2.084438 g / cm^3
# Si number density = 20.891928 Si / 1000 Ang^3
#
#
#
# Elastic Constant Matrix: (Units=GPa)
#
#
# Indices 1 2 3 4 5 6 
#
# 1 119.8582 45.0000 23.7316 0.0000 0.0000 0.0000
# 2 45.0000 106.8764 9.4389 0.0000 0.0000 0.0000
# 3 23.7316 9.4389 96.1492 0.0000 0.0000 0.0000
# 4 0.0000 0.0000 0.0000 21.3863 0.0000 0.0000
# 5 0.0000 0.0000 0.0000 0.0000 19.1365 0.0000
# 6 0.0000 0.0000 0.0000 0.0000 0.0000 15.3955
#
#
#
# Elastic Compliance Matrix: (Units=1/GPa)
#
#
# Indices 1 2 3 4 5 6 
#
# 1 0.010329 -0.004160 -0.002141 0.000000 0.000000 0.000000
# 2 -0.004160 0.011114 -0.000064 0.000000 0.000000 0.000000
# 3 -0.002141 -0.000064 0.010935 0.000000 0.000000 0.000000
# 4 0.000000 0.000000 0.000000 0.046759 0.000000 0.000000
# 5 0.000000 0.000000 0.000000 0.000000 0.052256 0.000000
# 6 0.000000 0.000000 0.000000 0.000000 0.000000 0.064954
#
#
# Mechanical properties :
#
#
# Convention : Reuss Voigt Hill
#
# Bulk Modulus (GPa) = 50.89682 53.24720 52.07201
# Shear Modulus (GPa) = 23.18824 27.49789 25.34307
#
# Velocity S-wave (km/s) = 3.33515 3.63188 3.48667
# Velocity P-wave (km/s) = 6.26465 6.56732 6.41777
#
# Compressibility (1/GPa) = 0.01964759
#
# Stress axis : x y z
#
# Youngs Moduli (GPa) = 96.81578 89.97846 91.44730
#
# Poissons Ratio (x) = 0.37430 0.19579
# Poissons Ratio (y) = 0.40274 0.00588
# Poissons Ratio (z) = 0.20728 0.00579
#
# Static dielectric constant tensor:
#      x y z
#    x 3.699430 0.000000 0.000000 
#    y 0.000000 4.275290 0.000000 
#    z 0.000000 0.000000 3.893450 
# 
# 
# High freq. dielectric constant tensor:
#      x y z
#    x 1.804920 0.000000 0.000000 
#    y 0.000000 1.832300 0.000000 
#    z 0.000000 0.000000 1.815390 
# 
# From -- ./inp_files/472.got.cif
#   From: 2010.03.12/outbox.cif.g09.slc.cpg/sg31_1_cif.got.tgz:472.got - 2010.04.14 01:42:59.
