data_PCOD8170789
_publ_section_title
;
Structure prediction by ZEFSAII (Michael W. Deem and Ramdas Pophale) SiO2 
 PCOD8170789
Probable space group: P N A 21
;
_chemical_formula_sum "Si O2"
_cell_formula_units_Z 32
_cell_length_a 10.623226
_cell_length_b 15.834175
_cell_length_c 8.999661
_cell_angle_alpha 90.000000
_cell_angle_beta 90.000000
_cell_angle_gamma 90.000000
_cell_volume 1513.833153
_symmetry_space_group_name_H-M "P N A 21"
_symmetry_group_IT_number 33
_symmetry_cell_setting 'orthorhombic'
loop_
_space_group_symop_operation_xyz
x,y,z
-x,-y,1/2+z
1/2-x,1/2+y,1/2+z
1/2+x,1/2-y,z
loop_
_atom_site_type_symbol
_atom_site_label
_atom_site_fract_x
_atom_site_fract_y
_atom_site_fract_z
Si Si1 0.776183 0.760496 0.972860
Si Si2 0.842116 0.069072 0.781510
Si Si3 0.533737 0.688089 0.069801
Si Si4 0.719519 0.988280 0.514290
Si Si5 0.599622 0.111529 0.314568
Si Si6 0.662674 0.825775 0.697346
Si Si7 0.698949 0.637299 0.592035
Si Si8 0.553954 0.552572 0.833259
O O1 0.804884 0.667295 0.912489
O O2 0.766935 0.823135 0.829517
O O3 0.644439 0.759458 0.065734
O O4 0.890709 0.780241 0.084261
O O5 0.949173 0.126873 0.707995
O O6 0.732651 0.045383 0.664132
O O7 0.785197 0.120547 0.917893
O O8 0.914682 0.985605 0.834088
O O9 0.546927 0.642593 0.912043
O O10 0.692029 0.893021 0.568169
O O11 0.605095 0.022728 0.407745
O O12 0.848673 0.990564 0.419501
O O13 0.462612 0.149617 0.290178
O O14 0.664324 0.109760 0.153344
O O15 0.656458 0.734335 0.619059
O O16 0.597304 0.573143 0.664849
#
# Coordination Sequence:
#
# PCOD8170789 Si02
#       8
#     4   4   4   4   4   4   4   4
#     4  11  19  39  67  87 121 168 214 255 322 380
#     4  11  22  38  63  95 129 155 215 280 317 366
#     4  11  21  39  64  93 123 170 209 265 316 391
#     4  10  22  39  59  92 125 167 212 264 313 391
#     4  10  20  41  63  84 131 169 210 253 322 397
#     4  11  22  39  68  91 123 173 222 251 322 396
#     4  10  21  39  63  93 122 163 212 275 318 374
#     4  10  19  40  63  87 124 165 214 259 320 375
#
# _framework density 21.138393000000001
#
# number of rings (size 3 to 8) (size 9 to 14) (size 15 to 20)
#    0.000    1.500    6.250    2.250    0.000    4.000 
#    4.500    2.500    0.000    0.000    0.000    0.000 
#    0.000    0.000    0.000    0.000    0.000    0.000 
#
# Total GULP energy -396519.836390 kJ/mol
# GULP energy per Si atom -12391.244887 kJ/mol
# Density = 2.109028 g / cm^3
# Si number density = 21.138393 Si / 1000 Ang^3
#
#
#
# Elastic Constant Matrix: (Units=GPa)
#
#
# Indices 1 2 3 4 5 6 
#
# 1 96.3110 35.0316 25.1060 0.0000 0.0000 0.0000
# 2 35.0316 94.1548 43.3588 0.0000 0.0000 0.0000
# 3 25.1060 43.3588 98.6491 0.0000 0.0000 0.0000
# 4 0.0000 0.0000 0.0000 36.7977 0.0000 0.0000
# 5 0.0000 0.0000 0.0000 0.0000 23.5470 0.0000
# 6 0.0000 0.0000 0.0000 0.0000 0.0000 27.2606
#
#
#
# Elastic Compliance Matrix: (Units=1/GPa)
#
#
# Indices 1 2 3 4 5 6 
#
# 1 0.012158 -0.003885 -0.001387 0.000000 0.000000 0.000000
# 2 -0.003885 0.014557 -0.005410 0.000000 0.000000 0.000000
# 3 -0.001387 -0.005410 0.012867 0.000000 0.000000 0.000000
# 4 0.000000 0.000000 0.000000 0.027176 0.000000 0.000000
# 5 0.000000 0.000000 0.000000 0.000000 0.042468 0.000000
# 6 0.000000 0.000000 0.000000 0.000000 0.000000 0.036683
#
#
# Mechanical properties :
#
#
# Convention : Reuss Voigt Hill
#
# Bulk Modulus (GPa) = 54.88396 55.12307 55.00351
# Shear Modulus (GPa) = 28.84422 29.89562 29.36992
#
# Velocity S-wave (km/s) = 3.69798 3.76477 3.73152
# Velocity P-wave (km/s) = 6.65236 6.71058 6.68153
#
# Compressibility (1/GPa) = 0.01822026
#
# Stress axis : x y z
#
# Youngs Moduli (GPa) = 82.25351 68.69357 77.71523
#
# Poissons Ratio (x) = 0.26687 0.10776
# Poissons Ratio (y) = 0.31954 0.42041
# Poissons Ratio (z) = 0.11405 0.37161
#
# Static dielectric constant tensor:
#      x y z
#    x 3.826370 0.000000 0.000000 
#    y 0.000000 3.691210 0.000000 
#    z 0.000000 0.000000 3.796270 
# 
# 
# High freq. dielectric constant tensor:
#      x y z
#    x 1.820760 0.000000 0.000000 
#    y 0.000000 1.815910 0.000000 
#    z 0.000000 0.000000 1.819620 
# 
# From -- ./inp_files/3946.got.cif
#   From: 2010.03.12/outbox.cif.g09.slc.cpg/sg33_2_cif.got.tgz:3946.got - 2010.04.14 01:49:19.
