data_PCOD8170055
_publ_section_title
;
Structure prediction by ZEFSAII (Michael W. Deem and Ramdas Pophale) SiO2 
 PCOD8170055
Probable space group: P M N 21
;
_chemical_formula_sum "Si O2"
_cell_formula_units_Z 32
_cell_length_a 8.879524
_cell_length_b 16.698648
_cell_length_c 10.421640
_cell_angle_alpha 90.000000
_cell_angle_beta 90.000000
_cell_angle_gamma 90.000000
_cell_volume 1545.279569
_symmetry_space_group_name_H-M "P M N 21"
_symmetry_group_IT_number 31
_symmetry_cell_setting 'orthorhombic'
loop_
_space_group_symop_operation_xyz
x,y,z
1/2-x,-y,1/2+z
-x,y,z
1/2+x,-y,1/2+z
loop_
_atom_site_type_symbol
_atom_site_label
_atom_site_fract_x
_atom_site_fract_y
_atom_site_fract_z
Si Si1 0.675610 0.527623 0.355410
Si Si2 0.323598 0.930105 0.104173
Si Si3 0.322053 0.738910 0.696836
Si Si4 0.336266 0.159440 0.815185
Si Si5 0.678837 0.421225 0.117308
Si Si6 0.333274 0.106440 0.096501
Si Si7 0.177997 0.226063 0.475869
Si Si8 0.325126 0.696099 0.237831
O O1 0.500000 0.519691 0.387487
O O2 0.729171 0.458471 0.255597
O O3 0.760671 0.529014 0.493010
O O4 0.712283 0.605912 0.272445
O O5 0.500000 0.941521 0.085979
O O6 0.287603 0.891324 0.240274
O O7 0.252499 0.019066 0.104854
O O8 0.261667 0.865823 0.997830
O O9 0.500000 0.726392 0.683033
O O10 0.241295 0.669464 0.614582
O O11 0.279545 0.827198 0.649757
O O12 0.263082 0.735342 0.844004
O O13 0.500000 0.161718 0.744839
O O14 0.271781 0.249022 0.833690
O O15 0.360368 0.118947 0.948811
O O16 0.500000 0.421436 0.105919
O O17 0.500000 0.110147 0.163941
O O18 0.227517 0.284403 0.591960
O O19 0.000000 0.220383 0.469594
O O20 0.500000 0.716211 0.256587
#
# Coordination Sequence:
#
# PCOD8170055 Si02
#       8
#     4   4   4   4   4   4   4   4
#     4  10  23  42  67  96 125 164 211 257 309 376
#     4   9  19  37  57  79 111 153 194 241 299 358
#     4  11  23  38  62  89 121 163 208 252 305 374
#     4  10  20  34  54  81 110 142 186 238 292 354
#     4  11  25  43  65  95 133 168 207 263 318 372
#     4  10  22  37  56  80 115 154 192 245 306 358
#     4   8  17  34  59  85 112 153 199 245 297 359
#     4   9  18  37  62  83 111 151 197 241 296 361
#
# _framework density 20.708226
#
# number of rings (size 3 to 8) (size 9 to 14) (size 15 to 20)
#    0.000    2.250    0.000    2.625    3.500    5.000 
#    0.000    5.000    0.000    0.000    0.000    0.000 
#    0.000    0.000    0.000    0.000    0.000    0.000 
#
# Total GULP energy -396518.075392 kJ/mol
# GULP energy per Si atom -12391.189856 kJ/mol
# Density = 2.066109 g / cm^3
# Si number density = 20.708226 Si / 1000 Ang^3
#
#
#
# Elastic Constant Matrix: (Units=GPa)
#
#
# Indices 1 2 3 4 5 6 
#
# 1 47.3526 30.4345 27.0972 0.0000 0.0000 0.0000
# 2 30.4345 96.8826 31.7293 0.0000 0.0000 0.0000
# 3 27.0972 31.7293 90.1758 0.0000 0.0000 0.0000
# 4 0.0000 0.0000 0.0000 22.7813 0.0000 0.0000
# 5 0.0000 0.0000 0.0000 0.0000 26.0069 0.0000
# 6 0.0000 0.0000 0.0000 0.0000 0.0000 19.8517
#
#
#
# Elastic Compliance Matrix: (Units=1/GPa)
#
#
# Indices 1 2 3 4 5 6 
#
# 1 0.029313 -0.007147 -0.006294 0.000000 0.000000 0.000000
# 2 -0.007147 0.013409 -0.002570 0.000000 0.000000 0.000000
# 3 -0.006294 -0.002570 0.013885 0.000000 0.000000 0.000000
# 4 0.000000 0.000000 0.000000 0.043896 0.000000 0.000000
# 5 0.000000 0.000000 0.000000 0.000000 0.038451 0.000000
# 6 0.000000 0.000000 0.000000 0.000000 0.000000 0.050373
#
#
# Mechanical properties :
#
#
# Convention : Reuss Voigt Hill
#
# Bulk Modulus (GPa) = 40.67559 45.88146 43.27852
# Shear Modulus (GPa) = 21.78223 23.40465 22.59344
#
# Velocity S-wave (km/s) = 3.24676 3.36551 3.30667
# Velocity P-wave (km/s) = 5.80863 6.10790 5.96014
#
# Compressibility (1/GPa) = 0.02458477
#
# Stress axis : x y z
#
# Youngs Moduli (GPa) = 34.11411 74.57794 72.01999
#
# Poissons Ratio (x) = 0.53303 0.45327
# Poissons Ratio (y) = 0.24382 0.18511
# Poissons Ratio (z) = 0.21470 0.19169
#
# Static dielectric constant tensor:
#      x y z
#    x 3.896990 0.000000 0.000000 
#    y 0.000000 3.960170 0.000000 
#    z 0.000000 0.000000 3.947880 
# 
# 
# High freq. dielectric constant tensor:
#      x y z
#    x 1.791190 0.000000 0.000000 
#    y 0.000000 1.818370 0.000000 
#    z 0.000000 0.000000 1.807710 
# 
# From -- ./inp_files/3750.got.cif
#   From: 2010.03.12/outbox.cif.g09.slc.cpg/sg31_2_cif.got.tgz:3750.got - 2010.04.14 01:42:59.
