data_PCOD8170028
_publ_section_title
;
Structure prediction by ZEFSAII (Michael W. Deem and Ramdas Pophale) SiO2 
 PCOD8170028
Probable space group: P M N 21
;
_chemical_formula_sum "Si O2"
_cell_formula_units_Z 28
_cell_length_a 19.869085
_cell_length_b 11.017498
_cell_length_c 6.911818
_cell_angle_alpha 90.000000
_cell_angle_beta 90.000000
_cell_angle_gamma 90.000000
_cell_volume 1513.049519
_symmetry_space_group_name_H-M "P M N 21"
_symmetry_group_IT_number 31
_symmetry_cell_setting 'orthorhombic'
loop_
_space_group_symop_operation_xyz
x,y,z
1/2-x,-y,1/2+z
-x,y,z
1/2+x,-y,1/2+z
loop_
_atom_site_type_symbol
_atom_site_label
_atom_site_fract_x
_atom_site_fract_y
_atom_site_fract_z
Si Si1 0.818527 0.009577 0.184460
Si Si2 0.158027 0.273479 0.046675
Si Si3 0.681395 0.602153 0.154042
Si Si4 0.825178 0.907993 0.801647
Si Si5 0.920982 0.033350 0.513717
Si Si6 0.225895 0.647610 0.807596
Si Si7 0.425428 0.692426 0.893276
O O1 0.742182 0.013052 0.260805
O O2 0.872932 0.979315 0.348394
O O3 0.830370 0.131800 0.065756
O O4 0.831557 0.902748 0.033017
O O5 0.160671 0.302235 0.819986
O O6 0.212418 0.352862 0.160223
O O7 0.088312 0.300843 0.161721
O O8 0.684933 0.473073 0.259378
O O9 0.747888 0.644292 0.032235
O O10 0.621403 0.594770 0.999182
O O11 0.818857 0.765304 0.752001
O O12 0.890628 0.973242 0.708553
O O13 0.913209 0.178480 0.501063
O O14 0.000000 0.996858 0.491577
O O15 0.500000 0.645293 0.922390
#
# Coordination Sequence:
#
# PCOD8170028 Si02
#       7
#     4   4   4   4   4   4   4
#     4  10  20  33  56  86 114 148 187 233 282 342
#     4   9  19  33  54  78 113 142 182 231 287 333
#     4  11  19  36  56  80 112 151 184 239 287 331
#     4  11  21  34  56  87 115 151 188 236 284 344
#     4  10  21  39  58  85 121 152 185 232 291 351
#     4  10  22  33  53  83 113 145 192 232 285 341
#     4   9  20  36  57  85 111 143 190 235 281 342
#
# _framework density 18.505673999999999
#
# number of rings (size 3 to 8) (size 9 to 14) (size 15 to 20)
#    0.000    2.000    2.857    1.714    2.000    1.143 
#    0.000    3.571    0.000    0.000    0.000    0.000 
#    0.000    0.000    0.000    0.000    0.000    0.000 
#
# Total GULP energy -346900.190854 kJ/mol
# GULP energy per Si atom -12389.292530 kJ/mol
# Density = 1.846355 g / cm^3
# Si number density = 18.505674 Si / 1000 Ang^3
#
#
#
# Elastic Constant Matrix: (Units=GPa)
#
#
# Indices 1 2 3 4 5 6 
#
# 1 99.4609 26.2287 28.8828 0.0000 0.0000 0.0000
# 2 26.2287 34.0744 14.8161 0.0000 0.0000 0.0000
# 3 28.8828 14.8161 92.1561 0.0000 0.0000 0.0000
# 4 0.0000 0.0000 0.0000 29.4276 0.0000 0.0000
# 5 0.0000 0.0000 0.0000 0.0000 26.2542 0.0000
# 6 0.0000 0.0000 0.0000 0.0000 0.0000 19.1659
#
#
#
# Elastic Compliance Matrix: (Units=1/GPa)
#
#
# Indices 1 2 3 4 5 6 
#
# 1 0.013209 -0.008996 -0.002693 0.000000 0.000000 0.000000
# 2 -0.008996 0.037681 -0.003238 0.000000 0.000000 0.000000
# 3 -0.002693 -0.003238 0.012216 0.000000 0.000000 0.000000
# 4 0.000000 0.000000 0.000000 0.033982 0.000000 0.000000
# 5 0.000000 0.000000 0.000000 0.000000 0.038089 0.000000
# 6 0.000000 0.000000 0.000000 0.000000 0.000000 0.052176
#
#
# Mechanical properties :
#
#
# Convention : Reuss Voigt Hill
#
# Bulk Modulus (GPa) = 30.07609 40.61629 35.34619
# Shear Modulus (GPa) = 21.90181 25.35377 23.62779
#
# Velocity S-wave (km/s) = 3.44396 3.70544 3.57709
# Velocity P-wave (km/s) = 5.66588 6.34844 6.01685
#
# Compressibility (1/GPa) = 0.03324900
#
# Stress axis : x y z
#
# Youngs Moduli (GPa) = 75.70727 26.53888 81.86013
#
# Poissons Ratio (x) = 0.23875 0.22049
# Poissons Ratio (y) = 0.68108 0.26510
# Poissons Ratio (z) = 0.20391 0.08594
#
# Static dielectric constant tensor:
#      x y z
#    x 3.320670 0.000000 0.000000 
#    y 0.000000 3.141830 0.000000 
#    z 0.000000 0.000000 3.512650 
# 
# 
# High freq. dielectric constant tensor:
#      x y z
#    x 1.696290 0.000000 0.000000 
#    y 0.000000 1.696800 0.000000 
#    z 0.000000 0.000000 1.730320 
# 
# From -- ./inp_files/970.got.cif
#   From: 2010.03.12/outbox.cif.g09.slc.cpg/sg31_1_cif.got.tgz:970.got - 2010.04.14 01:42:59.
