data_PCOD8170265
_publ_section_title
;
Structure prediction by ZEFSAII (Michael W. Deem and Ramdas Pophale) SiO2 
 PCOD8170265
Probable space group: P M N 21
;
_chemical_formula_sum "Si O2"
_cell_formula_units_Z 32
_cell_length_a 8.660735
_cell_length_b 16.239542
_cell_length_c 11.102980
_cell_angle_alpha 90.000000
_cell_angle_beta 90.000000
_cell_angle_gamma 90.000000
_cell_volume 1561.593831
_symmetry_space_group_name_H-M "P M N 21"
_symmetry_group_IT_number 31
_symmetry_cell_setting 'orthorhombic'
loop_
_space_group_symop_operation_xyz
x,y,z
1/2-x,-y,1/2+z
-x,y,z
1/2+x,-y,1/2+z
loop_
_atom_site_type_symbol
_atom_site_label
_atom_site_fract_x
_atom_site_fract_y
_atom_site_fract_z
Si Si1 0.180864 0.164799 0.916320
Si Si2 0.173121 0.168011 0.579663
Si Si3 0.818955 0.460194 0.687975
Si Si4 0.822767 0.026334 0.741638
Si Si5 0.680183 0.147948 0.168743
Si Si6 0.177797 0.710376 0.251161
Si Si7 0.818087 0.441617 0.414912
Si Si8 0.674856 0.740106 0.846452
O O1 0.250037 0.085790 0.843603
O O2 0.267859 0.248139 0.875757
O O3 0.000000 0.175486 0.890947
O O4 0.212976 0.151427 0.053928
O O5 0.202439 0.071947 0.611807
O O6 0.299243 0.223783 0.645627
O O7 0.187390 0.183881 0.438847
O O8 0.000000 0.192812 0.624833
O O9 0.783266 0.367559 0.724043
O O10 0.759097 0.475465 0.547500
O O11 0.747489 0.516755 0.793495
O O12 0.000000 0.475726 0.689668
O O13 0.000000 0.015656 0.774134
O O14 0.755987 0.933728 0.737872
O O15 0.500000 0.141168 0.135362
O O16 0.710341 0.232523 0.240687
O O17 0.000000 0.683076 0.260120
O O18 0.771400 0.345248 0.407045
O O19 0.000000 0.453667 0.411182
O O20 0.500000 0.731141 0.797643
#
# Coordination Sequence:
#
# PCOD8170265 Si02
#       8
#     4   4   4   4   4   4   4   4
#     4  10  21  40  60  81 116 161 206 248 304 372
#     4   9  17  36  62  84 113 156 200 240 289 355
#     4  11  23  42  67  95 128 167 205 256 319 383
#     4   8  18  35  57  83 115 154 197 248 300 355
#     4  11  23  37  55  87 125 156 199 259 312 361
#     4  11  21  36  62  92 118 149 195 249 303 358
#     4  10  23  43  65  93 127 163 214 265 312 377
#     4  10  21  39  62  85 118 164 204 245 301 369
#
# _framework density 20.491883000000001
#
# number of rings (size 3 to 8) (size 9 to 14) (size 15 to 20)
#    0.000    2.000    1.250    3.000    1.750    3.000 
#    0.000    8.125    0.000    0.000    0.000    0.000 
#    0.000    0.000    0.000    0.000    0.000    0.000 
#
# Total GULP energy -396472.236953 kJ/mol
# GULP energy per Si atom -12389.757405 kJ/mol
# Density = 2.044524 g / cm^3
# Si number density = 20.491883 Si / 1000 Ang^3
#
#
#
# Elastic Constant Matrix: (Units=GPa)
#
#
# Indices 1 2 3 4 5 6 
#
# 1 33.9015 18.1762 31.2979 0.0000 0.0000 0.0000
# 2 18.1762 83.1254 52.6929 0.0000 0.0000 0.0000
# 3 31.2979 52.6929 135.3604 0.0000 0.0000 0.0000
# 4 0.0000 0.0000 0.0000 29.9039 0.0000 0.0000
# 5 0.0000 0.0000 0.0000 0.0000 29.2770 0.0000
# 6 0.0000 0.0000 0.0000 0.0000 0.0000 27.3516
#
#
#
# Elastic Compliance Matrix: (Units=1/GPa)
#
#
# Indices 1 2 3 4 5 6 
#
# 1 0.038327 -0.003668 -0.007434 0.000000 0.000000 0.000000
# 2 -0.003668 0.016322 -0.005506 0.000000 0.000000 0.000000
# 3 -0.007434 -0.005506 0.011250 0.000000 0.000000 0.000000
# 4 0.000000 0.000000 0.000000 0.033440 0.000000 0.000000
# 5 0.000000 0.000000 0.000000 0.000000 0.034157 0.000000
# 6 0.000000 0.000000 0.000000 0.000000 0.000000 0.036561
#
#
# Mechanical properties :
#
#
# Convention : Reuss Voigt Hill
#
# Bulk Modulus (GPa) = 30.59678 50.74680 40.67179
# Shear Modulus (GPa) = 23.34628 27.32119 25.33373
#
# Velocity S-wave (km/s) = 3.37900 3.65536 3.51989
# Velocity P-wave (km/s) = 5.49428 6.52944 6.03410
#
# Compressibility (1/GPa) = 0.03268318
#
# Stress axis : x y z
#
# Youngs Moduli (GPa) = 26.09131 61.26642 88.89029
#
# Poissons Ratio (x) = 0.22474 0.66081
# Poissons Ratio (y) = 0.09571 0.48940
# Poissons Ratio (z) = 0.19396 0.33732
#
# Static dielectric constant tensor:
#      x y z
#    x 3.471070 0.000000 0.000000 
#    y 0.000000 3.823130 0.000000 
#    z 0.000000 0.000000 3.839780 
# 
# 
# High freq. dielectric constant tensor:
#      x y z
#    x 1.781360 0.000000 0.000000 
#    y 0.000000 1.798120 0.000000 
#    z 0.000000 0.000000 1.803150 
# 
# From -- ./inp_files/3594.got.cif
#   From: 2010.03.12/outbox.cif.g09.slc.cpg/sg31_2_cif.got.tgz:3594.got - 2010.04.14 01:42:59.
