data_PCOD8170189
_publ_section_title
;
Structure prediction by ZEFSAII (Michael W. Deem and Ramdas Pophale) SiO2 
 PCOD8170189
Probable space group: P M N 21
;
_chemical_formula_sum "Si O2"
_cell_formula_units_Z 32
_cell_length_a 8.660161
_cell_length_b 11.969430
_cell_length_c 15.057470
_cell_angle_alpha 90.000000
_cell_angle_beta 90.000000
_cell_angle_gamma 90.000000
_cell_volume 1560.815042
_symmetry_space_group_name_H-M "P M N 21"
_symmetry_group_IT_number 31
_symmetry_cell_setting 'orthorhombic'
loop_
_space_group_symop_operation_xyz
x,y,z
1/2-x,-y,1/2+z
-x,y,z
1/2+x,-y,1/2+z
loop_
_atom_site_type_symbol
_atom_site_label
_atom_site_fract_x
_atom_site_fract_y
_atom_site_fract_z
Si Si1 0.674386 0.247618 0.653660
Si Si2 0.683468 0.647267 0.530943
Si Si3 0.820454 0.514588 0.878746
Si Si4 0.817608 0.506340 0.189240
Si Si5 0.820262 0.026014 0.696186
Si Si6 0.322346 0.961051 0.874969
Si Si7 0.818033 0.097080 0.029286
Si Si8 0.828814 0.754318 0.948004
O O1 0.500000 0.239649 0.692240
O O2 0.747303 0.369703 0.670019
O O3 0.783233 0.157782 0.701392
O O4 0.672828 0.217720 0.550930
O O5 0.500000 0.641577 0.533033
O O6 0.740438 0.587899 0.439731
O O7 0.750528 0.582065 0.617499
O O8 0.741105 0.774877 0.531981
O O9 0.727116 0.527619 0.788160
O O10 0.786894 0.625393 0.935083
O O11 0.000000 0.499778 0.855745
O O12 0.000000 0.508577 0.178328
O O13 0.000000 0.006985 0.712324
O O14 0.723149 0.966584 0.772491
O O15 0.772097 0.973168 0.602730
O O16 0.500000 0.992486 0.888787
O O17 0.296032 0.832378 0.901083
O O18 0.218897 0.045392 0.933128
O O19 0.000000 0.089242 0.047334
O O20 0.000000 0.779554 0.909205
#
# Coordination Sequence:
#
# PCOD8170189 Si02
#       8
#     4   4   4   4   4   4   4   4
#     4  10  20  39  66  90 121 161 205 257 314 369
#     4   9  20  40  63  86 122 165 200 239 304 373
#     4  10  21  39  62  92 123 161 204 250 304 365
#     4  10  21  39  62  92 123 161 204 250 304 365
#     4  12  26  43  64  92 125 164 211 260 314 374
#     4  12  26  43  64  92 125 164 211 260 314 374
#     4  11  23  42  65  92 128 167 206 255 312 373
#     4  10  20  39  66  90 121 161 205 257 314 369
#
# _framework density 20.502109000000001
#
# number of rings (size 3 to 8) (size 9 to 14) (size 15 to 20)
#    0.000    1.500    2.500    2.625    3.500    1.000 
#    0.000    1.875    0.000    0.000    0.000    0.000 
#    0.000    0.000    0.000    0.000    0.000    0.000 
#
# Total GULP energy -396887.377271 kJ/mol
# GULP energy per Si atom -12402.730540 kJ/mol
# Density = 2.045545 g / cm^3
# Si number density = 20.502109 Si / 1000 Ang^3
#
#
#
# Elastic Constant Matrix: (Units=GPa)
#
#
# Indices 1 2 3 4 5 6 
#
# 1 52.8791 27.5362 8.6856 0.0000 0.0000 0.0000
# 2 27.5362 106.4889 8.6111 0.0000 0.0000 0.0000
# 3 8.6856 8.6111 72.9464 0.0000 0.0000 0.0000
# 4 0.0000 0.0000 0.0000 32.4725 0.0000 0.0000
# 5 0.0000 0.0000 0.0000 0.0000 24.3061 0.0000
# 6 0.0000 0.0000 0.0000 0.0000 0.0000 21.4718
#
#
#
# Elastic Compliance Matrix: (Units=1/GPa)
#
#
# Indices 1 2 3 4 5 6 
#
# 1 0.022133 -0.005563 -0.001979 0.000000 0.000000 0.000000
# 2 -0.005563 0.010879 -0.000622 0.000000 0.000000 0.000000
# 3 -0.001979 -0.000622 0.014018 0.000000 0.000000 0.000000
# 4 0.000000 0.000000 0.000000 0.030795 0.000000 0.000000
# 5 0.000000 0.000000 0.000000 0.000000 0.041142 0.000000
# 6 0.000000 0.000000 0.000000 0.000000 0.000000 0.046573
#
#
# Mechanical properties :
#
#
# Convention : Reuss Voigt Hill
#
# Bulk Modulus (GPa) = 32.57035 35.77557 34.17296
# Shear Modulus (GPa) = 26.02785 28.14885 27.08835
#
# Velocity S-wave (km/s) = 3.56690 3.70939 3.63884
# Velocity P-wave (km/s) = 5.73450 5.98612 5.86166
#
# Compressibility (1/GPa) = 0.03070277
#
# Stress axis : x y z
#
# Youngs Moduli (GPa) = 45.18131 91.91603 71.33834
#
# Poissons Ratio (x) = 0.51135 0.14115
# Poissons Ratio (y) = 0.25135 0.04436
# Poissons Ratio (z) = 0.08940 0.05716
#
# Static dielectric constant tensor:
#      x y z
#    x 3.479570 0.000000 0.000000 
#    y 0.000000 3.966620 0.000000 
#    z 0.000000 0.000000 3.675370 
# 
# 
# High freq. dielectric constant tensor:
#      x y z
#    x 1.776970 0.000000 0.000000 
#    y 0.000000 1.815870 0.000000 
#    z 0.000000 0.000000 1.805390 
# 
# From -- ./inp_files/4980.got.cif
#   From: 2010.03.12/outbox.cif.g09.slc.cpg/sg31_3_cif.got.tgz:4980.got - 2010.04.14 01:42:59.
