data_PCOD8170856
_publ_section_title
;
Structure prediction by ZEFSAII (Michael W. Deem and Ramdas Pophale) SiO2 
 PCOD8170856
Probable space group: P N A 21
;
_chemical_formula_sum "Si O2"
_cell_formula_units_Z 28
_cell_length_a 10.049849
_cell_length_b 26.747365
_cell_length_c 4.930882
_cell_angle_alpha 90.000000
_cell_angle_beta 90.000000
_cell_angle_gamma 90.000000
_cell_volume 1325.455496
_symmetry_space_group_name_H-M "P N A 21"
_symmetry_group_IT_number 33
_symmetry_cell_setting 'orthorhombic'
loop_
_space_group_symop_operation_xyz
x,y,z
-x,-y,1/2+z
1/2-x,1/2+y,1/2+z
1/2+x,1/2-y,z
loop_
_atom_site_type_symbol
_atom_site_label
_atom_site_fract_x
_atom_site_fract_y
_atom_site_fract_z
Si Si1 0.440785 0.629643 0.492230
Si Si2 0.517314 0.065620 0.848735
Si Si3 0.315540 0.219064 0.548679
Si Si4 0.019970 0.194842 0.486696
Si Si5 0.658601 0.027773 0.342944
Si Si6 0.545559 0.526714 0.718129
Si Si7 0.648132 0.845632 0.542858
O O1 0.489252 0.673891 0.685334
O O2 0.509136 0.578305 0.573989
O O3 0.282341 0.621855 0.515815
O O4 0.481949 0.647430 0.190988
O O5 0.579612 0.064832 0.547686
O O6 0.474701 0.120592 0.945181
O O7 0.391306 0.028912 0.880041
O O8 0.634703 0.046719 0.040256
O O9 0.156429 0.226838 0.515900
O O10 0.390090 0.271207 0.513937
O O11 0.345072 0.202786 0.853955
O O12 0.369190 0.175398 0.347390
O O13 0.815880 0.028752 0.381246
O O14 0.553575 0.487034 0.467926
#
# Coordination Sequence:
#
# PCOD8170856 Si02
#       7
#     4   4   4   4   4   4   4
#     4  10  22  39  62  87 121 156 196 246 301 352
#     4  10  20  38  58  83 121 156 195 247 297 343
#     4  10  21  38  61  87 116 151 202 242 305 359
#     4  10  21  41  60  87 121 157 197 253 301 365
#     4  10  22  37  57  85 123 159 195 247 297 350
#     4  12  24  40  62  90 121 159 208 243 298 365
#     4  10  20  37  62  87 111 154 203 236 291 368
#
# _framework density 21.124811999999999
#
# number of rings (size 3 to 8) (size 9 to 14) (size 15 to 20)
#    0.000    1.714    0.000    4.286    0.000    4.571 
#    7.714    0.000    0.000    0.000    0.000    0.000 
#    0.000    0.000    0.000    0.000    0.000    0.000 
#
# Total GULP energy -347216.131115 kJ/mol
# GULP energy per Si atom -12400.576111 kJ/mol
# Density = 2.107673 g / cm^3
# Si number density = 21.124812 Si / 1000 Ang^3
#
#
#
# Elastic Constant Matrix: (Units=GPa)
#
#
# Indices 1 2 3 4 5 6 
#
# 1 86.2246 39.1079 19.7145 0.0000 0.0000 0.0000
# 2 39.1079 60.8355 4.0971 0.0000 0.0000 0.0000
# 3 19.7145 4.0971 79.9024 0.0000 0.0000 0.0000
# 4 0.0000 0.0000 0.0000 12.6050 0.0000 0.0000
# 5 0.0000 0.0000 0.0000 0.0000 24.7225 0.0000
# 6 0.0000 0.0000 0.0000 0.0000 0.0000 19.9669
#
#
#
# Elastic Compliance Matrix: (Units=1/GPa)
#
#
# Indices 1 2 3 4 5 6 
#
# 1 0.017415 -0.010944 -0.003736 0.000000 0.000000 0.000000
# 2 -0.010944 0.023372 0.001502 0.000000 0.000000 0.000000
# 3 -0.003736 0.001502 0.013360 0.000000 0.000000 0.000000
# 4 0.000000 0.000000 0.000000 0.079334 0.000000 0.000000
# 5 0.000000 0.000000 0.000000 0.000000 0.040449 0.000000
# 6 0.000000 0.000000 0.000000 0.000000 0.000000 0.050083
#
#
# Mechanical properties :
#
#
# Convention : Reuss Voigt Hill
#
# Bulk Modulus (GPa) = 35.98214 39.20016 37.59115
# Shear Modulus (GPa) = 19.25797 22.39508 20.82652
#
# Velocity S-wave (km/s) = 3.02259 3.25950 3.14328
# Velocity P-wave (km/s) = 5.40847 5.72385 5.56839
#
# Compressibility (1/GPa) = 0.02779157
#
# Stress axis : x y z
#
# Youngs Moduli (GPa) = 57.42022 42.78643 74.85031
#
# Poissons Ratio (x) = 0.46825 0.27962
# Poissons Ratio (y) = 0.62840 -0.11241
# Poissons Ratio (z) = 0.21451 -0.06426
#
# Static dielectric constant tensor:
#      x y z
#    x 3.701330 0.000000 0.000000 
#    y 0.000000 3.442310 0.000000 
#    z 0.000000 0.000000 4.054150 
# 
# 
# High freq. dielectric constant tensor:
#      x y z
#    x 1.816400 0.000000 0.000000 
#    y 0.000000 1.809690 0.000000 
#    z 0.000000 0.000000 1.850570 
# 
# From -- ./inp_files/482.got.cif
#   From: 2010.03.12/outbox.cif.g09.slc.cpg/sg33_1_cif.got.tgz:482.got - 2010.04.14 01:49:19.
