data_PCOD8170871
_publ_section_title
;
Structure prediction by ZEFSAII (Michael W. Deem and Ramdas Pophale) SiO2 
 PCOD8170871
Probable space group: P N A 21
;
_chemical_formula_sum "Si O2"
_cell_formula_units_Z 32
_cell_length_a 9.203277
_cell_length_b 23.621518
_cell_length_c 7.662790
_cell_angle_alpha 90.000000
_cell_angle_beta 90.000000
_cell_angle_gamma 90.000000
_cell_volume 1665.855093
_symmetry_space_group_name_H-M "P N A 21"
_symmetry_group_IT_number 33
_symmetry_cell_setting 'orthorhombic'
loop_
_space_group_symop_operation_xyz
x,y,z
-x,-y,1/2+z
1/2-x,1/2+y,1/2+z
1/2+x,1/2-y,z
loop_
_atom_site_type_symbol
_atom_site_label
_atom_site_fract_x
_atom_site_fract_y
_atom_site_fract_z
Si Si1 0.666886 0.882190 0.035020
Si Si2 0.664816 0.488352 0.639020
Si Si3 0.648437 0.800481 0.341611
Si Si4 0.835184 0.988352 0.544202
Si Si5 0.163147 0.400636 0.139779
Si Si6 0.163147 0.400636 0.543444
Si Si7 0.333114 0.117810 0.148203
Si Si8 0.810564 0.684204 0.341611
O O1 0.707097 0.833113 0.170965
O O2 0.508428 0.907925 0.077438
O O3 0.782921 0.932659 0.038857
O O4 0.669793 0.855153 0.841611
O O5 0.684919 0.476407 0.841611
O O6 0.500000 0.500000 0.591611
O O7 0.761788 0.541383 0.580278
O O8 0.707097 0.833112 0.512258
O O9 0.706567 0.737511 0.341611
O O10 0.475800 0.795425 0.341612
O O11 0.782920 0.932659 0.644365
O O12 0.738213 0.041383 0.602945
O O13 0.198552 0.385760 0.341611
O O14 0.991572 0.407924 0.105784
O O15 0.225107 0.351243 0.016392
O O16 0.225107 0.351243 0.666831
#
# Coordination Sequence:
#
# PCOD8170871 Si02
#       8
#     4   4   4   4   4   4   4   4
#     4  10  20  38  60  82 113 151 191 235 282 339
#     4  11  22  35  54  87 122 149 187 235 290 343
#     4  10  22  40  56  88 110 152 197 234 279 342
#     4  11  22  35  54  87 122 149 187 235 290 343
#     4   9  21  38  58  84 112 150 194 233 281 343
#     4   9  21  38  58  84 112 150 194 233 281 343
#     4  10  20  38  60  82 113 151 191 235 282 339
#     4  10  22  38  62  80 116 152 195 236 283 336
#
# _framework density 19.209353
#
# number of rings (size 3 to 8) (size 9 to 14) (size 15 to 20)
#    0.000    2.000    1.250    1.500    3.500    3.000 
#    0.000    0.000    0.000    0.000    0.000    0.000 
#    0.000    0.000    0.000    0.000    0.000    0.000 
#
# Total GULP energy -396918.923975 kJ/mol
# GULP energy per Si atom -12403.716374 kJ/mol
# Density = 1.916563 g / cm^3
# Si number density = 19.209353 Si / 1000 Ang^3
#
#
#
# Elastic Constant Matrix: (Units=GPa)
#
#
# Indices 1 2 3 4 5 6 
#
# 1 32.3019 0.7669 10.3073 0.0000 0.0000 0.0000
# 2 0.7669 65.8324 34.7747 0.0000 0.0000 0.0000
# 3 10.3073 34.7747 101.6811 0.0000 0.0000 0.0000
# 4 0.0000 0.0000 0.0000 28.7670 0.0000 0.0000
# 5 0.0000 0.0000 0.0000 0.0000 20.8725 0.0000
# 6 0.0000 0.0000 0.0000 0.0000 0.0000 39.1380
#
#
#
# Elastic Compliance Matrix: (Units=1/GPa)
#
#
# Indices 1 2 3 4 5 6 
#
# 1 0.032138 0.001643 -0.003820 0.000000 0.000000 0.000000
# 2 0.001643 0.018623 -0.006536 0.000000 0.000000 0.000000
# 3 -0.003820 -0.006536 0.012457 0.000000 0.000000 0.000000
# 4 0.000000 0.000000 0.000000 0.034762 0.000000 0.000000
# 5 0.000000 0.000000 0.000000 0.000000 0.047910 0.000000
# 6 0.000000 0.000000 0.000000 0.000000 0.000000 0.025551
#
#
# Mechanical properties :
#
#
# Convention : Reuss Voigt Hill
#
# Bulk Modulus (GPa) = 21.83699 32.39035 27.11367
# Shear Modulus (GPa) = 24.49423 28.01993 26.25708
#
# Velocity S-wave (km/s) = 3.57476 3.82338 3.70116
# Velocity P-wave (km/s) = 5.33208 6.03236 5.69300
#
# Compressibility (1/GPa) = 0.04579385
#
# Stress axis : x y z
#
# Youngs Moduli (GPa) = 31.11601 53.69615 80.27571
#
# Poissons Ratio (x) = -0.08824 0.30664
# Poissons Ratio (y) = -0.05113 0.52466
# Poissons Ratio (z) = 0.11886 0.35094
#
# Static dielectric constant tensor:
#      x y z
#    x 3.392250 0.000000 0.000000 
#    y 0.000000 3.296750 0.000000 
#    z 0.000000 0.000000 3.823140 
# 
# 
# High freq. dielectric constant tensor:
#      x y z
#    x 1.741000 0.000000 0.000000 
#    y 0.000000 1.733670 0.000000 
#    z 0.000000 0.000000 1.765970 
# 
# From -- ./inp_files/3580.got.cif
#   From: 2010.03.12/outbox.cif.g09.slc.cpg/sg33_2_cif.got.tgz:3580.got - 2010.04.14 01:49:19.
