data_PCOD8170526
_publ_section_title
;
Structure prediction by ZEFSAII (Michael W. Deem and Ramdas Pophale) SiO2 
 PCOD8170526
Probable space group: P B A 2
;
_chemical_formula_sum "Si O2"
_cell_formula_units_Z 30
_cell_length_a 14.984913
_cell_length_b 8.528559
_cell_length_c 11.405008
_cell_angle_alpha 90.000000
_cell_angle_beta 90.000000
_cell_angle_gamma 90.000000
_cell_volume 1457.556768
_symmetry_space_group_name_H-M "P B A 2"
_symmetry_group_IT_number 32
_symmetry_cell_setting 'orthorhombic'
loop_
_space_group_symop_operation_xyz
x,y,z
-x,-y,z
1/2-x,1/2+y,z
1/2+x,1/2-y,z
loop_
_atom_site_type_symbol
_atom_site_label
_atom_site_fract_x
_atom_site_fract_y
_atom_site_fract_z
Si Si1 0.647417 0.299478 0.935740
Si Si2 0.037701 0.662115 0.971090
Si Si3 0.723684 0.569098 0.798211
Si Si4 0.029728 0.334252 0.324391
Si Si5 0.133342 0.645911 0.729192
Si Si6 0.870595 0.200021 0.198341
Si Si7 0.500000 0.000000 0.548018
Si Si8 0.814296 0.839696 0.198216
O O1 0.542125 0.269642 0.921824
O O2 0.666189 0.477394 0.895759
O O3 0.705039 0.181798 0.859040
O O4 0.675124 0.271723 0.068821
O O5 0.099893 0.615128 0.861904
O O6 0.000000 0.500000 0.025522
O O7 0.092928 0.755667 0.069248
O O8 0.775802 0.452196 0.712284
O O9 0.655708 0.669669 0.717736
O O10 0.042762 0.365403 0.464283
O O11 0.122455 0.264988 0.280001
O O12 0.000000 0.500000 0.263725
O O13 0.949159 0.214982 0.294390
O O14 0.067859 0.592627 0.628852
O O15 0.788601 0.313109 0.235308
O O16 0.838582 0.021421 0.202479
#
# Coordination Sequence:
#
# PCOD8170526 Si02
#       8
#     4   4   4   4   4   4   2   4
#     4  11  21  37  59 102 140 172 211 268 335 424
#     4  12  23  36  69  96 141 181 214 268 353 408
#     4  10  22  37  65  99 134 168 219 268 339 414
#     4  10  24  45  67  91 130 174 228 282 329 395
#     4  11  21  44  65  93 130 172 215 277 334 399
#     4  12  25  41  65 102 131 174 219 277 343 421
#     4  10  24  48  70  88 128 178 232 282 332 388
#     4  12  24  40  67  95 139 176 217 278 346 402
#
# _framework density 20.582388000000002
#
# number of rings (size 3 to 8) (size 9 to 14) (size 15 to 20)
#    0.400    0.533    3.333    4.800    1.867    1.600 
#    2.400    0.000   14.667    0.000    0.000    0.000 
#    0.000    0.000    0.000    0.000    0.000    0.000 
#
# Total GULP energy -371930.525951 kJ/mol
# GULP energy per Si atom -12397.684198 kJ/mol
# Density = 2.053554 g / cm^3
# Si number density = 20.582388 Si / 1000 Ang^3
#
#
#
# Elastic Constant Matrix: (Units=GPa)
#
#
# Indices 1 2 3 4 5 6 
#
# 1 134.9878 54.9821 40.4544 0.0000 0.0000 0.0000
# 2 54.9821 112.6196 40.8501 0.0000 0.0000 0.0000
# 3 40.4544 40.8501 104.5731 0.0000 0.0000 0.0000
# 4 0.0000 0.0000 0.0000 142.7892 0.0000 0.0000
# 5 0.0000 0.0000 0.0000 0.0000 5.4837 0.0000
# 6 0.0000 0.0000 0.0000 0.0000 0.0000 38.2103
#
#
#
# Elastic Compliance Matrix: (Units=1/GPa)
#
#
# Indices 1 2 3 4 5 6 
#
# 1 0.009666 -0.003918 -0.002209 0.000000 0.000000 0.000000
# 2 -0.003918 0.011933 -0.003146 0.000000 0.000000 0.000000
# 3 -0.002209 -0.003146 0.011646 0.000000 0.000000 0.000000
# 4 0.000000 0.000000 0.000000 0.007003 0.000000 0.000000
# 5 0.000000 0.000000 0.000000 0.000000 0.182358 0.000000
# 6 0.000000 0.000000 0.000000 0.000000 0.000000 0.026171
#
#
# Mechanical properties :
#
#
# Convention : Reuss Voigt Hill
#
# Bulk Modulus (GPa) = 68.02689 69.41708 68.72198
# Shear Modulus (GPa) = 18.36733 51.68957 35.02845
#
# Velocity S-wave (km/s) = 2.99051 5.01677 4.12984
# Velocity P-wave (km/s) = 6.71171 8.20713 7.49680
#
# Compressibility (1/GPa) = 0.01470007
#
# Stress axis : x y z
#
# Youngs Moduli (GPa) = 103.45786 83.79941 85.86556
#
# Poissons Ratio (x) = 0.32830 0.18966
# Poissons Ratio (y) = 0.40532 0.27013
# Poissons Ratio (z) = 0.22852 0.26363
#
# Static dielectric constant tensor:
#      x y z
#    x 4.013370 0.000000 0.000000 
#    y 0.000000 3.953060 0.000000 
#    z 0.000000 0.000000 3.395230 
# 
# 
# High freq. dielectric constant tensor:
#      x y z
#    x 1.818260 0.000000 0.000000 
#    y 0.000000 1.819610 0.000000 
#    z 0.000000 0.000000 1.767580 
# 
# From -- ./inp_files/3933.got.cif
#   From: 2010.03.12/outbox.cif.g09.slc.cpg/sg32_2_cif.got.tgz:3933.got - 2010.04.14 01:46:39.
