data_PCOD8170760
_publ_section_title
;
Structure prediction by ZEFSAII (Michael W. Deem and Ramdas Pophale) SiO2 
 PCOD8170760
Probable space group: P N A 21
;
_chemical_formula_sum "Si O2"
_cell_formula_units_Z 28
_cell_length_a 5.161925
_cell_length_b 21.635312
_cell_length_c 8.674678
_cell_angle_alpha 90.000000
_cell_angle_beta 90.000000
_cell_angle_gamma 90.000000
_cell_volume 968.786806
_symmetry_space_group_name_H-M "P N A 21"
_symmetry_group_IT_number 33
_symmetry_cell_setting 'orthorhombic'
loop_
_space_group_symop_operation_xyz
x,y,z
-x,-y,1/2+z
1/2-x,1/2+y,1/2+z
1/2+x,1/2-y,z
loop_
_atom_site_type_symbol
_atom_site_label
_atom_site_fract_x
_atom_site_fract_y
_atom_site_fract_z
Si Si1 0.363627 0.282479 0.096860
Si Si2 0.230476 0.802527 0.935983
Si Si3 0.859728 0.583082 0.540296
Si Si4 0.286592 0.721937 0.221331
Si Si5 0.464621 0.920383 0.874609
Si Si6 0.377497 0.598814 0.106781
Si Si7 0.638438 0.468162 0.903441
O O1 0.159061 0.229463 0.037236
O O2 0.415119 0.277557 0.283759
O O3 0.238026 0.346327 0.042423
O O4 0.460781 0.845854 0.870925
O O5 0.362928 0.749789 0.045814
O O6 0.094858 0.856303 0.038243
O O7 0.996771 0.559413 0.697632
O O8 0.591701 0.546087 0.520392
O O9 0.087741 0.569454 0.418505
O O10 0.564064 0.736626 0.304769
O O11 0.208574 0.650444 0.206670
O O12 0.205433 0.958636 0.931081
O O13 0.708521 0.938862 0.980237
O O14 0.471859 0.548963 0.233093
#
# Coordination Sequence:
#
# PCOD8170760 Si02
#       7
#     4   4   4   4   4   4   4
#     4  11  23  43  76 107 147 192 248 312 375 456
#     4  10  23  38  72 110 141 181 259 317 368 426
#     4  11  29  50  72 114 148 202 248 313 381 460
#     4  10  19  37  62 103 133 166 231 309 353 415
#     4  11  26  45  79 103 144 198 270 304 372 440
#     4  11  25  44  73 108 143 198 244 314 374 455
#     4  12  29  49  72 105 162 199 248 313 387 460
#
# _framework density 28.902131000000001
#
# number of rings (size 3 to 8) (size 9 to 14) (size 15 to 20)
#    0.000    1.143    1.429    3.429   16.000    0.000 
#    0.000    8.571    0.000    0.000    0.000    0.000 
#    0.000    0.000    0.000    0.000    0.000    0.000 
#
# Total GULP energy -346959.466967 kJ/mol
# GULP energy per Si atom -12391.409535 kJ/mol
# Density = 2.883635 g / cm^3
# Si number density = 28.902131 Si / 1000 Ang^3
#
#
#
# Elastic Constant Matrix: (Units=GPa)
#
#
# Indices 1 2 3 4 5 6 
#
# 1 143.9559 19.7818 16.1195 0.0000 0.0000 0.0000
# 2 19.7818 127.1832 10.9749 0.0000 0.0000 0.0000
# 3 16.1195 10.9749 36.1437 0.0000 0.0000 0.0000
# 4 0.0000 0.0000 0.0000 40.5687 0.0000 0.0000
# 5 0.0000 0.0000 0.0000 0.0000 36.9159 0.0000
# 6 0.0000 0.0000 0.0000 0.0000 0.0000 44.5620
#
#
#
# Elastic Compliance Matrix: (Units=1/GPa)
#
#
# Indices 1 2 3 4 5 6 
#
# 1 0.007409 -0.000891 -0.003034 0.000000 0.000000 0.000000
# 2 -0.000891 0.008181 -0.002087 0.000000 0.000000 0.000000
# 3 -0.003034 -0.002087 0.029654 0.000000 0.000000 0.000000
# 4 0.000000 0.000000 0.000000 0.024650 0.000000 0.000000
# 5 0.000000 0.000000 0.000000 0.000000 0.027089 0.000000
# 6 0.000000 0.000000 0.000000 0.000000 0.000000 0.022441
#
#
# Mechanical properties :
#
#
# Convention : Reuss Voigt Hill
#
# Bulk Modulus (GPa) = 30.10111 44.55948 37.33030
# Shear Modulus (GPa) = 35.08297 41.76975 38.42636
#
# Velocity S-wave (km/s) = 3.48782 3.80572 3.65023
# Velocity P-wave (km/s) = 5.16307 5.89595 5.54164
#
# Compressibility (1/GPa) = 0.03322137
#
# Stress axis : x y z
#
# Youngs Moduli (GPa) = 134.97734 122.23024 33.72215
#
# Poissons Ratio (x) = 0.10885 0.10230
# Poissons Ratio (y) = 0.12020 0.07038
# Poissons Ratio (z) = 0.40949 0.25510
#
# Static dielectric constant tensor:
#      x y z
#    x 5.127100 0.000000 0.000000 
#    y 0.000000 5.846640 0.000000 
#    z 0.000000 0.000000 5.551970 
# 
# 
# High freq. dielectric constant tensor:
#      x y z
#    x 2.177270 0.000000 0.000000 
#    y 0.000000 2.188580 0.000000 
#    z 0.000000 0.000000 2.190560 
# 
# From -- ./inp_files/2724.got.cif
#   From: 2010.03.12/outbox.cif.g09.slc.cpg/sg33_2_cif.got.tgz:2724.got - 2010.04.14 01:49:19.
