data_PCOD8170523
_publ_section_title
;
Structure prediction by ZEFSAII (Michael W. Deem and Ramdas Pophale) SiO2 
 PCOD8170523
Probable space group: P B A 2
;
_chemical_formula_sum "Si O2"
_cell_formula_units_Z 30
_cell_length_a 18.978121
_cell_length_b 12.732831
_cell_length_c 6.800391
_cell_angle_alpha 90.000000
_cell_angle_beta 90.000000
_cell_angle_gamma 90.000000
_cell_volume 1643.281894
_symmetry_space_group_name_H-M "P B A 2"
_symmetry_group_IT_number 32
_symmetry_cell_setting 'orthorhombic'
loop_
_space_group_symop_operation_xyz
x,y,z
-x,-y,z
1/2-x,1/2+y,z
1/2+x,1/2-y,z
loop_
_atom_site_type_symbol
_atom_site_label
_atom_site_fract_x
_atom_site_fract_y
_atom_site_fract_z
Si Si1 0.000000 0.500000 0.621220
Si Si2 0.337918 0.730977 0.868723
Si Si3 0.754168 0.965220 0.851597
Si Si4 0.270900 0.341686 0.128451
Si Si5 0.214448 0.377089 0.525844
Si Si6 0.401632 0.994728 0.295366
Si Si7 0.867570 0.333740 0.011954
Si Si8 0.030923 0.354924 0.953561
O O1 0.944643 0.448155 0.470361
O O2 0.955379 0.579255 0.755217
O O3 0.324316 0.606830 0.845166
O O4 0.312266 0.785225 0.667499
O O5 0.419545 0.753100 0.925534
O O6 0.294630 0.772967 0.054571
O O7 0.749522 0.030614 0.651887
O O8 0.684067 0.891187 0.855420
O O9 0.762686 0.041404 0.039878
O O10 0.272876 0.340067 0.366687
O O11 0.342358 0.284581 0.055853
O O12 0.151027 0.411850 0.386950
O O13 0.360404 0.090804 0.199477
O O14 0.449891 0.928583 0.139324
O O15 0.948836 0.324056 0.948182
#
# Coordination Sequence:
#
# PCOD8170523 Si02
#       8
#     2   4   4   4   4   4   4   4
#     4  12  20  32  54  84 122 138 168 236 294 340
#     4  10  22  36  58  84 114 149 188 235 290 341
#     4  10  22  40  56  84 115 151 193 239 285 337
#     4  10  22  38  56  83 115 149 194 235 278 344
#     4  11  20  35  58  85 113 145 191 236 286 342
#     4  12  20  33  56  86 117 143 180 232 294 341
#     4  11  21  37  57  84 115 152 186 235 293 346
#     4  12  21  37  54  88 117 146 189 230 293 357
#
# _framework density 18.256150999999999
#
# number of rings (size 3 to 8) (size 9 to 14) (size 15 to 20)
#    0.000    1.067    6.667    1.600    1.867    0.000 
#    2.400    0.667    0.000    0.000    0.000    0.000 
#    0.000    0.000    0.000    0.000    0.000    0.000 
#
# Total GULP energy -371739.149058 kJ/mol
# GULP energy per Si atom -12391.304969 kJ/mol
# Density = 1.821460 g / cm^3
# Si number density = 18.256151 Si / 1000 Ang^3
#
#
#
# Elastic Constant Matrix: (Units=GPa)
#
#
# Indices 1 2 3 4 5 6 
#
# 1 88.2997 38.5474 24.1469 0.0000 0.0000 0.0000
# 2 38.5474 79.1927 28.2156 0.0000 0.0000 0.0000
# 3 24.1469 28.2156 111.9883 0.0000 0.0000 0.0000
# 4 0.0000 0.0000 0.0000 11.2804 0.0000 0.0000
# 5 0.0000 0.0000 0.0000 0.0000 22.0681 0.0000
# 6 0.0000 0.0000 0.0000 0.0000 0.0000 34.3721
#
#
#
# Elastic Compliance Matrix: (Units=1/GPa)
#
#
# Indices 1 2 3 4 5 6 
#
# 1 0.014604 -0.006577 -0.001492 0.000000 0.000000 0.000000
# 2 -0.006577 0.016835 -0.002823 0.000000 0.000000 0.000000
# 3 -0.001492 -0.002823 0.009963 0.000000 0.000000 0.000000
# 4 0.000000 0.000000 0.000000 0.088649 0.000000 0.000000
# 5 0.000000 0.000000 0.000000 0.000000 0.045314 0.000000
# 6 0.000000 0.000000 0.000000 0.000000 0.000000 0.029093
#
#
# Mechanical properties :
#
#
# Convention : Reuss Voigt Hill
#
# Bulk Modulus (GPa) = 50.97658 51.25560 51.11609
# Shear Modulus (GPa) = 21.47928 26.11551 23.79739
#
# Velocity S-wave (km/s) = 3.43381 3.78630 3.61436
# Velocity P-wave (km/s) = 6.61097 6.87398 6.74376
#
# Compressibility (1/GPa) = 0.01961685
#
# Stress axis : x y z
#
# Youngs Moduli (GPa) = 68.47288 59.40058 100.37614
#
# Poissons Ratio (x) = 0.39069 0.14975
# Poissons Ratio (y) = 0.45036 0.28340
# Poissons Ratio (z) = 0.10215 0.16771
#
# Static dielectric constant tensor:
#      x y z
#    x 3.458380 0.000000 0.000000 
#    y 0.000000 3.272180 0.000000 
#    z 0.000000 0.000000 3.583380 
# 
# 
# High freq. dielectric constant tensor:
#      x y z
#    x 1.698320 0.000000 0.000000 
#    y 0.000000 1.680740 0.000000 
#    z 0.000000 0.000000 1.722460 
# 
# From -- ./inp_files/1022.got.cif
#   From: 2010.03.12/outbox.cif.g09.slc.cpg/sg32_1_cif.got.tgz:1022.got - 2010.04.14 01:46:39.
