data_PCOD8170565
_publ_section_title
;
Structure prediction by ZEFSAII (Michael W. Deem and Ramdas Pophale) SiO2 
 PCOD8170565
Probable space group: P B A 2
;
_chemical_formula_sum "Si O2"
_cell_formula_units_Z 24
_cell_length_a 14.659126
_cell_length_b 8.586759
_cell_length_c 8.534855
_cell_angle_alpha 90.000000
_cell_angle_beta 90.000000
_cell_angle_gamma 90.000000
_cell_volume 1074.319600
_symmetry_space_group_name_H-M "P B A 2"
_symmetry_group_IT_number 32
_symmetry_cell_setting 'orthorhombic'
loop_
_space_group_symop_operation_xyz
x,y,z
-x,-y,z
1/2-x,1/2+y,z
1/2+x,1/2-y,z
loop_
_atom_site_type_symbol
_atom_site_label
_atom_site_fract_x
_atom_site_fract_y
_atom_site_fract_z
Si Si1 0.000000 0.000000 0.969010
Si Si2 0.346914 0.792305 0.394244
Si Si3 0.848516 0.669513 0.748551
Si Si4 0.657299 0.538719 0.752808
Si Si5 0.992719 0.257923 0.189251
Si Si6 0.500000 0.000000 0.951798
Si Si7 0.154584 0.921094 0.397488
O O1 0.075488 0.907851 0.865925
O O2 0.955105 0.870699 0.082176
O O3 0.362080 0.867294 0.565216
O O4 0.430170 0.851303 0.287217
O O5 0.250616 0.857014 0.332799
O O6 0.349842 0.605882 0.381955
O O7 0.754319 0.598660 0.814521
O O8 0.929368 0.592146 0.844507
O O9 0.845842 0.853639 0.762052
O O10 0.639668 0.614360 0.581950
O O11 0.921826 0.171525 0.302450
O O12 0.946945 0.379818 0.067971
#
# Coordination Sequence:
#
# PCOD8170565 Si02
#       7
#     2   4   4   4   4   2   4
#     4  12  24  42  66 102 136 180 222 276 348 404
#     4  10  23  45  69  97 130 178 231 277 333 401
#     4  10  24  46  68  98 134 179 232 280 330 405
#     4  10  24  43  71  97 131 182 231 279 335 399
#     4  12  26  43  66 102 141 178 220 278 346 404
#     4  12  28  44  64 106 144 178 224 278 348 400
#     4  10  23  44  69  96 132 178 231 279 332 402
#
# _framework density 22.33972
#
# number of rings (size 3 to 8) (size 9 to 14) (size 15 to 20)
#    0.000    1.333    3.333    0.000    9.333    3.333 
#    6.000    0.000    0.000    0.000    0.000    0.000 
#    0.000    0.000    0.000    0.000    0.000    0.000 
#
# Total GULP energy -297463.328867 kJ/mol
# GULP energy per Si atom -12394.305369 kJ/mol
# Density = 2.228887 g / cm^3
# Si number density = 22.339720 Si / 1000 Ang^3
#
#
#
# Elastic Constant Matrix: (Units=GPa)
#
#
# Indices 1 2 3 4 5 6 
#
# 1 156.2822 43.2471 81.1443 0.0000 0.0000 0.0000
# 2 43.2471 68.2989 43.5091 0.0000 0.0000 0.0000
# 3 81.1443 43.5091 109.4822 0.0000 0.0000 0.0000
# 4 0.0000 0.0000 0.0000 42.3352 0.0000 0.0000
# 5 0.0000 0.0000 0.0000 0.0000 81.1534 0.0000
# 6 0.0000 0.0000 0.0000 0.0000 0.0000 33.9443
#
#
#
# Elastic Compliance Matrix: (Units=1/GPa)
#
#
# Indices 1 2 3 4 5 6 
#
# 1 0.010665 -0.002300 -0.006990 0.000000 0.000000 0.000000
# 2 -0.002300 0.020101 -0.006284 0.000000 0.000000 0.000000
# 3 -0.006990 -0.006284 0.016812 0.000000 0.000000 0.000000
# 4 0.000000 0.000000 0.000000 0.023621 0.000000 0.000000
# 5 0.000000 0.000000 0.000000 0.000000 0.012322 0.000000
# 6 0.000000 0.000000 0.000000 0.000000 0.000000 0.029460
#
#
# Mechanical properties :
#
#
# Convention : Reuss Voigt Hill
#
# Bulk Modulus (GPa) = 60.86468 74.42935 67.64702
# Shear Modulus (GPa) = 33.42148 42.56411 37.99279
#
# Velocity S-wave (km/s) = 3.87208 4.36972 4.12841
# Velocity P-wave (km/s) = 6.87713 7.67129 7.28504
#
# Compressibility (1/GPa) = 0.01642989
#
# Stress axis : x y z
#
# Youngs Moduli (GPa) = 93.76890 49.74958 59.48144
#
# Poissons Ratio (x) = 0.11441 0.41579
# Poissons Ratio (y) = 0.21565 0.37376
# Poissons Ratio (z) = 0.65546 0.31261
#
# Static dielectric constant tensor:
#      x y z
#    x -0.381280 0.000000 0.000000 
#    y 0.000000 4.116150 0.000000 
#    z 0.000000 0.000000 4.443190 
# 
# 
# High freq. dielectric constant tensor:
#      x y z
#    x 1.869200 0.000000 0.000000 
#    y 0.000000 1.887360 0.000000 
#    z 0.000000 0.000000 1.892940 
# 
# From -- ./inp_files/2347.got.cif
#   From: 2010.03.12/outbox.cif.g09.slc.cpg/sg32_2_cif.got.tgz:2347.got - 2010.04.14 01:46:39.
