data_PCOD8170848
_publ_section_title
;
Structure prediction by ZEFSAII (Michael W. Deem and Ramdas Pophale) SiO2 
 PCOD8170848
Probable space group: P N A 21
;
_chemical_formula_sum "Si O2"
_cell_formula_units_Z 28
_cell_length_a 13.556330
_cell_length_b 11.895362
_cell_length_c 9.129020
_cell_angle_alpha 90.000000
_cell_angle_beta 90.000000
_cell_angle_gamma 90.000000
_cell_volume 1472.122511
_symmetry_space_group_name_H-M "P N A 21"
_symmetry_group_IT_number 33
_symmetry_cell_setting 'orthorhombic'
loop_
_space_group_symop_operation_xyz
x,y,z
-x,-y,1/2+z
1/2-x,1/2+y,1/2+z
1/2+x,1/2-y,z
loop_
_atom_site_type_symbol
_atom_site_label
_atom_site_fract_x
_atom_site_fract_y
_atom_site_fract_z
Si Si1 0.741971 0.577920 0.178580
Si Si2 0.558464 0.225416 0.180634
Si Si3 0.264852 0.831482 0.486741
Si Si4 0.162279 0.663628 0.683335
Si Si5 0.129266 0.038735 0.547013
Si Si6 0.292919 0.761485 0.928732
Si Si7 0.960855 0.979981 0.738046
O O1 0.770020 0.662021 0.311056
O O2 0.799499 0.462090 0.201016
O O3 0.625636 0.557055 0.174234
O O4 0.769128 0.630836 0.024537
O O5 0.624118 0.175506 0.048883
O O6 0.455375 0.160501 0.180836
O O7 0.611355 0.204849 0.335519
O O8 0.543429 0.358519 0.160067
O O9 0.203958 0.720482 0.535041
O O10 0.210587 0.941345 0.550418
O O11 0.201401 0.735145 0.821710
O O12 0.186282 0.156029 0.534293
O O13 0.051820 0.025804 0.412807
O O14 0.065775 0.035733 0.696678
#
# Coordination Sequence:
#
# PCOD8170848 Si02
#       7
#     4   4   4   4   4   4   4
#     4  11  23  41  60  91 129 156 200 260 297 366
#     4  10  21  38  64  88 118 167 201 245 309 366
#     4  10  20  41  60  87 126 156 200 257 304 348
#     4  11  21  43  64  86 126 160 203 254 304 361
#     4  10  20  38  61  91 120 157 199 260 295 360
#     4  10  23  41  60  91 124 158 204 252 309 355
#     4  10  20  36  63  90 115 158 211 244 296 354
#
# _framework density 19.020154999999999
#
# number of rings (size 3 to 8) (size 9 to 14) (size 15 to 20)
#    0.000    1.714    7.143    0.000    4.000    2.286 
#    5.143    0.000    0.000    0.000    0.000    0.000 
#    0.000    0.000    0.000    0.000    0.000    0.000 
#
# Total GULP energy -347234.060571 kJ/mol
# GULP energy per Si atom -12401.216449 kJ/mol
# Density = 1.897686 g / cm^3
# Si number density = 19.020155 Si / 1000 Ang^3
#
#
#
# Elastic Constant Matrix: (Units=GPa)
#
#
# Indices 1 2 3 4 5 6 
#
# 1 103.4694 12.1751 23.7022 0.0000 0.0000 0.0000
# 2 12.1751 50.7714 33.9165 0.0000 0.0000 0.0000
# 3 23.7022 33.9165 68.0532 0.0000 0.0000 0.0000
# 4 0.0000 0.0000 0.0000 33.3029 0.0000 0.0000
# 5 0.0000 0.0000 0.0000 0.0000 31.1462 0.0000
# 6 0.0000 0.0000 0.0000 0.0000 0.0000 17.4931
#
#
#
# Elastic Compliance Matrix: (Units=1/GPa)
#
#
# Indices 1 2 3 4 5 6 
#
# 1 0.010503 -0.000112 -0.003602 0.000000 0.000000 0.000000
# 2 -0.000112 0.029528 -0.014677 0.000000 0.000000 0.000000
# 3 -0.003602 -0.014677 0.023264 0.000000 0.000000 0.000000
# 4 0.000000 0.000000 0.000000 0.030027 0.000000 0.000000
# 5 0.000000 0.000000 0.000000 0.000000 0.032107 0.000000
# 6 0.000000 0.000000 0.000000 0.000000 0.000000 0.057166
#
#
# Mechanical properties :
#
#
# Convention : Reuss Voigt Hill
#
# Bulk Modulus (GPa) = 37.71936 40.20907 38.96422
# Shear Modulus (GPa) = 21.90927 26.55511 24.23219
#
# Velocity S-wave (km/s) = 3.39764 3.74057 3.57322
# Velocity P-wave (km/s) = 5.93854 6.31205 6.12814
#
# Compressibility (1/GPa) = 0.02651158
#
# Stress axis : x y z
#
# Youngs Moduli (GPa) = 95.21034 33.86660 42.98546
#
# Poissons Ratio (x) = 0.00381 0.15484
# Poissons Ratio (y) = 0.01070 0.63089
# Poissons Ratio (z) = 0.34296 0.49706
#
# Static dielectric constant tensor:
#      x y z
#    x 3.529680 0.000000 0.000000 
#    y 0.000000 3.423840 0.000000 
#    z 0.000000 0.000000 3.455100 
# 
# 
# High freq. dielectric constant tensor:
#      x y z
#    x 1.741100 0.000000 0.000000 
#    y 0.000000 1.733860 0.000000 
#    z 0.000000 0.000000 1.732340 
# 
# From -- ./inp_files/4317.got.cif
#   From: 2010.03.12/outbox.cif.g09.slc.cpg/sg33_3_cif.got.tgz:4317.got - 2010.04.14 01:49:19.
