data_PCOD8170645
_publ_section_title
;
Structure prediction by ZEFSAII (Michael W. Deem and Ramdas Pophale) SiO2 
 PCOD8170645
Probable space group: P N A 21
;
_chemical_formula_sum "Si O2"
_cell_formula_units_Z 32
_cell_length_a 8.502506
_cell_length_b 9.594837
_cell_length_c 21.180075
_cell_angle_alpha 90.000000
_cell_angle_beta 90.000000
_cell_angle_gamma 90.000000
_cell_volume 1727.873890
_symmetry_space_group_name_H-M "P N A 21"
_symmetry_group_IT_number 33
_symmetry_cell_setting 'orthorhombic'
loop_
_space_group_symop_operation_xyz
x,y,z
-x,-y,1/2+z
1/2-x,1/2+y,1/2+z
1/2+x,1/2-y,z
loop_
_atom_site_type_symbol
_atom_site_label
_atom_site_fract_x
_atom_site_fract_y
_atom_site_fract_z
Si Si1 0.684453 0.628646 0.123770
Si Si2 0.818502 0.934026 0.124924
Si Si3 0.160096 0.369341 0.362155
Si Si4 0.160936 0.372399 0.751504
Si Si5 0.209735 0.569378 0.999582
Si Si6 0.796852 0.430187 0.360886
Si Si7 0.206733 0.568900 0.253894
Si Si8 0.153556 0.368522 0.501018
O O1 0.714042 0.793398 0.122132
O O2 0.501406 0.598482 0.128852
O O3 0.770352 0.567415 0.185787
O O4 0.752491 0.559112 0.059091
O O5 0.761356 0.009946 0.189153
O O6 0.772343 0.020402 0.060550
O O7 0.193646 0.207137 0.350522
O O8 0.248682 0.466145 0.311458
O O9 0.212695 0.422044 0.432243
O O10 0.975089 0.382426 0.354505
O O11 0.245363 0.455600 0.808406
O O12 0.192471 0.209234 0.761422
O O13 0.975539 0.393552 0.752094
O O14 0.232972 0.500120 0.930510
O O15 0.321774 0.703666 0.001655
O O16 0.029624 0.607107 0.010775
#
# Coordination Sequence:
#
# PCOD8170645 Si02
#       8
#     4   4   4   4   4   4   4   4
#     4  10  17  26  42  66  91 119 153 192 231 271
#     4  10  17  26  42  66  91 119 153 192 231 271
#     4   9  19  32  49  71  96 123 155 190 232 278
#     4  10  19  32  48  70  96 125 156 191 231 276
#     4   9  15  26  43  65  90 117 148 189 232 273
#     4   9  19  32  49  71  96 123 155 190 232 278
#     4  10  19  32  48  70  96 125 156 191 231 276
#     4   9  15  26  43  65  90 117 148 189 232 273
#
# _framework density 18.519870000000001
#
# number of rings (size 3 to 8) (size 9 to 14) (size 15 to 20)
#    0.000    2.500    0.000    6.750    0.000    3.000 
#    0.000    0.000    0.000    1.500    0.000    3.500 
#    0.000    0.000    0.000    0.000    0.000    0.000 
#
# Total GULP energy -396455.659130 kJ/mol
# GULP energy per Si atom -12389.239348 kJ/mol
# Density = 1.847772 g / cm^3
# Si number density = 18.519870 Si / 1000 Ang^3
#
#
#
# Elastic Constant Matrix: (Units=GPa)
#
#
# Indices 1 2 3 4 5 6 
#
# 1 37.5640 0.1727 21.7634 0.0000 0.0000 0.0000
# 2 0.1727 26.9132 35.5299 0.0000 0.0000 0.0000
# 3 21.7634 35.5299 192.2403 0.0000 0.0000 0.0000
# 4 0.0000 0.0000 0.0000 24.8300 0.0000 0.0000
# 5 0.0000 0.0000 0.0000 0.0000 29.7596 0.0000
# 6 0.0000 0.0000 0.0000 0.0000 0.0000 12.5296
#
#
#
# Elastic Compliance Matrix: (Units=1/GPa)
#
#
# Indices 1 2 3 4 5 6 
#
# 1 0.029094 0.005505 -0.004311 0.000000 0.000000 0.000000
# 2 0.005505 0.050190 -0.009899 0.000000 0.000000 0.000000
# 3 -0.004311 -0.009899 0.007519 0.000000 0.000000 0.000000
# 4 0.000000 0.000000 0.000000 0.040274 0.000000 0.000000
# 5 0.000000 0.000000 0.000000 0.000000 0.033603 0.000000
# 6 0.000000 0.000000 0.000000 0.000000 0.000000 0.079811
#
#
# Mechanical properties :
#
#
# Convention : Reuss Voigt Hill
#
# Bulk Modulus (GPa) = 14.41098 41.29439 27.85268
# Shear Modulus (GPa) = 17.79155 26.70729 22.24942
#
# Velocity S-wave (km/s) = 3.10284 3.80160 3.46985
# Velocity P-wave (km/s) = 4.54258 6.45099 5.57900
#
# Compressibility (1/GPa) = 0.06939155
#
# Stress axis : x y z
#
# Youngs Moduli (GPa) = 34.37181 19.92435 132.98826
#
# Poissons Ratio (x) = -0.10968 0.57332
# Poissons Ratio (y) = -0.18920 1.31649
# Poissons Ratio (z) = 0.14818 0.19724
#
# Static dielectric constant tensor:
#      x y z
#    x 3.362500 0.000000 0.000000 
#    y 0.000000 2.864650 0.000000 
#    z 0.000000 0.000000 4.708180 
# 
# 
# High freq. dielectric constant tensor:
#      x y z
#    x 1.729100 0.000000 0.000000 
#    y 0.000000 1.631590 0.000000 
#    z 0.000000 0.000000 1.758460 
# 
# From -- ./inp_files/8998.got.cif
#   From: 2010.03.12/outbox.cif.g09.slc.cpg/sg33_5_cif.got.tgz:8998.got - 2010.04.14 01:49:19.
