data_PCOD8170208
_publ_section_title
;
Structure prediction by ZEFSAII (Michael W. Deem and Ramdas Pophale) SiO2 
 PCOD8170208
Probable space group: P M N 21
;
_chemical_formula_sum "Si O2"
_cell_formula_units_Z 32
_cell_length_a 9.157294
_cell_length_b 19.574874
_cell_length_c 9.718430
_cell_angle_alpha 90.000000
_cell_angle_beta 90.000000
_cell_angle_gamma 90.000000
_cell_volume 1742.056530
_symmetry_space_group_name_H-M "P M N 21"
_symmetry_group_IT_number 31
_symmetry_cell_setting 'orthorhombic'
loop_
_space_group_symop_operation_xyz
x,y,z
1/2-x,-y,1/2+z
-x,y,z
1/2+x,-y,1/2+z
loop_
_atom_site_type_symbol
_atom_site_label
_atom_site_fract_x
_atom_site_fract_y
_atom_site_fract_z
Si Si1 0.668623 0.298149 0.872640
Si Si2 0.666542 0.533304 0.132657
Si Si3 0.170037 0.431849 0.941597
Si Si4 0.331104 0.788513 0.858131
Si Si5 0.169153 0.311735 0.597400
Si Si6 0.666225 0.941370 0.923186
Si Si7 0.668521 0.181511 0.089106
Si Si8 0.669829 0.956360 0.608452
O O1 0.500000 0.318051 0.856438
O O2 0.748574 0.359756 0.950913
O O3 0.735916 0.284002 0.723312
O O4 0.690032 0.229406 0.958145
O O5 0.500000 0.511573 0.103016
O O6 0.699903 0.532554 0.295072
O O7 0.698141 0.608337 0.071621
O O8 0.774687 0.480298 0.062548
O O9 0.000000 0.417384 0.963005
O O10 0.500000 0.782900 0.814545
O O11 0.302335 0.860739 0.932232
O O12 0.235713 0.780924 0.721586
O O13 0.283834 0.728311 0.960663
O O14 0.000000 0.298797 0.634324
O O15 0.500000 0.957923 0.965151
O O16 0.698930 0.968039 0.769688
O O17 0.774274 0.977377 0.028922
O O18 0.500000 0.166404 0.119485
O O19 0.747493 0.110603 0.054670
O O20 0.500000 0.945298 0.578577
#
# Coordination Sequence:
#
# PCOD8170208 Si02
#       8
#     4   4   4   4   4   4   4   4
#     4  10  21  36  54  78 107 137 172 216 262 308
#     4   9  19  35  53  77 108 137 171 215 257 303
#     4  10  21  36  55  78 104 138 177 214 257 310
#     4   9  19  36  56  79 107 138 174 215 258 308
#     4   9  19  36  56  79 107 138 174 215 258 308
#     4   9  19  35  53  77 108 137 171 215 257 303
#     4  10  21  36  54  78 107 137 172 216 262 308
#     4  10  21  36  55  78 104 138 177 214 257 310
#
# _framework density 18.369094
#
# number of rings (size 3 to 8) (size 9 to 14) (size 15 to 20)
#    0.000    2.500    0.000    3.000    0.000    9.500 
#    0.000    5.000    0.000    0.000    0.000    0.000 
#    0.000    0.000    0.000    0.000    0.000    0.000 
#
# Total GULP energy -396912.659986 kJ/mol
# GULP energy per Si atom -12403.520625 kJ/mol
# Density = 1.832729 g / cm^3
# Si number density = 18.369094 Si / 1000 Ang^3
#
#
#
# Elastic Constant Matrix: (Units=GPa)
#
#
# Indices 1 2 3 4 5 6 
#
# 1 78.7705 14.6674 16.8558 0.0000 0.0000 0.0000
# 2 14.6674 25.6334 0.3266 0.0000 0.0000 0.0000
# 3 16.8558 0.3266 21.3272 0.0000 0.0000 0.0000
# 4 0.0000 0.0000 0.0000 32.1826 0.0000 0.0000
# 5 0.0000 0.0000 0.0000 0.0000 35.7657 0.0000
# 6 0.0000 0.0000 0.0000 0.0000 0.0000 30.9803
#
#
#
# Elastic Compliance Matrix: (Units=1/GPa)
#
#
# Indices 1 2 3 4 5 6 
#
# 1 0.017438 -0.009804 -0.013632 0.000000 0.000000 0.000000
# 2 -0.009804 0.044531 0.007067 0.000000 0.000000 0.000000
# 3 -0.013632 0.007067 0.057554 0.000000 0.000000 0.000000
# 4 0.000000 0.000000 0.000000 0.031073 0.000000 0.000000
# 5 0.000000 0.000000 0.000000 0.000000 0.027960 0.000000
# 6 0.000000 0.000000 0.000000 0.000000 0.000000 0.032279
#
#
# Mechanical properties :
#
#
# Convention : Reuss Voigt Hill
#
# Bulk Modulus (GPa) = 11.52274 21.04785 16.28529
# Shear Modulus (GPa) = 18.34860 26.04447 22.19653
#
# Velocity S-wave (km/s) = 3.16394 3.76951 3.47992
# Velocity P-wave (km/s) = 4.43101 5.51623 5.00313
#
# Compressibility (1/GPa) = 0.08678492
#
# Stress axis : x y z
#
# Youngs Moduli (GPa) = 57.34717 22.45604 17.37501
#
# Poissons Ratio (x) = 0.22016 0.23685
# Poissons Ratio (y) = 0.56224 -0.12278
# Poissons Ratio (z) = 0.78173 -0.15869
#
# Static dielectric constant tensor:
#      x y z
#    x 3.439040 0.000000 0.000000 
#    y 0.000000 3.344700 0.000000 
#    z 0.000000 0.000000 3.301010 
# 
# 
# High freq. dielectric constant tensor:
#      x y z
#    x 1.720010 0.000000 0.000000 
#    y 0.000000 1.712150 0.000000 
#    z 0.000000 0.000000 1.707520 
# 
# From -- ./inp_files/1870.got.cif
#   From: 2010.03.12/outbox.cif.g09.slc.cpg/sg31_1_cif.got.tgz:1870.got - 2010.04.14 01:42:59.
