data_PCOD8170064
_publ_section_title
;
Structure prediction by ZEFSAII (Michael W. Deem and Ramdas Pophale) SiO2 
 PCOD8170064
Probable space group: P M N 21
;
_chemical_formula_sum "Si O2"
_cell_formula_units_Z 32
_cell_length_a 13.916763
_cell_length_b 11.798380
_cell_length_c 9.524822
_cell_angle_alpha 90.000000
_cell_angle_beta 90.000000
_cell_angle_gamma 90.000000
_cell_volume 1563.930608
_symmetry_space_group_name_H-M "P M N 21"
_symmetry_group_IT_number 31
_symmetry_cell_setting 'orthorhombic'
loop_
_space_group_symop_operation_xyz
x,y,z
1/2-x,-y,1/2+z
-x,y,z
1/2+x,-y,1/2+z
loop_
_atom_site_type_symbol
_atom_site_label
_atom_site_fract_x
_atom_site_fract_y
_atom_site_fract_z
Si Si1 0.608282 0.863412 0.934680
Si Si2 0.613473 0.075747 0.764063
Si Si3 0.890418 0.679263 0.374371
Si Si4 0.714026 0.271205 0.403061
Si Si5 0.888505 0.584642 0.674548
Si Si6 0.609124 0.838722 0.259802
Si Si7 0.766935 0.367761 0.690347
Si Si8 0.114172 0.954825 0.949378
O O1 0.500000 0.835834 0.885928
O O2 0.673328 0.759170 0.879716
O O3 0.650074 0.978438 0.868459
O O4 0.614913 0.883036 0.100633
O O5 0.500000 0.073868 0.757394
O O6 0.646428 0.196706 0.824734
O O7 0.654854 0.047991 0.608975
O O8 0.881761 0.667454 0.541378
O O9 0.817001 0.591424 0.298493
O O10 0.000000 0.655103 0.326804
O O11 0.674865 0.365590 0.299203
O O12 0.706209 0.318357 0.560371
O O13 0.650124 0.159892 0.376908
O O14 0.839531 0.464771 0.638540
O O15 0.000000 0.567137 0.718501
O O16 0.500000 0.810771 0.302753
O O17 0.670079 0.724888 0.273804
O O18 0.652300 0.935423 0.363387
O O19 0.000000 0.954539 0.944207
#
# Coordination Sequence:
#
# PCOD8170064 Si02
#       8
#     4   4   4   4   4   4   4   4
#     4   9  20  36  56  85 123 162 200 242 300 372
#     4   9  18  35  56  82 121 161 195 242 302 365
#     4  10  22  39  61  89 122 161 203 252 310 371
#     4  11  23  37  62  89 122 157 207 256 317 365
#     4  11  25  43  64  90 120 160 212 268 313 366
#     4   9  20  36  58  88 122 162 203 250 308 367
#     4  11  22  42  63  87 122 165 212 255 311 371
#     4  10  20  34  55  88 124 156 197 253 312 369
#
# _framework density 20.461265000000001
#
# number of rings (size 3 to 8) (size 9 to 14) (size 15 to 20)
#    0.000    2.000    1.250    1.500    3.500    2.000 
#    0.000    0.625    0.000    0.750    0.000    0.000 
#    0.000    0.000    0.000    0.000    0.000    0.000 
#
# Total GULP energy -396708.657700 kJ/mol
# GULP energy per Si atom -12397.145553 kJ/mol
# Density = 2.041469 g / cm^3
# Si number density = 20.461265 Si / 1000 Ang^3
#
#
#
# Elastic Constant Matrix: (Units=GPa)
#
#
# Indices 1 2 3 4 5 6 
#
# 1 97.4684 38.9199 44.7751 0.0000 0.0000 0.0000
# 2 38.9199 93.5965 43.7369 0.0000 0.0000 0.0000
# 3 44.7751 43.7369 76.5365 0.0000 0.0000 0.0000
# 4 0.0000 0.0000 0.0000 32.4086 0.0000 0.0000
# 5 0.0000 0.0000 0.0000 0.0000 28.5033 0.0000
# 6 0.0000 0.0000 0.0000 0.0000 0.0000 36.2217
#
#
#
# Elastic Compliance Matrix: (Units=1/GPa)
#
#
# Indices 1 2 3 4 5 6 
#
# 1 0.014560 -0.002830 -0.006901 0.000000 0.000000 0.000000
# 2 -0.002830 0.015127 -0.006989 0.000000 0.000000 0.000000
# 3 -0.006901 -0.006989 0.021096 0.000000 0.000000 0.000000
# 4 0.000000 0.000000 0.000000 0.030856 0.000000 0.000000
# 5 0.000000 0.000000 0.000000 0.000000 0.035084 0.000000
# 6 0.000000 0.000000 0.000000 0.000000 0.000000 0.027608
#
#
# Mechanical properties :
#
#
# Convention : Reuss Voigt Hill
#
# Bulk Modulus (GPa) = 57.65488 58.05170 57.85329
# Shear Modulus (GPa) = 27.24059 28.77134 28.00597
#
# Velocity S-wave (km/s) = 3.65269 3.75392 3.70365
# Velocity P-wave (km/s) = 6.78441 6.87185 6.82827
#
# Compressibility (1/GPa) = 0.01734458
#
# Stress axis : x y z
#
# Youngs Moduli (GPa) = 68.68286 66.10874 47.40157
#
# Poissons Ratio (x) = 0.18707 0.32710
# Poissons Ratio (y) = 0.19435 0.33128
# Poissons Ratio (z) = 0.47395 0.46201
#
# Static dielectric constant tensor:
#      x y z
#    x 3.881930 0.000000 0.000000 
#    y 0.000000 3.612870 0.000000 
#    z 0.000000 0.000000 3.722710 
# 
# 
# High freq. dielectric constant tensor:
#      x y z
#    x 1.819090 0.000000 0.000000 
#    y 0.000000 1.784380 0.000000 
#    z 0.000000 0.000000 1.791370 
# 
# From -- ./inp_files/2591.got.cif
#   From: 2010.03.12/outbox.cif.g09.slc.cpg/sg31_2_cif.got.tgz:2591.got - 2010.04.14 01:42:59.
