data_PCOD8170285
_publ_section_title
;
Structure prediction by ZEFSAII (Michael W. Deem and Ramdas Pophale) SiO2 
 PCOD8170285
Probable space group: P M N 21
;
_chemical_formula_sum "Si O2"
_cell_formula_units_Z 24
_cell_length_a 22.574610
_cell_length_b 5.465887
_cell_length_c 8.637014
_cell_angle_alpha 90.000000
_cell_angle_beta 90.000000
_cell_angle_gamma 90.000000
_cell_volume 1065.723466
_symmetry_space_group_name_H-M "P M N 21"
_symmetry_group_IT_number 31
_symmetry_cell_setting 'orthorhombic'
loop_
_space_group_symop_operation_xyz
x,y,z
1/2-x,-y,1/2+z
-x,y,z
1/2+x,-y,1/2+z
loop_
_atom_site_type_symbol
_atom_site_label
_atom_site_fract_x
_atom_site_fract_y
_atom_site_fract_z
Si Si1 0.170490 0.403690 0.957530
Si Si2 0.849043 0.750404 0.547460
Si Si3 0.932966 0.424639 0.747672
Si Si4 0.565777 0.876680 0.950076
Si Si5 0.220316 0.907558 0.821157
Si Si6 0.667872 0.633410 0.810941
O O1 0.102207 0.355523 0.904921
O O2 0.196377 0.644116 0.877585
O O3 0.204455 0.150719 0.915603
O O4 0.174507 0.465678 0.138245
O O5 0.895174 0.634776 0.667813
O O6 0.803901 0.926455 0.643681
O O7 0.810683 0.561644 0.442418
O O8 0.891942 0.891682 0.429344
O O9 0.935966 0.194653 0.631256
O O10 0.000000 0.512267 0.787154
O O11 0.500000 0.924467 0.885178
O O12 0.598036 0.672905 0.844950
O O13 0.291882 0.879695 0.827266
#
# Coordination Sequence:
#
# PCOD8170285 Si02
#       6
#     4   4   4   4   4   4
#     4  11  25  43  65 102 132 172 220 282 333 394
#     4  10  21  41  64  96 124 182 218 278 324 412
#     4   9  19  39  65  91 127 174 225 269 325 403
#     4  10  21  40  66  93 128 176 227 270 329 405
#     4  11  25  43  67  95 137 177 224 265 340 409
#     4  11  26  38  67  95 137 167 222 280 343 387
#
# _framework density 22.519915000000001
#
# number of rings (size 3 to 8) (size 9 to 14) (size 15 to 20)
#    0.000    1.667    1.667    1.500    7.000    1.333 
#    0.000    0.000    0.000    0.000    0.000    0.000 
#    0.000    0.000    0.000    0.000    0.000    0.000 
#
# Total GULP energy -297373.887523 kJ/mol
# GULP energy per Si atom -12390.578647 kJ/mol
# Density = 2.246866 g / cm^3
# Si number density = 22.519915 Si / 1000 Ang^3
#
#
#
# Elastic Constant Matrix: (Units=GPa)
#
#
# Indices 1 2 3 4 5 6 
#
# 1 127.5266 18.7134 28.7738 0.0000 0.0000 0.0000
# 2 18.7134 87.5027 10.9864 0.0000 0.0000 0.0000
# 3 28.7738 10.9864 88.1339 0.0000 0.0000 0.0000
# 4 0.0000 0.0000 0.0000 14.0366 0.0000 0.0000
# 5 0.0000 0.0000 0.0000 0.0000 27.9812 0.0000
# 6 0.0000 0.0000 0.0000 0.0000 0.0000 27.5912
#
#
#
# Elastic Compliance Matrix: (Units=1/GPa)
#
#
# Indices 1 2 3 4 5 6 
#
# 1 0.008660 -0.001521 -0.002638 0.000000 0.000000 0.000000
# 2 -0.001521 0.011877 -0.000984 0.000000 0.000000 0.000000
# 3 -0.002638 -0.000984 0.012330 0.000000 0.000000 0.000000
# 4 0.000000 0.000000 0.000000 0.071242 0.000000 0.000000
# 5 0.000000 0.000000 0.000000 0.000000 0.035738 0.000000
# 6 0.000000 0.000000 0.000000 0.000000 0.000000 0.036244
#
#
# Mechanical properties :
#
#
# Convention : Reuss Voigt Hill
#
# Bulk Modulus (GPa) = 44.28308 46.67892 45.48100
# Shear Modulus (GPa) = 25.78606 30.23443 28.01025
#
# Velocity S-wave (km/s) = 3.38751 3.66808 3.53058
# Velocity P-wave (km/s) = 5.91666 6.22194 6.07122
#
# Compressibility (1/GPa) = 0.02258199
#
# Stress axis : x y z
#
# Youngs Moduli (GPa) = 115.47604 84.19624 81.10186
#
# Poissons Ratio (x) = 0.12805 0.21392
# Poissons Ratio (y) = 0.17562 0.07981
# Poissons Ratio (z) = 0.30459 0.08285
#
# Static dielectric constant tensor:
#      x y z
#    x 4.360640 0.000000 0.000000 
#    y 0.000000 3.846360 0.000000 
#    z 0.000000 0.000000 3.983860 
# 
# 
# High freq. dielectric constant tensor:
#      x y z
#    x 1.901370 0.000000 0.000000 
#    y 0.000000 1.879170 0.000000 
#    z 0.000000 0.000000 1.868380 
# 
# From -- ./inp_files/3031.got.cif
#   From: 2010.03.12/outbox.cif.g09.slc.cpg/sg31_2_cif.got.tgz:3031.got - 2010.04.14 01:42:59.
