data_PCOD8170508
_publ_section_title
;
Structure prediction by ZEFSAII (Michael W. Deem and Ramdas Pophale) SiO2 
 PCOD8170508
Probable space group: P B A 2
;
_chemical_formula_sum "Si O2"
_cell_formula_units_Z 30
_cell_length_a 10.580457
_cell_length_b 9.047072
_cell_length_c 14.576943
_cell_angle_alpha 90.000000
_cell_angle_beta 90.000000
_cell_angle_gamma 90.000000
_cell_volume 1395.336416
_symmetry_space_group_name_H-M "P B A 2"
_symmetry_group_IT_number 32
_symmetry_cell_setting 'orthorhombic'
loop_
_space_group_symop_operation_xyz
x,y,z
-x,-y,z
1/2-x,1/2+y,z
1/2+x,1/2-y,z
loop_
_atom_site_type_symbol
_atom_site_label
_atom_site_fract_x
_atom_site_fract_y
_atom_site_fract_z
Si Si1 0.354915 0.954256 0.641670
Si Si2 0.642962 0.506774 0.082104
Si Si3 0.794040 0.198723 0.349533
Si Si4 0.500000 0.500000 0.420090
Si Si5 0.748847 0.251700 0.962632
Si Si6 0.808513 0.823293 0.531440
Si Si7 0.144118 0.512336 0.237169
Si Si8 0.856399 0.498001 0.841716
O O1 0.343313 0.782280 0.615926
O O2 0.290850 0.977660 0.742374
O O3 0.500000 0.000000 0.634587
O O4 0.274504 0.042358 0.567341
O O5 0.500000 0.500000 0.122744
O O6 0.753382 0.497885 0.156635
O O7 0.658264 0.366752 0.014792
O O8 0.656068 0.664773 0.030470
O O9 0.772130 0.241279 0.454108
O O10 0.840827 0.333639 0.288606
O O11 0.668349 0.124940 0.305874
O O12 0.900808 0.072895 0.350284
O O13 0.562557 0.378613 0.485612
O O14 0.824193 0.339468 0.884521
O O15 0.665386 0.127941 0.913835
O O16 0.000000 0.500000 0.199270
O O17 0.000000 0.500000 0.814455
#
# Coordination Sequence:
#
# PCOD8170508 Si02
#       8
#     4   4   4   2   4   4   4   4
#     4  11  24  40  64  97 134 171 221 273 326 389
#     4  11  25  43  69  99 132 170 216 273 329 400
#     4  12  25  45  69  93 134 175 226 273 336 394
#     4  12  24  42  70  94 126 186 224 276 328 402
#     4  10  22  42  67  95 130 169 218 260 330 393
#     4  12  23  43  65  95 131 177 222 273 330 389
#     4  12  28  45  68 100 133 173 223 279 336 401
#     4  10  21  40  66  93 130 171 212 267 321 387
#
# _framework density 21.500191000000001
#
# number of rings (size 3 to 8) (size 9 to 14) (size 15 to 20)
#    0.000    0.800    2.667    4.000    0.933    6.400 
#    0.000    0.000    2.933    0.000    0.000    0.000 
#    0.000    0.000    0.000    0.000    0.000    0.000 
#
# Total GULP energy -372029.832662 kJ/mol
# GULP energy per Si atom -12400.994422 kJ/mol
# Density = 2.145126 g / cm^3
# Si number density = 21.500191 Si / 1000 Ang^3
#
#
#
# Elastic Constant Matrix: (Units=GPa)
#
#
# Indices 1 2 3 4 5 6 
#
# 1 120.8044 27.7638 37.9149 0.0000 0.0000 0.0000
# 2 27.7638 113.8970 36.4360 0.0000 0.0000 0.0000
# 3 37.9149 36.4360 112.4435 0.0000 0.0000 0.0000
# 4 0.0000 0.0000 0.0000 33.5533 0.0000 0.0000
# 5 0.0000 0.0000 0.0000 0.0000 29.2130 0.0000
# 6 0.0000 0.0000 0.0000 0.0000 0.0000 30.0561
#
#
#
# Elastic Compliance Matrix: (Units=1/GPa)
#
#
# Indices 1 2 3 4 5 6 
#
# 1 0.009463 -0.001435 -0.002726 0.000000 0.000000 0.000000
# 2 -0.001435 0.010013 -0.002761 0.000000 0.000000 0.000000
# 3 -0.002726 -0.002761 0.010707 0.000000 0.000000 0.000000
# 4 0.000000 0.000000 0.000000 0.029803 0.000000 0.000000
# 5 0.000000 0.000000 0.000000 0.000000 0.034231 0.000000
# 6 0.000000 0.000000 0.000000 0.000000 0.000000 0.033271
#
#
# Mechanical properties :
#
#
# Convention : Reuss Voigt Hill
#
# Bulk Modulus (GPa) = 61.19898 61.26382 61.23140
# Shear Modulus (GPa) = 34.06497 34.89983 34.48240
#
# Velocity S-wave (km/s) = 3.98477 4.03331 4.00911
# Velocity P-wave (km/s) = 7.04964 7.08848 7.06908
#
# Compressibility (1/GPa) = 0.01634014
#
# Stress axis : x y z
#
# Youngs Moduli (GPa) = 105.67330 99.87254 93.39585
#
# Poissons Ratio (x) = 0.14329 0.25459
# Poissons Ratio (y) = 0.15161 0.25784
# Poissons Ratio (z) = 0.28806 0.27572
#
# Static dielectric constant tensor:
#      x y z
#    x 3.780640 0.000000 0.000000 
#    y 0.000000 4.106840 0.000000 
#    z 0.000000 0.000000 4.046800 
# 
# 
# High freq. dielectric constant tensor:
#      x y z
#    x 1.838150 0.000000 0.000000 
#    y 0.000000 1.862720 0.000000 
#    z 0.000000 0.000000 1.852800 
# 
# From -- ./inp_files/4165.got.cif
#   From: 2010.03.12/outbox.cif.g09.slc.cpg/sg32_3_cif.got.tgz:4165.got - 2010.04.14 01:46:39.
