data_PCOD8170551
_publ_section_title
;
Structure prediction by ZEFSAII (Michael W. Deem and Ramdas Pophale) SiO2 
 PCOD8170551
Probable space group: P B A 2
;
_chemical_formula_sum "Si O2"
_cell_formula_units_Z 30
_cell_length_a 18.426345
_cell_length_b 11.574200
_cell_length_c 6.398821
_cell_angle_alpha 90.000000
_cell_angle_beta 90.000000
_cell_angle_gamma 90.000000
_cell_volume 1364.677849
_symmetry_space_group_name_H-M "P B A 2"
_symmetry_group_IT_number 32
_symmetry_cell_setting 'orthorhombic'
loop_
_space_group_symop_operation_xyz
x,y,z
-x,-y,z
1/2-x,1/2+y,z
1/2+x,1/2-y,z
loop_
_atom_site_type_symbol
_atom_site_label
_atom_site_fract_x
_atom_site_fract_y
_atom_site_fract_z
Si Si1 0.500000 0.000000 0.116710
Si Si2 0.914638 0.236895 0.464040
Si Si3 0.307601 0.225435 0.078736
Si Si4 0.322755 0.419494 0.758352
Si Si5 0.566614 0.220645 0.294095
Si Si6 0.838258 0.838050 0.975373
Si Si7 0.329053 0.853032 0.642221
Si Si8 0.603880 0.922730 0.792648
O O1 0.549728 0.085957 0.250271
O O2 0.455402 0.088015 0.973576
O O3 0.859717 0.267724 0.277686
O O4 0.886832 0.132314 0.611210
O O5 0.922444 0.355226 0.590222
O O6 0.996651 0.211388 0.386824
O O7 0.228352 0.174699 0.143308
O O8 0.309879 0.350995 0.973305
O O9 0.325865 0.134229 0.894713
O O10 0.249451 0.417339 0.613190
O O11 0.347463 0.543474 0.846856
O O12 0.588322 0.300099 0.094713
O O13 0.637185 0.210517 0.441603
O O14 0.814740 0.744910 0.807462
O O15 0.386079 0.944548 0.732030
#
# Coordination Sequence:
#
# PCOD8170551 Si02
#       8
#     2   4   4   4   4   4   4   4
#     4  12  22  42  68 106 142 174 216 292 356 408
#     4  11  24  43  68 100 135 185 225 280 356 420
#     4  10  22  44  69  98 133 179 227 280 346 412
#     4  10  24  45  70  94 138 185 229 282 345 406
#     4  12  25  40  68 104 138 178 232 286 349 419
#     4  11  24  45  69 100 137 179 234 286 335 413
#     4  11  23  43  68 105 132 174 227 290 344 405
#     4  11  21  40  70  99 139 170 218 283 350 405
#
# _framework density 21.983208999999999
#
# number of rings (size 3 to 8) (size 9 to 14) (size 15 to 20)
#    0.000    1.067    4.000    2.400    0.000    1.067 
#    2.400    4.000    0.000    0.000    0.000    0.000 
#    0.000    0.000    0.000    0.000    0.000    0.000 
#
# Total GULP energy -371754.328384 kJ/mol
# GULP energy per Si atom -12391.810946 kJ/mol
# Density = 2.193317 g / cm^3
# Si number density = 21.983209 Si / 1000 Ang^3
#
#
#
# Elastic Constant Matrix: (Units=GPa)
#
#
# Indices 1 2 3 4 5 6 
#
# 1 123.1605 47.3957 52.0117 0.0000 0.0000 0.0000
# 2 47.3957 116.5997 37.7313 0.0000 0.0000 0.0000
# 3 52.0117 37.7313 87.2196 0.0000 0.0000 0.0000
# 4 0.0000 0.0000 0.0000 33.6681 0.0000 0.0000
# 5 0.0000 0.0000 0.0000 0.0000 39.6811 0.0000
# 6 0.0000 0.0000 0.0000 0.0000 0.0000 25.6274
#
#
#
# Elastic Compliance Matrix: (Units=1/GPa)
#
#
# Indices 1 2 3 4 5 6 
#
# 1 0.011633 -0.002888 -0.005688 0.000000 0.000000 0.000000
# 2 -0.002888 0.010689 -0.002902 0.000000 0.000000 0.000000
# 3 -0.005688 -0.002902 0.016112 0.000000 0.000000 0.000000
# 4 0.000000 0.000000 0.000000 0.029702 0.000000 0.000000
# 5 0.000000 0.000000 0.000000 0.000000 0.025201 0.000000
# 6 0.000000 0.000000 0.000000 0.000000 0.000000 0.039021
#
#
# Mechanical properties :
#
#
# Convention : Reuss Voigt Hill
#
# Bulk Modulus (GPa) = 64.60255 66.80635 65.70445
# Shear Modulus (GPa) = 31.15787 32.45139 31.80463
#
# Velocity S-wave (km/s) = 3.76885 3.84629 3.80777
# Velocity P-wave (km/s) = 6.95629 7.08385 7.02036
#
# Compressibility (1/GPa) = 0.01547926
#
# Stress axis : x y z
#
# Youngs Moduli (GPa) = 85.96368 93.55090 62.06382
#
# Poissons Ratio (x) = 0.27018 0.35300
# Poissons Ratio (y) = 0.24827 0.18011
# Poissons Ratio (z) = 0.48893 0.27149
#
# Static dielectric constant tensor:
#      x y z
#    x 4.106460 0.000000 0.000000 
#    y 0.000000 4.032510 0.000000 
#    z 0.000000 0.000000 3.912000 
# 
# 
# High freq. dielectric constant tensor:
#      x y z
#    x 1.873310 0.000000 0.000000 
#    y 0.000000 1.855760 0.000000 
#    z 0.000000 0.000000 1.865940 
# 
# From -- ./inp_files/1573.got.cif
#   From: 2010.03.12/outbox.cif.g09.slc.cpg/sg32_1_cif.got.tgz:1573.got - 2010.04.14 01:46:39.
