data_PCOD8170576
_publ_section_title
;
Structure prediction by ZEFSAII (Michael W. Deem and Ramdas Pophale) SiO2 
 PCOD8170576
Probable space group: P B A 2
;
_chemical_formula_sum "Si O2"
_cell_formula_units_Z 32
_cell_length_a 9.420404
_cell_length_b 27.238665
_cell_length_c 5.043308
_cell_angle_alpha 90.000000
_cell_angle_beta 90.000000
_cell_angle_gamma 90.000000
_cell_volume 1294.108943
_symmetry_space_group_name_H-M "P B A 2"
_symmetry_group_IT_number 32
_symmetry_cell_setting 'orthorhombic'
loop_
_space_group_symop_operation_xyz
x,y,z
-x,-y,z
1/2-x,1/2+y,z
1/2+x,1/2-y,z
loop_
_atom_site_type_symbol
_atom_site_label
_atom_site_fract_x
_atom_site_fract_y
_atom_site_fract_z
Si Si1 0.909382 0.842242 0.931320
Si Si2 0.369916 0.832829 0.843587
Si Si3 0.355822 0.278810 0.127776
Si Si4 0.628355 0.893395 0.996590
Si Si5 0.613729 0.957830 0.476813
Si Si6 0.340979 0.412074 0.750728
Si Si7 0.854109 0.023813 0.245539
Si Si8 0.263946 0.738902 0.636817
O O1 0.782220 0.871255 0.074479
O O2 0.848140 0.812060 0.677326
O O3 0.022677 0.880455 0.825168
O O4 0.987757 0.804665 0.139196
O O5 0.527770 0.847913 0.922624
O O6 0.295717 0.878404 0.692437
O O7 0.373343 0.785245 0.651469
O O8 0.269621 0.819888 0.100138
O O9 0.326486 0.241820 0.368268
O O10 0.353515 0.244261 0.869166
O O11 0.646894 0.931075 0.752761
O O12 0.559800 0.919395 0.254515
O O13 0.500000 0.000000 0.532833
O O14 0.753358 0.981081 0.349493
O O15 0.381708 0.438096 0.479534
O O16 0.294123 0.449712 0.982609
O O17 0.000000 0.000000 0.152938
#
# Coordination Sequence:
#
# PCOD8170576 Si02
#       8
#     4   4   4   4   4   4   4   4
#     4  11  26  46  71 107 144 178 245 297 348 421
#     4   9  24  42  68  97 138 182 237 266 352 413
#     4   9  24  43  69  93 136 190 230 273 356 414
#     4  12  26  42  72 106 141 179 237 304 345 421
#     4  12  26  46  69 101 142 183 229 290 373 429
#     4  11  24  41  72  94 133 179 228 283 342 427
#     4  12  24  43  68  96 133 174 227 284 356 422
#     4  10  24  43  71  96 140 187 231 282 350 425
#
# _framework density 24.727439
#
# number of rings (size 3 to 8) (size 9 to 14) (size 15 to 20)
#    0.750    0.500    0.000    4.500    7.000    4.000 
#    0.000    0.000    0.000    0.000    0.000    0.000 
#    0.000    0.000    0.000    0.000    0.000    0.000 
#
# Total GULP energy -396728.024876 kJ/mol
# GULP energy per Si atom -12397.750777 kJ/mol
# Density = 2.467116 g / cm^3
# Si number density = 24.727439 Si / 1000 Ang^3
#
#
#
# Elastic Constant Matrix: (Units=GPa)
#
#
# Indices 1 2 3 4 5 6 
#
# 1 104.0230 10.1761 -2.7253 0.0000 0.0000 0.0000
# 2 10.1761 62.0475 11.3727 0.0000 0.0000 0.0000
# 3 -2.7253 11.3727 94.2322 0.0000 0.0000 0.0000
# 4 0.0000 0.0000 0.0000 11.6603 0.0000 0.0000
# 5 0.0000 0.0000 0.0000 0.0000 22.7252 0.0000
# 6 0.0000 0.0000 0.0000 0.0000 0.0000 23.3025
#
#
#
# Elastic Compliance Matrix: (Units=1/GPa)
#
#
# Indices 1 2 3 4 5 6 
#
# 1 0.009792 -0.001695 0.000488 0.000000 0.000000 0.000000
# 2 -0.001695 0.016775 -0.002074 0.000000 0.000000 0.000000
# 3 0.000488 -0.002074 0.010876 0.000000 0.000000 0.000000
# 4 0.000000 0.000000 0.000000 0.085761 0.000000 0.000000
# 5 0.000000 0.000000 0.000000 0.000000 0.044004 0.000000
# 6 0.000000 0.000000 0.000000 0.000000 0.000000 0.042914
#
#
# Mechanical properties :
#
#
# Convention : Reuss Voigt Hill
#
# Bulk Modulus (GPa) = 32.38240 33.10551 32.74396
# Shear Modulus (GPa) = 22.02859 27.63623 24.83241
#
# Velocity S-wave (km/s) = 2.98796 3.34673 3.17242
# Velocity P-wave (km/s) = 5.00280 5.32460 5.16621
#
# Compressibility (1/GPa) = 0.03088097
#
# Stress axis : x y z
#
# Youngs Moduli (GPa) = 102.12544 59.61329 91.94180
#
# Poissons Ratio (x) = 0.10106 -0.04485
# Poissons Ratio (y) = 0.17314 0.19065
# Poissons Ratio (z) = -0.04982 0.12361
#
# Static dielectric constant tensor:
#      x y z
#    x 4.097210 0.000000 0.000000 
#    y 0.000000 4.207030 0.000000 
#    z 0.000000 0.000000 4.254430 
# 
# 
# High freq. dielectric constant tensor:
#      x y z
#    x 1.984770 0.000000 0.000000 
#    y 0.000000 1.997660 0.000000 
#    z 0.000000 0.000000 1.967430 
# 
# From -- ./inp_files/633.got.cif
#   From: 2010.03.12/outbox.cif.g09.slc.cpg/sg32_1_cif.got.tgz:633.got - 2010.04.14 01:46:39.
