data_PCOD8170164
_publ_section_title
;
Structure prediction by ZEFSAII (Michael W. Deem and Ramdas Pophale) SiO2 
 PCOD8170164
Probable space group: P M N 21
;
_chemical_formula_sum "Si O2"
_cell_formula_units_Z 32
_cell_length_a 8.787772
_cell_length_b 15.988761
_cell_length_c 11.004477
_cell_angle_alpha 90.000000
_cell_angle_beta 90.000000
_cell_angle_gamma 90.000000
_cell_volume 1546.190492
_symmetry_space_group_name_H-M "P M N 21"
_symmetry_group_IT_number 31
_symmetry_cell_setting 'orthorhombic'
loop_
_space_group_symop_operation_xyz
x,y,z
1/2-x,-y,1/2+z
-x,y,z
1/2+x,-y,1/2+z
loop_
_atom_site_type_symbol
_atom_site_label
_atom_site_fract_x
_atom_site_fract_y
_atom_site_fract_z
Si Si1 0.176729 0.163163 0.924360
Si Si2 0.824524 0.156013 0.569560
Si Si3 0.819828 0.453574 0.703984
Si Si4 0.824205 0.016556 0.746912
Si Si5 0.825604 0.151919 0.201025
Si Si6 0.178003 0.722090 0.256492
Si Si7 0.679395 0.442642 0.447507
Si Si8 0.823427 0.739675 0.876717
O O1 0.225964 0.080757 0.851312
O O2 0.282033 0.243458 0.890818
O O3 0.000000 0.185555 0.901532
O O4 0.212722 0.141630 0.061485
O O5 0.791742 0.062076 0.617013
O O6 0.785908 0.221584 0.674064
O O7 0.718776 0.178801 0.456226
O O8 0.000000 0.167119 0.532531
O O9 0.724807 0.372903 0.741112
O O10 0.763276 0.482513 0.567572
O O11 0.781248 0.516659 0.815739
O O12 0.000000 0.437449 0.697467
O O13 0.000000 0.992421 0.758423
O O14 0.728757 0.932931 0.765646
O O15 0.745825 0.237652 0.245929
O O16 0.000000 0.163297 0.231019
O O17 0.000000 0.732297 0.224138
O O18 0.500000 0.449068 0.472875
O O19 0.737836 0.346402 0.435914
O O20 0.000000 0.729177 0.860214
#
# Coordination Sequence:
#
# PCOD8170164 Si02
#       8
#     4   4   4   4   4   4   4   4
#     4   9  21  41  59  82 119 160 204 258 311 368
#     4  10  20  37  62  90 118 153 199 248 300 360
#     4  11  23  41  67  97 131 170 211 266 325 386
#     4   9  20  38  59  85 117 155 199 253 310 365
#     4  11  24  39  58  87 122 161 209 257 311 374
#     4  11  21  36  62  92 119 155 201 249 304 369
#     4  10  24  44  65  95 130 166 217 270 323 390
#     4  11  23  40  62  88 124 164 204 255 312 374
#
# _framework density 20.696027000000001
#
# number of rings (size 3 to 8) (size 9 to 14) (size 15 to 20)
#    0.000    1.750    1.250    3.375    1.750    6.000 
#    0.000    2.500    0.000    0.000    0.000    0.000 
#    0.000    0.000    0.000    0.000    0.000    0.000 
#
# Total GULP energy -396610.032782 kJ/mol
# GULP energy per Si atom -12394.063524 kJ/mol
# Density = 2.064892 g / cm^3
# Si number density = 20.696027 Si / 1000 Ang^3
#
#
#
# Elastic Constant Matrix: (Units=GPa)
#
#
# Indices 1 2 3 4 5 6 
#
# 1 50.7901 20.8028 41.0351 0.0000 0.0000 0.0000
# 2 20.8028 63.9377 41.9561 0.0000 0.0000 0.0000
# 3 41.0351 41.9561 115.9916 0.0000 0.0000 0.0000
# 4 0.0000 0.0000 0.0000 28.8972 0.0000 0.0000
# 5 0.0000 0.0000 0.0000 0.0000 33.5551 0.0000
# 6 0.0000 0.0000 0.0000 0.0000 0.0000 28.0268
#
#
#
# Elastic Compliance Matrix: (Units=1/GPa)
#
#
# Indices 1 2 3 4 5 6 
#
# 1 0.028134 -0.003439 -0.008709 0.000000 0.000000 0.000000
# 2 -0.003439 0.020928 -0.006354 0.000000 0.000000 0.000000
# 3 -0.008709 -0.006354 0.014001 0.000000 0.000000 0.000000
# 4 0.000000 0.000000 0.000000 0.034605 0.000000 0.000000
# 5 0.000000 0.000000 0.000000 0.000000 0.029802 0.000000
# 6 0.000000 0.000000 0.000000 0.000000 0.000000 0.035680
#
#
# Mechanical properties :
#
#
# Convention : Reuss Voigt Hill
#
# Bulk Modulus (GPa) = 38.37329 48.70084 43.53706
# Shear Modulus (GPa) = 23.94182 26.55751 25.24966
#
# Velocity S-wave (km/s) = 3.40491 3.58609 3.49667
# Velocity P-wave (km/s) = 5.83434 6.38195 6.11428
#
# Compressibility (1/GPa) = 0.02605980
#
# Stress axis : x y z
#
# Youngs Moduli (GPa) = 35.54439 47.78228 71.42509
#
# Poissons Ratio (x) = 0.16430 0.62206
# Poissons Ratio (y) = 0.12222 0.45381
# Poissons Ratio (z) = 0.30957 0.30359
#
# Static dielectric constant tensor:
#      x y z
#    x 3.681480 0.000000 0.000000 
#    y 0.000000 3.758080 0.000000 
#    z 0.000000 0.000000 4.135820 
# 
# 
# High freq. dielectric constant tensor:
#      x y z
#    x 1.806490 0.000000 0.000000 
#    y 0.000000 1.799910 0.000000 
#    z 0.000000 0.000000 1.820250 
# 
# From -- ./inp_files/3589.got.cif
#   From: 2010.03.12/outbox.cif.g09.slc.cpg/sg31_2_cif.got.tgz:3589.got - 2010.04.14 01:42:59.
