data_PCOD8170544
_publ_section_title
;
Structure prediction by ZEFSAII (Michael W. Deem and Ramdas Pophale) SiO2 
 PCOD8170544
Probable space group: P B A 2
;
_chemical_formula_sum "Si O2"
_cell_formula_units_Z 32
_cell_length_a 12.736140
_cell_length_b 17.217490
_cell_length_c 6.851504
_cell_angle_alpha 90.000000
_cell_angle_beta 90.000000
_cell_angle_gamma 90.000000
_cell_volume 1502.427691
_symmetry_space_group_name_H-M "P B A 2"
_symmetry_group_IT_number 32
_symmetry_cell_setting 'orthorhombic'
loop_
_space_group_symop_operation_xyz
x,y,z
-x,-y,z
1/2-x,1/2+y,z
1/2+x,1/2-y,z
loop_
_atom_site_type_symbol
_atom_site_label
_atom_site_fract_x
_atom_site_fract_y
_atom_site_fract_z
Si Si1 0.778044 0.058192 0.566450
Si Si2 0.610836 0.460920 0.853865
Si Si3 0.942862 0.302045 0.790230
Si Si4 0.962450 0.585972 0.516136
Si Si5 0.115040 0.668728 0.227941
Si Si6 0.295086 0.271925 0.533635
Si Si7 0.171630 0.076787 0.278201
Si Si8 0.097813 0.185738 0.600321
O O1 0.795635 0.018262 0.778252
O O2 0.661677 0.082661 0.509072
O O3 0.837332 0.141026 0.569131
O O4 0.824517 0.000929 0.405820
O O5 0.500000 0.500000 0.791425
O O6 0.633058 0.377371 0.759013
O O7 0.613350 0.449082 0.083721
O O8 0.828997 0.293862 0.693023
O O9 0.000263 0.381127 0.725871
O O10 0.994013 0.224565 0.690407
O O11 0.930985 0.304863 0.020944
O O12 0.000000 0.500000 0.488223
O O13 0.013663 0.638004 0.345329
O O14 0.161043 0.747025 0.322524
O O15 0.210102 0.606251 0.227374
O O16 0.170240 0.261730 0.561390
O O17 0.098900 0.140513 0.390452
#
# Coordination Sequence:
#
# PCOD8170544 Si02
#       8
#     4   4   4   4   4   4   4   4
#     4  11  23  43  67  95 130 174 218 272 331 405
#     4  11  25  41  65  96 130 172 224 271 326 393
#     4  11  23  40  68  93 126 173 218 278 329 396
#     4  11  23  41  65  95 134 168 217 270 343 404
#     4  10  23  41  64  97 131 173 219 278 336 403
#     4  10  22  42  62  91 129 166 218 272 331 392
#     4  10  23  42  66  91 136 175 218 275 333 392
#     4  10  22  43  62  91 128 170 213 267 330 386
#
# _framework density 21.298862
#
# number of rings (size 3 to 8) (size 9 to 14) (size 15 to 20)
#    0.000    1.500    2.500    1.500    3.500    8.500 
#    2.250    0.000    0.000    0.000    0.000    0.000 
#    0.000    0.000    0.000    0.000    0.000    0.000 
#
# Total GULP energy -396453.643253 kJ/mol
# GULP energy per Si atom -12389.176352 kJ/mol
# Density = 2.125039 g / cm^3
# Si number density = 21.298862 Si / 1000 Ang^3
#
#
#
# Elastic Constant Matrix: (Units=GPa)
#
#
# Indices 1 2 3 4 5 6 
#
# 1 61.6680 2.4888 26.2328 0.0000 0.0000 0.0000
# 2 2.4888 90.2931 35.5646 0.0000 0.0000 0.0000
# 3 26.2328 35.5646 150.2313 0.0000 0.0000 0.0000
# 4 0.0000 0.0000 0.0000 27.6036 0.0000 0.0000
# 5 0.0000 0.0000 0.0000 0.0000 26.0289 0.0000
# 6 0.0000 0.0000 0.0000 0.0000 0.0000 19.6876
#
#
#
# Elastic Compliance Matrix: (Units=1/GPa)
#
#
# Indices 1 2 3 4 5 6 
#
# 1 0.017569 0.000799 -0.003257 0.000000 0.000000 0.000000
# 2 0.000799 0.012250 -0.003039 0.000000 0.000000 0.000000
# 3 -0.003257 -0.003039 0.007945 0.000000 0.000000 0.000000
# 4 0.000000 0.000000 0.000000 0.036227 0.000000 0.000000
# 5 0.000000 0.000000 0.000000 0.000000 0.038419 0.000000
# 6 0.000000 0.000000 0.000000 0.000000 0.000000 0.050793
#
#
# Mechanical properties :
#
#
# Convention : Reuss Voigt Hill
#
# Bulk Modulus (GPa) = 37.35755 47.86276 42.61016
# Shear Modulus (GPa) = 27.30425 30.52444 28.91435
#
# Velocity S-wave (km/s) = 3.58433 3.78980 3.68850
# Velocity P-wave (km/s) = 5.89132 6.45530 6.17975
#
# Compressibility (1/GPa) = 0.02676835
#
# Stress axis : x y z
#
# Youngs Moduli (GPa) = 56.91821 81.63124 125.87095
#
# Poissons Ratio (x) = -0.06519 0.40995
# Poissons Ratio (y) = -0.04545 0.38258
# Poissons Ratio (z) = 0.18538 0.24812
#
# Static dielectric constant tensor:
#      x y z
#    x 3.706150 0.000000 0.000000 
#    y 0.000000 3.824590 0.000000 
#    z 0.000000 0.000000 3.717120 
# 
# 
# High freq. dielectric constant tensor:
#      x y z
#    x 1.839600 0.000000 0.000000 
#    y 0.000000 1.853910 0.000000 
#    z 0.000000 0.000000 1.823220 
# 
# From -- ./inp_files/1277.got.cif
#   From: 2010.03.12/outbox.cif.g09.slc.cpg/sg32_1_cif.got.tgz:1277.got - 2010.04.14 01:46:39.
