data_PCOD8170755
_publ_section_title
;
Structure prediction by ZEFSAII (Michael W. Deem and Ramdas Pophale) SiO2 
 PCOD8170755
Probable space group: P N A 21
;
_chemical_formula_sum "Si O2"
_cell_formula_units_Z 32
_cell_length_a 9.017672
_cell_length_b 33.316827
_cell_length_c 5.095145
_cell_angle_alpha 90.000000
_cell_angle_beta 90.000000
_cell_angle_gamma 90.000000
_cell_volume 1530.786474
_symmetry_space_group_name_H-M "P N A 21"
_symmetry_group_IT_number 33
_symmetry_cell_setting 'orthorhombic'
loop_
_space_group_symop_operation_xyz
x,y,z
-x,-y,1/2+z
1/2-x,1/2+y,1/2+z
1/2+x,1/2-y,z
loop_
_atom_site_type_symbol
_atom_site_label
_atom_site_fract_x
_atom_site_fract_y
_atom_site_fract_z
Si Si1 0.584267 0.713238 0.248280
Si Si2 0.683062 0.492346 0.324289
Si Si3 0.482205 0.025377 0.444611
Si Si4 0.651006 0.157307 0.835598
Si Si5 0.809248 0.765396 0.935834
Si Si6 0.469081 0.221226 0.121917
Si Si7 0.163357 0.395025 0.343116
Si Si8 0.870680 0.041170 0.323429
O O1 0.679890 0.673555 0.307263
O O2 0.529064 0.732530 0.519801
O O3 0.695130 0.747706 0.145493
O O4 0.437919 0.705798 0.063620
O O5 0.812789 0.461536 0.394997
O O6 0.679188 0.528858 0.531828
O O7 0.544413 0.463337 0.352624
O O8 0.708288 0.511851 0.036783
O O9 0.577318 0.063179 0.360308
O O10 0.497123 0.012596 0.747517
O O11 0.610005 0.136314 0.561705
O O12 0.523082 0.190252 0.897274
O O13 0.642379 0.124604 0.062038
O O14 0.697377 0.788907 0.732560
O O15 0.895044 0.725242 0.829885
O O16 0.332192 0.411621 0.372707
#
# Coordination Sequence:
#
# PCOD8170755 Si02
#       8
#     4   4   4   4   4   4   4   4
#     4  11  21  40  65  97 120 174 228 281 321 403
#     4  10  19  36  66  93 117 158 218 268 291 365
#     4  12  21  39  68  96 124 168 223 260 310 396
#     4  12  26  41  65  94 140 172 217 278 348 400
#     4  10  21  36  69  92 126 155 241 277 317 380
#     4  11  21  40  65  97 119 174 224 281 324 401
#     4  12  25  41  61  98 136 175 207 275 348 392
#     4  10  20  37  63  93 122 160 208 258 317 377
#
# _framework density 20.904285999999999
#
# number of rings (size 3 to 8) (size 9 to 14) (size 15 to 20)
#    0.000    1.000    5.000    2.250    3.500    0.000 
#    0.000    1.250    0.000    0.000    0.000    0.000 
#    0.000    0.000    0.000    0.000    0.000    0.000 
#
# Total GULP energy -396449.634750 kJ/mol
# GULP energy per Si atom -12389.051086 kJ/mol
# Density = 2.085671 g / cm^3
# Si number density = 20.904286 Si / 1000 Ang^3
#
#
#
# Elastic Constant Matrix: (Units=GPa)
#
#
# Indices 1 2 3 4 5 6 
#
# 1 114.8155 26.0645 23.6714 0.0000 0.0000 0.0000
# 2 26.0645 62.5602 10.8016 0.0000 0.0000 0.0000
# 3 23.6714 10.8016 77.8302 0.0000 0.0000 0.0000
# 4 0.0000 0.0000 0.0000 113.5485 0.0000 0.0000
# 5 0.0000 0.0000 0.0000 0.0000 58.5944 0.0000
# 6 0.0000 0.0000 0.0000 0.0000 0.0000 32.8309
#
#
#
# Elastic Compliance Matrix: (Units=1/GPa)
#
#
# Indices 1 2 3 4 5 6 
#
# 1 0.010089 -0.003764 -0.002546 0.000000 0.000000 0.000000
# 2 -0.003764 0.017781 -0.001323 0.000000 0.000000 0.000000
# 3 -0.002546 -0.001323 0.013806 0.000000 0.000000 0.000000
# 4 0.000000 0.000000 0.000000 0.008807 0.000000 0.000000
# 5 0.000000 0.000000 0.000000 0.000000 0.017066 0.000000
# 6 0.000000 0.000000 0.000000 0.000000 0.000000 0.030459
#
#
# Mechanical properties :
#
#
# Convention : Reuss Voigt Hill
#
# Bulk Modulus (GPa) = 37.86336 41.80900 39.83618
# Shear Modulus (GPa) = 40.95727 53.97265 47.46496
#
# Velocity S-wave (km/s) = 4.43117 5.08675 4.77024
# Velocity P-wave (km/s) = 6.65826 7.38536 7.03122
#
# Compressibility (1/GPa) = 0.02641076
#
# Stress axis : x y z
#
# Youngs Moduli (GPa) = 99.11807 56.23936 72.42971
#
# Poissons Ratio (x) = 0.21167 0.18442
# Poissons Ratio (y) = 0.37306 0.09583
# Poissons Ratio (z) = 0.25237 0.07441
#
# Static dielectric constant tensor:
#      x y z
#    x 4.209940 0.000000 0.000000 
#    y 0.000000 3.473690 0.000000 
#    z 0.000000 0.000000 4.001720 
# 
# 
# High freq. dielectric constant tensor:
#      x y z
#    x 1.838620 0.000000 0.000000 
#    y 0.000000 1.766080 0.000000 
#    z 0.000000 0.000000 1.840360 
# 
# From -- ./inp_files/606.got.cif
#   From: 2010.03.12/outbox.cif.g09.slc.cpg/sg33_1_cif.got.tgz:606.got - 2010.04.14 01:49:19.
