data_PCOD8170869
_publ_section_title
;
Structure prediction by ZEFSAII (Michael W. Deem and Ramdas Pophale) SiO2 
 PCOD8170869
Probable space group: P N A 21
;
_chemical_formula_sum "Si O2"
_cell_formula_units_Z 32
_cell_length_a 15.411975
_cell_length_b 7.827496
_cell_length_c 13.166914
_cell_angle_alpha 90.000000
_cell_angle_beta 90.000000
_cell_angle_gamma 90.000000
_cell_volume 1588.419278
_symmetry_space_group_name_H-M "P N A 21"
_symmetry_group_IT_number 33
_symmetry_cell_setting 'orthorhombic'
loop_
_space_group_symop_operation_xyz
x,y,z
-x,-y,1/2+z
1/2-x,1/2+y,1/2+z
1/2+x,1/2-y,z
loop_
_atom_site_type_symbol
_atom_site_label
_atom_site_fract_x
_atom_site_fract_y
_atom_site_fract_z
Si Si1 0.148675 1.000000 0.442810
Si Si2 0.499842 0.267334 0.886913
Si Si3 0.964712 0.581960 0.798043
Si Si4 0.723574 0.212625 0.307546
Si Si5 0.999842 0.767334 0.998707
Si Si6 0.853728 0.000000 0.442810
Si Si7 0.776426 0.287375 0.078074
Si Si8 0.464712 0.081960 0.087577
O O1 0.208360 0.890813 0.518942
O O2 0.087201 0.879438 0.374027
O O3 0.208360 0.109187 0.366678
O O4 0.087201 0.120562 0.511593
O O5 0.494894 0.114644 0.806368
O O6 0.585933 0.380402 0.871011
O O7 0.507844 0.195179 0.000856
O O8 0.861278 0.593639 0.807046
O O9 0.007844 0.695179 0.884764
O O10 0.000000 0.657210 0.692810
O O11 0.797327 0.109493 0.365439
O O12 0.750000 0.250000 0.192810
O O13 0.085933 0.880402 0.014609
O O14 0.994894 0.614644 0.079252
O O15 0.797326 0.890508 0.520181
O O16 0.861278 0.406361 0.078574
#
# Coordination Sequence:
#
# PCOD8170869 Si02
#       8
#     4   4   4   4   4   4   4   4
#     4   9  20  40  58  77 116 154 188 233 288 346
#     4   9  20  38  59  80 110 154 190 229 285 347
#     4  10  20  38  59  83 114 152 190 228 286 356
#     4  11  23  38  60  89 118 150 192 245 291 334
#     4   9  20  38  59  80 110 154 190 229 285 347
#     4  11  22  38  58  85 116 146 194 247 286 332
#     4  11  23  38  60  89 118 150 192 245 291 334
#     4  10  20  38  59  83 114 152 190 228 286 356
#
# _framework density 20.145813
#
# number of rings (size 3 to 8) (size 9 to 14) (size 15 to 20)
#    0.000    2.000    0.000    4.500    0.000    6.000 
#    0.000    6.250    0.000    0.000    0.000    0.000 
#    0.000    0.000    0.000    0.000    0.000    0.000 
#
# Total GULP energy -396837.374450 kJ/mol
# GULP energy per Si atom -12401.167952 kJ/mol
# Density = 2.009996 g / cm^3
# Si number density = 20.145813 Si / 1000 Ang^3
#
#
#
# Elastic Constant Matrix: (Units=GPa)
#
#
# Indices 1 2 3 4 5 6 
#
# 1 118.8517 63.5541 47.5895 0.0000 0.0000 0.0000
# 2 63.5541 129.0986 45.8257 0.0000 0.0000 0.0000
# 3 47.5895 45.8257 115.4577 0.0000 0.0000 0.0000
# 4 0.0000 0.0000 0.0000 20.5376 0.0000 0.0000
# 5 0.0000 0.0000 0.0000 0.0000 21.6906 0.0000
# 6 0.0000 0.0000 0.0000 0.0000 0.0000 34.0526
#
#
#
# Elastic Compliance Matrix: (Units=1/GPa)
#
#
# Indices 1 2 3 4 5 6 
#
# 1 0.012308 -0.004957 -0.003106 0.000000 0.000000 0.000000
# 2 -0.004957 0.011012 -0.002328 0.000000 0.000000 0.000000
# 3 -0.003106 -0.002328 0.010865 0.000000 0.000000 0.000000
# 4 0.000000 0.000000 0.000000 0.048691 0.000000 0.000000
# 5 0.000000 0.000000 0.000000 0.000000 0.046103 0.000000
# 6 0.000000 0.000000 0.000000 0.000000 0.000000 0.029366
#
#
# Mechanical properties :
#
#
# Convention : Reuss Voigt Hill
#
# Bulk Modulus (GPa) = 74.59860 75.26073 74.92967
# Shear Modulus (GPa) = 27.23384 29.01872 28.12628
#
# Velocity S-wave (km/s) = 3.68072 3.79942 3.74054
# Velocity P-wave (km/s) = 7.42788 7.52905 7.47863
#
# Compressibility (1/GPa) = 0.01340508
#
# Stress axis : x y z
#
# Youngs Moduli (GPa) = 81.24844 90.80636 92.03641
#
# Poissons Ratio (x) = 0.45009 0.28585
# Poissons Ratio (y) = 0.40272 0.21425
# Poissons Ratio (z) = 0.25234 0.21138
#
# Static dielectric constant tensor:
#      x y z
#    x 3.719670 0.000000 0.000000 
#    y 0.000000 3.935460 0.000000 
#    z 0.000000 0.000000 3.641520 
# 
# 
# High freq. dielectric constant tensor:
#      x y z
#    x 1.793820 0.000000 0.000000 
#    y 0.000000 1.798840 0.000000 
#    z 0.000000 0.000000 1.771570 
# 
# From -- ./inp_files/6838.got.cif
#   From: 2010.03.12/outbox.cif.g09.slc.cpg/sg33_4_cif.got.tgz:6838.got - 2010.04.14 01:49:19.
