data_PCOD8170652
_publ_section_title
;
Structure prediction by ZEFSAII (Michael W. Deem and Ramdas Pophale) SiO2 
 PCOD8170652
Probable space group: P N A 21
;
_chemical_formula_sum "Si O2"
_cell_formula_units_Z 28
_cell_length_a 9.301361
_cell_length_b 17.579806
_cell_length_c 8.853500
_cell_angle_alpha 90.000000
_cell_angle_beta 90.000000
_cell_angle_gamma 90.000000
_cell_volume 1447.689985
_symmetry_space_group_name_H-M "P N A 21"
_symmetry_group_IT_number 33
_symmetry_cell_setting 'orthorhombic'
loop_
_space_group_symop_operation_xyz
x,y,z
-x,-y,1/2+z
1/2-x,1/2+y,1/2+z
1/2+x,1/2-y,z
loop_
_atom_site_type_symbol
_atom_site_label
_atom_site_fract_x
_atom_site_fract_y
_atom_site_fract_z
Si Si1 0.652021 0.479738 0.869760
Si Si2 0.643997 0.112396 0.329424
Si Si3 0.114347 0.789360 0.938035
Si Si4 0.256210 0.153648 0.066169
Si Si5 0.834230 0.376540 0.410715
Si Si6 0.481516 0.762854 0.628579
Si Si7 0.440390 0.580566 0.064725
O O1 0.761790 0.538409 0.789238
O O2 0.559769 0.437616 0.741822
O O3 0.747746 0.421641 0.966520
O O4 0.540486 0.520697 0.979642
O O5 0.736536 0.163946 0.444620
O O6 0.492741 0.085422 0.404086
O O7 0.612639 0.164716 0.183721
O O8 0.145899 0.704508 0.996671
O O9 0.052027 0.782894 0.768240
O O10 0.997308 0.833418 0.040222
O O11 0.269730 0.134591 0.243412
O O12 0.394899 0.203842 0.018522
O O13 0.114435 0.203908 0.035397
O O14 0.723456 0.427534 0.504555
#
# Coordination Sequence:
#
# PCOD8170652 Si02
#       7
#     4   4   4   4   4   4   4
#     4  11  25  38  55  86 124 155 195 242 302 353
#     4   9  18  33  56  87 112 149 192 245 287 355
#     4   9  16  33  59  87 105 148 201 237 280 350
#     4  10  20  36  59  89 113 151 202 245 285 354
#     4  10  18  34  65  84 109 150 200 239 292 354
#     4  10  17  34  66  84 107 155 205 239 288 358
#     4  11  22  38  58  81 120 158 191 241 296 358
#
# _framework density 19.341156999999999
#
# number of rings (size 3 to 8) (size 9 to 14) (size 15 to 20)
#    0.000    2.286    4.286    1.714    2.000    2.286 
#    2.571    0.000    0.000    0.000    0.000    0.000 
#    0.000    0.000    0.000    0.000    0.000    0.000 
#
# Total GULP energy -347052.036709 kJ/mol
# GULP energy per Si atom -12394.715597 kJ/mol
# Density = 1.929714 g / cm^3
# Si number density = 19.341157 Si / 1000 Ang^3
#
#
#
# Elastic Constant Matrix: (Units=GPa)
#
#
# Indices 1 2 3 4 5 6 
#
# 1 115.6903 42.6905 22.1243 0.0000 0.0000 0.0000
# 2 42.6905 88.7853 36.7332 0.0000 0.0000 0.0000
# 3 22.1243 36.7332 59.4350 0.0000 0.0000 0.0000
# 4 0.0000 0.0000 0.0000 23.2292 0.0000 0.0000
# 5 0.0000 0.0000 0.0000 0.0000 21.1131 0.0000
# 6 0.0000 0.0000 0.0000 0.0000 0.0000 33.9769
#
#
#
# Elastic Compliance Matrix: (Units=1/GPa)
#
#
# Indices 1 2 3 4 5 6 
#
# 1 0.010558 -0.004636 -0.001065 0.000000 0.000000 0.000000
# 2 -0.004636 0.017168 -0.008885 0.000000 0.000000 0.000000
# 3 -0.001065 -0.008885 0.022713 0.000000 0.000000 0.000000
# 4 0.000000 0.000000 0.000000 0.043049 0.000000 0.000000
# 5 0.000000 0.000000 0.000000 0.000000 0.047364 0.000000
# 6 0.000000 0.000000 0.000000 0.000000 0.000000 0.029432
#
#
# Mechanical properties :
#
#
# Convention : Reuss Voigt Hill
#
# Bulk Modulus (GPa) = 47.02050 51.88964 49.45507
# Shear Modulus (GPa) = 24.20779 26.48801 25.34790
#
# Velocity S-wave (km/s) = 3.54166 3.70471 3.62410
# Velocity P-wave (km/s) = 6.41002 6.72211 6.56792
#
# Compressibility (1/GPa) = 0.02126732
#
# Stress axis : x y z
#
# Youngs Moduli (GPa) = 94.71341 58.24702 44.02811
#
# Poissons Ratio (x) = 0.27004 0.04689
# Poissons Ratio (y) = 0.43910 0.39119
# Poissons Ratio (z) = 0.10086 0.51752
#
# Static dielectric constant tensor:
#      x y z
#    x 3.903410 0.000000 0.000000 
#    y 0.000000 3.572790 0.000000 
#    z 0.000000 0.000000 2.947480 
# 
# 
# High freq. dielectric constant tensor:
#      x y z
#    x 1.776480 0.000000 0.000000 
#    y 0.000000 1.751530 0.000000 
#    z 0.000000 0.000000 1.690710 
# 
# From -- ./inp_files/3335.got.cif
#   From: 2010.03.12/outbox.cif.g09.slc.cpg/sg33_2_cif.got.tgz:3335.got - 2010.04.14 01:49:19.
