data_PCOD8170429
_publ_section_title
;
Structure prediction by ZEFSAII (Michael W. Deem and Ramdas Pophale) SiO2 
 PCOD8170429
Probable space group: P B A 2
;
_chemical_formula_sum "Si O2"
_cell_formula_units_Z 32
_cell_length_a 8.562525
_cell_length_b 14.784622
_cell_length_c 12.325106
_cell_angle_alpha 90.000000
_cell_angle_beta 90.000000
_cell_angle_gamma 90.000000
_cell_volume 1560.280716
_symmetry_space_group_name_H-M "P B A 2"
_symmetry_group_IT_number 32
_symmetry_cell_setting 'orthorhombic'
loop_
_space_group_symop_operation_xyz
x,y,z
-x,-y,z
1/2-x,1/2+y,z
1/2+x,1/2-y,z
loop_
_atom_site_type_symbol
_atom_site_label
_atom_site_fract_x
_atom_site_fract_y
_atom_site_fract_z
Si Si1 0.637578 0.329262 0.185910
Si Si2 0.805321 0.325420 0.398383
Si Si3 0.192841 0.673850 0.638440
Si Si4 0.682128 0.480219 0.025209
Si Si5 0.226291 0.867593 0.181245
Si Si6 0.663339 0.134340 0.399361
Si Si7 0.165977 0.368598 0.638628
Si Si8 0.181562 0.021459 0.779834
O O1 0.702723 0.367462 0.301173
O O2 0.716793 0.387527 0.089747
O O3 0.674574 0.223962 0.166737
O O4 0.453783 0.341809 0.184651
O O5 0.761154 0.363052 0.517987
O O6 0.777918 0.219207 0.401943
O O7 0.986587 0.338558 0.374491
O O8 0.226934 0.780200 0.651406
O O9 0.293992 0.618187 0.724180
O O10 0.010712 0.659994 0.662256
O O11 0.500000 0.500000 0.026007
O O12 0.767676 0.564783 0.083275
O O13 0.743711 0.471701 0.902824
O O14 0.275436 0.920437 0.293803
O O15 0.678552 0.086893 0.517051
O O16 0.217201 0.444333 0.722520
O O17 0.000000 0.000000 0.773573
#
# Coordination Sequence:
#
# PCOD8170429 Si02
#       8
#     4   4   4   4   4   4   4   4
#     4  10  19  35  57  81 110 142 178 221 271 325
#     4   9  17  31  53  82 113 141 174 218 270 329
#     4  10  21  38  59  85 116 148 184 229 280 333
#     4   9  22  40  55  76 108 145 186 229 270 321
#     4  10  19  35  57  81 110 142 178 221 271 325
#     4   9  17  31  53  82 113 141 174 218 270 329
#     4  10  21  38  59  85 116 148 184 229 280 333
#     4  11  23  40  59  80 110 149 194 237 278 327
#
# _framework density 20.509128
#
# number of rings (size 3 to 8) (size 9 to 14) (size 15 to 20)
#    0.000    2.250    0.000    4.125    0.000    5.000 
#    0.000   12.500    0.000    0.000    0.000    0.000 
#    0.000    0.000    0.000    0.000    0.000    0.000 
#
# Total GULP energy -396599.725158 kJ/mol
# GULP energy per Si atom -12393.741411 kJ/mol
# Density = 2.046245 g / cm^3
# Si number density = 20.509128 Si / 1000 Ang^3
#
#
#
# Elastic Constant Matrix: (Units=GPa)
#
#
# Indices 1 2 3 4 5 6 
#
# 1 42.0040 -5.2272 19.9340 0.0000 0.0000 0.0000
# 2 -5.2272 60.4539 42.6997 0.0000 0.0000 0.0000
# 3 19.9340 42.6997 165.8365 0.0000 0.0000 0.0000
# 4 0.0000 0.0000 0.0000 26.3808 0.0000 0.0000
# 5 0.0000 0.0000 0.0000 0.0000 29.6372 0.0000
# 6 0.0000 0.0000 0.0000 0.0000 0.0000 35.8443
#
#
#
# Elastic Compliance Matrix: (Units=1/GPa)
#
#
# Indices 1 2 3 4 5 6 
#
# 1 0.026711 0.005595 -0.004651 0.000000 0.000000 0.000000
# 2 0.005595 0.021390 -0.006180 0.000000 0.000000 0.000000
# 3 -0.004651 -0.006180 0.008180 0.000000 0.000000 0.000000
# 4 0.000000 0.000000 0.000000 0.037906 0.000000 0.000000
# 5 0.000000 0.000000 0.000000 0.000000 0.033741 0.000000
# 6 0.000000 0.000000 0.000000 0.000000 0.000000 0.027898
#
#
# Mechanical properties :
#
#
# Convention : Reuss Voigt Hill
#
# Bulk Modulus (GPa) = 21.82992 42.56748 32.19870
# Shear Modulus (GPa) = 27.53750 32.43167 29.98459
#
# Velocity S-wave (km/s) = 3.66826 3.98091 3.82777
# Velocity P-wave (km/s) = 5.34870 6.47538 5.93882
#
# Compressibility (1/GPa) = 0.04580870
#
# Stress axis : x y z
#
# Youngs Moduli (GPa) = 37.43787 46.74978 122.24335
#
# Poissons Ratio (x) = -0.26156 0.56859
# Poissons Ratio (y) = -0.20946 0.75548
# Poissons Ratio (z) = 0.17413 0.28892
#
# Static dielectric constant tensor:
#      x y z
#    x 3.610140 0.000000 0.000000 
#    y 0.000000 4.025460 0.000000 
#    z 0.000000 0.000000 4.352130 
# 
# 
# High freq. dielectric constant tensor:
#      x y z
#    x 1.801180 0.000000 0.000000 
#    y 0.000000 1.784800 0.000000 
#    z 0.000000 0.000000 1.811400 
# 
# From -- ./inp_files/3760.got.cif
#   From: 2010.03.12/outbox.cif.g09.slc.cpg/sg32_2_cif.got.tgz:3760.got - 2010.04.14 01:46:39.
