data_PCOD8170703
_publ_section_title
;
Structure prediction by ZEFSAII (Michael W. Deem and Ramdas Pophale) SiO2 
 PCOD8170703
Probable space group: P N A 21
;
_chemical_formula_sum "Si O2"
_cell_formula_units_Z 24
_cell_length_a 16.242034
_cell_length_b 12.094378
_cell_length_c 5.301611
_cell_angle_alpha 90.000000
_cell_angle_beta 90.000000
_cell_angle_gamma 90.000000
_cell_volume 1041.434144
_symmetry_space_group_name_H-M "P N A 21"
_symmetry_group_IT_number 33
_symmetry_cell_setting 'orthorhombic'
loop_
_space_group_symop_operation_xyz
x,y,z
-x,-y,1/2+z
1/2-x,1/2+y,1/2+z
1/2+x,1/2-y,z
loop_
_atom_site_type_symbol
_atom_site_label
_atom_site_fract_x
_atom_site_fract_y
_atom_site_fract_z
Si Si1 0.445717 0.070192 0.073800
Si Si2 0.988835 0.856256 0.139720
Si Si3 0.272257 0.877495 0.584836
Si Si4 0.918905 0.094087 0.139847
Si Si5 0.359108 0.833546 0.084902
Si Si6 0.606903 0.939488 0.073366
O O1 0.395309 0.956073 0.080723
O O2 0.414479 0.134620 0.325484
O O3 0.543291 0.046897 0.073918
O O4 0.415198 0.134083 0.820827
O O5 0.055615 0.862192 0.915549
O O6 0.930058 0.962708 0.123779
O O7 0.934255 0.749603 0.093953
O O8 0.029387 0.846945 0.417207
O O9 0.175176 0.877074 0.594111
O O10 0.301060 0.816017 0.329526
O O11 0.303046 0.006629 0.579554
O O12 0.306249 0.813473 0.830928
#
# Coordination Sequence:
#
# PCOD8170703 Si02
#       6
#     4   4   4   4   4   4
#     4   8  14  25  43  67  97 132 165 197 251 320
#     4  10  21  38  59  79 107 149 190 221 265 332
#     4  10  19  33  54  80 109 137 175 230 277 312
#     4  10  21  38  58  79 108 148 188 223 267 327
#     4  10  19  33  56  81 108 138 176 227 274 317
#     4   8  14  25  42  66  97 134 166 198 252 318
#
# _framework density 23.045142999999999
#
# number of rings (size 3 to 8) (size 9 to 14) (size 15 to 20)
#    0.000    2.667    0.000    2.000    0.000    0.000 
#    0.000    3.333    0.000   12.000    0.000    0.000 
#    0.000    0.000    0.000    0.000    0.000    0.000 
#
# Total GULP energy -297414.272724 kJ/mol
# GULP energy per Si atom -12392.261363 kJ/mol
# Density = 2.299269 g / cm^3
# Si number density = 23.045143 Si / 1000 Ang^3
#
#
#
# Elastic Constant Matrix: (Units=GPa)
#
#
# Indices 1 2 3 4 5 6 
#
# 1 108.3679 -3.3943 25.8196 0.0000 0.0000 0.0000
# 2 -3.3943 6.7481 -17.4923 0.0000 0.0000 0.0000
# 3 25.8196 -17.4923 211.5074 0.0000 0.0000 0.0000
# 4 0.0000 0.0000 0.0000 6.1636 0.0000 0.0000
# 5 0.0000 0.0000 0.0000 0.0000 30.7398 0.0000
# 6 0.0000 0.0000 0.0000 0.0000 0.0000 20.6585
#
#
#
# Elastic Compliance Matrix: (Units=1/GPa)
#
#
# Indices 1 2 3 4 5 6 
#
# 1 0.009531 0.002263 -0.000976 0.000000 0.000000 0.000000
# 2 0.002263 0.189165 0.015368 0.000000 0.000000 0.000000
# 3 -0.000976 0.015368 0.006118 0.000000 0.000000 0.000000
# 4 0.000000 0.000000 0.000000 0.162243 0.000000 0.000000
# 5 0.000000 0.000000 0.000000 0.000000 0.032531 0.000000
# 6 0.000000 0.000000 0.000000 0.000000 0.000000 0.048406
#
#
# Mechanical properties :
#
#
# Convention : Reuss Voigt Hill
#
# Bulk Modulus (GPa) = 4.19947 37.38771 20.79359
# Shear Modulus (GPa) = 10.12025 32.95842 21.53933
#
# Velocity S-wave (km/s) = 2.09786 3.78586 3.06053
# Velocity P-wave (km/s) = 2.77385 5.94720 4.64023
#
# Compressibility (1/GPa) = 0.23812544
#
# Stress axis : x y z
#
# Youngs Moduli (GPa) = 104.91705 5.28639 163.44813
#
# Poissons Ratio (x) = -0.01197 0.15958
# Poissons Ratio (y) = -0.23748 -2.51191
# Poissons Ratio (z) = 0.10243 -0.08124
#
# Static dielectric constant tensor:
#      x y z
#    x 3.879180 0.000000 0.000000 
#    y 0.000000 3.653890 0.000000 
#    z 0.000000 0.000000 5.859840 
# 
# 
# High freq. dielectric constant tensor:
#      x y z
#    x 1.898110 0.000000 0.000000 
#    y 0.000000 1.864810 0.000000 
#    z 0.000000 0.000000 1.955420 
# 
# From -- ./inp_files/842.got.cif
#   From: 2010.03.12/outbox.cif.g09.slc.cpg/sg33_1_cif.got.tgz:842.got - 2010.04.14 01:49:19.
