data_PCOD8170420
_publ_section_title
;
Structure prediction by ZEFSAII (Michael W. Deem and Ramdas Pophale) SiO2 
 PCOD8170420
Probable space group: P B A 2
;
_chemical_formula_sum "Si O2"
_cell_formula_units_Z 32
_cell_length_a 23.552149
_cell_length_b 4.989003
_cell_length_c 15.340956
_cell_angle_alpha 90.000000
_cell_angle_beta 90.000000
_cell_angle_gamma 90.000000
_cell_volume 1802.589054
_symmetry_space_group_name_H-M "P B A 2"
_symmetry_group_IT_number 32
_symmetry_cell_setting 'orthorhombic'
loop_
_space_group_symop_operation_xyz
x,y,z
-x,-y,z
1/2-x,1/2+y,z
1/2+x,1/2-y,z
loop_
_atom_site_type_symbol
_atom_site_label
_atom_site_fract_x
_atom_site_fract_y
_atom_site_fract_z
Si Si1 0.062466 0.920283 0.155760
Si Si2 0.713213 0.025964 0.053692
Si Si3 0.130412 0.436434 0.900504
Si Si4 0.437538 0.420203 0.951625
Si Si5 0.130421 0.436516 0.206888
Si Si6 0.714269 0.157215 0.553701
Si Si7 0.289537 0.945323 0.741358
Si Si8 0.210463 0.445282 0.366042
O O1 0.080603 0.657176 0.209666
O O2 0.106373 0.155655 0.174631
O O3 0.061940 0.848759 0.053696
O O4 0.000000 0.000000 0.188296
O O5 0.732118 0.334729 0.053678
O O6 0.677578 0.959805 0.139621
O O7 0.677550 0.959824 0.967791
O O8 0.080574 0.657002 0.897746
O O9 0.158329 0.401802 0.806221
O O10 0.106387 0.155474 0.932716
O O11 0.500000 0.500000 0.919094
O O12 0.158331 0.401740 0.301174
O O13 0.728606 0.472794 0.553703
O O14 0.682452 0.084396 0.644237
O O15 0.682452 0.084419 0.463163
O O16 0.238683 0.734261 0.755694
O O17 0.238682 0.734224 0.351710
#
# Coordination Sequence:
#
# PCOD8170420 Si02
#       8
#     4   4   4   4   4   4   4   4
#     4  11  22  38  54  71  95 130 177 224 252 284
#     4  12  22  32  45  70 105 136 158 186 236 302
#     4  12  21  35  52  75 100 136 167 205 254 298
#     4  11  22  38  54  71  95 130 177 224 252 284
#     4  12  21  35  52  75 100 136 167 205 254 298
#     4   8  16  30  50  72 101 134 167 202 236 280
#     4  10  19  33  51  77 107 136 166 200 241 300
#     4  10  19  33  51  77 107 136 166 200 241 300
#
# _framework density 17.752244000000001
#
# number of rings (size 3 to 8) (size 9 to 14) (size 15 to 20)
#    0.000    1.250    2.500    5.250    0.000    2.000 
#    0.000    0.000    0.000    0.000    0.000    5.250 
#    0.000    0.000    0.000    0.000    0.000    0.000 
#
# Total GULP energy -396844.645100 kJ/mol
# GULP energy per Si atom -12401.395159 kJ/mol
# Density = 1.771184 g / cm^3
# Si number density = 17.752244 Si / 1000 Ang^3
#
#
#
# Elastic Constant Matrix: (Units=GPa)
#
#
# Indices 1 2 3 4 5 6 
#
# 1 55.0739 0.4515 36.6741 0.0000 0.0000 0.0000
# 2 0.4515 68.0472 1.3848 0.0000 0.0000 0.0000
# 3 36.6741 1.3848 101.0483 0.0000 0.0000 0.0000
# 4 0.0000 0.0000 0.0000 16.6732 0.0000 0.0000
# 5 0.0000 0.0000 0.0000 0.0000 15.0489 0.0000
# 6 0.0000 0.0000 0.0000 0.0000 0.0000 29.1919
#
#
#
# Elastic Compliance Matrix: (Units=1/GPa)
#
#
# Indices 1 2 3 4 5 6 
#
# 1 0.023944 0.000018 -0.008691 0.000000 0.000000 0.000000
# 2 0.000018 0.014700 -0.000208 0.000000 0.000000 0.000000
# 3 -0.008691 -0.000208 0.013053 0.000000 0.000000 0.000000
# 4 0.000000 0.000000 0.000000 0.059977 0.000000 0.000000
# 5 0.000000 0.000000 0.000000 0.000000 0.066450 0.000000
# 6 0.000000 0.000000 0.000000 0.000000 0.000000 0.034256
#
#
# Mechanical properties :
#
#
# Convention : Reuss Voigt Hill
#
# Bulk Modulus (GPa) = 29.46697 33.46559 31.46628
# Shear Modulus (GPa) = 20.70794 24.56005 22.63400
#
# Velocity S-wave (km/s) = 3.41911 3.72357 3.57458
# Velocity P-wave (km/s) = 5.67645 6.11383 5.89920
#
# Compressibility (1/GPa) = 0.03393631
#
# Stress axis : x y z
#
# Youngs Moduli (GPa) = 41.76345 68.02817 76.60937
#
# Poissons Ratio (x) = -0.00122 0.66578
# Poissons Ratio (y) = -0.00075 0.01593
# Poissons Ratio (z) = 0.36295 0.01415
#
# Static dielectric constant tensor:
#      x y z
#    x 3.078990 0.000000 0.000000 
#    y 0.000000 3.420280 0.000000 
#    z 0.000000 0.000000 3.441040 
# 
# 
# High freq. dielectric constant tensor:
#      x y z
#    x 1.651650 0.000000 0.000000 
#    y 0.000000 1.711640 0.000000 
#    z 0.000000 0.000000 1.678860 
# 
# From -- ./inp_files/4196.got.cif
#   From: 2010.03.12/outbox.cif.g09.slc.cpg/sg32_3_cif.got.tgz:4196.got - 2010.04.14 01:46:39.
