data_PCOD8170792
_publ_section_title
;
Structure prediction by ZEFSAII (Michael W. Deem and Ramdas Pophale) SiO2 
 PCOD8170792
Probable space group: P N A 21
;
_chemical_formula_sum "Si O2"
_cell_formula_units_Z 32
_cell_length_a 11.060715
_cell_length_b 12.532350
_cell_length_c 10.354592
_cell_angle_alpha 90.000000
_cell_angle_beta 90.000000
_cell_angle_gamma 90.000000
_cell_volume 1435.319907
_symmetry_space_group_name_H-M "P N A 21"
_symmetry_group_IT_number 33
_symmetry_cell_setting 'orthorhombic'
loop_
_space_group_symop_operation_xyz
x,y,z
-x,-y,1/2+z
1/2-x,1/2+y,1/2+z
1/2+x,1/2-y,z
loop_
_atom_site_type_symbol
_atom_site_label
_atom_site_fract_x
_atom_site_fract_y
_atom_site_fract_z
Si Si1 0.839526 0.890224 0.120620
Si Si2 0.418617 0.472863 0.713019
Si Si3 0.574428 0.928583 0.150188
Si Si4 0.663066 0.310000 0.887412
Si Si5 0.317313 0.451347 0.457241
Si Si6 0.455150 0.672174 0.870547
Si Si7 0.417026 0.256054 0.849029
Si Si8 0.552306 0.088818 0.371922
O O1 0.714772 0.957510 0.120792
O O2 0.836564 0.799635 0.231466
O O3 0.951143 0.971858 0.141017
O O4 0.860038 0.825673 0.988606
O O5 0.310499 0.449361 0.612460
O O6 0.398356 0.591948 0.765945
O O7 0.408587 0.382093 0.821326
O O8 0.573326 0.810997 0.215608
O O9 0.513244 0.008971 0.255449
O O10 0.510137 0.932754 0.010635
O O11 0.635982 0.432280 0.918106
O O12 0.544062 0.240607 0.931438
O O13 0.797523 0.273829 0.934945
O O14 0.411517 0.363782 0.409449
O O15 0.192892 0.429014 0.389876
O O16 0.469601 0.792235 0.818637
#
# Coordination Sequence:
#
# PCOD8170792 Si02
#       8
#     4   4   4   4   4   4   4   4
#     4   9  19  40  66  89 130 174 221 280 341 413
#     4  10  21  39  68  99 125 171 237 279 339 426
#     4  11  24  45  66 100 140 184 227 292 362 419
#     4  10  19  40  66  93 129 176 218 277 339 419
#     4  11  22  44  65  91 139 182 218 284 360 411
#     4  11  23  42  70 102 128 182 239 283 346 426
#     4  10  20  40  67  98 128 174 227 280 349 421
#     4  12  26  44  70  98 145 181 233 293 354 427
#
# _framework density 22.294682000000002
#
# number of rings (size 3 to 8) (size 9 to 14) (size 15 to 20)
#    0.000    1.500    5.000    2.250    7.000    1.000 
#    2.250    0.000    0.000    0.000    0.000    0.000 
#    0.000    0.000    0.000    0.000    0.000    0.000 
#
# Total GULP energy -396468.480138 kJ/mol
# GULP energy per Si atom -12389.640004 kJ/mol
# Density = 2.224394 g / cm^3
# Si number density = 22.294682 Si / 1000 Ang^3
#
#
#
# Elastic Constant Matrix: (Units=GPa)
#
#
# Indices 1 2 3 4 5 6 
#
# 1 93.8878 20.3644 -0.3594 0.0000 0.0000 0.0000
# 2 20.3644 120.3249 24.9042 0.0000 0.0000 0.0000
# 3 -0.3594 24.9042 30.9669 0.0000 0.0000 0.0000
# 4 0.0000 0.0000 0.0000 -0.8674 0.0000 0.0000
# 5 0.0000 0.0000 0.0000 0.0000 14.7295 0.0000
# 6 0.0000 0.0000 0.0000 0.0000 0.0000 -894.9790
#
#
#
# Elastic Compliance Matrix: (Units=1/GPa)
#
#
# Indices 1 2 3 4 5 6 
#
# 1 0.011157 -0.002297 0.001977 0.000000 0.000000 0.000000
# 2 -0.002297 0.010444 -0.008426 0.000000 0.000000 0.000000
# 3 0.001977 -0.008426 0.039092 0.000000 0.000000 0.000000
# 4 0.000000 0.000000 0.000000 -1.152891 0.000000 0.000000
# 5 0.000000 0.000000 0.000000 0.000000 0.067891 0.000000
# 6 0.000000 0.000000 0.000000 0.000000 0.000000 -0.001117
#
#
# Mechanical properties :
#
#
# Convention : Reuss Voigt Hill
#
# Bulk Modulus (GPa) = 23.14806 37.22200 30.18503
# Shear Modulus (GPa) = -5.03254 -162.87203 -83.95229
#
# Velocity S-wave (km/s) = -1.50406 -8.55645 -6.14308
# Velocity P-wave (km/s) = 2.71828 8.99363 6.06203
#
# Compressibility (1/GPa) = 0.04320017
#
# Stress axis : x y z
#
# Youngs Moduli (GPa) = 89.63060 95.75288 25.58100
#
# Poissons Ratio (x) = 0.21999 -0.05058
# Poissons Ratio (y) = 0.20592 0.21553
# Poissons Ratio (z) = -0.17721 0.80677
#
# Static dielectric constant tensor:
#      x y z
#    x 4.354340 0.000000 0.000000 
#    y 0.000000 4.112380 0.000000 
#    z 0.000000 0.000000 3.974170 
# 
# 
# High freq. dielectric constant tensor:
#      x y z
#    x 1.887800 0.000000 0.000000 
#    y 0.000000 1.863060 0.000000 
#    z 0.000000 0.000000 1.849920 
# 
# From -- ./inp_files/6502.got.cif
#   From: 2010.03.12/outbox.cif.g09.slc.cpg/sg33_4_cif.got.tgz:6502.got - 2010.04.14 01:49:19.
