data_PCOD8170255
_publ_section_title
;
Structure prediction by ZEFSAII (Michael W. Deem and Ramdas Pophale) SiO2 
 PCOD8170255
Probable space group: P M N 21
;
_chemical_formula_sum "Si O2"
_cell_formula_units_Z 24
_cell_length_a 8.599662
_cell_length_b 26.053852
_cell_length_c 5.014720
_cell_angle_alpha 90.000000
_cell_angle_beta 90.000000
_cell_angle_gamma 90.000000
_cell_volume 1123.569685
_symmetry_space_group_name_H-M "P M N 21"
_symmetry_group_IT_number 31
_symmetry_cell_setting 'orthorhombic'
loop_
_space_group_symop_operation_xyz
x,y,z
1/2-x,-y,1/2+z
-x,y,z
1/2+x,-y,1/2+z
loop_
_atom_site_type_symbol
_atom_site_label
_atom_site_fract_x
_atom_site_fract_y
_atom_site_fract_z
Si Si1 0.678821 0.301172 0.654020
Si Si2 0.821154 0.631857 0.653804
Si Si3 0.179837 0.474487 0.285590
Si Si4 0.681404 0.025430 0.249291
Si Si5 0.820275 0.192992 0.660903
Si Si6 0.818790 0.857567 0.660701
O O1 0.500000 0.283280 0.678257
O O2 0.716488 0.323539 0.364155
O O3 0.787157 0.252732 0.710285
O O4 0.716632 0.345767 0.864119
O O5 0.711370 0.583402 0.695377
O O6 0.000000 0.613910 0.677961
O O7 0.275623 0.486190 0.552160
O O8 0.000000 0.481954 0.352544
O O9 0.500000 0.017458 0.193637
O O10 0.731812 0.083926 0.204398
O O11 0.721268 0.010693 0.551815
O O12 0.776129 0.178884 0.359216
O O13 0.000000 0.181908 0.713256
O O14 0.720119 0.157824 0.858980
O O15 0.000000 0.849541 0.716350
#
# Coordination Sequence:
#
# PCOD8170255 Si02
#       6
#     4   4   4   4   4   4
#     4  10  21  38  61  87 121 163 200 243 304 371
#     4  10  21  38  61  89 120 158 204 249 300 362
#     4  12  25  42  65  93 127 165 206 255 308 363
#     4  11  24  41  64  92 123 161 204 253 306 365
#     4  12  25  40  63  95 126 158 204 261 308 352
#     4  11  24  43  64  88 123 167 208 245 302 375
#
# _framework density 21.360493000000002
#
# number of rings (size 3 to 8) (size 9 to 14) (size 15 to 20)
#    0.000    1.000    0.000    7.000    0.000   10.667 
#    0.000    0.000    0.000    0.000    0.000    0.000 
#    0.000    0.000    0.000    0.000    0.000    0.000 
#
# Total GULP energy -297851.564402 kJ/mol
# GULP energy per Si atom -12410.481850 kJ/mol
# Density = 2.131188 g / cm^3
# Si number density = 21.360493 Si / 1000 Ang^3
#
#
#
# Elastic Constant Matrix: (Units=GPa)
#
#
# Indices 1 2 3 4 5 6 
#
# 1 70.4321 40.8734 11.5645 0.0000 0.0000 0.0000
# 2 40.8734 84.4614 0.2691 0.0000 0.0000 0.0000
# 3 11.5645 0.2691 76.3069 0.0000 0.0000 0.0000
# 4 0.0000 0.0000 0.0000 30.1856 0.0000 0.0000
# 5 0.0000 0.0000 0.0000 0.0000 27.1374 0.0000
# 6 0.0000 0.0000 0.0000 0.0000 0.0000 33.1946
#
#
#
# Elastic Compliance Matrix: (Units=1/GPa)
#
#
# Indices 1 2 3 4 5 6 
#
# 1 0.020434 -0.009879 -0.003062 0.000000 0.000000 0.000000
# 2 -0.009879 0.016616 0.001439 0.000000 0.000000 0.000000
# 3 -0.003062 0.001439 0.013564 0.000000 0.000000 0.000000
# 4 0.000000 0.000000 0.000000 0.033128 0.000000 0.000000
# 5 0.000000 0.000000 0.000000 0.000000 0.036850 0.000000
# 6 0.000000 0.000000 0.000000 0.000000 0.000000 0.030125
#
#
# Mechanical properties :
#
#
# Convention : Reuss Voigt Hill
#
# Bulk Modulus (GPa) = 36.21987 37.40161 36.81074
# Shear Modulus (GPa) = 27.33377 30.00308 28.66843
#
# Velocity S-wave (km/s) = 3.58109 3.75187 3.66748
# Velocity P-wave (km/s) = 5.83885 6.02631 5.93332
#
# Compressibility (1/GPa) = 0.02760916
#
# Stress axis : x y z
#
# Youngs Moduli (GPa) = 48.93883 60.18382 73.72489
#
# Poissons Ratio (x) = 0.59454 0.22574
# Poissons Ratio (y) = 0.48345 -0.10606
# Poissons Ratio (z) = 0.14985 -0.08658
#
# Static dielectric constant tensor:
#      x y z
#    x 3.749680 0.000000 0.000000 
#    y 0.000000 3.776940 0.000000 
#    z 0.000000 0.000000 3.951860 
# 
# 
# High freq. dielectric constant tensor:
#      x y z
#    x 1.833170 0.000000 0.000000 
#    y 0.000000 1.847070 0.000000 
#    z 0.000000 0.000000 1.853390 
# 
# From -- ./inp_files/154.got.cif
#   From: 2010.03.12/outbox.cif.g09.slc.cpg/sg31_1_cif.got.tgz:154.got - 2010.04.14 01:42:59.
