data_PCOD8170196
_publ_section_title
;
Structure prediction by ZEFSAII (Michael W. Deem and Ramdas Pophale) SiO2 
 PCOD8170196
Probable space group: P M N 21
;
_chemical_formula_sum "Si O2"
_cell_formula_units_Z 32
_cell_length_a 8.465459
_cell_length_b 12.087220
_cell_length_c 15.173707
_cell_angle_alpha 90.000000
_cell_angle_beta 90.000000
_cell_angle_gamma 90.000000
_cell_volume 1552.632352
_symmetry_space_group_name_H-M "P M N 21"
_symmetry_group_IT_number 31
_symmetry_cell_setting 'orthorhombic'
loop_
_space_group_symop_operation_xyz
x,y,z
1/2-x,-y,1/2+z
-x,y,z
1/2+x,-y,1/2+z
loop_
_atom_site_type_symbol
_atom_site_label
_atom_site_fract_x
_atom_site_fract_y
_atom_site_fract_z
Si Si1 0.815745 0.394844 0.508660
Si Si2 0.185614 0.849683 0.014939
Si Si3 0.315192 0.525983 0.350887
Si Si4 0.681798 0.006051 0.160991
Si Si5 0.824828 0.227226 0.112735
Si Si6 0.187955 0.010038 0.861105
Si Si7 0.184047 0.466045 0.168629
Si Si8 0.323654 0.755357 0.410294
O O1 0.773995 0.266405 0.520074
O O2 0.770753 0.433692 0.410177
O O3 0.724385 0.469083 0.579539
O O4 0.000000 0.410673 0.524521
O O5 0.000000 0.827658 0.007452
O O6 0.218122 0.919445 0.103760
O O7 0.250905 0.916987 0.929355
O O8 0.500000 0.522662 0.374618
O O9 0.290203 0.508422 0.248023
O O10 0.239959 0.647419 0.369475
O O11 0.500000 0.969728 0.156501
O O12 0.699659 0.129919 0.124924
O O13 0.743267 0.012093 0.261586
O O14 0.774072 0.336149 0.165247
O O15 0.827860 0.265499 0.013049
O O16 0.000000 0.185676 0.141050
O O17 0.000000 0.012135 0.871383
O O18 0.262825 0.129153 0.887378
O O19 0.000000 0.483847 0.188679
O O20 0.500000 0.762703 0.370383
#
# Coordination Sequence:
#
# PCOD8170196 Si02
#       8
#     4   4   4   4   4   4   4   4
#     4  12  26  44  64  92 130 171 213 269 324 380
#     4  11  23  43  66  89 123 170 212 257 317 383
#     4  11  23  41  67  96 127 169 212 262 324 385
#     4  11  23  38  61  96 127 158 206 262 312 371
#     4  10  20  40  66  87 118 163 209 259 312 367
#     4   9  20  38  62  89 121 161 204 248 306 374
#     4  11  24  43  65  95 129 167 215 268 319 382
#     4   9  17  37  65  88 115 159 209 255 308 368
#
# _framework density 20.610157999999998
#
# number of rings (size 3 to 8) (size 9 to 14) (size 15 to 20)
#    0.000    1.500    2.500    2.625    3.500    1.000 
#    0.000    1.875    0.000    0.000    0.000    0.000 
#    0.000    0.000    0.000    0.000    0.000    0.000 
#
# Total GULP energy -396794.639551 kJ/mol
# GULP energy per Si atom -12399.832486 kJ/mol
# Density = 2.056325 g / cm^3
# Si number density = 20.610158 Si / 1000 Ang^3
#
#
#
# Elastic Constant Matrix: (Units=GPa)
#
#
# Indices 1 2 3 4 5 6 
#
# 1 44.9597 27.3935 13.1971 0.0000 0.0000 0.0000
# 2 27.3935 112.7174 23.5053 0.0000 0.0000 0.0000
# 3 13.1971 23.5053 90.1241 0.0000 0.0000 0.0000
# 4 0.0000 0.0000 0.0000 34.8223 0.0000 0.0000
# 5 0.0000 0.0000 0.0000 0.0000 30.3321 0.0000
# 6 0.0000 0.0000 0.0000 0.0000 0.0000 25.5970
#
#
#
# Elastic Compliance Matrix: (Units=1/GPa)
#
#
# Indices 1 2 3 4 5 6 
#
# 1 0.026564 -0.005969 -0.002333 0.000000 0.000000 0.000000
# 2 -0.005969 0.010723 -0.001923 0.000000 0.000000 0.000000
# 3 -0.002333 -0.001923 0.011939 0.000000 0.000000 0.000000
# 4 0.000000 0.000000 0.000000 0.028717 0.000000 0.000000
# 5 0.000000 0.000000 0.000000 0.000000 0.032968 0.000000
# 6 0.000000 0.000000 0.000000 0.000000 0.000000 0.039067
#
#
# Mechanical properties :
#
#
# Convention : Reuss Voigt Hill
#
# Bulk Modulus (GPa) = 34.75072 41.77701 38.26387
# Shear Modulus (GPa) = 27.77453 30.39729 29.08591
#
# Velocity S-wave (km/s) = 3.67497 3.84457 3.76073
# Velocity P-wave (km/s) = 5.90803 6.32627 6.12072
#
# Compressibility (1/GPa) = 0.02877638
#
# Stress axis : x y z
#
# Youngs Moduli (GPa) = 37.64490 93.25398 83.75988
#
# Poissons Ratio (x) = 0.55666 0.19541
# Poissons Ratio (y) = 0.22471 0.16104
# Poissons Ratio (z) = 0.08782 0.17930
#
# Static dielectric constant tensor:
#      x y z
#    x 3.506240 0.000000 0.000000 
#    y 0.000000 3.894970 0.000000 
#    z 0.000000 0.000000 3.734210 
# 
# 
# High freq. dielectric constant tensor:
#      x y z
#    x 1.781310 0.000000 0.000000 
#    y 0.000000 1.822620 0.000000 
#    z 0.000000 0.000000 1.811850 
# 
# From -- ./inp_files/5053.got.cif
#   From: 2010.03.12/outbox.cif.g09.slc.cpg/sg31_3_cif.got.tgz:5053.got - 2010.04.14 01:42:59.
