data_PCOD8170006
_publ_section_title
;
Structure prediction by ZEFSAII (Michael W. Deem and Ramdas Pophale) SiO2 
 PCOD8170006
Probable space group: P M N 21
;
_chemical_formula_sum "Si O2"
_cell_formula_units_Z 32
_cell_length_a 9.096117
_cell_length_b 20.976491
_cell_length_c 9.652270
_cell_angle_alpha 90.000000
_cell_angle_beta 90.000000
_cell_angle_gamma 90.000000
_cell_volume 1841.697675
_symmetry_space_group_name_H-M "P M N 21"
_symmetry_group_IT_number 31
_symmetry_cell_setting 'orthorhombic'
loop_
_space_group_symop_operation_xyz
x,y,z
1/2-x,-y,1/2+z
-x,y,z
1/2+x,-y,1/2+z
loop_
_atom_site_type_symbol
_atom_site_label
_atom_site_fract_x
_atom_site_fract_y
_atom_site_fract_z
Si Si1 0.672680 0.562141 0.625000
Si Si2 0.826660 0.041925 0.421737
Si Si3 0.827183 0.237134 0.421098
Si Si4 0.168912 0.137877 0.187059
Si Si5 0.671589 0.103195 0.918221
Si Si6 0.665275 0.357672 0.324387
Si Si7 0.673693 0.139693 0.612343
Si Si8 0.335327 0.497285 0.350174
O O1 0.500000 0.572207 0.641497
O O2 0.757259 0.626311 0.675091
O O3 0.717524 0.546463 0.467513
O O4 0.724275 0.501562 0.719656
O O5 0.788695 0.075046 0.275011
O O6 0.737376 0.075624 0.544271
O O7 0.000000 0.049242 0.452568
O O8 0.771383 0.969539 0.413379
O O9 0.793587 0.199842 0.278762
O O10 0.760225 0.307316 0.409947
O O11 0.750606 0.202026 0.549744
O O12 0.000000 0.240817 0.451116
O O13 0.000000 0.136585 0.144935
O O14 0.258081 0.141561 0.044943
O O15 0.500000 0.102508 0.944037
O O16 0.711266 0.138326 0.775282
O O17 0.500000 0.331720 0.298998
O O18 0.662700 0.424278 0.410351
O O19 0.500000 0.142260 0.585214
O O20 0.500000 0.515324 0.300443
#
# Coordination Sequence:
#
# PCOD8170006 Si02
#       8
#     4   4   4   4   4   4   4   4
#     4   9  16  29  50  75 105 136 161 195 241 282
#     4   9  18  33  49  71  98 126 161 201 241 298
#     4  10  20  36  54  72  93 126 170 206 240 291
#     4   9  19  33  50  70  96 126 160 203 246 289
#     4  10  20  32  48  71 100 126 157 200 251 298
#     4   9  18  32  52  77 102 129 165 205 238 284
#     4  10  20  33  50  72  97 128 161 203 247 290
#     4   8  17  30  47  76 107 131 163 201 236 280
#
# _framework density 17.375273
#
# number of rings (size 3 to 8) (size 9 to 14) (size 15 to 20)
#    0.750    2.000    0.000    2.625    0.000    6.000 
#    0.000    0.000    2.750    0.000    0.000    0.000 
#    0.000    0.000    0.000    0.000    0.000    0.000 
#
# Total GULP energy -396586.308079 kJ/mol
# GULP energy per Si atom -12393.322127 kJ/mol
# Density = 1.733573 g / cm^3
# Si number density = 17.375273 Si / 1000 Ang^3
#
#
#
# Elastic Constant Matrix: (Units=GPa)
#
#
# Indices 1 2 3 4 5 6 
#
# 1 67.4858 10.4643 32.7495 0.0000 0.0000 0.0000
# 2 10.4643 29.1615 -0.1022 0.0000 0.0000 0.0000
# 3 32.7495 -0.1022 75.4574 0.0000 0.0000 0.0000
# 4 0.0000 0.0000 0.0000 15.8261 0.0000 0.0000
# 5 0.0000 0.0000 0.0000 0.0000 31.0438 0.0000
# 6 0.0000 0.0000 0.0000 0.0000 0.0000 24.0875
#
#
#
# Elastic Compliance Matrix: (Units=1/GPa)
#
#
# Indices 1 2 3 4 5 6 
#
# 1 0.020208 -0.007282 -0.008780 0.000000 0.000000 0.000000
# 2 -0.007282 0.036916 0.003211 0.000000 0.000000 0.000000
# 3 -0.008780 0.003211 0.017068 0.000000 0.000000 0.000000
# 4 0.000000 0.000000 0.000000 0.063187 0.000000 0.000000
# 5 0.000000 0.000000 0.000000 0.000000 0.032213 0.000000
# 6 0.000000 0.000000 0.000000 0.000000 0.000000 0.041515
#
#
# Mechanical properties :
#
#
# Convention : Reuss Voigt Hill
#
# Bulk Modulus (GPa) = 20.62377 28.70310 24.66344
# Shear Modulus (GPa) = 19.76496 22.79105 21.27800
#
# Velocity S-wave (km/s) = 3.37639 3.62566 3.50325
# Velocity P-wave (km/s) = 5.20533 5.83803 5.53073
#
# Compressibility (1/GPa) = 0.04848773
#
# Stress axis : x y z
#
# Youngs Moduli (GPa) = 49.48518 27.08844 58.59033
#
# Poissons Ratio (x) = 0.19726 0.51445
# Poissons Ratio (y) = 0.36036 -0.18811
# Poissons Ratio (z) = 0.43450 -0.08697
#
# Static dielectric constant tensor:
#      x y z
#    x 3.234290 0.000000 0.000000 
#    y 0.000000 3.022810 0.000000 
#    z 0.000000 0.000000 3.061880 
# 
# 
# High freq. dielectric constant tensor:
#      x y z
#    x 1.679640 0.000000 0.000000 
#    y 0.000000 1.647780 0.000000 
#    z 0.000000 0.000000 1.656230 
# 
# From -- ./inp_files/1889.got.cif
#   From: 2010.03.12/outbox.cif.g09.slc.cpg/sg31_1_cif.got.tgz:1889.got - 2010.04.14 01:42:59.
