data_PCOD8170024
_publ_section_title
;
Structure prediction by ZEFSAII (Michael W. Deem and Ramdas Pophale) SiO2 
 PCOD8170024
Probable space group: P M N 21
;
_chemical_formula_sum "Si O2"
_cell_formula_units_Z 32
_cell_length_a 8.642040
_cell_length_b 11.349692
_cell_length_c 16.326137
_cell_angle_alpha 90.000000
_cell_angle_beta 90.000000
_cell_angle_gamma 90.000000
_cell_volume 1601.340858
_symmetry_space_group_name_H-M "P M N 21"
_symmetry_group_IT_number 31
_symmetry_cell_setting 'orthorhombic'
loop_
_space_group_symop_operation_xyz
x,y,z
1/2-x,-y,1/2+z
-x,y,z
1/2+x,-y,1/2+z
loop_
_atom_site_type_symbol
_atom_site_label
_atom_site_fract_x
_atom_site_fract_y
_atom_site_fract_z
Si Si1 0.326792 0.721935 0.977890
Si Si2 0.320712 0.310609 0.786554
Si Si3 0.172083 0.428627 0.637667
Si Si4 0.182739 0.445504 0.341446
Si Si5 0.315973 0.921128 0.647820
Si Si6 0.319308 0.031205 0.478399
Si Si7 0.682939 0.654495 0.668827
Si Si8 0.181483 0.059741 0.803714
O O1 0.500000 0.762706 0.950466
O O2 0.247048 0.631257 0.914625
O O3 0.214224 0.831659 0.985220
O O4 0.338703 0.656671 0.062249
O O5 0.500000 0.273754 0.795117
O O6 0.294372 0.367222 0.697762
O O7 0.272114 0.415841 0.849467
O O8 0.213181 0.198578 0.799880
O O9 0.235150 0.558165 0.609675
O O10 0.000000 0.440543 0.676647
O O11 0.241703 0.385906 0.258136
O O12 0.000000 0.436667 0.344838
O O13 0.500000 0.929518 0.650648
O O14 0.250071 0.970032 0.560821
O O15 0.257319 0.786485 0.652722
O O16 0.256593 0.993686 0.726354
O O17 0.500000 0.006413 0.477729
O O18 0.250159 0.983864 0.391725
O O19 0.500000 0.647959 0.657297
O O20 0.000000 0.036263 0.798620
#
# Coordination Sequence:
#
# PCOD8170024 Si02
#       8
#     4   4   4   4   4   4   4   4
#     4  10  20  35  55  78 105 138 179 225 272 326
#     4  10  20  36  57  78 104 143 187 224 266 329
#     4  10  20  33  53  82 112 139 171 223 283 329
#     4   8  16  32  53  76 100 129 172 222 263 310
#     4  10  21  39  61  82 110 153 196 229 270 333
#     4  10  23  39  55  81 115 147 184 232 282 333
#     4   9  18  34  56  78 102 138 183 224 265 323
#     4  11  23  38  56  83 118 149 182 233 289 331
#
# _framework density 19.983253000000001
#
# number of rings (size 3 to 8) (size 9 to 14) (size 15 to 20)
#    0.000    2.250    0.000    3.375    0.000    7.000 
#    0.000    4.375    0.000    0.000    0.000    0.000 
#    0.000    0.000    0.000    0.000    0.000    0.000 
#
# Total GULP energy -396591.611035 kJ/mol
# GULP energy per Si atom -12393.487845 kJ/mol
# Density = 1.993777 g / cm^3
# Si number density = 19.983253 Si / 1000 Ang^3
#
#
#
# Elastic Constant Matrix: (Units=GPa)
#
#
# Indices 1 2 3 4 5 6 
#
# 1 27.0728 16.7261 16.6724 0.0000 0.0000 0.0000
# 2 16.7261 156.6839 55.6322 0.0000 0.0000 0.0000
# 3 16.6724 55.6322 106.1096 0.0000 0.0000 0.0000
# 4 0.0000 0.0000 0.0000 32.3040 0.0000 0.0000
# 5 0.0000 0.0000 0.0000 0.0000 21.2176 0.0000
# 6 0.0000 0.0000 0.0000 0.0000 0.0000 29.3264
#
#
#
# Elastic Compliance Matrix: (Units=1/GPa)
#
#
# Indices 1 2 3 4 5 6 
#
# 1 0.041748 -0.002614 -0.005189 0.000000 0.000000 0.000000
# 2 -0.002614 0.008006 -0.003787 0.000000 0.000000 0.000000
# 3 -0.005189 -0.003787 0.012225 0.000000 0.000000 0.000000
# 4 0.000000 0.000000 0.000000 0.030956 0.000000 0.000000
# 5 0.000000 0.000000 0.000000 0.000000 0.047131 0.000000
# 6 0.000000 0.000000 0.000000 0.000000 0.000000 0.034099
#
#
# Mechanical properties :
#
#
# Convention : Reuss Voigt Hill
#
# Bulk Modulus (GPa) = 25.77381 51.99195 38.88288
# Shear Modulus (GPa) = 23.77814 29.95864 26.86839
#
# Velocity S-wave (km/s) = 3.45324 3.87613 3.67078
# Velocity P-wave (km/s) = 5.36894 6.79020 6.12096
#
# Compressibility (1/GPa) = 0.03879908
#
# Stress axis : x y z
#
# Youngs Moduli (GPa) = 23.95315 124.90907 81.80073
#
# Poissons Ratio (x) = 0.32654 0.42447
# Poissons Ratio (y) = 0.06262 0.30975
# Poissons Ratio (z) = 0.12429 0.47298
#
# Static dielectric constant tensor:
#      x y z
#    x 3.660600 0.000000 0.000000 
#    y 0.000000 3.876080 0.000000 
#    z 0.000000 0.000000 3.848680 
# 
# 
# High freq. dielectric constant tensor:
#      x y z
#    x 1.759570 0.000000 0.000000 
#    y 0.000000 1.795820 0.000000 
#    z 0.000000 0.000000 1.774560 
# 
# From -- ./inp_files/5021.got.cif
#   From: 2010.03.12/outbox.cif.g09.slc.cpg/sg31_3_cif.got.tgz:5021.got - 2010.04.14 01:42:59.
