data_PCOD8170264
_publ_section_title
;
Structure prediction by ZEFSAII (Michael W. Deem and Ramdas Pophale) SiO2 
 PCOD8170264
Probable space group: P M N 21
;
_chemical_formula_sum "Si O2"
_cell_formula_units_Z 32
_cell_length_a 9.007494
_cell_length_b 11.990997
_cell_length_c 15.224427
_cell_angle_alpha 90.000000
_cell_angle_beta 90.000000
_cell_angle_gamma 90.000000
_cell_volume 1644.372601
_symmetry_space_group_name_H-M "P M N 21"
_symmetry_group_IT_number 31
_symmetry_cell_setting 'orthorhombic'
loop_
_space_group_symop_operation_xyz
x,y,z
1/2-x,-y,1/2+z
-x,y,z
1/2+x,-y,1/2+z
loop_
_atom_site_type_symbol
_atom_site_label
_atom_site_fract_x
_atom_site_fract_y
_atom_site_fract_z
Si Si1 0.323834 0.990369 0.969400
Si Si2 0.673931 0.399117 0.820864
Si Si3 0.172977 0.751165 0.738987
Si Si4 0.675404 0.747024 0.918021
Si Si5 0.331052 0.462049 0.470944
Si Si6 0.832329 0.441900 0.162758
Si Si7 0.674845 0.008061 0.167796
Si Si8 0.824062 0.857464 0.309816
O O1 0.500000 0.993220 0.968738
O O2 0.263700 0.868929 0.942319
O O3 0.264682 0.080461 0.898309
O O4 0.264909 0.013674 0.067658
O O5 0.500000 0.405447 0.841192
O O6 0.758051 0.456165 0.900788
O O7 0.715254 0.460504 0.730105
O O8 0.726150 0.270786 0.814073
O O9 0.271574 0.715031 0.821239
O O10 0.219271 0.662186 0.665354
O O11 0.000000 0.742024 0.760665
O O12 0.217179 0.874516 0.710192
O O13 0.500000 0.740366 0.924835
O O14 0.746210 0.655306 0.981510
O O15 0.500000 0.439941 0.442286
O O16 0.319887 0.515760 0.565138
O O17 0.000000 0.402613 0.184022
O O18 0.500000 0.984807 0.169027
O O19 0.753658 0.910962 0.222557
O O20 0.000000 0.870021 0.301485
#
# Coordination Sequence:
#
# PCOD8170264 Si02
#       8
#     4   4   4   4   4   4   4   4
#     4   9  20  38  59  85 117 155 194 236 288 350
#     4  10  22  40  62  85 116 161 200 239 292 353
#     4  11  22  37  62  90 117 152 199 250 297 347
#     4  11  21  38  63  86 116 156 199 244 297 355
#     4  11  24  40  60  89 122 155 196 248 298 347
#     4  10  23  41  59  85 122 158 196 243 296 352
#     4  10  22  39  59  87 121 153 193 246 295 345
#     4  10  21  39  62  85 115 156 199 238 287 351
#
# _framework density 19.46031
#
# number of rings (size 3 to 8) (size 9 to 14) (size 15 to 20)
#    0.000    1.750    2.500    1.125    3.500    2.000 
#    0.000    1.250    0.000    0.000    0.000    0.000 
#    0.000    0.000    0.000    0.000    0.000    0.000 
#
# Total GULP energy -396863.152014 kJ/mol
# GULP energy per Si atom -12401.973500 kJ/mol
# Density = 1.941602 g / cm^3
# Si number density = 19.460310 Si / 1000 Ang^3
#
#
#
# Elastic Constant Matrix: (Units=GPa)
#
#
# Indices 1 2 3 4 5 6 
#
# 1 55.7477 43.8290 25.7522 0.0000 0.0000 0.0000
# 2 43.8290 108.5273 17.7612 0.0000 0.0000 0.0000
# 3 25.7522 17.7612 91.6659 0.0000 0.0000 0.0000
# 4 0.0000 0.0000 0.0000 23.9169 0.0000 0.0000
# 5 0.0000 0.0000 0.0000 0.0000 27.5884 0.0000
# 6 0.0000 0.0000 0.0000 0.0000 0.0000 26.3425
#
#
#
# Elastic Compliance Matrix: (Units=1/GPa)
#
#
# Indices 1 2 3 4 5 6 
#
# 1 0.029276 -0.010820 -0.006128 0.000000 0.000000 0.000000
# 2 -0.010820 0.013515 0.000421 0.000000 0.000000 0.000000
# 3 -0.006128 0.000421 0.012549 0.000000 0.000000 0.000000
# 4 0.000000 0.000000 0.000000 0.041811 0.000000 0.000000
# 5 0.000000 0.000000 0.000000 0.000000 0.036247 0.000000
# 6 0.000000 0.000000 0.000000 0.000000 0.000000 0.037961
#
#
# Mechanical properties :
#
#
# Convention : Reuss Voigt Hill
#
# Bulk Modulus (GPa) = 44.87189 47.84730 46.35960
# Shear Modulus (GPa) = 23.60245 26.80948 25.20596
#
# Velocity S-wave (km/s) = 3.48638 3.71570 3.60286
# Velocity P-wave (km/s) = 6.27014 6.56118 6.41731
#
# Compressibility (1/GPa) = 0.02228567
#
# Stress axis : x y z
#
# Youngs Moduli (GPa) = 34.15820 73.99140 79.68655
#
# Poissons Ratio (x) = 0.80059 0.48832
# Poissons Ratio (y) = 0.36960 -0.03355
# Poissons Ratio (z) = 0.20932 -0.03116
#
# Static dielectric constant tensor:
#      x y z
#    x 3.445860 0.000000 0.000000 
#    y 0.000000 3.752500 0.000000 
#    z 0.000000 0.000000 3.774570 
# 
# 
# High freq. dielectric constant tensor:
#      x y z
#    x 1.742890 0.000000 0.000000 
#    y 0.000000 1.772140 0.000000 
#    z 0.000000 0.000000 1.765010 
# 
# From -- ./inp_files/4896.got.cif
#   From: 2010.03.12/outbox.cif.g09.slc.cpg/sg31_3_cif.got.tgz:4896.got - 2010.04.14 01:42:59.
