data_PCOD8170472
_publ_section_title
;
Structure prediction by ZEFSAII (Michael W. Deem and Ramdas Pophale) SiO2 
 PCOD8170472
Probable space group: P B A 2
;
_chemical_formula_sum "Si O2"
_cell_formula_units_Z 32
_cell_length_a 14.799602
_cell_length_b 9.087060
_cell_length_c 10.833588
_cell_angle_alpha 90.000000
_cell_angle_beta 90.000000
_cell_angle_gamma 90.000000
_cell_volume 1456.953688
_symmetry_space_group_name_H-M "P B A 2"
_symmetry_group_IT_number 32
_symmetry_cell_setting 'orthorhombic'
loop_
_space_group_symop_operation_xyz
x,y,z
-x,-y,z
1/2-x,1/2+y,z
1/2+x,1/2-y,z
loop_
_atom_site_type_symbol
_atom_site_label
_atom_site_fract_x
_atom_site_fract_y
_atom_site_fract_z
Si Si1 0.818595 0.901675 0.361280
Si Si2 0.824755 0.215012 0.248053
Si Si3 0.309523 0.227402 0.972971
Si Si4 0.509458 0.327142 0.942703
Si Si5 0.904357 0.915933 0.618343
Si Si6 0.255793 0.483482 0.809889
Si Si7 0.477639 0.666917 0.216900
Si Si8 0.424505 0.876927 0.728244
O O1 0.723629 0.815237 0.351965
O O2 0.843876 0.951438 0.499105
O O3 0.895232 0.789607 0.306937
O O4 0.810207 0.044942 0.277068
O O5 0.931284 0.260162 0.244734
O O6 0.779906 0.239485 0.113070
O O7 0.416573 0.241786 0.961845
O O8 0.272562 0.323716 0.861618
O O9 0.268913 0.071025 0.934729
O O10 0.500000 0.500000 0.899106
O O11 0.566622 0.227478 0.849379
O O12 0.557867 0.323539 0.075870
O O13 0.843574 0.959122 0.736809
O O14 0.926335 0.740971 0.616797
O O15 0.000000 0.000000 0.617421
O O16 0.168424 0.468781 0.722415
O O17 0.500000 0.500000 0.251029
O O18 0.500000 0.000000 0.713588
#
# Coordination Sequence:
#
# PCOD8170472 Si02
#       8
#     4   4   4   4   4   4   4   4
#     4  11  24  45  69  97 131 183 233 286 336 412
#     4  10  22  41  68 100 135 169 228 284 345 411
#     4  11  22  40  66 101 138 178 218 287 352 421
#     4  10  20  38  67  97 137 177 224 277 352 424
#     4  12  28  48  71  93 134 196 239 284 341 415
#     4  12  25  41  65 100 139 176 229 276 350 410
#     4   8  18  39  65  94 126 178 219 271 339 418
#     4  12  25  43  66 103 138 175 224 291 340 411
#
# _framework density 21.963636999999999
#
# number of rings (size 3 to 8) (size 9 to 14) (size 15 to 20)
#    0.000    1.250    2.500    4.500    3.500    0.000 
#    2.250    0.625    0.000    0.000    0.000    0.000 
#    0.000    0.000    0.000    0.000    0.000    0.000 
#
# Total GULP energy -396571.657377 kJ/mol
# GULP energy per Si atom -12392.864293 kJ/mol
# Density = 2.191365 g / cm^3
# Si number density = 21.963637 Si / 1000 Ang^3
#
#
#
# Elastic Constant Matrix: (Units=GPa)
#
#
# Indices 1 2 3 4 5 6 
#
# 1 95.7238 36.1148 30.3454 0.0000 0.0000 0.0000
# 2 36.1148 77.5890 21.3619 0.0000 0.0000 0.0000
# 3 30.3454 21.3619 77.8260 0.0000 0.0000 0.0000
# 4 0.0000 0.0000 0.0000 24.2569 0.0000 0.0000
# 5 0.0000 0.0000 0.0000 0.0000 56.5192 0.0000
# 6 0.0000 0.0000 0.0000 0.0000 0.0000 38.4417
#
#
#
# Elastic Compliance Matrix: (Units=1/GPa)
#
#
# Indices 1 2 3 4 5 6 
#
# 1 0.013675 -0.005297 -0.003878 0.000000 0.000000 0.000000
# 2 -0.005297 0.015994 -0.002325 0.000000 0.000000 0.000000
# 3 -0.003878 -0.002325 0.014999 0.000000 0.000000 0.000000
# 4 0.000000 0.000000 0.000000 0.041225 0.000000 0.000000
# 5 0.000000 0.000000 0.000000 0.000000 0.017693 0.000000
# 6 0.000000 0.000000 0.000000 0.000000 0.000000 0.026013
#
#
# Mechanical properties :
#
#
# Convention : Reuss Voigt Hill
#
# Bulk Modulus (GPa) = 46.15025 47.42034 46.78529
# Shear Modulus (GPa) = 31.28470 34.73134 33.00802
#
# Velocity S-wave (km/s) = 3.77820 3.98088 3.88086
# Velocity P-wave (km/s) = 6.33173 6.53966 6.43653
#
# Compressibility (1/GPa) = 0.02166836
#
# Stress axis : x y z
#
# Youngs Moduli (GPa) = 73.12798 62.52278 66.66992
#
# Poissons Ratio (x) = 0.33121 0.25854
# Poissons Ratio (y) = 0.38739 0.15498
# Poissons Ratio (z) = 0.28358 0.14534
#
# Static dielectric constant tensor:
#      x y z
#    x 4.133320 0.000000 0.000000 
#    y 0.000000 3.960030 0.000000 
#    z 0.000000 0.000000 3.903840 
# 
# 
# High freq. dielectric constant tensor:
#      x y z
#    x 1.877150 0.000000 0.000000 
#    y 0.000000 1.846940 0.000000 
#    z 0.000000 0.000000 1.853620 
# 
# From -- ./inp_files/3762.got.cif
#   From: 2010.03.12/outbox.cif.g09.slc.cpg/sg32_2_cif.got.tgz:3762.got - 2010.04.14 01:46:39.
