data_PCOD8170518
_publ_section_title
;
Structure prediction by ZEFSAII (Michael W. Deem and Ramdas Pophale) SiO2 
 PCOD8170518
Probable space group: P B A 2
;
_chemical_formula_sum "Si O2"
_cell_formula_units_Z 26
_cell_length_a 12.352573
_cell_length_b 8.054332
_cell_length_c 11.987668
_cell_angle_alpha 90.000000
_cell_angle_beta 90.000000
_cell_angle_gamma 90.000000
_cell_volume 1192.673756
_symmetry_space_group_name_H-M "P B A 2"
_symmetry_group_IT_number 32
_symmetry_cell_setting 'orthorhombic'
loop_
_space_group_symop_operation_xyz
x,y,z
-x,-y,z
1/2-x,1/2+y,z
1/2+x,1/2-y,z
loop_
_atom_site_type_symbol
_atom_site_label
_atom_site_fract_x
_atom_site_fract_y
_atom_site_fract_z
Si Si1 0.385247 0.441537 0.895960
Si Si2 0.342075 0.551541 0.129310
Si Si3 0.925744 0.660237 0.409298
Si Si4 0.882484 0.584953 0.170010
Si Si5 0.754267 0.309730 0.771443
Si Si6 0.000000 0.000000 0.323479
Si Si7 0.377294 0.941553 0.641466
O O1 0.500000 0.500000 0.848504
O O2 0.291895 0.569009 0.863820
O O3 0.356584 0.270350 0.835159
O O4 0.386020 0.432642 0.030696
O O5 0.211353 0.541923 0.134746
O O6 0.375828 0.742322 0.101322
O O7 0.394793 0.483693 0.243916
O O8 0.856112 0.639364 0.297454
O O9 0.854987 0.648867 0.522216
O O10 0.000000 0.500000 0.417580
O O11 0.991533 0.835549 0.401678
O O12 0.000000 0.500000 0.154684
O O13 0.657151 0.188047 0.736678
O O14 0.799192 0.399647 0.659408
O O15 0.500000 0.000000 0.657938
#
# Coordination Sequence:
#
# PCOD8170518 Si02
#       7
#     4   4   4   4   4   2   4
#     4  11  22  41  64  93 127 174 224 280 338 403
#     4  11  23  39  67  92 138 179 233 283 347 406
#     4   9  21  42  64  93 136 168 223 271 339 400
#     4  10  24  40  62  96 136 181 229 284 337 419
#     4  10  23  40  64  93 127 172 227 278 341 397
#     4  10  22  42  64 100 134 180 222 282 332 420
#     4  10  21  43  63  93 132 169 223 283 338 409
#
# _framework density 21.799759000000002
#
# number of rings (size 3 to 8) (size 9 to 14) (size 15 to 20)
#    0.000    1.846    0.769    1.846    6.462    3.692 
#   15.231    3.846    0.000    0.000    0.000    0.000 
#    0.000    0.000    0.000    0.000    0.000    0.000 
#
# Total GULP energy -322229.648839 kJ/mol
# GULP energy per Si atom -12393.448032 kJ/mol
# Density = 2.175014 g / cm^3
# Si number density = 21.799759 Si / 1000 Ang^3
#
#
#
# Elastic Constant Matrix: (Units=GPa)
#
#
# Indices 1 2 3 4 5 6 
#
# 1 122.3833 42.2556 21.9113 0.0000 0.0000 0.0000
# 2 42.2556 132.5794 44.7498 0.0000 0.0000 0.0000
# 3 21.9113 44.7498 94.2231 0.0000 0.0000 0.0000
# 4 0.0000 0.0000 0.0000 -63.4102 0.0000 0.0000
# 5 0.0000 0.0000 0.0000 0.0000 28.0544 0.0000
# 6 0.0000 0.0000 0.0000 0.0000 0.0000 36.2916
#
#
#
# Elastic Compliance Matrix: (Units=1/GPa)
#
#
# Indices 1 2 3 4 5 6 
#
# 1 0.009244 -0.002645 -0.000894 0.000000 0.000000 0.000000
# 2 -0.002645 0.009739 -0.004010 0.000000 0.000000 0.000000
# 3 -0.000894 -0.004010 0.012726 0.000000 0.000000 0.000000
# 4 0.000000 0.000000 0.000000 -0.015770 0.000000 0.000000
# 5 0.000000 0.000000 0.000000 0.000000 0.035645 0.000000
# 6 0.000000 0.000000 0.000000 0.000000 0.000000 0.027555
#
#
# Mechanical properties :
#
#
# Convention : Reuss Voigt Hill
#
# Bulk Modulus (GPa) = 60.19950 63.00212 61.60081
# Shear Modulus (GPa) = 50.11371 16.20511 33.15941
#
# Velocity S-wave (km/s) = 4.79980 2.72942 3.90435
# Velocity P-wave (km/s) = 7.64148 6.23668 6.97454
#
# Compressibility (1/GPa) = 0.01661143
#
# Stress axis : x y z
#
# Youngs Moduli (GPa) = 108.17623 102.67759 78.58142
#
# Poissons Ratio (x) = 0.27155 0.07023
# Poissons Ratio (y) = 0.28609 0.31515
# Poissons Ratio (z) = 0.09667 0.41179
#
# Static dielectric constant tensor:
#      x y z
#    x 3.796600 0.000000 0.000000 
#    y 0.000000 4.547600 0.000000 
#    z 0.000000 0.000000 4.254620 
# 
# 
# High freq. dielectric constant tensor:
#      x y z
#    x 1.847130 0.000000 0.000000 
#    y 0.000000 1.863600 0.000000 
#    z 0.000000 0.000000 1.850300 
# 
# From -- ./inp_files/3838.got.cif
#   From: 2010.03.12/outbox.cif.g09.slc.cpg/sg32_2_cif.got.tgz:3838.got - 2010.04.14 01:46:39.
