data_PCOD8170485
_publ_section_title
;
Structure prediction by ZEFSAII (Michael W. Deem and Ramdas Pophale) SiO2 
 PCOD8170485
Probable space group: P B A 2
;
_chemical_formula_sum "Si O2"
_cell_formula_units_Z 24
_cell_length_a 9.145753
_cell_length_b 14.675043
_cell_length_c 8.072220
_cell_angle_alpha 90.000000
_cell_angle_beta 90.000000
_cell_angle_gamma 90.000000
_cell_volume 1083.407506
_symmetry_space_group_name_H-M "P B A 2"
_symmetry_group_IT_number 32
_symmetry_cell_setting 'orthorhombic'
loop_
_space_group_symop_operation_xyz
x,y,z
-x,-y,z
1/2-x,1/2+y,z
1/2+x,1/2-y,z
loop_
_atom_site_type_symbol
_atom_site_label
_atom_site_fract_x
_atom_site_fract_y
_atom_site_fract_z
Si Si1 0.151731 0.657909 0.594350
Si Si2 0.955889 0.806123 0.709365
Si Si3 0.000000 0.500000 0.793220
Si Si4 0.752594 0.358096 0.224227
Si Si5 0.500000 0.500000 0.764666
Si Si6 0.552348 0.701388 0.081788
Si Si7 0.744151 0.531907 0.012995
O O1 0.281005 0.700532 0.705835
O O2 0.221071 0.634095 0.418867
O O3 0.025779 0.734429 0.581077
O O4 0.089671 0.567188 0.676346
O O5 0.012155 0.907977 0.656062
O O6 0.006474 0.781999 0.893460
O O7 0.890984 0.557676 0.911795
O O8 0.588416 0.322857 0.192495
O O9 0.874659 0.293161 0.146028
O O10 0.778447 0.459240 0.155336
O O11 0.637584 0.482363 0.883172
O O12 0.672347 0.620946 0.094177
#
# Coordination Sequence:
#
# PCOD8170485 Si02
#       7
#     4   4   2   4   2   4   4
#     4  12  28  44  69 107 148 181 226 302 362 411
#     4  11  23  46  70 101 136 186 240 285 341 429
#     4  12  26  46  70 108 138 190 244 288 350 420
#     4  12  25  48  66 106 145 178 232 295 362 406
#     4  10  20  44  72 102 122 180 248 280 334 410
#     4  11  24  45  75  99 132 191 242 284 341 432
#     4  11  23  45  74 100 133 184 247 286 336 431
#
# _framework density 22.152328000000001
#
# number of rings (size 3 to 8) (size 9 to 14) (size 15 to 20)
#    0.000    0.667    5.000    3.000    9.333    0.667 
#    9.000    0.000    0.000    0.000    0.000    0.000 
#    0.000    0.000    0.000    0.000    0.000    0.000 
#
# Total GULP energy -297678.765843 kJ/mol
# GULP energy per Si atom -12403.281910 kJ/mol
# Density = 2.210191 g / cm^3
# Si number density = 22.152328 Si / 1000 Ang^3
#
#
#
# Elastic Constant Matrix: (Units=GPa)
#
#
# Indices 1 2 3 4 5 6 
#
# 1 136.5477 33.8058 59.1251 0.0000 0.0000 0.0000
# 2 33.8058 85.5443 36.5512 0.0000 0.0000 0.0000
# 3 59.1251 36.5512 90.7242 0.0000 0.0000 0.0000
# 4 0.0000 0.0000 0.0000 25.9552 0.0000 0.0000
# 5 0.0000 0.0000 0.0000 0.0000 36.7759 0.0000
# 6 0.0000 0.0000 0.0000 0.0000 0.0000 46.8142
#
#
#
# Elastic Compliance Matrix: (Units=1/GPa)
#
#
# Indices 1 2 3 4 5 6 
#
# 1 0.010351 -0.001459 -0.006158 0.000000 0.000000 0.000000
# 2 -0.001459 0.014326 -0.004821 0.000000 0.000000 0.000000
# 3 -0.006158 -0.004821 0.016978 0.000000 0.000000 0.000000
# 4 0.000000 0.000000 0.000000 0.038528 0.000000 0.000000
# 5 0.000000 0.000000 0.000000 0.000000 0.027192 0.000000
# 6 0.000000 0.000000 0.000000 0.000000 0.000000 0.021361
#
#
# Mechanical properties :
#
#
# Convention : Reuss Voigt Hill
#
# Bulk Modulus (GPa) = 59.59789 63.53116 61.56452
# Shear Modulus (GPa) = 31.40606 34.13135 32.76871
#
# Velocity S-wave (km/s) = 3.76936 3.92951 3.85027
# Velocity P-wave (km/s) = 6.77541 7.02350 6.90057
#
# Compressibility (1/GPa) = 0.01677912
#
# Stress axis : x y z
#
# Youngs Moduli (GPa) = 96.60789 69.80127 58.90092
#
# Poissons Ratio (x) = 0.10187 0.36270
# Poissons Ratio (y) = 0.14100 0.28394
# Poissons Ratio (z) = 0.59490 0.33649
#
# Static dielectric constant tensor:
#      x y z
#    x 4.585510 0.000000 0.000000 
#    y 0.000000 3.978580 0.000000 
#    z 0.000000 0.000000 3.754120 
# 
# 
# High freq. dielectric constant tensor:
#      x y z
#    x 1.891180 0.000000 0.000000 
#    y 0.000000 1.880050 0.000000 
#    z 0.000000 0.000000 1.852210 
# 
# From -- ./inp_files/2334.got.cif
#   From: 2010.03.12/outbox.cif.g09.slc.cpg/sg32_2_cif.got.tgz:2334.got - 2010.04.14 01:46:39.
