data_PCOD8170201
_publ_section_title
;
Structure prediction by ZEFSAII (Michael W. Deem and Ramdas Pophale) SiO2 
 PCOD8170201
Probable space group: P M N 21
;
_chemical_formula_sum "Si O2"
_cell_formula_units_Z 32
_cell_length_a 9.433070
_cell_length_b 12.644881
_cell_length_c 14.417174
_cell_angle_alpha 90.000000
_cell_angle_beta 90.000000
_cell_angle_gamma 90.000000
_cell_volume 1719.681201
_symmetry_space_group_name_H-M "P M N 21"
_symmetry_group_IT_number 31
_symmetry_cell_setting 'orthorhombic'
loop_
_space_group_symop_operation_xyz
x,y,z
1/2-x,-y,1/2+z
-x,y,z
1/2+x,-y,1/2+z
loop_
_atom_site_type_symbol
_atom_site_label
_atom_site_fract_x
_atom_site_fract_y
_atom_site_fract_z
Si Si1 0.164956 0.968679 0.826510
Si Si2 0.839857 0.486649 0.129198
Si Si3 0.833020 0.205477 0.818332
Si Si4 0.331890 0.694939 0.129590
Si Si5 0.335583 0.723028 0.515287
Si Si6 0.661510 0.801891 0.943955
Si Si7 0.841601 0.328239 0.274922
Si Si8 0.836801 0.827295 0.660829
O O1 0.246789 0.894964 0.899346
O O2 0.187357 0.935379 0.718478
O O3 0.000000 0.961084 0.853415
O O4 0.226243 0.087148 0.833809
O O5 0.734192 0.581146 0.109497
O O6 0.825507 0.448559 0.237515
O O7 0.000000 0.524075 0.108399
O O8 0.798131 0.389729 0.060774
O O9 0.769272 0.258812 0.725709
O O10 0.791946 0.277335 0.906928
O O11 0.000000 0.196932 0.803805
O O12 0.500000 0.679615 0.131826
O O13 0.286641 0.775199 0.047578
O O14 0.500000 0.750194 0.525682
O O15 0.252389 0.819513 0.565791
O O16 0.500000 0.842362 0.945377
O O17 0.673111 0.691228 0.885111
O O18 0.715328 0.264439 0.228512
O O19 0.000000 0.288737 0.242584
O O20 0.000000 0.809662 0.635665
#
# Coordination Sequence:
#
# PCOD8170201 Si02
#       8
#     4   4   4   4   4   4   4   4
#     4   9  18  33  53  75 100 131 165 204 247 291
#     4   9  18  32  50  72  98 129 167 210 250 288
#     4   9  19  36  53  71 100 136 170 200 240 299
#     4  10  21  35  51  73 102 134 166 203 249 298
#     4   9  18  34  54  72  96 135 173 202 241 297
#     4   9  18  33  53  76 101 131 167 205 247 297
#     4   8  15  30  50  71  98 131 164 197 240 295
#     4   9  16  27  48  78 103 121 154 207 252 283
#
# _framework density 18.608101000000001
#
# number of rings (size 3 to 8) (size 9 to 14) (size 15 to 20)
#    0.000    3.000    0.000    1.125    0.000    5.000 
#    0.000    3.125    0.000    0.000    0.000    0.000 
#    0.000    0.000    0.000    0.000    0.000    0.000 
#
# Total GULP energy -396495.550969 kJ/mol
# GULP energy per Si atom -12390.485968 kJ/mol
# Density = 1.856575 g / cm^3
# Si number density = 18.608101 Si / 1000 Ang^3
#
#
#
# Elastic Constant Matrix: (Units=GPa)
#
#
# Indices 1 2 3 4 5 6 
#
# 1 52.5581 40.3100 41.2836 0.0000 0.0000 0.0000
# 2 40.3100 100.8886 55.3267 0.0000 0.0000 0.0000
# 3 41.2836 55.3267 146.0738 0.0000 0.0000 0.0000
# 4 0.0000 0.0000 0.0000 24.3399 0.0000 0.0000
# 5 0.0000 0.0000 0.0000 0.0000 18.9677 0.0000
# 6 0.0000 0.0000 0.0000 0.0000 0.0000 22.4431
#
#
#
# Elastic Compliance Matrix: (Units=1/GPa)
#
#
# Indices 1 2 3 4 5 6 
#
# 1 0.030053 -0.009277 -0.004980 0.000000 0.000000 0.000000
# 2 -0.009277 0.015374 -0.003201 0.000000 0.000000 0.000000
# 3 -0.004980 -0.003201 0.009466 0.000000 0.000000 0.000000
# 4 0.000000 0.000000 0.000000 0.041085 0.000000 0.000000
# 5 0.000000 0.000000 0.000000 0.000000 0.052721 0.000000
# 6 0.000000 0.000000 0.000000 0.000000 0.000000 0.044557
#
#
# Mechanical properties :
#
#
# Convention : Reuss Voigt Hill
#
# Bulk Modulus (GPa) = 50.05753 63.70678 56.88216
# Shear Modulus (GPa) = 21.29191 23.99016 22.64103
#
# Velocity S-wave (km/s) = 3.38631 3.59448 3.49195
# Velocity P-wave (km/s) = 6.49991 7.17896 6.84786
#
# Compressibility (1/GPa) = 0.01997701
#
# Stress axis : x y z
#
# Youngs Moduli (GPa) = 33.27430 65.04503 105.64332
#
# Poissons Ratio (x) = 0.60341 0.52611
# Poissons Ratio (y) = 0.30868 0.33819
# Poissons Ratio (z) = 0.16571 0.20822
#
# Static dielectric constant tensor:
#      x y z
#    x 3.269220 0.000000 0.000000 
#    y 0.000000 3.257790 0.000000 
#    z 0.000000 0.000000 3.706150 
# 
# 
# High freq. dielectric constant tensor:
#      x y z
#    x 1.705840 0.000000 0.000000 
#    y 0.000000 1.699420 0.000000 
#    z 0.000000 0.000000 1.727310 
# 
# From -- ./inp_files/5014.got.cif
#   From: 2010.03.12/outbox.cif.g09.slc.cpg/sg31_3_cif.got.tgz:5014.got - 2010.04.14 01:42:59.
