data_PCOD8170392
_publ_section_title
;
Structure prediction by ZEFSAII (Michael W. Deem and Ramdas Pophale) SiO2 
 PCOD8170392
Probable space group: P M N 21
;
_chemical_formula_sum "Si O2"
_cell_formula_units_Z 24
_cell_length_a 26.737958
_cell_length_b 8.593661
_cell_length_c 4.973383
_cell_angle_alpha 90.000000
_cell_angle_beta 90.000000
_cell_angle_gamma 90.000000
_cell_volume 1142.768761
_symmetry_space_group_name_H-M "P M N 21"
_symmetry_group_IT_number 31
_symmetry_cell_setting 'orthorhombic'
loop_
_space_group_symop_operation_xyz
x,y,z
1/2-x,-y,1/2+z
-x,y,z
1/2+x,-y,1/2+z
loop_
_atom_site_type_symbol
_atom_site_label
_atom_site_fract_x
_atom_site_fract_y
_atom_site_fract_z
Si Si1 0.247627 0.606915 0.637850
Si Si2 0.896831 0.403419 0.758648
Si Si3 0.000000 0.049438 0.131992
Si Si4 0.892132 0.919869 0.193523
Si Si5 0.360367 0.261864 0.193937
Si Si6 0.649638 0.748148 0.760147
Si Si7 0.000000 0.260660 0.629817
O O1 0.247777 0.538719 0.338212
O O2 0.198592 0.708016 0.689259
O O3 0.293579 0.725719 0.666850
O O4 0.889861 0.586726 0.795174
O O5 0.857025 0.340210 0.542299
O O6 0.952582 0.370321 0.664396
O O7 0.888672 0.320729 0.042940
O O8 0.000000 0.196897 0.328263
O O9 0.951559 0.943765 0.181930
O O10 0.000000 0.113050 0.828371
O O11 0.880049 0.781342 0.398879
O O12 0.862836 0.071282 0.298570
O O13 0.871848 0.877508 0.899004
#
# Coordination Sequence:
#
# PCOD8170392 Si02
#       7
#     4   4   2   4   4   4   2
#     4  12  23  43  73  98 132 184 226 275 341 398
#     4  12  23  42  70  99 130 172 231 280 321 400
#     4  12  24  44  70  94 136 186 220 264 354 406
#     4  12  26  43  67 100 142 174 219 285 343 401
#     4  12  26  43  67 104 141 171 221 288 342 392
#     4  12  23  44  70 100 131 180 228 271 329 411
#     4  12  22  42  72 100 120 180 238 274 318 410
#
# _framework density 21.001625000000001
#
# number of rings (size 3 to 8) (size 9 to 14) (size 15 to 20)
#    0.000    0.000    6.667    4.000    0.000    2.667 
#    0.000    0.000    0.000    0.000    0.000    0.000 
#    0.000    0.000    0.000    0.000    0.000    0.000 
#
# Total GULP energy -297856.704325 kJ/mol
# GULP energy per Si atom -12410.696014 kJ/mol
# Density = 2.095382 g / cm^3
# Si number density = 21.001625 Si / 1000 Ang^3
#
#
#
# Elastic Constant Matrix: (Units=GPa)
#
#
# Indices 1 2 3 4 5 6 
#
# 1 152.1904 27.4887 3.7749 0.0000 0.0000 0.0000
# 2 27.4887 69.9295 11.2398 0.0000 0.0000 0.0000
# 3 3.7749 11.2398 81.2211 0.0000 0.0000 0.0000
# 4 0.0000 0.0000 0.0000 31.2993 0.0000 0.0000
# 5 0.0000 0.0000 0.0000 0.0000 30.0601 0.0000
# 6 0.0000 0.0000 0.0000 0.0000 0.0000 8.7063
#
#
#
# Elastic Compliance Matrix: (Units=1/GPa)
#
#
# Indices 1 2 3 4 5 6 
#
# 1 0.007073 -0.002790 0.000057 0.000000 0.000000 0.000000
# 2 -0.002790 0.015726 -0.002047 0.000000 0.000000 0.000000
# 3 0.000057 -0.002047 0.012593 0.000000 0.000000 0.000000
# 4 0.000000 0.000000 0.000000 0.031950 0.000000 0.000000
# 5 0.000000 0.000000 0.000000 0.000000 0.033267 0.000000
# 6 0.000000 0.000000 0.000000 0.000000 0.000000 0.114860
#
#
# Mechanical properties :
#
#
# Convention : Reuss Voigt Hill
#
# Bulk Modulus (GPa) = 38.70912 43.14976 40.92944
# Shear Modulus (GPa) = 21.40079 31.40233 26.40156
#
# Velocity S-wave (km/s) = 3.19565 3.87102 3.54944
# Velocity P-wave (km/s) = 5.66461 6.36948 6.02735
#
# Compressibility (1/GPa) = 0.02583370
#
# Stress axis : x y z
#
# Youngs Moduli (GPa) = 141.37967 63.59046 79.41163
#
# Poissons Ratio (x) = 0.17739 -0.00455
# Poissons Ratio (y) = 0.39439 0.16252
# Poissons Ratio (z) = -0.00810 0.13014
#
# Static dielectric constant tensor:
#      x y z
#    x 3.921230 0.000000 0.000000 
#    y 0.000000 3.595860 0.000000 
#    z 0.000000 0.000000 3.948910 
# 
# 
# High freq. dielectric constant tensor:
#      x y z
#    x 1.836580 0.000000 0.000000 
#    y 0.000000 1.814980 0.000000 
#    z 0.000000 0.000000 1.841600 
# 
# From -- ./inp_files/1096.got.cif
#   From: 2010.03.12/outbox.cif.g09.slc.cpg/sg31_1_cif.got.tgz:1096.got - 2010.04.14 01:42:59.
