data_PCOD8170428
_publ_section_title
;
Structure prediction by ZEFSAII (Michael W. Deem and Ramdas Pophale) SiO2 
 PCOD8170428
Probable space group: P B A 2
;
_chemical_formula_sum "Si O2"
_cell_formula_units_Z 26
_cell_length_a 7.723176
_cell_length_b 15.546268
_cell_length_c 9.766090
_cell_angle_alpha 90.000000
_cell_angle_beta 90.000000
_cell_angle_gamma 90.000000
_cell_volume 1172.580869
_symmetry_space_group_name_H-M "P B A 2"
_symmetry_group_IT_number 32
_symmetry_cell_setting 'orthorhombic'
loop_
_space_group_symop_operation_xyz
x,y,z
-x,-y,z
1/2-x,1/2+y,z
1/2+x,1/2-y,z
loop_
_atom_site_type_symbol
_atom_site_label
_atom_site_fract_x
_atom_site_fract_y
_atom_site_fract_z
Si Si1 0.524138 0.362972 0.350000
Si Si2 0.500000 0.500000 0.562908
Si Si3 0.132806 0.326916 0.401384
Si Si4 0.847454 0.569669 0.673712
Si Si5 0.205626 0.898825 0.956091
Si Si6 0.998377 0.397456 0.141289
Si Si7 0.142621 0.092760 0.052602
O O1 0.580046 0.424826 0.471724
O O2 0.318407 0.354652 0.346951
O O3 0.618211 0.274879 0.390328
O O4 0.580244 0.408215 0.209948
O O5 0.661398 0.526081 0.654994
O O6 0.103026 0.361750 0.555823
O O7 0.990099 0.369027 0.300105
O O8 0.812881 0.618136 0.817075
O O9 0.000000 0.500000 0.688467
O O10 0.330025 0.857563 0.071836
O O11 0.009261 0.858269 0.964192
O O12 0.173353 0.998640 0.991195
O O13 0.000000 0.500000 0.133241
O O14 0.830204 0.360594 0.058142
#
# Coordination Sequence:
#
# PCOD8170428 Si02
#       7
#     4   2   4   4   4   4   4
#     4  11  23  40  65 100 131 171 224 292 349 407
#     4  10  24  40  64  94 126 172 232 274 336 412
#     4  11  24  40  64  98 138 172 224 287 352 421
#     4  11  24  40  66  97 134 182 228 273 344 423
#     4  10  20  38  62  97 128 169 223 272 325 412
#     4  10  20  35  64  97 127 167 221 279 337 397
#     4  10  19  34  66  89 128 167 222 285 331 387
#
# _framework density 22.173311999999999
#
# number of rings (size 3 to 8) (size 9 to 14) (size 15 to 20)
#    0.000    1.538    1.538    4.615   10.769    0.000 
#    0.000    0.000   10.154    0.000    0.000    0.000 
#    0.000    0.000    0.000    0.000    0.000    0.000 
#
# Total GULP energy -322105.179594 kJ/mol
# GULP energy per Si atom -12388.660754 kJ/mol
# Density = 2.212284 g / cm^3
# Si number density = 22.173312 Si / 1000 Ang^3
#
#
#
# Elastic Constant Matrix: (Units=GPa)
#
#
# Indices 1 2 3 4 5 6 
#
# 1 89.4831 6.1669 36.6854 0.0000 0.0000 0.0000
# 2 6.1669 45.7314 21.4827 0.0000 0.0000 0.0000
# 3 36.6854 21.4827 134.2930 0.0000 0.0000 0.0000
# 4 0.0000 0.0000 0.0000 13.8123 0.0000 0.0000
# 5 0.0000 0.0000 0.0000 0.0000 33.0156 0.0000
# 6 0.0000 0.0000 0.0000 0.0000 0.0000 18.4781
#
#
#
# Elastic Compliance Matrix: (Units=1/GPa)
#
#
# Indices 1 2 3 4 5 6 
#
# 1 0.012585 -0.000089 -0.003424 0.000000 0.000000 0.000000
# 2 -0.000089 0.023644 -0.003758 0.000000 0.000000 0.000000
# 3 -0.003424 -0.003758 0.008983 0.000000 0.000000 0.000000
# 4 0.000000 0.000000 0.000000 0.072399 0.000000 0.000000
# 5 0.000000 0.000000 0.000000 0.000000 0.030289 0.000000
# 6 0.000000 0.000000 0.000000 0.000000 0.000000 0.054118
#
#
# Mechanical properties :
#
#
# Convention : Reuss Voigt Hill
#
# Bulk Modulus (GPa) = 32.60418 44.24195 38.42306
# Shear Modulus (GPa) = 22.04754 26.73937 24.39345
#
# Velocity S-wave (km/s) = 3.15672 3.47641 3.32041
# Velocity P-wave (km/s) = 5.29364 6.00916 5.66271
#
# Compressibility (1/GPa) = 0.03067091
#
# Stress axis : x y z
#
# Youngs Moduli (GPa) = 79.45947 42.29373 111.32326
#
# Poissons Ratio (x) = 0.00375 0.38114
# Poissons Ratio (y) = 0.00705 0.41836
# Poissons Ratio (z) = 0.27205 0.15894
#
# Static dielectric constant tensor:
#      x y z
#    x 5.559590 0.000000 0.000000 
#    y 0.000000 3.834760 0.000000 
#    z 0.000000 0.000000 4.038600 
# 
# 
# High freq. dielectric constant tensor:
#      x y z
#    x 1.903740 0.000000 0.000000 
#    y 0.000000 1.827470 0.000000 
#    z 0.000000 0.000000 1.870470 
# 
# From -- ./inp_files/2461.got.cif
#   From: 2010.03.12/outbox.cif.g09.slc.cpg/sg32_2_cif.got.tgz:2461.got - 2010.04.14 01:46:39.
