data_PCOD8170796
_publ_section_title
;
Structure prediction by ZEFSAII (Michael W. Deem and Ramdas Pophale) SiO2 
 PCOD8170796
Probable space group: P N A 21
;
_chemical_formula_sum "Si O2"
_cell_formula_units_Z 32
_cell_length_a 13.091228
_cell_length_b 7.777902
_cell_length_c 14.773231
_cell_angle_alpha 90.000000
_cell_angle_beta 90.000000
_cell_angle_gamma 90.000000
_cell_volume 1504.244188
_symmetry_space_group_name_H-M "P N A 21"
_symmetry_group_IT_number 33
_symmetry_cell_setting 'orthorhombic'
loop_
_space_group_symop_operation_xyz
x,y,z
-x,-y,1/2+z
1/2-x,1/2+y,1/2+z
1/2+x,1/2-y,z
loop_
_atom_site_type_symbol
_atom_site_label
_atom_site_fract_x
_atom_site_fract_y
_atom_site_fract_z
Si Si1 0.212136 0.293240 0.980720
Si Si2 0.532202 0.164795 0.840542
Si Si3 0.630819 0.002569 0.463241
Si Si4 0.136187 0.282282 0.174430
Si Si5 0.531419 0.467528 0.306719
Si Si6 0.558540 0.979137 0.661987
Si Si7 0.288469 0.638998 0.921527
Si Si8 0.331639 0.279522 0.271449
O O1 0.121555 0.277259 0.908206
O O2 0.305730 0.172118 0.952625
O O3 0.253529 0.490677 0.991367
O O4 0.172888 0.223927 0.076230
O O5 0.461185 0.017580 0.889157
O O6 0.462957 0.327450 0.811626
O O7 0.582045 0.106148 0.745398
O O8 0.585000 0.042732 0.562346
O O9 0.708017 0.162729 0.452453
O O10 0.084567 0.110850 0.216873
O O11 0.225487 0.363503 0.237730
O O12 0.061245 0.441859 0.165035
O O13 0.595524 0.397728 0.391396
O O14 0.412425 0.411899 0.314012
O O15 0.621572 0.805935 0.681456
O O16 0.200136 0.632745 0.844316
#
# Coordination Sequence:
#
# PCOD8170796 Si02
#       8
#     4   4   4   4   4   4   4   4
#     4  12  24  44  72 101 142 187 231 292 360 428
#     4  12  24  45  71 103 142 186 238 294 357 422
#     4  12  25  46  69 104 142 182 238 298 351 427
#     4  10  22  41  66 100 138 183 229 287 354 417
#     4  10  23  42  70 102 137 186 233 285 351 427
#     4  11  23  42  68  96 141 182 230 297 348 416
#     4  11  24  43  69 102 138 183 233 289 355 422
#     4  10  19  41  67  92 136 183 226 286 348 407
#
# _framework density 21.273142
#
# number of rings (size 3 to 8) (size 9 to 14) (size 15 to 20)
#    0.000    1.000    5.000    3.000    0.000    1.000 
#    4.500    0.000    0.000    0.000    0.000    0.000 
#    0.000    0.000    0.000    0.000    0.000    0.000 
#
# Total GULP energy -396566.768667 kJ/mol
# GULP energy per Si atom -12392.711521 kJ/mol
# Density = 2.122472 g / cm^3
# Si number density = 21.273142 Si / 1000 Ang^3
#
#
#
# Elastic Constant Matrix: (Units=GPa)
#
#
# Indices 1 2 3 4 5 6 
#
# 1 106.6652 25.4266 29.5135 0.0000 0.0000 0.0000
# 2 25.4266 98.8229 26.6122 0.0000 0.0000 0.0000
# 3 29.5135 26.6122 94.5653 0.0000 0.0000 0.0000
# 4 0.0000 0.0000 0.0000 22.6979 0.0000 0.0000
# 5 0.0000 0.0000 0.0000 0.0000 32.1533 0.0000
# 6 0.0000 0.0000 0.0000 0.0000 0.0000 28.9831
#
#
#
# Elastic Compliance Matrix: (Units=1/GPa)
#
#
# Indices 1 2 3 4 5 6 
#
# 1 0.010611 -0.001989 -0.002752 0.000000 0.000000 0.000000
# 2 -0.001989 0.011322 -0.002565 0.000000 0.000000 0.000000
# 3 -0.002752 -0.002565 0.012155 0.000000 0.000000 0.000000
# 4 0.000000 0.000000 0.000000 0.044057 0.000000 0.000000
# 5 0.000000 0.000000 0.000000 0.000000 0.031101 0.000000
# 6 0.000000 0.000000 0.000000 0.000000 0.000000 0.034503
#
#
# Mechanical properties :
#
#
# Convention : Reuss Voigt Hill
#
# Bulk Modulus (GPa) = 51.34659 51.46198 51.40429
# Shear Modulus (GPa) = 30.33007 31.33359 30.83183
#
# Velocity S-wave (km/s) = 3.78000 3.84202 3.81114
# Velocity P-wave (km/s) = 6.57574 6.62760 6.60172
#
# Compressibility (1/GPa) = 0.01947549
#
# Stress axis : x y z
#
# Youngs Moduli (GPa) = 94.24470 88.32590 82.26757
#
# Poissons Ratio (x) = 0.17568 0.22638
# Poissons Ratio (y) = 0.18746 0.21104
# Poissons Ratio (z) = 0.25934 0.22659
#
# Static dielectric constant tensor:
#      x y z
#    x 4.032480 0.000000 0.000000 
#    y 0.000000 3.616840 0.000000 
#    z 0.000000 0.000000 3.842840 
# 
# 
# High freq. dielectric constant tensor:
#      x y z
#    x 1.853510 0.000000 0.000000 
#    y 0.000000 1.815070 0.000000 
#    z 0.000000 0.000000 1.830270 
# 
# From -- ./inp_files/7937.got.cif
#   From: 2010.03.12/outbox.cif.g09.slc.cpg/sg33_4_cif.got.tgz:7937.got - 2010.04.14 01:49:19.
