data_PCOD8170952
_publ_section_title
;
Structure prediction by ZEFSAII (Michael W. Deem and Ramdas Pophale) SiO2 
 PCOD8170952
Probable space group: P N A 21
;
_chemical_formula_sum "Si O2"
_cell_formula_units_Z 28
_cell_length_a 9.523832
_cell_length_b 8.250531
_cell_length_c 17.783943
_cell_angle_alpha 90.000000
_cell_angle_beta 90.000000
_cell_angle_gamma 90.000000
_cell_volume 1397.403041
_symmetry_space_group_name_H-M "P N A 21"
_symmetry_group_IT_number 33
_symmetry_cell_setting 'orthorhombic'
loop_
_space_group_symop_operation_xyz
x,y,z
-x,-y,1/2+z
1/2-x,1/2+y,1/2+z
1/2+x,1/2-y,z
loop_
_atom_site_type_symbol
_atom_site_label
_atom_site_fract_x
_atom_site_fract_y
_atom_site_fract_z
Si Si1 0.454138 0.055223 0.381610
Si Si2 0.154810 0.172484 0.410437
Si Si3 0.204884 0.096204 0.692757
Si Si4 0.872599 0.073525 0.041681
Si Si5 0.949049 0.943074 0.334358
Si Si6 0.998214 0.652059 0.243673
Si Si7 0.880005 0.755576 0.474206
O O1 0.319481 0.174433 0.390107
O O2 0.595538 0.145543 0.409028
O O3 0.456903 0.004560 0.293421
O O4 0.444227 0.905664 0.438040
O O5 0.132118 0.087209 0.490727
O O6 0.064019 0.079584 0.347696
O O7 0.163674 0.004208 0.770669
O O8 0.372540 0.115056 0.688092
O O9 0.130185 0.275252 0.692794
O O10 0.154401 0.981889 0.626017
O O11 0.021404 0.164663 0.037797
O O12 0.764985 0.210648 0.013507
O O13 0.041933 0.790888 0.303923
O O14 0.861732 0.889587 0.408363
#
# Coordination Sequence:
#
# PCOD8170952 Si02
#       7
#     4   4   4   4   4   4   4
#     4  10  21  35  61  91 118 153 205 248 294 354
#     4  10  21  36  59  91 121 151 203 254 290 352
#     4  10  21  37  62  87 120 158 198 248 299 365
#     4  10  22  41  59  87 120 158 199 248 304 359
#     4   8  19  36  64  83 116 155 204 241 295 355
#     4   9  20  37  61  81 118 159 199 235 309 355
#     4   9  20  38  64  84 115 162 202 240 299 370
#
# _framework density 20.037168999999999
#
# number of rings (size 3 to 8) (size 9 to 14) (size 15 to 20)
#    0.857    1.714    0.000    0.857    8.000    3.429 
#    2.571    1.429    0.000    0.000    0.000    0.000 
#    0.000    0.000    0.000    0.000    0.000    0.000 
#
# Total GULP energy -346981.341339 kJ/mol
# GULP energy per Si atom -12392.190762 kJ/mol
# Density = 1.999156 g / cm^3
# Si number density = 20.037169 Si / 1000 Ang^3
#
#
#
# Elastic Constant Matrix: (Units=GPa)
#
#
# Indices 1 2 3 4 5 6 
#
# 1 69.5993 17.8251 31.9929 0.0000 0.0000 0.0000
# 2 17.8251 35.8158 21.7003 0.0000 0.0000 0.0000
# 3 31.9929 21.7003 87.6798 0.0000 0.0000 0.0000
# 4 0.0000 0.0000 0.0000 29.9168 0.0000 0.0000
# 5 0.0000 0.0000 0.0000 0.0000 26.9323 0.0000
# 6 0.0000 0.0000 0.0000 0.0000 0.0000 33.6141
#
#
#
# Elastic Compliance Matrix: (Units=1/GPa)
#
#
# Indices 1 2 3 4 5 6 
#
# 1 0.018281 -0.005949 -0.005198 0.000000 0.000000 0.000000
# 2 -0.005949 0.034782 -0.006438 0.000000 0.000000 0.000000
# 3 -0.005198 -0.006438 0.014895 0.000000 0.000000 0.000000
# 4 0.000000 0.000000 0.000000 0.033426 0.000000 0.000000
# 5 0.000000 0.000000 0.000000 0.000000 0.037130 0.000000
# 6 0.000000 0.000000 0.000000 0.000000 0.000000 0.029749
#
#
# Mechanical properties :
#
#
# Convention : Reuss Voigt Hill
#
# Bulk Modulus (GPa) = 30.49829 37.34794 33.92311
# Shear Modulus (GPa) = 23.32500 26.19775 24.76138
#
# Velocity S-wave (km/s) = 3.41557 3.61980 3.51917
# Velocity P-wave (km/s) = 5.55056 6.01252 5.78615
#
# Compressibility (1/GPa) = 0.03278873
#
# Stress axis : x y z
#
# Youngs Moduli (GPa) = 54.70187 28.75064 67.13596
#
# Poissons Ratio (x) = 0.17103 0.34898
# Poissons Ratio (y) = 0.32541 0.43220
# Poissons Ratio (z) = 0.28435 0.18509
#
# Static dielectric constant tensor:
#      x y z
#    x 3.592510 0.000000 0.000000 
#    y 0.000000 3.474900 0.000000 
#    z 0.000000 0.000000 3.368440 
# 
# 
# High freq. dielectric constant tensor:
#      x y z
#    x 1.780900 0.000000 0.000000 
#    y 0.000000 1.770050 0.000000 
#    z 0.000000 0.000000 1.759000 
# 
# From -- ./inp_files/8471.got.cif
#   From: 2010.03.12/outbox.cif.g09.slc.cpg/sg33_5_cif.got.tgz:8471.got - 2010.04.14 01:49:19.
