data_PCOD8170491
_publ_section_title
;
Structure prediction by ZEFSAII (Michael W. Deem and Ramdas Pophale) SiO2 
 PCOD8170491
Probable space group: P B A 2
;
_chemical_formula_sum "Si O2"
_cell_formula_units_Z 30
_cell_length_a 12.928167
_cell_length_b 18.849484
_cell_length_c 6.420147
_cell_angle_alpha 90.000000
_cell_angle_beta 90.000000
_cell_angle_gamma 90.000000
_cell_volume 1564.520981
_symmetry_space_group_name_H-M "P B A 2"
_symmetry_group_IT_number 32
_symmetry_cell_setting 'orthorhombic'
loop_
_space_group_symop_operation_xyz
x,y,z
-x,-y,z
1/2-x,1/2+y,z
1/2+x,1/2-y,z
loop_
_atom_site_type_symbol
_atom_site_label
_atom_site_fract_x
_atom_site_fract_y
_atom_site_fract_z
Si Si1 0.525418 0.598926 0.110520
Si Si2 0.000000 0.000000 0.474389
Si Si3 0.726451 0.695402 0.491376
Si Si4 0.847620 0.943793 0.814363
Si Si5 0.870582 0.680930 0.118615
Si Si6 0.269133 0.411132 0.849470
Si Si7 0.927164 0.250938 0.152478
Si Si8 0.239996 0.209486 0.864221
O O1 0.545582 0.563897 0.335039
O O2 0.499662 0.682408 0.113932
O O3 0.432480 0.555550 0.999971
O O4 0.634462 0.600121 0.997842
O O5 0.910713 0.960856 0.605150
O O6 0.813349 0.667580 0.334839
O O7 0.699017 0.626874 0.632552
O O8 0.632063 0.732250 0.367003
O O9 0.772008 0.756200 0.638072
O O10 0.781681 0.872554 0.822375
O O11 0.759053 0.004105 0.829846
O O12 0.993482 0.682302 0.168175
O O13 0.835536 0.620501 0.952243
O O14 0.842572 0.757507 0.022169
O O15 0.852226 0.272237 0.961805
#
# Coordination Sequence:
#
# PCOD8170491 Si02
#       8
#     4   2   4   4   4   4   4   4
#     4  12  21  36  59  91 124 150 192 248 308 361
#     4  12  24  32  58  98 128 154 192 246 318 364
#     4  10  21  37  60  87 119 155 201 249 295 354
#     4  12  24  37  60  92 122 162 194 244 307 367
#     4  10  22  37  62  86 114 162 200 248 295 349
#     4  11  21  41  56  87 125 159 192 243 309 359
#     4  11  22  39  61  86 123 153 202 250 296 350
#     4  10  23  39  58  87 122 157 199 245 298 355
#
# _framework density 19.175198999999999
#
# number of rings (size 3 to 8) (size 9 to 14) (size 15 to 20)
#    0.000    1.067    8.000    0.800    1.867    2.133 
#    0.000    0.667    0.000    0.000    0.000    0.000 
#    0.000    0.000    0.000    0.000    0.000    0.000 
#
# Total GULP energy -371649.101744 kJ/mol
# GULP energy per Si atom -12388.303391 kJ/mol
# Density = 1.913156 g / cm^3
# Si number density = 19.175199 Si / 1000 Ang^3
#
#
#
# Elastic Constant Matrix: (Units=GPa)
#
#
# Indices 1 2 3 4 5 6 
#
# 1 52.5180 20.8364 25.8763 0.0000 0.0000 0.0000
# 2 20.8364 131.8994 38.8407 0.0000 0.0000 0.0000
# 3 25.8763 38.8407 110.1029 0.0000 0.0000 0.0000
# 4 0.0000 0.0000 0.0000 20.6985 0.0000 0.0000
# 5 0.0000 0.0000 0.0000 0.0000 7.9639 0.0000
# 6 0.0000 0.0000 0.0000 0.0000 0.0000 33.5379
#
#
#
# Elastic Compliance Matrix: (Units=1/GPa)
#
#
# Indices 1 2 3 4 5 6 
#
# 1 0.022086 -0.002188 -0.004419 0.000000 0.000000 0.000000
# 2 -0.002188 0.008677 -0.002547 0.000000 0.000000 0.000000
# 3 -0.004419 -0.002547 0.011019 0.000000 0.000000 0.000000
# 4 0.000000 0.000000 0.000000 0.048313 0.000000 0.000000
# 5 0.000000 0.000000 0.000000 0.000000 0.125567 0.000000
# 6 0.000000 0.000000 0.000000 0.000000 0.000000 0.029817
#
#
# Mechanical properties :
#
#
# Convention : Reuss Voigt Hill
#
# Bulk Modulus (GPa) = 42.59714 51.73634 47.16674
# Shear Modulus (GPa) = 18.40863 26.37119 22.38991
#
# Velocity S-wave (km/s) = 3.10179 3.71249 3.42080
# Velocity P-wave (km/s) = 5.92377 6.73916 6.34458
#
# Compressibility (1/GPa) = 0.02347575
#
# Stress axis : x y z
#
# Youngs Moduli (GPa) = 45.27685 115.24576 90.74909
#
# Poissons Ratio (x) = 0.25213 0.40102
# Poissons Ratio (y) = 0.09905 0.23112
# Poissons Ratio (z) = 0.20008 0.29351
#
# Static dielectric constant tensor:
#      x y z
#    x 3.266910 0.000000 0.000000 
#    y 0.000000 4.142530 0.000000 
#    z 0.000000 0.000000 3.660160 
# 
# 
# High freq. dielectric constant tensor:
#      x y z
#    x 1.722490 0.000000 0.000000 
#    y 0.000000 1.745870 0.000000 
#    z 0.000000 0.000000 1.756530 
# 
# From -- ./inp_files/1273.got.cif
#   From: 2010.03.12/outbox.cif.g09.slc.cpg/sg32_1_cif.got.tgz:1273.got - 2010.04.14 01:46:39.
