data_PCOD8170311
_publ_section_title
;
Structure prediction by ZEFSAII (Michael W. Deem and Ramdas Pophale) SiO2 
 PCOD8170311
Probable space group: P M N 21
;
_chemical_formula_sum "Si O2"
_cell_formula_units_Z 32
_cell_length_a 8.781394
_cell_length_b 12.140553
_cell_length_c 14.502232
_cell_angle_alpha 90.000000
_cell_angle_beta 90.000000
_cell_angle_gamma 90.000000
_cell_volume 1546.097155
_symmetry_space_group_name_H-M "P M N 21"
_symmetry_group_IT_number 31
_symmetry_cell_setting 'orthorhombic'
loop_
_space_group_symop_operation_xyz
x,y,z
1/2-x,-y,1/2+z
-x,y,z
1/2+x,-y,1/2+z
loop_
_atom_site_type_symbol
_atom_site_label
_atom_site_fract_x
_atom_site_fract_y
_atom_site_fract_z
Si Si1 0.323776 0.328099 0.620670
Si Si2 0.324100 0.877146 0.205354
Si Si3 0.677923 0.451907 0.118360
Si Si4 0.680316 0.581314 0.420596
Si Si5 0.174962 0.230847 0.452203
Si Si6 0.175857 0.391478 0.295753
Si Si7 0.175144 0.171230 0.905135
Si Si8 0.824770 0.999157 0.528019
O O1 0.500000 0.359109 0.629754
O O2 0.286221 0.222448 0.681058
O O3 0.219400 0.427330 0.657646
O O4 0.282731 0.307423 0.514046
O O5 0.500000 0.841835 0.189748
O O6 0.293728 0.902595 0.313067
O O7 0.285330 0.978545 0.136385
O O8 0.500000 0.438300 0.097259
O O9 0.729359 0.372220 0.201762
O O10 0.775269 0.431632 0.027207
O O11 0.500000 0.564936 0.408701
O O12 0.765313 0.492813 0.357529
O O13 0.736127 0.704217 0.391378
O O14 0.194347 0.274578 0.348561
O O15 0.225239 0.103756 0.464960
O O16 0.000000 0.244075 0.486152
O O17 0.000000 0.415001 0.272695
O O18 0.000000 0.180703 0.928132
O O19 0.244113 0.111046 0.993853
O O20 0.000000 0.974918 0.514578
#
# Coordination Sequence:
#
# PCOD8170311 Si02
#       8
#     4   4   4   4   4   4   4   4
#     4  11  20  32  57  88 116 148 196 247 289 349
#     4   9  19  38  61  86 117 156 198 244 305 357
#     4  12  24  38  56  83 122 164 200 242 298 359
#     4  11  23  40  61  89 123 160 202 250 305 362
#     4   9  19  37  59  83 115 150 187 239 300 349
#     4  11  22  38  62  90 121 157 198 244 302 365
#     4  10  22  40  61  85 118 157 198 250 300 353
#     4   9  19  37  61  86 116 152 193 242 295 360
#
# _framework density 20.697275999999999
#
# number of rings (size 3 to 8) (size 9 to 14) (size 15 to 20)
#    0.000    1.750    1.250    4.500    0.000    5.000 
#    2.250    0.000    0.000    0.000    0.000    0.000 
#    0.000    0.000    0.000    0.000    0.000    0.000 
#
# Total GULP energy -396702.464846 kJ/mol
# GULP energy per Si atom -12396.952026 kJ/mol
# Density = 2.065017 g / cm^3
# Si number density = 20.697276 Si / 1000 Ang^3
#
#
#
# Elastic Constant Matrix: (Units=GPa)
#
#
# Indices 1 2 3 4 5 6 
#
# 1 60.6232 12.1046 7.6160 0.0000 0.0000 0.0000
# 2 12.1046 46.3550 3.6023 0.0000 0.0000 0.0000
# 3 7.6160 3.6023 78.8434 0.0000 0.0000 0.0000
# 4 0.0000 0.0000 0.0000 26.5067 0.0000 0.0000
# 5 0.0000 0.0000 0.0000 0.0000 22.2699 0.0000
# 6 0.0000 0.0000 0.0000 0.0000 0.0000 29.5924
#
#
#
# Elastic Compliance Matrix: (Units=1/GPa)
#
#
# Indices 1 2 3 4 5 6 
#
# 1 0.017576 -0.004474 -0.001493 0.000000 0.000000 0.000000
# 2 -0.004474 0.022788 -0.000609 0.000000 0.000000 0.000000
# 3 -0.001493 -0.000609 0.012855 0.000000 0.000000 0.000000
# 4 0.000000 0.000000 0.000000 0.037726 0.000000 0.000000
# 5 0.000000 0.000000 0.000000 0.000000 0.044904 0.000000
# 6 0.000000 0.000000 0.000000 0.000000 0.000000 0.033792
#
#
# Mechanical properties :
#
#
# Convention : Reuss Voigt Hill
#
# Bulk Modulus (GPa) = 24.95776 25.82973 25.39375
# Shear Modulus (GPa) = 25.49068 26.50706 25.99887
#
# Velocity S-wave (km/s) = 3.51322 3.58257 3.54806
# Velocity P-wave (km/s) = 5.34243 5.44242 5.39266
#
# Compressibility (1/GPa) = 0.04006769
#
# Stress axis : x y z
#
# Youngs Moduli (GPa) = 56.89519 43.88245 77.78804
#
# Poissons Ratio (x) = 0.19631 0.11617
# Poissons Ratio (y) = 0.25453 0.04738
# Poissons Ratio (z) = 0.08497 0.02673
#
# Static dielectric constant tensor:
#      x y z
#    x 3.620350 0.000000 0.000000 
#    y 0.000000 3.730280 0.000000 
#    z 0.000000 0.000000 3.847140 
# 
# 
# High freq. dielectric constant tensor:
#      x y z
#    x 1.804650 0.000000 0.000000 
#    y 0.000000 1.791710 0.000000 
#    z 0.000000 0.000000 1.814460 
# 
# From -- ./inp_files/5011.got.cif
#   From: 2010.03.12/outbox.cif.g09.slc.cpg/sg31_3_cif.got.tgz:5011.got - 2010.04.14 01:42:59.
