data_PCOD8170815
_publ_section_title
;
Structure prediction by ZEFSAII (Michael W. Deem and Ramdas Pophale) SiO2 
 PCOD8170815
Probable space group: P N A 21
;
_chemical_formula_sum "Si O2"
_cell_formula_units_Z 32
_cell_length_a 17.006628
_cell_length_b 18.422076
_cell_length_c 4.945901
_cell_angle_alpha 90.000000
_cell_angle_beta 90.000000
_cell_angle_gamma 90.000000
_cell_volume 1549.537892
_symmetry_space_group_name_H-M "P N A 21"
_symmetry_group_IT_number 33
_symmetry_cell_setting 'orthorhombic'
loop_
_space_group_symop_operation_xyz
x,y,z
-x,-y,1/2+z
1/2-x,1/2+y,1/2+z
1/2+x,1/2-y,z
loop_
_atom_site_type_symbol
_atom_site_label
_atom_site_fract_x
_atom_site_fract_y
_atom_site_fract_z
Si Si1 0.580591 0.306871 0.875000
Si Si2 0.693065 0.988323 0.626279
Si Si3 0.549372 0.807226 0.240627
Si Si4 0.319285 0.682579 0.895459
Si Si5 0.044454 0.025443 0.794650
Si Si6 0.206896 0.021532 0.590485
Si Si7 0.029316 0.459244 0.688287
Si Si8 0.650740 0.827716 0.737268
O O1 0.503244 0.260112 0.828739
O O2 0.649662 0.280625 0.670783
O O3 0.556443 0.389121 0.816048
O O4 0.614396 0.299237 0.174428
O O5 0.734720 0.970284 0.343931
O O6 0.660233 0.914255 0.758772
O O7 0.619583 0.042242 0.582480
O O8 0.751926 0.024724 0.849354
O O9 0.497574 0.879416 0.272525
O O10 0.625207 0.808403 0.434344
O O11 0.582524 0.799777 0.938058
O O12 0.233664 0.712155 0.805231
O O13 0.312842 0.597100 0.944764
O O14 0.125153 0.986689 0.692432
O O15 0.974888 0.007901 0.586101
O O16 0.974327 0.490139 0.452400
#
# Coordination Sequence:
#
# PCOD8170815 Si02
#       8
#     4   4   4   4   4   4   4   4
#     4  11  23  40  62  89 118 157 199 248 302 361
#     4  11  19  34  58  86 122 149 199 243 277 342
#     4  12  23  38  60  89 123 159 196 243 301 354
#     4  10  20  38  62  87 114 151 208 250 281 351
#     4  11  21  38  64  87 114 146 198 251 306 351
#     4  10  20  34  59  90 111 149 196 246 294 343
#     4  12  22  37  57  90 125 163 197 238 289 349
#     4  11  20  35  62  90 111 156 203 247 282 339
#
# _framework density 20.651316999999999
#
# number of rings (size 3 to 8) (size 9 to 14) (size 15 to 20)
#    0.000    1.000    2.500    9.000    0.000    0.000 
#    0.000    0.000   16.500    0.000    0.000    0.000 
#    0.000    0.000    0.000    0.000    0.000    0.000 
#
# Total GULP energy -396761.872871 kJ/mol
# GULP energy per Si atom -12398.808527 kJ/mol
# Density = 2.060431 g / cm^3
# Si number density = 20.651317 Si / 1000 Ang^3
#
#
#
# Elastic Constant Matrix: (Units=GPa)
#
#
# Indices 1 2 3 4 5 6 
#
# 1 86.1908 18.4749 9.3353 0.0000 0.0000 0.0000
# 2 18.4749 25.6622 10.4115 0.0000 0.0000 0.0000
# 3 9.3353 10.4115 102.7244 0.0000 0.0000 0.0000
# 4 0.0000 0.0000 0.0000 13.8348 0.0000 0.0000
# 5 0.0000 0.0000 0.0000 0.0000 56.2038 0.0000
# 6 0.0000 0.0000 0.0000 0.0000 0.0000 18.3303
#
#
#
# Elastic Compliance Matrix: (Units=1/GPa)
#
#
# Indices 1 2 3 4 5 6 
#
# 1 0.013726 -0.009777 -0.000256 0.000000 0.000000 0.000000
# 2 -0.009777 0.047604 -0.003936 0.000000 0.000000 0.000000
# 3 -0.000256 -0.003936 0.010157 0.000000 0.000000 0.000000
# 4 0.000000 0.000000 0.000000 0.072281 0.000000 0.000000
# 5 0.000000 0.000000 0.000000 0.000000 0.017792 0.000000
# 6 0.000000 0.000000 0.000000 0.000000 0.000000 0.054554
#
#
# Mechanical properties :
#
#
# Convention : Reuss Voigt Hill
#
# Bulk Modulus (GPa) = 22.96402 32.33562 27.64982
# Shear Modulus (GPa) = 19.33710 29.43085 24.38398
#
# Velocity S-wave (km/s) = 3.06332 3.77919 3.43993
# Velocity P-wave (km/s) = 4.86374 5.89363 5.40328
#
# Compressibility (1/GPa) = 0.04354638
#
# Stress axis : x y z
#
# Youngs Moduli (GPa) = 72.85594 21.00672 98.45395
#
# Poissons Ratio (x) = 0.20539 0.02524
# Poissons Ratio (y) = 0.71235 0.38754
# Poissons Ratio (z) = 0.01868 0.08269
#
# Static dielectric constant tensor:
#      x y z
#    x 4.340450 0.000000 0.000000 
#    y 0.000000 3.178540 0.000000 
#    z 0.000000 0.000000 4.016300 
# 
# 
# High freq. dielectric constant tensor:
#      x y z
#    x 1.828530 0.000000 0.000000 
#    y 0.000000 1.741870 0.000000 
#    z 0.000000 0.000000 1.833850 
# 
# From -- ./inp_files/1469.got.cif
#   From: 2010.03.12/outbox.cif.g09.slc.cpg/sg33_1_cif.got.tgz:1469.got - 2010.04.14 01:49:19.
