data_PCOD8170384
_publ_section_title
;
Structure prediction by ZEFSAII (Michael W. Deem and Ramdas Pophale) SiO2 
 PCOD8170384
Probable space group: P M N 21
;
_chemical_formula_sum "Si O2"
_cell_formula_units_Z 24
_cell_length_a 8.255902
_cell_length_b 11.736882
_cell_length_c 11.882817
_cell_angle_alpha 90.000000
_cell_angle_beta 90.000000
_cell_angle_gamma 90.000000
_cell_volume 1151.427708
_symmetry_space_group_name_H-M "P M N 21"
_symmetry_group_IT_number 31
_symmetry_cell_setting 'orthorhombic'
loop_
_space_group_symop_operation_xyz
x,y,z
1/2-x,-y,1/2+z
-x,y,z
1/2+x,-y,1/2+z
loop_
_atom_site_type_symbol
_atom_site_label
_atom_site_fract_x
_atom_site_fract_y
_atom_site_fract_z
Si Si1 0.312247 0.290103 0.887680
Si Si2 0.187752 0.790103 0.036279
Si Si3 0.812827 0.088417 0.746166
Si Si4 0.312828 0.588418 0.177793
Si Si5 0.313325 0.653857 0.625891
Si Si6 0.186674 0.153857 0.298070
O O1 0.500000 0.305695 0.916527
O O2 0.283191 0.165644 0.835378
O O3 0.257166 0.389003 0.802041
O O4 0.208545 0.300430 0.000299
O O5 0.242825 0.889005 0.121920
O O6 0.216805 0.665646 0.088583
O O7 0.000000 0.805693 0.007425
O O8 0.291461 0.800432 0.923663
O O9 0.000000 0.123342 0.749739
O O10 0.793895 0.957369 0.777842
O O11 0.500000 0.623342 0.174212
O O12 0.293893 0.457370 0.146119
O O13 0.500000 0.623398 0.647830
O O14 0.252368 0.749999 0.711982
O O15 0.000000 0.123397 0.276127
#
# Coordination Sequence:
#
# PCOD8170384 Si02
#       6
#     4   4   4   4   4   4
#     4  11  23  42  67  94 128 167 213 260 317 376
#     4  11  23  42  67  94 128 167 213 260 317 376
#     4  11  23  42  67  94 128 167 213 260 317 376
#     4  11  23  42  67  94 128 167 213 260 317 376
#     4  11  25  43  65  94 129 166 213 263 316 374
#     4  11  25  43  65  94 129 166 213 263 316 374
#
# _framework density 20.843689999999999
#
# number of rings (size 3 to 8) (size 9 to 14) (size 15 to 20)
#    0.000    1.000    0.000    9.000    4.667    2.667 
#    0.000    0.000    0.000    0.000    0.000    0.000 
#    0.000    0.000    0.000    0.000    0.000    0.000 
#
# Total GULP energy -297812.357069 kJ/mol
# GULP energy per Si atom -12408.848211 kJ/mol
# Density = 2.079625 g / cm^3
# Si number density = 20.843690 Si / 1000 Ang^3
#
#
#
# Elastic Constant Matrix: (Units=GPa)
#
#
# Indices 1 2 3 4 5 6 
#
# 1 82.2852 9.3380 -1.9100 0.0000 0.0000 0.0000
# 2 9.3380 100.7365 59.6031 0.0000 0.0000 0.0000
# 3 -1.9100 59.6031 145.1594 0.0000 0.0000 0.0000
# 4 0.0000 0.0000 0.0000 13.7531 0.0000 0.0000
# 5 0.0000 0.0000 0.0000 0.0000 33.1578 0.0000
# 6 0.0000 0.0000 0.0000 0.0000 0.0000 31.9990
#
#
#
# Elastic Compliance Matrix: (Units=1/GPa)
#
#
# Indices 1 2 3 4 5 6 
#
# 1 0.012358 -0.001640 0.000836 0.000000 0.000000 0.000000
# 2 -0.001640 0.013330 -0.005495 0.000000 0.000000 0.000000
# 3 0.000836 -0.005495 0.009156 0.000000 0.000000 0.000000
# 4 0.000000 0.000000 0.000000 0.072711 0.000000 0.000000
# 5 0.000000 0.000000 0.000000 0.000000 0.030159 0.000000
# 6 0.000000 0.000000 0.000000 0.000000 0.000000 0.031251
#
#
# Mechanical properties :
#
#
# Convention : Reuss Voigt Hill
#
# Bulk Modulus (GPa) = 44.95097 51.36038 48.15567
# Shear Modulus (GPa) = 26.45791 33.19197 29.82494
#
# Velocity S-wave (km/s) = 3.56666 3.99485 3.78681
# Velocity P-wave (km/s) = 6.21079 6.78031 6.50179
#
# Compressibility (1/GPa) = 0.02224646
#
# Stress axis : x y z
#
# Youngs Moduli (GPa) = 80.91655 75.01760 109.21491
#
# Poissons Ratio (x) = 0.12305 -0.09132
# Poissons Ratio (y) = 0.13273 0.60014
# Poissons Ratio (z) = -0.06766 0.41222
#
# Static dielectric constant tensor:
#      x y z
#    x 3.723480 0.000000 0.000000 
#    y 0.000000 3.640330 0.000000 
#    z 0.000000 0.000000 3.790510 
# 
# 
# High freq. dielectric constant tensor:
#      x y z
#    x 1.830410 0.000000 0.000000 
#    y 0.000000 1.817680 0.000000 
#    z 0.000000 0.000000 1.822640 
# 
# From -- ./inp_files/3467.got.cif
#   From: 2010.03.12/outbox.cif.g09.slc.cpg/sg31_2_cif.got.tgz:3467.got - 2010.04.14 01:42:59.
