data_PCOD8170436
_publ_section_title
;
Structure prediction by ZEFSAII (Michael W. Deem and Ramdas Pophale) SiO2 
 PCOD8170436
Probable space group: P B A 2
;
_chemical_formula_sum "Si O2"
_cell_formula_units_Z 28
_cell_length_a 9.553074
_cell_length_b 25.677692
_cell_length_c 5.194811
_cell_angle_alpha 90.000000
_cell_angle_beta 90.000000
_cell_angle_gamma 90.000000
_cell_volume 1274.291771
_symmetry_space_group_name_H-M "P B A 2"
_symmetry_group_IT_number 32
_symmetry_cell_setting 'orthorhombic'
loop_
_space_group_symop_operation_xyz
x,y,z
-x,-y,z
1/2-x,1/2+y,z
1/2+x,1/2-y,z
loop_
_atom_site_type_symbol
_atom_site_label
_atom_site_fract_x
_atom_site_fract_y
_atom_site_fract_z
Si Si1 0.028741 0.729341 0.505440
Si Si2 0.193040 0.380396 0.034396
Si Si3 0.891391 0.956172 0.621707
Si Si4 0.161679 0.497626 0.920870
Si Si5 0.597550 0.830198 0.007599
Si Si6 0.232191 0.818617 0.535178
Si Si7 0.683205 0.412661 0.119255
O O1 0.078117 0.714127 0.220136
O O2 0.083901 0.788267 0.538932
O O3 0.860350 0.723524 0.528338
O O4 0.101396 0.693488 0.721993
O O5 0.216882 0.441968 0.019815
O O6 0.263686 0.352358 0.792505
O O7 0.260960 0.357563 0.293673
O O8 0.026400 0.371891 0.032253
O O9 0.891095 0.912735 0.396458
O O10 0.741967 0.985334 0.658773
O O11 0.927950 0.925803 0.889495
O O12 0.000000 0.000000 0.546250
O O13 0.000000 0.500000 0.853129
O O14 0.201186 0.540769 0.135912
O O15 0.745486 0.857679 0.059325
#
# Coordination Sequence:
#
# PCOD8170436 Si02
#       7
#     4   4   4   4   4   4   4
#     4  10  21  38  60  82 113 149 189 245 296 344
#     4  10  20  36  58  89 117 150 185 245 296 343
#     4  10  22  38  56  78 123 164 193 230 293 342
#     4  10  22  37  63  91 123 152 202 242 292 353
#     4  10  19  36  60  88 111 149 192 242 295 340
#     4  10  22  38  60  81 118 147 195 239 297 346
#     4  10  21  36  60  86 116 154 198 235 281 358
#
# _framework density 21.972992000000001
#
# number of rings (size 3 to 8) (size 9 to 14) (size 15 to 20)
#    0.857    1.143    1.429    2.143    2.000    1.714 
#    0.000    4.286    0.000    0.000    0.000    0.000 
#    0.000    0.000    0.000    0.000    0.000    0.000 
#
# Total GULP energy -347041.276487 kJ/mol
# GULP energy per Si atom -12394.331303 kJ/mol
# Density = 2.192298 g / cm^3
# Si number density = 21.972992 Si / 1000 Ang^3
#
#
#
# Elastic Constant Matrix: (Units=GPa)
#
#
# Indices 1 2 3 4 5 6 
#
# 1 20.9572 -0.5507 7.6109 0.0000 0.0000 0.0000
# 2 -0.5507 53.9633 0.5317 0.0000 0.0000 0.0000
# 3 7.6109 0.5317 129.1229 0.0000 0.0000 0.0000
# 4 0.0000 0.0000 0.0000 17.0901 0.0000 0.0000
# 5 0.0000 0.0000 0.0000 0.0000 12.5572 0.0000
# 6 0.0000 0.0000 0.0000 0.0000 0.0000 33.2112
#
#
#
# Elastic Compliance Matrix: (Units=1/GPa)
#
#
# Indices 1 2 3 4 5 6 
#
# 1 0.048775 0.000526 -0.002877 0.000000 0.000000 0.000000
# 2 0.000526 0.018538 -0.000107 0.000000 0.000000 0.000000
# 3 -0.002877 -0.000107 0.007915 0.000000 0.000000 0.000000
# 4 0.000000 0.000000 0.000000 0.058513 0.000000 0.000000
# 5 0.000000 0.000000 0.000000 0.000000 0.079635 0.000000
# 6 0.000000 0.000000 0.000000 0.000000 0.000000 0.030110
#
#
# Mechanical properties :
#
#
# Convention : Reuss Voigt Hill
#
# Bulk Modulus (GPa) = 14.22265 24.35857 19.29061
# Shear Modulus (GPa) = 18.39320 25.66849 22.03084
#
# Velocity S-wave (km/s) = 2.89638 3.42158 3.16987
# Velocity P-wave (km/s) = 4.20383 5.16908 4.71124
#
# Compressibility (1/GPa) = 0.07031041
#
# Stress axis : x y z
#
# Youngs Moduli (GPa) = 20.50234 53.94455 126.34896
#
# Poissons Ratio (x) = -0.02838 0.36352
# Poissons Ratio (y) = -0.01079 0.01356
# Poissons Ratio (z) = 0.05899 0.00579
#
# Static dielectric constant tensor:
#      x y z
#    x 3.723540 0.000000 0.000000 
#    y 0.000000 3.716990 0.000000 
#    z 0.000000 0.000000 3.966260 
# 
# 
# High freq. dielectric constant tensor:
#      x y z
#    x 1.844450 0.000000 0.000000 
#    y 0.000000 1.852940 0.000000 
#    z 0.000000 0.000000 1.872500 
# 
# From -- ./inp_files/993.got.cif
#   From: 2010.03.12/outbox.cif.g09.slc.cpg/sg32_1_cif.got.tgz:993.got - 2010.04.14 01:46:39.
