data_PCOD8170486
_publ_section_title
;
Structure prediction by ZEFSAII (Michael W. Deem and Ramdas Pophale) SiO2 
 PCOD8170486
Probable space group: P B A 2
;
_chemical_formula_sum "Si O2"
_cell_formula_units_Z 32
_cell_length_a 27.475312
_cell_length_b 10.105246
_cell_length_c 5.316932
_cell_angle_alpha 90.000000
_cell_angle_beta 90.000000
_cell_angle_gamma 90.000000
_cell_volume 1476.218451
_symmetry_space_group_name_H-M "P B A 2"
_symmetry_group_IT_number 32
_symmetry_cell_setting 'orthorhombic'
loop_
_space_group_symop_operation_xyz
x,y,z
-x,-y,z
1/2-x,1/2+y,z
1/2+x,1/2-y,z
loop_
_atom_site_type_symbol
_atom_site_label
_atom_site_fract_x
_atom_site_fract_y
_atom_site_fract_z
Si Si1 0.150797 0.495164 0.444520
Si Si2 0.300165 0.675452 0.949306
Si Si3 0.208119 0.488156 0.947530
Si Si4 0.447528 0.934711 0.398637
Si Si5 0.041149 0.888078 0.908062
Si Si6 0.441535 0.486023 0.408335
Si Si7 0.523821 0.141539 0.898491
Si Si8 0.858617 0.814659 0.445601
O O1 0.175691 0.530531 0.707323
O O2 0.094813 0.548931 0.428698
O O3 0.136670 0.341234 0.423264
O O4 0.182979 0.537435 0.206228
O O5 0.256522 0.572329 0.920785
O O6 0.282089 0.829699 0.949116
O O7 0.334266 0.646742 0.710578
O O8 0.326135 0.636836 0.209967
O O9 0.446584 0.833867 0.638860
O O10 0.500000 0.000000 0.360003
O O11 0.439395 0.853636 0.136163
O O12 0.072432 0.896239 0.650611
O O13 0.018617 0.745056 0.939313
O O14 0.075305 0.913919 0.150551
O O15 0.000000 0.000000 0.884003
O O16 0.500000 0.500000 0.388842
O O17 0.412426 0.622925 0.429695
O O18 0.500000 0.000000 0.854706
#
# Coordination Sequence:
#
# PCOD8170486 Si02
#       8
#     4   4   4   4   4   4   4   4
#     4  10  21  35  63  92 114 153 212 241 285 364
#     4  10  21  40  67  89 118 150 196 247 313 357
#     4  10  21  40  65  93 116 152 192 253 307 363
#     4  10  21  36  59  84 117 162 201 245 286 335
#     4  10  21  32  53  80 105 152 199 231 283 323
#     4  10  21  35  53  86 122 153 195 244 282 329
#     4  10  21  36  55  74 109 160 199 233 283 335
#     4  10  21  36  61  92 116 158 200 242 291 366
#
# _framework density 21.677007
#
# number of rings (size 3 to 8) (size 9 to 14) (size 15 to 20)
#    0.000    2.000    0.000    3.000    7.000    0.000 
#    0.000    0.000   33.000    0.000    0.000    0.000 
#    0.000    0.000    0.000    0.000    0.000    0.000 
#
# Total GULP energy -396457.602845 kJ/mol
# GULP energy per Si atom -12389.300089 kJ/mol
# Density = 2.162767 g / cm^3
# Si number density = 21.677007 Si / 1000 Ang^3
#
#
#
# Elastic Constant Matrix: (Units=GPa)
#
#
# Indices 1 2 3 4 5 6 
#
# 1 81.2753 11.2079 -3.0183 0.0000 0.0000 0.0000
# 2 11.2079 52.7027 -4.9598 0.0000 0.0000 0.0000
# 3 -3.0183 -4.9598 178.7617 0.0000 0.0000 0.0000
# 4 0.0000 0.0000 0.0000 14.9777 0.0000 0.0000
# 5 0.0000 0.0000 0.0000 0.0000 40.7568 0.0000
# 6 0.0000 0.0000 0.0000 0.0000 0.0000 33.8108
#
#
#
# Elastic Compliance Matrix: (Units=1/GPa)
#
#
# Indices 1 2 3 4 5 6 
#
# 1 0.012679 -0.002683 0.000140 0.000000 0.000000 0.000000
# 2 -0.002683 0.019592 0.000498 0.000000 0.000000 0.000000
# 3 0.000140 0.000498 0.005610 0.000000 0.000000 0.000000
# 4 0.000000 0.000000 0.000000 0.066766 0.000000 0.000000
# 5 0.000000 0.000000 0.000000 0.000000 0.024536 0.000000
# 6 0.000000 0.000000 0.000000 0.000000 0.000000 0.029576
#
#
# Mechanical properties :
#
#
# Convention : Reuss Voigt Hill
#
# Bulk Modulus (GPa) = 29.59407 35.46658 32.53033
# Shear Modulus (GPa) = 28.71694 38.54306 33.63000
#
# Velocity S-wave (km/s) = 3.64368 4.22128 3.94307
# Velocity P-wave (km/s) = 5.60213 6.33687 5.98079
#
# Compressibility (1/GPa) = 0.03379055
#
# Stress axis : x y z
#
# Youngs Moduli (GPa) = 78.87015 51.04159 178.24608
#
# Poissons Ratio (x) = 0.13696 -0.02489
# Poissons Ratio (y) = 0.21163 -0.08882
# Poissons Ratio (z) = -0.01101 -0.02543
#
# Static dielectric constant tensor:
#      x y z
#    x 3.759630 0.000000 0.000000 
#    y 0.000000 3.470740 0.000000 
#    z 0.000000 0.000000 5.867950 
# 
# 
# High freq. dielectric constant tensor:
#      x y z
#    x 1.830290 0.000000 0.000000 
#    y 0.000000 1.817830 0.000000 
#    z 0.000000 0.000000 1.898860 
# 
# From -- ./inp_files/1689.got.cif
#   From: 2010.03.12/outbox.cif.g09.slc.cpg/sg32_1_cif.got.tgz:1689.got - 2010.04.14 01:46:39.
