data_PCOD8170246
_publ_section_title
;
Structure prediction by ZEFSAII (Michael W. Deem and Ramdas Pophale) SiO2 
 PCOD8170246
Probable space group: P M N 21
;
_chemical_formula_sum "Si O2"
_cell_formula_units_Z 24
_cell_length_a 8.638022
_cell_length_b 11.862885
_cell_length_c 12.000376
_cell_angle_alpha 90.000000
_cell_angle_beta 90.000000
_cell_angle_gamma 90.000000
_cell_volume 1229.700869
_symmetry_space_group_name_H-M "P M N 21"
_symmetry_group_IT_number 31
_symmetry_cell_setting 'orthorhombic'
loop_
_space_group_symop_operation_xyz
x,y,z
1/2-x,-y,1/2+z
-x,y,z
1/2+x,-y,1/2+z
loop_
_atom_site_type_symbol
_atom_site_label
_atom_site_fract_x
_atom_site_fract_y
_atom_site_fract_z
Si Si1 0.681722 0.422651 0.294670
Si Si2 0.816042 0.837067 0.404976
Si Si3 0.182369 0.785916 0.648613
Si Si4 0.818686 0.293338 0.489834
Si Si5 0.817822 0.082143 0.341608
Si Si6 0.181889 0.656801 0.224452
O O1 0.500000 0.413983 0.318917
O O2 0.733976 0.333709 0.199935
O O3 0.773391 0.396393 0.408496
O O4 0.724106 0.544555 0.250210
O O5 0.749557 0.795682 0.523900
O O6 0.758939 0.751474 0.310303
O O7 0.000000 0.841019 0.407906
O O8 0.750403 0.961710 0.379610
O O9 0.246223 0.888456 0.722146
O O10 0.000000 0.797440 0.645729
O O11 0.770962 0.175427 0.432955
O O12 0.719892 0.300906 0.601434
O O13 0.000000 0.300691 0.517271
O O14 0.000000 0.078067 0.326493
O O15 0.000000 0.633526 0.236565
#
# Coordination Sequence:
#
# PCOD8170246 Si02
#       6
#     4   4   4   4   4   4
#     4  10  21  38  60  86 114 149 194 237 286 345
#     4   9  20  37  57  83 115 150 185 229 288 340
#     4   9  19  37  60  82 110 148 187 230 285 341
#     4  10  21  38  60  84 115 151 190 236 288 341
#     4   9  19  37  59  83 112 148 188 232 282 339
#     4  11  23  37  58  86 118 152 190 236 287 342
#
# _framework density 19.516940000000002
#
# number of rings (size 3 to 8) (size 9 to 14) (size 15 to 20)
#    0.000    2.333    0.000    1.500    4.667    1.333 
#    0.000    3.333    0.000    0.000    0.000    0.000 
#    0.000    0.000    0.000    0.000    0.000    0.000 
#
# Total GULP energy -297671.868522 kJ/mol
# GULP energy per Si atom -12402.994522 kJ/mol
# Density = 1.947252 g / cm^3
# Si number density = 19.516940 Si / 1000 Ang^3
#
#
#
# Elastic Constant Matrix: (Units=GPa)
#
#
# Indices 1 2 3 4 5 6 
#
# 1 23.3976 14.1087 13.8552 0.0000 0.0000 0.0000
# 2 14.1087 130.2769 68.0772 0.0000 0.0000 0.0000
# 3 13.8552 68.0772 160.8890 0.0000 0.0000 0.0000
# 4 0.0000 0.0000 0.0000 25.1179 0.0000 0.0000
# 5 0.0000 0.0000 0.0000 0.0000 30.5777 0.0000
# 6 0.0000 0.0000 0.0000 0.0000 0.0000 23.8117
#
#
#
# Elastic Compliance Matrix: (Units=1/GPa)
#
#
# Indices 1 2 3 4 5 6 
#
# 1 0.046437 -0.003774 -0.002402 0.000000 0.000000 0.000000
# 2 -0.003774 0.010162 -0.003975 0.000000 0.000000 0.000000
# 3 -0.002402 -0.003975 0.008104 0.000000 0.000000 0.000000
# 4 0.000000 0.000000 0.000000 0.039812 0.000000 0.000000
# 5 0.000000 0.000000 0.000000 0.000000 0.032704 0.000000
# 6 0.000000 0.000000 0.000000 0.000000 0.000000 0.041996
#
#
# Mechanical properties :
#
#
# Convention : Reuss Voigt Hill
#
# Bulk Modulus (GPa) = 22.52162 56.29400 39.40781
# Shear Modulus (GPa) = 23.32988 30.46962 26.89975
#
# Velocity S-wave (km/s) = 3.46116 3.95547 3.71654
# Velocity P-wave (km/s) = 5.24761 7.05460 6.21710
#
# Compressibility (1/GPa) = 0.04440178
#
# Stress axis : x y z
#
# Youngs Moduli (GPa) = 21.53435 98.40890 123.39313
#
# Poissons Ratio (x) = 0.37137 0.29642
# Poissons Ratio (y) = 0.08127 0.49046
# Poissons Ratio (z) = 0.05173 0.39115
#
# Static dielectric constant tensor:
#      x y z
#    x 3.321190 0.000000 0.000000 
#    y 0.000000 3.698650 0.000000 
#    z 0.000000 0.000000 3.781030 
# 
# 
# High freq. dielectric constant tensor:
#      x y z
#    x 1.743820 0.000000 0.000000 
#    y 0.000000 1.766120 0.000000 
#    z 0.000000 0.000000 1.769870 
# 
# From -- ./inp_files/3447.got.cif
#   From: 2010.03.12/outbox.cif.g09.slc.cpg/sg31_2_cif.got.tgz:3447.got - 2010.04.14 01:42:59.
