data_PCOD8170431
_publ_section_title
;
Structure prediction by ZEFSAII (Michael W. Deem and Ramdas Pophale) SiO2 
 PCOD8170431
Probable space group: P B A 2
;
_chemical_formula_sum "Si O2"
_cell_formula_units_Z 32
_cell_length_a 15.416370
_cell_length_b 8.664933
_cell_length_c 11.933924
_cell_angle_alpha 90.000000
_cell_angle_beta 90.000000
_cell_angle_gamma 90.000000
_cell_volume 1594.155206
_symmetry_space_group_name_H-M "P B A 2"
_symmetry_group_IT_number 32
_symmetry_cell_setting 'orthorhombic'
loop_
_space_group_symop_operation_xyz
x,y,z
-x,-y,z
1/2-x,1/2+y,z
1/2+x,1/2-y,z
loop_
_atom_site_type_symbol
_atom_site_label
_atom_site_fract_x
_atom_site_fract_y
_atom_site_fract_z
Si Si1 0.651499 0.825866 0.870700
Si Si2 0.668175 0.187221 0.869026
Si Si3 0.346273 0.303792 0.339205
Si Si4 0.507987 0.317528 0.738839
Si Si5 0.994740 0.816679 0.484186
Si Si6 0.664048 0.331300 0.337865
Si Si7 0.107819 0.169760 0.092577
Si Si8 0.403706 0.312948 0.094558
O O1 0.737536 0.740692 0.826736
O O2 0.570187 0.762317 0.803131
O O3 0.659240 0.006471 0.850427
O O4 0.639485 0.795860 0.002457
O O5 0.598315 0.274427 0.794445
O O6 0.656849 0.231499 0.999058
O O7 0.421099 0.245044 0.423217
O O8 0.338020 0.486101 0.344690
O O9 0.257081 0.227373 0.378681
O O10 0.370525 0.251929 0.213826
O O11 0.500000 0.500000 0.747392
O O12 0.507540 0.257790 0.611373
O O13 0.908436 0.759566 0.420118
O O14 0.000000 0.000000 0.478241
O O15 0.645378 0.275450 0.211581
O O16 0.006471 0.204809 0.089040
O O17 0.124992 0.988832 0.071646
#
# Coordination Sequence:
#
# PCOD8170431 Si02
#       8
#     4   4   4   4   4   4   4   4
#     4  12  25  41  62  90 123 159 201 249 300 360
#     4  12  25  41  62  90 123 159 201 249 300 360
#     4  10  20  37  60  89 120 156 195 238 291 352
#     4  11  23  42  65  88 118 159 204 253 302 353
#     4   9  20  40  63  84 114 157 200 239 294 355
#     4  10  20  37  60  89 120 156 195 238 291 352
#     4  10  19  35  62  90 122 160 195 238 298 361
#     4  10  19  35  62  90 122 160 195 238 298 361
#
# _framework density 20.073329999999999
#
# number of rings (size 3 to 8) (size 9 to 14) (size 15 to 20)
#    0.000    1.500    2.500    3.375    0.000    4.000 
#    0.000    5.625    0.000    0.000    0.000    0.000 
#    0.000    0.000    0.000    0.000    0.000    0.000 
#
# Total GULP energy -396953.039677 kJ/mol
# GULP energy per Si atom -12404.782490 kJ/mol
# Density = 2.002764 g / cm^3
# Si number density = 20.073330 Si / 1000 Ang^3
#
#
#
# Elastic Constant Matrix: (Units=GPa)
#
#
# Indices 1 2 3 4 5 6 
#
# 1 97.1468 -7.1439 37.8823 0.0000 0.0000 0.0000
# 2 -7.1439 41.6697 13.4684 0.0000 0.0000 0.0000
# 3 37.8823 13.4684 128.1562 0.0000 0.0000 0.0000
# 4 0.0000 0.0000 0.0000 4.2732 0.0000 0.0000
# 5 0.0000 0.0000 0.0000 0.0000 2.5806 0.0000
# 6 0.0000 0.0000 0.0000 0.0000 0.0000 34.8012
#
#
#
# Elastic Compliance Matrix: (Units=1/GPa)
#
#
# Indices 1 2 3 4 5 6 
#
# 1 0.012066 0.003335 -0.003917 0.000000 0.000000 0.000000
# 2 0.003335 0.025764 -0.003693 0.000000 0.000000 0.000000
# 3 -0.003917 -0.003693 0.009349 0.000000 0.000000 0.000000
# 4 0.000000 0.000000 0.000000 0.234015 0.000000 0.000000
# 5 0.000000 0.000000 0.000000 0.000000 0.387513 0.000000
# 6 0.000000 0.000000 0.000000 0.000000 0.000000 0.028735
#
#
# Mechanical properties :
#
#
# Convention : Reuss Voigt Hill
#
# Bulk Modulus (GPa) = 25.88819 39.48736 32.68777
# Shear Modulus (GPa) = 6.95537 23.18206 15.06871
#
# Velocity S-wave (km/s) = 1.86346 3.40202 2.74283
# Velocity P-wave (km/s) = 4.18985 5.92840 5.13326
#
# Compressibility (1/GPa) = 0.03862766
#
# Stress axis : x y z
#
# Youngs Moduli (GPa) = 82.87430 38.81428 106.96278
#
# Poissons Ratio (x) = -0.12944 0.41900
# Poissons Ratio (y) = -0.27637 0.39505
# Poissons Ratio (z) = 0.32464 0.14335
#
# Static dielectric constant tensor:
#      x y z
#    x 3.860440 0.000000 0.000000 
#    y 0.000000 3.404230 0.000000 
#    z 0.000000 0.000000 3.821200 
# 
# 
# High freq. dielectric constant tensor:
#      x y z
#    x 1.803170 0.000000 0.000000 
#    y 0.000000 1.764260 0.000000 
#    z 0.000000 0.000000 1.783250 
# 
# From -- ./inp_files/3792.got.cif
#   From: 2010.03.12/outbox.cif.g09.slc.cpg/sg32_2_cif.got.tgz:3792.got - 2010.04.14 01:46:39.
