data_PCOD8170774
_publ_section_title
;
Structure prediction by ZEFSAII (Michael W. Deem and Ramdas Pophale) SiO2 
 PCOD8170774
Probable space group: P N A 21
;
_chemical_formula_sum "Si O2"
_cell_formula_units_Z 28
_cell_length_a 14.038753
_cell_length_b 14.864812
_cell_length_c 5.907060
_cell_angle_alpha 90.000000
_cell_angle_beta 90.000000
_cell_angle_gamma 90.000000
_cell_volume 1232.705507
_symmetry_space_group_name_H-M "P N A 21"
_symmetry_group_IT_number 33
_symmetry_cell_setting 'orthorhombic'
loop_
_space_group_symop_operation_xyz
x,y,z
-x,-y,1/2+z
1/2-x,1/2+y,1/2+z
1/2+x,1/2-y,z
loop_
_atom_site_type_symbol
_atom_site_label
_atom_site_fract_x
_atom_site_fract_y
_atom_site_fract_z
Si Si1 0.023772 0.458815 0.092690
Si Si2 0.767792 0.803754 0.321917
Si Si3 0.526255 0.361936 0.871268
Si Si4 0.721257 0.976457 0.032351
Si Si5 0.364633 0.159040 0.205522
Si Si6 0.598499 0.550415 0.706518
Si Si7 0.636697 0.692252 0.053275
O O1 0.995915 0.492813 0.349479
O O2 0.962148 0.367607 0.073551
O O3 0.138428 0.453141 0.105053
O O4 0.879708 0.800211 0.379729
O O5 0.707851 0.787027 0.547695
O O6 0.736778 0.900827 0.225139
O O7 0.739813 0.720859 0.156271
O O8 0.547840 0.457052 0.756551
O O9 0.445575 0.309299 0.738273
O O10 0.483197 0.381447 0.119478
O O11 0.694324 0.927824 0.797841
O O12 0.819382 0.033590 0.015759
O O13 0.398240 0.226285 0.397846
O O14 0.646524 0.596466 0.926467
#
# Coordination Sequence:
#
# PCOD8170774 Si02
#       7
#     4   4   4   4   4   4   4
#     4  10  19  38  65 100 137 181 237 293 359 431
#     4  10  22  42  65  95 135 180 221 283 360 418
#     4  11  24  42  70  99 133 180 232 296 356 423
#     4   9  21  37  64  98 128 176 228 289 348 421
#     4  10  21  39  68  92 139 179 227 284 359 426
#     4  11  23  41  67  97 133 179 239 288 354 425
#     4  11  24  43  63  97 137 177 232 285 354 436
#
# _framework density 22.714265999999999
#
# number of rings (size 3 to 8) (size 9 to 14) (size 15 to 20)
#    0.000    1.714    2.857    0.857    2.000    2.286 
#    0.000    4.286    0.000    0.000    0.000    0.000 
#    0.000    0.000    0.000    0.000    0.000    0.000 
#
# Total GULP energy -346869.374289 kJ/mol
# GULP energy per Si atom -12388.191939 kJ/mol
# Density = 2.266257 g / cm^3
# Si number density = 22.714266 Si / 1000 Ang^3
#
#
#
# Elastic Constant Matrix: (Units=GPa)
#
#
# Indices 1 2 3 4 5 6 
#
# 1 132.2701 36.6821 24.6923 0.0000 0.0000 0.0000
# 2 36.6821 49.2712 11.8443 0.0000 0.0000 0.0000
# 3 24.6923 11.8443 82.8947 0.0000 0.0000 0.0000
# 4 0.0000 0.0000 0.0000 33.7763 0.0000 0.0000
# 5 0.0000 0.0000 0.0000 0.0000 31.4154 0.0000
# 6 0.0000 0.0000 0.0000 0.0000 0.0000 35.7914
#
#
#
# Elastic Compliance Matrix: (Units=1/GPa)
#
#
# Indices 1 2 3 4 5 6 
#
# 1 0.009822 -0.006844 -0.001948 0.000000 0.000000 0.000000
# 2 -0.006844 0.025787 -0.001646 0.000000 0.000000 0.000000
# 3 -0.001948 -0.001646 0.012879 0.000000 0.000000 0.000000
# 4 0.000000 0.000000 0.000000 0.029607 0.000000 0.000000
# 5 0.000000 0.000000 0.000000 0.000000 0.031832 0.000000
# 6 0.000000 0.000000 0.000000 0.000000 0.000000 0.027940
#
#
# Mechanical properties :
#
#
# Convention : Reuss Voigt Hill
#
# Bulk Modulus (GPa) = 36.21591 45.65261 40.93426
# Shear Modulus (GPa) = 29.77160 32.94442 31.35801
#
# Velocity S-wave (km/s) = 3.62429 3.81252 3.71960
# Velocity P-wave (km/s) = 5.78729 6.28671 6.04216
#
# Compressibility (1/GPa) = 0.02761218
#
# Stress axis : x y z
#
# Youngs Moduli (GPa) = 101.81241 38.77933 77.64656
#
# Poissons Ratio (x) = 0.26541 0.15124
# Poissons Ratio (y) = 0.69682 0.12779
# Poissons Ratio (z) = 0.19831 0.06382
#
# Static dielectric constant tensor:
#      x y z
#    x 4.346060 0.000000 0.000000 
#    y 0.000000 3.929250 0.000000 
#    z 0.000000 0.000000 4.196070 
# 
# 
# High freq. dielectric constant tensor:
#      x y z
#    x 1.902180 0.000000 0.000000 
#    y 0.000000 1.877320 0.000000 
#    z 0.000000 0.000000 1.898660 
# 
# From -- ./inp_files/1393.got.cif
#   From: 2010.03.12/outbox.cif.g09.slc.cpg/sg33_1_cif.got.tgz:1393.got - 2010.04.14 01:49:19.
