data_PCOD8170659
_publ_section_title
;
Structure prediction by ZEFSAII (Michael W. Deem and Ramdas Pophale) SiO2 
 PCOD8170659
Probable space group: P N A 21
;
_chemical_formula_sum "Si O2"
_cell_formula_units_Z 32
_cell_length_a 12.706580
_cell_length_b 22.529364
_cell_length_c 6.616657
_cell_angle_alpha 90.000000
_cell_angle_beta 90.000000
_cell_angle_gamma 90.000000
_cell_volume 1894.158115
_symmetry_space_group_name_H-M "P N A 21"
_symmetry_group_IT_number 33
_symmetry_cell_setting 'orthorhombic'
loop_
_space_group_symop_operation_xyz
x,y,z
-x,-y,1/2+z
1/2-x,1/2+y,1/2+z
1/2+x,1/2-y,z
loop_
_atom_site_type_symbol
_atom_site_label
_atom_site_fract_x
_atom_site_fract_y
_atom_site_fract_z
Si Si1 0.276512 0.824404 0.822050
Si Si2 0.593877 0.066700 0.305939
Si Si3 0.425117 0.054929 0.622999
Si Si4 0.057442 0.632571 0.510186
Si Si5 0.553320 0.725548 0.850437
Si Si6 0.673945 0.844109 0.873512
Si Si7 0.140221 0.222810 0.582059
Si Si8 0.413451 0.763761 0.499731
O O1 0.301592 0.894463 0.847148
O O2 0.318069 0.797350 0.611690
O O3 0.150782 0.818612 0.825860
O O4 0.331423 0.788982 0.005447
O O5 0.539801 0.047267 0.518425
O O6 0.513486 0.110305 0.195117
O O7 0.622194 0.010518 0.164411
O O8 0.349423 0.093653 0.483025
O O9 0.430740 0.083758 0.841994
O O10 0.169436 0.647039 0.626501
O O11 0.999570 0.689485 0.410801
O O12 0.588704 0.792194 0.911215
O O13 0.479628 0.722477 0.651706
O O14 0.479197 0.703765 0.032077
O O15 0.784147 0.823901 0.969070
O O16 0.143220 0.224606 0.825794
#
# Coordination Sequence:
#
# PCOD8170659 Si02
#       8
#     4   4   4   4   4   4   4   4
#     4   9  19  32  46  72 102 128 162 202 246 296
#     4  10  19  30  47  73  97 128 161 199 248 297
#     4  11  18  30  48  71  97 128 160 198 248 298
#     4   9  17  31  46  69 101 128 156 195 241 293
#     4   9  18  32  47  69 100 129 161 198 246 288
#     4   9  20  30  46  73  97 127 162 201 244 301
#     4  10  18  32  49  71  99 131 163 200 247 292
#     4   9  17  29  49  70  97 129 159 195 240 291
#
# _framework density 16.89405
#
# number of rings (size 3 to 8) (size 9 to 14) (size 15 to 20)
#    0.000    2.500    1.250    3.750    0.000    6.000 
#    0.000    0.000    0.000    0.000    6.500    0.000 
#    0.000    0.000    0.000    0.000    0.000    0.000 
#
# Total GULP energy -396460.694627 kJ/mol
# GULP energy per Si atom -12389.396707 kJ/mol
# Density = 1.685560 g / cm^3
# Si number density = 16.894050 Si / 1000 Ang^3
#
#
#
# Elastic Constant Matrix: (Units=GPa)
#
#
# Indices 1 2 3 4 5 6 
#
# 1 87.4904 30.9884 34.8933 0.0000 0.0000 0.0000
# 2 30.9884 78.4092 21.4954 0.0000 0.0000 0.0000
# 3 34.8933 21.4954 77.7231 0.0000 0.0000 0.0000
# 4 0.0000 0.0000 0.0000 29.7379 0.0000 0.0000
# 5 0.0000 0.0000 0.0000 0.0000 18.1856 0.0000
# 6 0.0000 0.0000 0.0000 0.0000 0.0000 21.3559
#
#
#
# Elastic Compliance Matrix: (Units=1/GPa)
#
#
# Indices 1 2 3 4 5 6 
#
# 1 0.015257 -0.004493 -0.005607 0.000000 0.000000 0.000000
# 2 -0.004493 0.015123 -0.002165 0.000000 0.000000 0.000000
# 3 -0.005607 -0.002165 0.015982 0.000000 0.000000 0.000000
# 4 0.000000 0.000000 0.000000 0.033627 0.000000 0.000000
# 5 0.000000 0.000000 0.000000 0.000000 0.054989 0.000000
# 6 0.000000 0.000000 0.000000 0.000000 0.000000 0.046825
#
#
# Mechanical properties :
#
#
# Convention : Reuss Voigt Hill
#
# Bulk Modulus (GPa) = 45.80456 46.48629 46.14543
# Shear Modulus (GPa) = 23.40694 24.27226 23.83960
#
# Velocity S-wave (km/s) = 3.72629 3.79454 3.76057
# Velocity P-wave (km/s) = 6.75909 6.83916 6.79925
#
# Compressibility (1/GPa) = 0.02183189
#
# Stress axis : x y z
#
# Youngs Moduli (GPa) = 65.54190 66.12510 62.56886
#
# Poissons Ratio (x) = 0.29708 0.35084
# Poissons Ratio (y) = 0.29446 0.13549
# Poissons Ratio (z) = 0.36751 0.14319
#
# Static dielectric constant tensor:
#      x y z
#    x 3.071630 0.000000 0.000000 
#    y 0.000000 3.025100 0.000000 
#    z 0.000000 0.000000 3.225000 
# 
# 
# High freq. dielectric constant tensor:
#      x y z
#    x 1.625020 0.000000 0.000000 
#    y 0.000000 1.625290 0.000000 
#    z 0.000000 0.000000 1.658270 
# 
# From -- ./inp_files/1131.got.cif
#   From: 2010.03.12/outbox.cif.g09.slc.cpg/sg33_1_cif.got.tgz:1131.got - 2010.04.14 01:49:19.
