data_PCOD8170146
_publ_section_title
;
Structure prediction by ZEFSAII (Michael W. Deem and Ramdas Pophale) SiO2 
 PCOD8170146
Probable space group: P M N 21
;
_chemical_formula_sum "Si O2"
_cell_formula_units_Z 32
_cell_length_a 13.487823
_cell_length_b 13.976468
_cell_length_c 8.502680
_cell_angle_alpha 90.000000
_cell_angle_beta 90.000000
_cell_angle_gamma 90.000000
_cell_volume 1602.858288
_symmetry_space_group_name_H-M "P M N 21"
_symmetry_group_IT_number 31
_symmetry_cell_setting 'orthorhombic'
loop_
_space_group_symop_operation_xyz
x,y,z
1/2-x,-y,1/2+z
-x,y,z
1/2+x,-y,1/2+z
loop_
_atom_site_type_symbol
_atom_site_label
_atom_site_fract_x
_atom_site_fract_y
_atom_site_fract_z
Si Si1 0.890202 0.443696 0.660050
Si Si2 0.380884 0.917520 0.489045
Si Si3 0.775099 0.173455 0.541861
Si Si4 0.288326 0.017388 0.188272
Si Si5 0.889399 0.321858 0.357226
Si Si6 0.713536 0.360816 0.140287
Si Si7 0.305836 0.724033 0.354601
Si Si8 0.387286 0.191201 0.291715
O O1 0.878778 0.404903 0.484419
O O2 0.812246 0.529297 0.670598
O O3 0.875372 0.360937 0.789518
O O4 0.000000 0.485278 0.685594
O O5 0.500000 0.940921 0.490528
O O6 0.327024 0.947755 0.655409
O O7 0.367714 0.803957 0.452789
O O8 0.316806 0.978529 0.362034
O O9 0.859547 0.222464 0.438222
O O10 0.752925 0.225912 0.706535
O O11 0.671402 0.172738 0.452235
O O12 0.816286 0.066535 0.567556
O O13 0.354443 0.112626 0.160644
O O14 0.822756 0.345252 0.208509
O O15 0.000000 0.311322 0.292395
O O16 0.631604 0.297232 0.227622
O O17 0.720711 0.327118 0.959195
O O18 0.500000 0.178251 0.336633
#
# Coordination Sequence:
#
# PCOD8170146 Si02
#       8
#     4   4   4   4   4   4   4   4
#     4  10  20  37  59  84 118 159 198 242 304 367
#     4  11  23  41  64  91 128 166 208 265 311 360
#     4   9  21  38  60  81 119 154 200 250 294 360
#     4  11  21  38  61  90 121 159 209 252 302 370
#     4   9  20  37  57  84 116 154 197 247 305 354
#     4  11  21  37  59  90 119 154 195 258 298 363
#     4  10  21  39  62  89 122 154 205 257 304 354
#     4  11  22  39  59  83 119 164 199 241 307 368
#
# _framework density 19.964334999999998
#
# number of rings (size 3 to 8) (size 9 to 14) (size 15 to 20)
#    0.000    1.750    2.500    1.875    0.000    4.500 
#    0.000    2.500    0.000    6.000    0.000    0.000 
#    0.000    0.000    0.000    0.000    0.000    0.000 
#
# Total GULP energy -396520.577301 kJ/mol
# GULP energy per Si atom -12391.268041 kJ/mol
# Density = 1.991890 g / cm^3
# Si number density = 19.964335 Si / 1000 Ang^3
#
#
#
# Elastic Constant Matrix: (Units=GPa)
#
#
# Indices 1 2 3 4 5 6 
#
# 1 126.6278 61.2001 46.2687 0.0000 0.0000 0.0000
# 2 61.2001 131.2776 38.4721 0.0000 0.0000 0.0000
# 3 46.2687 38.4721 67.4401 0.0000 0.0000 0.0000
# 4 0.0000 0.0000 0.0000 24.0114 0.0000 0.0000
# 5 0.0000 0.0000 0.0000 0.0000 13.1761 0.0000
# 6 0.0000 0.0000 0.0000 0.0000 0.0000 17.6848
#
#
#
# Elastic Compliance Matrix: (Units=1/GPa)
#
#
# Indices 1 2 3 4 5 6 
#
# 1 0.011933 -0.003799 -0.006020 0.000000 0.000000 0.000000
# 2 -0.003799 0.010356 -0.003301 0.000000 0.000000 0.000000
# 3 -0.006020 -0.003301 0.020841 0.000000 0.000000 0.000000
# 4 0.000000 0.000000 0.000000 0.041647 0.000000 0.000000
# 5 0.000000 0.000000 0.000000 0.000000 0.075895 0.000000
# 6 0.000000 0.000000 0.000000 0.000000 0.000000 0.056546
#
#
# Mechanical properties :
#
#
# Convention : Reuss Voigt Hill
#
# Bulk Modulus (GPa) = 59.20609 68.58080 63.89345
# Shear Modulus (GPa) = 20.07331 22.93477 21.50404
#
# Velocity S-wave (km/s) = 3.17434 3.39305 3.28552
# Velocity P-wave (km/s) = 6.56929 7.05526 6.81660
#
# Compressibility (1/GPa) = 0.01689016
#
# Stress axis : x y z
#
# Youngs Moduli (GPa) = 83.80380 96.56329 47.98196
#
# Poissons Ratio (x) = 0.36682 0.28883
# Poissons Ratio (y) = 0.31835 0.15841
# Poissons Ratio (z) = 0.50446 0.31880
#
# Static dielectric constant tensor:
#      x y z
#    x 3.450960 0.000000 0.000000 
#    y 0.000000 3.907320 0.000000 
#    z 0.000000 0.000000 3.677130 
# 
# 
# High freq. dielectric constant tensor:
#      x y z
#    x 1.756650 0.000000 0.000000 
#    y 0.000000 1.799760 0.000000 
#    z 0.000000 0.000000 1.774010 
# 
# From -- ./inp_files/2252.got.cif
#   From: 2010.03.12/outbox.cif.g09.slc.cpg/sg31_2_cif.got.tgz:2252.got - 2010.04.14 01:42:59.
