data_PCOD8170596
_publ_section_title
;
Structure prediction by ZEFSAII (Michael W. Deem and Ramdas Pophale) SiO2 
 PCOD8170596
Probable space group: P B A 2
;
_chemical_formula_sum "Si O2"
_cell_formula_units_Z 30
_cell_length_a 21.222116
_cell_length_b 8.106259
_cell_length_c 8.674609
_cell_angle_alpha 90.000000
_cell_angle_beta 90.000000
_cell_angle_gamma 90.000000
_cell_volume 1492.310065
_symmetry_space_group_name_H-M "P B A 2"
_symmetry_group_IT_number 32
_symmetry_cell_setting 'orthorhombic'
loop_
_space_group_symop_operation_xyz
x,y,z
-x,-y,z
1/2-x,1/2+y,z
1/2+x,1/2-y,z
loop_
_atom_site_type_symbol
_atom_site_label
_atom_site_fract_x
_atom_site_fract_y
_atom_site_fract_z
Si Si1 0.321903 0.390611 0.823520
Si Si2 0.000000 0.500000 0.269870
Si Si3 0.271801 0.690346 0.294060
Si Si4 0.046093 0.846996 0.346324
Si Si5 0.120296 0.349988 0.125573
Si Si6 0.178131 0.888812 0.472672
Si Si7 0.786158 0.423354 0.981726
Si Si8 0.429927 0.494975 0.024781
O O1 0.311662 0.445458 0.647894
O O2 0.279101 0.496418 0.936039
O O3 0.306181 0.199195 0.845735
O O4 0.392353 0.421087 0.881719
O O5 0.010212 0.670494 0.365571
O O6 0.063419 0.470670 0.172183
O O7 0.327471 0.823261 0.261119
O O8 0.226416 0.741793 0.434374
O O9 0.307414 0.526741 0.345985
O O10 0.227339 0.666492 0.144553
O O11 0.105246 0.837074 0.460298
O O12 0.071597 0.873210 0.172419
O O13 0.000000 0.000000 0.390198
O O14 0.093699 0.176292 0.069846
O O15 0.158051 0.441947 0.989559
O O16 0.500000 0.500000 0.959584
#
# Coordination Sequence:
#
# PCOD8170596 Si02
#       8
#     4   2   4   4   4   4   4   4
#     4  12  24  41  61  95 139 173 213 279 353 399
#     4  12  22  38  68 102 126 162 222 300 318 382
#     4  12  21  40  65  97 125 171 228 272 332 397
#     4  11  22  43  69  97 130 176 233 281 327 394
#     4  12  22  37  70  99 121 166 227 284 326 376
#     4  12  25  39  64  98 135 173 216 283 346 401
#     4  12  22  41  66  93 128 172 223 272 332 402
#     4  11  21  42  65  96 126 172 231 273 323 398
#
# _framework density 20.103062000000001
#
# number of rings (size 3 to 8) (size 9 to 14) (size 15 to 20)
#    0.000    0.267    8.000    3.200    0.000    0.533 
#    0.000    0.000    2.933    0.000    0.000    0.000 
#    0.000    0.000    0.000    0.000    0.000    0.000 
#
# Total GULP energy -371980.818144 kJ/mol
# GULP energy per Si atom -12399.360605 kJ/mol
# Density = 2.005731 g / cm^3
# Si number density = 20.103062 Si / 1000 Ang^3
#
#
#
# Elastic Constant Matrix: (Units=GPa)
#
#
# Indices 1 2 3 4 5 6 
#
# 1 139.1815 39.2163 32.7192 0.0000 0.0000 0.0000
# 2 39.2163 108.1123 14.6206 0.0000 0.0000 0.0000
# 3 32.7192 14.6206 69.1870 0.0000 0.0000 0.0000
# 4 0.0000 0.0000 0.0000 23.4391 0.0000 0.0000
# 5 0.0000 0.0000 0.0000 0.0000 18.4560 0.0000
# 6 0.0000 0.0000 0.0000 0.0000 0.0000 46.0478
#
#
#
# Elastic Compliance Matrix: (Units=1/GPa)
#
#
# Indices 1 2 3 4 5 6 
#
# 1 0.008789 -0.002703 -0.003585 0.000000 0.000000 0.000000
# 2 -0.002703 0.010353 -0.000909 0.000000 0.000000 0.000000
# 3 -0.003585 -0.000909 0.016341 0.000000 0.000000 0.000000
# 4 0.000000 0.000000 0.000000 0.042664 0.000000 0.000000
# 5 0.000000 0.000000 0.000000 0.000000 0.054183 0.000000
# 6 0.000000 0.000000 0.000000 0.000000 0.000000 0.021717
#
#
# Mechanical properties :
#
#
# Convention : Reuss Voigt Hill
#
# Bulk Modulus (GPa) = 47.42085 54.39919 50.91002
# Shear Modulus (GPa) = 28.49444 32.91688 30.70566
#
# Velocity S-wave (km/s) = 3.76895 4.05088 3.91245
# Velocity P-wave (km/s) = 6.52534 6.99988 6.76677
#
# Compressibility (1/GPa) = 0.02108777
#
# Stress axis : x y z
#
# Youngs Moduli (GPa) = 113.77307 96.58812 61.19469
#
# Poissons Ratio (x) = 0.26111 0.21940
# Poissons Ratio (y) = 0.30757 0.05565
# Poissons Ratio (z) = 0.40791 0.08784
#
# Static dielectric constant tensor:
#      x y z
#    x 4.031220 0.000000 0.000000 
#    y 0.000000 3.806970 0.000000 
#    z 0.000000 0.000000 3.178990 
# 
# 
# High freq. dielectric constant tensor:
#      x y z
#    x 1.807690 0.000000 0.000000 
#    y 0.000000 1.796790 0.000000 
#    z 0.000000 0.000000 1.741750 
# 
# From -- ./inp_files/3312.got.cif
#   From: 2010.03.12/outbox.cif.g09.slc.cpg/sg32_2_cif.got.tgz:3312.got - 2010.04.14 01:46:39.
