data_PCOD8170184
_publ_section_title
;
Structure prediction by ZEFSAII (Michael W. Deem and Ramdas Pophale) SiO2 
 PCOD8170184
Probable space group: P M N 21
;
_chemical_formula_sum "Si O2"
_cell_formula_units_Z 32
_cell_length_a 8.937454
_cell_length_b 14.409957
_cell_length_c 12.470892
_cell_angle_alpha 90.000000
_cell_angle_beta 90.000000
_cell_angle_gamma 90.000000
_cell_volume 1606.105327
_symmetry_space_group_name_H-M "P M N 21"
_symmetry_group_IT_number 31
_symmetry_cell_setting 'orthorhombic'
loop_
_space_group_symop_operation_xyz
x,y,z
1/2-x,-y,1/2+z
-x,y,z
1/2+x,-y,1/2+z
loop_
_atom_site_type_symbol
_atom_site_label
_atom_site_fract_x
_atom_site_fract_y
_atom_site_fract_z
Si Si1 0.178432 0.770214 0.262020
Si Si2 0.672446 0.139721 0.225649
Si Si3 0.823080 0.553544 0.865673
Si Si4 0.663575 0.129320 0.466689
Si Si5 0.324171 0.668966 0.677172
Si Si6 0.674233 0.649592 0.432463
Si Si7 0.834981 0.673077 0.053027
Si Si8 0.826876 0.059690 0.660555
O O1 0.234603 0.732622 0.376046
O O2 0.243130 0.703260 0.165624
O O3 0.235374 0.875204 0.243321
O O4 0.000000 0.772617 0.257785
O O5 0.500000 0.168604 0.206262
O O6 0.700821 0.105084 0.345750
O O7 0.776592 0.225152 0.194947
O O8 0.720133 0.048213 0.160827
O O9 0.751498 0.597929 0.759928
O O10 0.787291 0.444580 0.868627
O O11 0.000000 0.573794 0.862286
O O12 0.755033 0.595609 0.977956
O O13 0.500000 0.089013 0.500939
O O14 0.657112 0.239764 0.474225
O O15 0.794758 0.089059 0.539191
O O16 0.500000 0.660802 0.694493
O O17 0.277141 0.640489 0.556485
O O18 0.500000 0.674051 0.424678
O O19 0.000000 0.635959 0.083113
O O20 0.000000 0.072008 0.689168
#
# Coordination Sequence:
#
# PCOD8170184 Si02
#       8
#     4   4   4   4   4   4   4   4
#     4  10  21  38  61  86 118 159 202 245 295 356
#     4  10  21  39  61  84 116 160 201 244 301 360
#     4  10  20  39  63  84 114 157 198 240 297 360
#     4   9  17  34  56  79 110 151 197 240 293 355
#     4  11  24  40  60  91 125 154 197 253 302 355
#     4  10  24  41  59  86 124 164 197 244 305 356
#     4   8  15  31  58  82 103 143 190 238 286 338
#     4  10  21  36  58  88 120 154 200 252 301 356
#
# _framework density 19.923973
#
# number of rings (size 3 to 8) (size 9 to 14) (size 15 to 20)
#    0.000    2.250    1.250    1.875    1.750    4.000 
#    0.000    4.375    0.000    0.000    0.000    0.000 
#    0.000    0.000    0.000    0.000    0.000    0.000 
#
# Total GULP energy -396617.237659 kJ/mol
# GULP energy per Si atom -12394.288677 kJ/mol
# Density = 1.987863 g / cm^3
# Si number density = 19.923973 Si / 1000 Ang^3
#
#
#
# Elastic Constant Matrix: (Units=GPa)
#
#
# Indices 1 2 3 4 5 6 
#
# 1 60.1746 37.6471 32.6865 0.0000 0.0000 0.0000
# 2 37.6471 91.8450 34.1792 0.0000 0.0000 0.0000
# 3 32.6865 34.1792 75.8921 0.0000 0.0000 0.0000
# 4 0.0000 0.0000 0.0000 26.7961 0.0000 0.0000
# 5 0.0000 0.0000 0.0000 0.0000 31.2828 0.0000
# 6 0.0000 0.0000 0.0000 0.0000 0.0000 20.8907
#
#
#
# Elastic Compliance Matrix: (Units=1/GPa)
#
#
# Indices 1 2 3 4 5 6 
#
# 1 0.025496 -0.007646 -0.007538 0.000000 0.000000 0.000000
# 2 -0.007646 0.015373 -0.003630 0.000000 0.000000 0.000000
# 3 -0.007538 -0.003630 0.018058 0.000000 0.000000 0.000000
# 4 0.000000 0.000000 0.000000 0.037319 0.000000 0.000000
# 5 0.000000 0.000000 0.000000 0.000000 0.031966 0.000000
# 6 0.000000 0.000000 0.000000 0.000000 0.000000 0.047868
#
#
# Mechanical properties :
#
#
# Convention : Reuss Voigt Hill
#
# Bulk Modulus (GPa) = 46.94977 48.54858 47.74917
# Shear Modulus (GPa) = 22.64406 24.02051 23.33229
#
# Velocity S-wave (km/s) = 3.37489 3.47595 3.42580
# Velocity P-wave (km/s) = 6.22914 6.36628 6.29808
#
# Compressibility (1/GPa) = 0.02129936
#
# Stress axis : x y z
#
# Youngs Moduli (GPa) = 39.22149 65.04941 55.37673
#
# Poissons Ratio (x) = 0.49735 0.41742
# Poissons Ratio (y) = 0.29988 0.20104
# Poissons Ratio (z) = 0.29564 0.23616
#
# Static dielectric constant tensor:
#      x y z
#    x 3.422540 0.000000 0.000000 
#    y 0.000000 3.604910 0.000000 
#    z 0.000000 0.000000 3.680650 
# 
# 
# High freq. dielectric constant tensor:
#      x y z
#    x 1.755440 0.000000 0.000000 
#    y 0.000000 1.776840 0.000000 
#    z 0.000000 0.000000 1.781280 
# 
# From -- ./inp_files/3616.got.cif
#   From: 2010.03.12/outbox.cif.g09.slc.cpg/sg31_2_cif.got.tgz:3616.got - 2010.04.14 01:42:59.
