data_PCOD8170908
_publ_section_title
;
Structure prediction by ZEFSAII (Michael W. Deem and Ramdas Pophale) SiO2 
 PCOD8170908
Probable space group: P N A 21
;
_chemical_formula_sum "Si O2"
_cell_formula_units_Z 28
_cell_length_a 12.758697
_cell_length_b 19.351966
_cell_length_c 5.125337
_cell_angle_alpha 90.000000
_cell_angle_beta 90.000000
_cell_angle_gamma 90.000000
_cell_volume 1265.475794
_symmetry_space_group_name_H-M "P N A 21"
_symmetry_group_IT_number 33
_symmetry_cell_setting 'orthorhombic'
loop_
_space_group_symop_operation_xyz
x,y,z
-x,-y,1/2+z
1/2-x,1/2+y,1/2+z
1/2+x,1/2-y,z
loop_
_atom_site_type_symbol
_atom_site_label
_atom_site_fract_x
_atom_site_fract_y
_atom_site_fract_z
Si Si1 0.288201 0.102630 0.607990
Si Si2 0.994918 0.542479 0.209038
Si Si3 0.868548 0.994095 0.940407
Si Si4 0.212943 0.175481 0.097267
Si Si5 0.270504 0.906588 0.176691
Si Si6 0.000666 0.884051 0.679551
Si Si7 0.786236 0.172856 0.181310
O O1 0.411444 0.089380 0.601997
O O2 0.217275 0.032709 0.657248
O O3 0.256712 0.124598 0.316532
O O4 0.268865 0.161584 0.822258
O O5 0.033108 0.512316 0.484395
O O6 0.890308 0.585054 0.263545
O O7 0.943587 0.927756 0.904827
O O8 0.798144 0.022316 0.695425
O O9 0.943228 0.057615 0.007830
O O10 0.089098 0.162356 0.042850
O O11 0.236807 0.251820 0.200159
O O12 0.223349 0.852525 0.384626
O O13 0.272139 0.877618 0.883358
O O14 0.090627 0.830008 0.770074
#
# Coordination Sequence:
#
# PCOD8170908 Si02
#       7
#     4   4   4   4   4   4   4
#     4  11  24  41  67  96 134 169 219 279 328 403
#     4  12  24  40  65  99 132 174 208 268 350 398
#     4  10  20  40  64 104 126 170 216 286 346 392
#     4  11  25  44  64  95 131 179 225 268 323 400
#     4  11  24  41  67  96 134 169 219 279 328 403
#     4  10  22  38  69  93 130 170 212 278 332 390
#     4  11  25  44  64  95 131 179 225 268 323 400
#
# _framework density 22.126066999999999
#
# number of rings (size 3 to 8) (size 9 to 14) (size 15 to 20)
#    0.000    1.143    1.429    4.286    4.000    5.714 
#    0.000    0.000    0.000    0.000    0.000    0.000 
#    0.000    0.000    0.000    0.000    0.000    0.000 
#
# Total GULP energy -346957.028492 kJ/mol
# GULP energy per Si atom -12391.322446 kJ/mol
# Density = 2.207571 g / cm^3
# Si number density = 22.126067 Si / 1000 Ang^3
#
#
#
# Elastic Constant Matrix: (Units=GPa)
#
#
# Indices 1 2 3 4 5 6 
#
# 1 157.7155 42.9897 6.3640 0.0000 0.0000 0.0000
# 2 42.9897 91.2084 7.5204 0.0000 0.0000 0.0000
# 3 6.3640 7.5204 71.9768 0.0000 0.0000 0.0000
# 4 0.0000 0.0000 0.0000 33.0375 0.0000 0.0000
# 5 0.0000 0.0000 0.0000 0.0000 27.1492 0.0000
# 6 0.0000 0.0000 0.0000 0.0000 0.0000 39.3118
#
#
#
# Elastic Compliance Matrix: (Units=1/GPa)
#
#
# Indices 1 2 3 4 5 6 
#
# 1 0.007281 -0.003408 -0.000288 0.000000 0.000000 0.000000
# 2 -0.003408 0.012654 -0.001021 0.000000 0.000000 0.000000
# 3 -0.000288 -0.001021 0.014025 0.000000 0.000000 0.000000
# 4 0.000000 0.000000 0.000000 0.030269 0.000000 0.000000
# 5 0.000000 0.000000 0.000000 0.000000 0.036834 0.000000
# 6 0.000000 0.000000 0.000000 0.000000 0.000000 0.025438
#
#
# Mechanical properties :
#
#
# Convention : Reuss Voigt Hill
#
# Bulk Modulus (GPa) = 40.77019 48.29433 44.53226
# Shear Modulus (GPa) = 34.69571 37.50147 36.09859
#
# Velocity S-wave (km/s) = 3.96421 4.12138 4.04356
# Velocity P-wave (km/s) = 6.27850 6.67248 6.47849
#
# Compressibility (1/GPa) = 0.02452772
#
# Stress axis : x y z
#
# Youngs Moduli (GPa) = 137.34160 79.02369 71.29888
#
# Poissons Ratio (x) = 0.26932 0.02051
# Poissons Ratio (y) = 0.46808 0.07278
# Poissons Ratio (z) = 0.03951 0.08067
#
# Static dielectric constant tensor:
#      x y z
#    x 4.406240 0.000000 0.000000 
#    y 0.000000 3.980620 0.000000 
#    z 0.000000 0.000000 3.842060 
# 
# 
# High freq. dielectric constant tensor:
#      x y z
#    x 1.894340 0.000000 0.000000 
#    y 0.000000 1.851870 0.000000 
#    z 0.000000 0.000000 1.861330 
# 
# From -- ./inp_files/1003.got.cif
#   From: 2010.03.12/outbox.cif.g09.slc.cpg/sg33_1_cif.got.tgz:1003.got - 2010.04.14 01:49:19.
