data_PCOD8170296
_publ_section_title
;
Structure prediction by ZEFSAII (Michael W. Deem and Ramdas Pophale) SiO2 
 PCOD8170296
Probable space group: P M N 21
;
_chemical_formula_sum "Si O2"
_cell_formula_units_Z 32
_cell_length_a 8.939055
_cell_length_b 14.465825
_cell_length_c 12.473375
_cell_angle_alpha 90.000000
_cell_angle_beta 90.000000
_cell_angle_gamma 90.000000
_cell_volume 1612.942166
_symmetry_space_group_name_H-M "P M N 21"
_symmetry_group_IT_number 31
_symmetry_cell_setting 'orthorhombic'
loop_
_space_group_symop_operation_xyz
x,y,z
1/2-x,-y,1/2+z
-x,y,z
1/2+x,-y,1/2+z
loop_
_atom_site_type_symbol
_atom_site_label
_atom_site_fract_x
_atom_site_fract_y
_atom_site_fract_z
Si Si1 0.172509 0.864541 0.268050
Si Si2 0.165621 0.836135 0.874590
Si Si3 0.664688 0.356296 0.270819
Si Si4 0.678472 0.450403 0.480208
Si Si5 0.170908 0.063002 0.195017
Si Si6 0.321230 0.361558 0.038735
Si Si7 0.177862 0.171873 0.985261
Si Si8 0.322793 0.264044 0.581337
O O1 0.271275 0.876290 0.374607
O O2 0.224960 0.775391 0.197399
O O3 0.000000 0.853309 0.302856
O O4 0.191858 0.952443 0.188714
O O5 0.154247 0.751291 0.793767
O O6 0.260207 0.911124 0.810250
O O7 0.000000 0.877668 0.896519
O O8 0.242786 0.801533 0.985823
O O9 0.500000 0.398663 0.255974
O O10 0.740194 0.411294 0.367443
O O11 0.749131 0.367658 0.158327
O O12 0.500000 0.467481 0.483252
O O13 0.770224 0.543931 0.485645
O O14 0.725266 0.372124 0.568772
O O15 0.000000 0.093100 0.200424
O O16 0.238589 0.112248 0.087903
O O17 0.500000 0.350567 0.034726
O O18 0.248530 0.273792 0.981215
O O19 0.000000 0.178314 0.986925
O O20 0.500000 0.259806 0.563645
#
# Coordination Sequence:
#
# PCOD8170296 Si02
#       8
#     4   4   4   4   4   4   4   4
#     4  10  22  40  59  84 120 158 192 237 292 349
#     4   9  16  32  60  83 104 145 193 235 282 342
#     4   8  16  32  53  78 107 142 188 236 284 338
#     4   9  18  35  57  83 112 149 194 241 290 346
#     4  10  22  37  56  85 118 148 187 241 292 335
#     4  11  21  36  58  85 114 151 192 239 292 346
#     4  11  24  41  59  86 119 154 194 239 288 344
#     4   8  17  35  60  84 112 151 194 238 290 344
#
# _framework density 19.83952
#
# number of rings (size 3 to 8) (size 9 to 14) (size 15 to 20)
#    0.000    2.500    1.250    2.250    1.750    2.000 
#    0.000    7.500    0.000    0.000    0.000    0.000 
#    0.000    0.000    0.000    0.000    0.000    0.000 
#
# Total GULP energy -396491.167892 kJ/mol
# GULP energy per Si atom -12390.348997 kJ/mol
# Density = 1.979436 g / cm^3
# Si number density = 19.839520 Si / 1000 Ang^3
#
#
#
# Elastic Constant Matrix: (Units=GPa)
#
#
# Indices 1 2 3 4 5 6 
#
# 1 50.9523 29.1591 25.2213 0.0000 0.0000 0.0000
# 2 29.1591 97.0760 34.4484 0.0000 0.0000 0.0000
# 3 25.2213 34.4484 86.8955 0.0000 0.0000 0.0000
# 4 0.0000 0.0000 0.0000 28.6557 0.0000 0.0000
# 5 0.0000 0.0000 0.0000 0.0000 19.7334 0.0000
# 6 0.0000 0.0000 0.0000 0.0000 0.0000 23.1545
#
#
#
# Elastic Compliance Matrix: (Units=1/GPa)
#
#
# Indices 1 2 3 4 5 6 
#
# 1 0.025490 -0.005855 -0.005077 0.000000 0.000000 0.000000
# 2 -0.005855 0.013332 -0.003586 0.000000 0.000000 0.000000
# 3 -0.005077 -0.003586 0.014403 0.000000 0.000000 0.000000
# 4 0.000000 0.000000 0.000000 0.034897 0.000000 0.000000
# 5 0.000000 0.000000 0.000000 0.000000 0.050676 0.000000
# 6 0.000000 0.000000 0.000000 0.000000 0.000000 0.043188
#
#
# Mechanical properties :
#
#
# Convention : Reuss Voigt Hill
#
# Bulk Modulus (GPa) = 41.34051 45.84238 43.59145
# Shear Modulus (GPa) = 22.82205 24.04839 23.43522
#
# Velocity S-wave (km/s) = 3.39534 3.48537 3.44064
# Velocity P-wave (km/s) = 6.02111 6.27326 6.14848
#
# Compressibility (1/GPa) = 0.02418935
#
# Stress axis : x y z
#
# Youngs Moduli (GPa) = 39.23089 75.00525 69.42790
#
# Poissons Ratio (x) = 0.43914 0.35251
# Poissons Ratio (y) = 0.22969 0.24897
# Poissons Ratio (z) = 0.19919 0.26897
#
# Static dielectric constant tensor:
#      x y z
#    x 3.282780 0.000000 0.000000 
#    y 0.000000 3.578810 0.000000 
#    z 0.000000 0.000000 3.726790 
# 
# 
# High freq. dielectric constant tensor:
#      x y z
#    x 1.734850 0.000000 0.000000 
#    y 0.000000 1.774740 0.000000 
#    z 0.000000 0.000000 1.779380 
# 
# From -- ./inp_files/3568.got.cif
#   From: 2010.03.12/outbox.cif.g09.slc.cpg/sg31_2_cif.got.tgz:3568.got - 2010.04.14 01:42:59.
