data_PCOD8170602
_publ_section_title
;
Structure prediction by ZEFSAII (Michael W. Deem and Ramdas Pophale) SiO2 
 PCOD8170602
Probable space group: P B A 2
;
_chemical_formula_sum "Si O2"
_cell_formula_units_Z 32
_cell_length_a 12.414291
_cell_length_b 18.914412
_cell_length_c 6.739731
_cell_angle_alpha 90.000000
_cell_angle_beta 90.000000
_cell_angle_gamma 90.000000
_cell_volume 1582.549595
_symmetry_space_group_name_H-M "P B A 2"
_symmetry_group_IT_number 32
_symmetry_cell_setting 'orthorhombic'
loop_
_space_group_symop_operation_xyz
x,y,z
-x,-y,z
1/2-x,1/2+y,z
1/2+x,1/2-y,z
loop_
_atom_site_type_symbol
_atom_site_label
_atom_site_fract_x
_atom_site_fract_y
_atom_site_fract_z
Si Si1 0.073660 0.203184 0.743570
Si Si2 0.064162 0.933683 0.715252
Si Si3 0.737319 0.345081 0.043970
Si Si4 0.717812 0.507151 0.031824
Si Si5 0.755035 0.596157 0.423081
Si Si6 0.093518 0.446555 0.762432
Si Si7 0.987309 0.320357 0.001599
Si Si8 0.360078 0.765197 0.330117
O O1 0.090139 0.240047 0.535079
O O2 0.022940 0.126594 0.738188
O O3 0.189827 0.194366 0.849951
O O4 0.990185 0.250906 0.866337
O O5 0.150320 0.908593 0.556789
O O6 0.000000 0.000000 0.626213
O O7 0.116856 0.953614 0.928097
O O8 0.692651 0.424676 0.065833
O O9 0.693948 0.303185 0.233489
O O10 0.865992 0.344878 0.037688
O O11 0.745369 0.543099 0.239858
O O12 0.818275 0.510373 0.884443
O O13 0.860873 0.578803 0.551525
O O14 0.765417 0.676915 0.351561
O O15 0.000000 0.500000 0.707323
O O16 0.054737 0.381328 0.894168
O O17 0.042918 0.301498 0.209517
#
# Coordination Sequence:
#
# PCOD8170602 Si02
#       8
#     4   4   4   4   4   4   4   4
#     4  11  26  46  65  96 137 174 225 278 329 406
#     4  11  26  45  69  95 134 185 223 274 343 400
#     4  11  26  42  69  98 132 176 224 280 333 408
#     4  11  24  45  66  97 136 175 223 277 338 405
#     4  11  26  42  68  99 135 175 227 278 336 414
#     4  11  22  42  66  98 133 172 217 274 341 401
#     4  11  24  43  69  96 131 178 219 273 344 399
#     4  11  26  43  67 102 136 174 227 278 340 403
#
# _framework density 20.220535000000002
#
# number of rings (size 3 to 8) (size 9 to 14) (size 15 to 20)
#    0.000    1.000    5.000    0.000    7.000    3.000 
#    0.000    0.000    0.000    0.000    0.000    0.000 
#    0.000    0.000    0.000    0.000    0.000    0.000 
#
# Total GULP energy -396937.595630 kJ/mol
# GULP energy per Si atom -12404.299863 kJ/mol
# Density = 2.017451 g / cm^3
# Si number density = 20.220535 Si / 1000 Ang^3
#
#
#
# Elastic Constant Matrix: (Units=GPa)
#
#
# Indices 1 2 3 4 5 6 
#
# 1 82.4103 15.7219 31.1998 0.0000 0.0000 0.0000
# 2 15.7219 112.9428 38.1245 0.0000 0.0000 0.0000
# 3 31.1998 38.1245 122.8549 0.0000 0.0000 0.0000
# 4 0.0000 0.0000 0.0000 30.0107 0.0000 0.0000
# 5 0.0000 0.0000 0.0000 0.0000 -1.7871 0.0000
# 6 0.0000 0.0000 0.0000 0.0000 0.0000 39.3556
#
#
#
# Elastic Compliance Matrix: (Units=1/GPa)
#
#
# Indices 1 2 3 4 5 6 
#
# 1 0.013491 -0.000806 -0.003176 0.000000 0.000000 0.000000
# 2 -0.000806 0.009938 -0.002879 0.000000 0.000000 0.000000
# 3 -0.003176 -0.002879 0.009840 0.000000 0.000000 0.000000
# 4 0.000000 0.000000 0.000000 0.033321 0.000000 0.000000
# 5 0.000000 0.000000 0.000000 0.000000 -0.559571 0.000000
# 6 0.000000 0.000000 0.000000 0.000000 0.000000 0.025409
#
#
# Mechanical properties :
#
#
# Convention : Reuss Voigt Hill
#
# Bulk Modulus (GPa) = 51.16101 54.25558 52.70830
# Shear Modulus (GPa) = -11.17733 29.05997 8.94132
#
# Velocity S-wave (km/s) = -2.35366 3.79509 2.10511
# Velocity P-wave (km/s) = 4.23912 6.78924 5.65968
#
# Compressibility (1/GPa) = 0.01954613
#
# Stress axis : x y z
#
# Youngs Moduli (GPa) = 74.12610 100.62222 101.62855
#
# Poissons Ratio (x) = 0.08109 0.32276
# Poissons Ratio (y) = 0.05974 0.29263
# Poissons Ratio (z) = 0.23542 0.28973
#
# Static dielectric constant tensor:
#      x y z
#    x 3.663740 0.000000 0.000000 
#    y 0.000000 3.928190 0.000000 
#    z 0.000000 0.000000 3.746410 
# 
# 
# High freq. dielectric constant tensor:
#      x y z
#    x 1.793130 0.000000 0.000000 
#    y 0.000000 1.810050 0.000000 
#    z 0.000000 0.000000 1.794720 
# 
# From -- ./inp_files/1051.got.cif
#   From: 2010.03.12/outbox.cif.g09.slc.cpg/sg32_1_cif.got.tgz:1051.got - 2010.04.14 01:46:39.
