data_PCOD8170890
_publ_section_title
;
Structure prediction by ZEFSAII (Michael W. Deem and Ramdas Pophale) SiO2 
 PCOD8170890
Probable space group: P N A 21
;
_chemical_formula_sum "Si O2"
_cell_formula_units_Z 20
_cell_length_a 8.338995
_cell_length_b 21.477392
_cell_length_c 4.844393
_cell_angle_alpha 90.000000
_cell_angle_beta 90.000000
_cell_angle_gamma 90.000000
_cell_volume 867.630130
_symmetry_space_group_name_H-M "P N A 21"
_symmetry_group_IT_number 33
_symmetry_cell_setting 'orthorhombic'
loop_
_space_group_symop_operation_xyz
x,y,z
-x,-y,1/2+z
1/2-x,1/2+y,1/2+z
1/2+x,1/2-y,z
loop_
_atom_site_type_symbol
_atom_site_label
_atom_site_fract_x
_atom_site_fract_y
_atom_site_fract_z
Si Si1 0.606171 0.136858 0.224240
Si Si2 0.241766 0.104141 0.218130
Si Si3 0.251066 0.299908 0.739368
Si Si4 0.605336 0.010944 0.936240
Si Si5 0.387491 0.668787 0.203768
O O1 0.416557 0.133846 0.268996
O O2 0.690256 0.150085 0.515260
O O3 0.672743 0.073519 0.078469
O O4 0.651889 0.192890 0.021699
O O5 0.107306 0.136177 0.406596
O O6 0.253742 0.030847 0.298783
O O7 0.188269 0.116944 0.906488
O O8 0.437468 0.310906 0.798292
O O9 0.226760 0.228358 0.658791
O O10 0.514994 0.972169 0.181414
#
# Coordination Sequence:
#
# PCOD8170890 Si02
#       5
#     4   4   4   4   4
#     4  11  22  41  67  94 125 167 214 264 313 379
#     4  11  22  41  67  94 125 167 214 264 313 379
#     4  12  25  42  63  94 130 169 212 265 324 382
#     4  10  20  38  66  98 126 164 216 264 314 382
#     4  12  25  42  63  94 130 169 212 265 324 382
#
# _framework density 23.051296000000001
#
# number of rings (size 3 to 8) (size 9 to 14) (size 15 to 20)
#    0.000    0.800    0.000   10.800    0.000    0.000 
#    0.000    4.000    0.000    2.400    0.000    0.000 
#    0.000    0.000    0.000    0.000    0.000    0.000 
#
# Total GULP energy -247980.307759 kJ/mol
# GULP energy per Si atom -12399.015388 kJ/mol
# Density = 2.299883 g / cm^3
# Si number density = 23.051296 Si / 1000 Ang^3
#
#
#
# Elastic Constant Matrix: (Units=GPa)
#
#
# Indices 1 2 3 4 5 6 
#
# 1 51.9393 1.5688 27.1728 0.0000 0.0000 0.0000
# 2 1.5688 58.1411 9.0684 0.0000 0.0000 0.0000
# 3 27.1728 9.0684 91.1293 0.0000 0.0000 0.0000
# 4 0.0000 0.0000 0.0000 42.1371 0.0000 0.0000
# 5 0.0000 0.0000 0.0000 0.0000 38.9239 0.0000
# 6 0.0000 0.0000 0.0000 0.0000 0.0000 23.9672
#
#
#
# Elastic Compliance Matrix: (Units=1/GPa)
#
#
# Indices 1 2 3 4 5 6 
#
# 1 0.022824 0.000453 -0.006851 0.000000 0.000000 0.000000
# 2 0.000453 0.017480 -0.001874 0.000000 0.000000 0.000000
# 3 -0.006851 -0.001874 0.013203 0.000000 0.000000 0.000000
# 4 0.000000 0.000000 0.000000 0.023732 0.000000 0.000000
# 5 0.000000 0.000000 0.000000 0.000000 0.025691 0.000000
# 6 0.000000 0.000000 0.000000 0.000000 0.000000 0.041724
#
#
# Mechanical properties :
#
#
# Convention : Reuss Voigt Hill
#
# Bulk Modulus (GPa) = 27.05535 30.75887 28.90711
# Shear Modulus (GPa) = 28.81548 31.89892 30.35720
#
# Velocity S-wave (km/s) = 3.53945 3.72401 3.63291
# Velocity P-wave (km/s) = 5.33537 5.64479 5.49226
#
# Compressibility (1/GPa) = 0.03696127
#
# Stress axis : x y z
#
# Youngs Moduli (GPa) = 43.81443 57.20929 75.74249
#
# Poissons Ratio (x) = -0.02590 0.51888
# Poissons Ratio (y) = -0.01983 0.14197
# Poissons Ratio (z) = 0.30015 0.10723
#
# Static dielectric constant tensor:
#      x y z
#    x 3.781630 0.000000 0.000000 
#    y 0.000000 4.156320 0.000000 
#    z 0.000000 0.000000 4.421350 
# 
# 
# High freq. dielectric constant tensor:
#      x y z
#    x 1.881690 0.000000 0.000000 
#    y 0.000000 1.911500 0.000000 
#    z 0.000000 0.000000 1.934020 
# 
# From -- ./inp_files/413.got.cif
#   From: 2010.03.12/outbox.cif.g09.slc.cpg/sg33_1_cif.got.tgz:413.got - 2010.04.14 01:49:19.
