data_PCOD8170043
_publ_section_title
;
Structure prediction by ZEFSAII (Michael W. Deem and Ramdas Pophale) SiO2 
 PCOD8170043
Probable space group: P M N 21
;
_chemical_formula_sum "Si O2"
_cell_formula_units_Z 32
_cell_length_a 9.070144
_cell_length_b 6.952118
_cell_length_c 28.242333
_cell_angle_alpha 90.000000
_cell_angle_beta 90.000000
_cell_angle_gamma 90.000000
_cell_volume 1780.868640
_symmetry_space_group_name_H-M "P M N 21"
_symmetry_group_IT_number 31
_symmetry_cell_setting 'orthorhombic'
loop_
_space_group_symop_operation_xyz
x,y,z
1/2-x,-y,1/2+z
-x,y,z
1/2+x,-y,1/2+z
loop_
_atom_site_type_symbol
_atom_site_label
_atom_site_fract_x
_atom_site_fract_y
_atom_site_fract_z
Si Si1 0.674245 0.758271 0.734560
Si Si2 0.670831 0.485324 0.055390
Si Si3 0.829305 0.488575 0.663560
Si Si4 0.828151 0.200957 0.990676
Si Si5 0.829305 0.488575 0.805560
Si Si6 0.331270 0.843191 0.234560
Si Si7 0.329169 0.485325 0.413730
Si Si8 0.171850 0.200958 0.478444
O O1 0.500000 0.744669 0.734560
O O2 0.735017 0.656704 0.687451
O O3 0.735017 0.656705 0.781669
O O4 0.721212 0.979508 0.734560
O O5 0.500000 0.428475 0.050931
O O6 0.716795 0.529967 0.109037
O O7 0.765643 0.306080 0.037105
O O8 0.706807 0.674515 0.025057
O O9 0.798139 0.283974 0.688050
O O10 0.000000 0.545270 0.669752
O O11 0.793194 0.325484 0.944063
O O12 0.000000 0.166686 0.998058
O O13 0.749999 0.000000 0.984560
O O14 0.798139 0.283975 0.781069
O O15 0.783204 0.470032 0.860083
O O16 0.000000 0.545269 0.799369
O O17 0.500000 0.916381 0.234560
O O18 0.500000 0.428476 0.418188
O O19 0.234358 0.306081 0.432015
O O20 0.000000 0.166689 0.471062
#
# Coordination Sequence:
#
# PCOD8170043 Si02
#       8
#     4   4   4   4   4   4   4   4
#     4  11  22  34  51  79 111 137 165 211 268 314
#     4   9  19  36  56  77 102 135 176 218 257 301
#     4   9  19  37  58  76  98 135 180 218 252 300
#     4  10  20  34  53  79 109 139 172 212 259 309
#     4   9  19  37  58  76  98 135 180 218 252 300
#     4   9  18  34  55  77 101 135 177 215 254 306
#     4   9  19  36  56  77 102 135 176 218 257 301
#     4  10  20  34  53  79 109 139 172 212 259 309
#
# _framework density 17.968757
#
# number of rings (size 3 to 8) (size 9 to 14) (size 15 to 20)
#    0.000    2.500    0.000    2.625    0.000    6.000 
#    0.000    5.000    0.000    0.000    0.000    0.000 
#    0.000    0.000    0.000    0.000    0.000    0.000 
#
# Total GULP energy -396903.992765 kJ/mol
# GULP energy per Si atom -12403.249774 kJ/mol
# Density = 1.792786 g / cm^3
# Si number density = 17.968757 Si / 1000 Ang^3
#
#
#
# Elastic Constant Matrix: (Units=GPa)
#
#
# Indices 1 2 3 4 5 6 
#
# 1 97.7970 71.8995 52.5952 0.0000 0.0000 0.0000
# 2 71.8995 130.1605 56.6227 0.0000 0.0000 0.0000
# 3 52.5952 56.6227 146.5482 0.0000 0.0000 0.0000
# 4 0.0000 0.0000 0.0000 13.5702 0.0000 0.0000
# 5 0.0000 0.0000 0.0000 0.0000 27.1439 0.0000
# 6 0.0000 0.0000 0.0000 0.0000 0.0000 31.6179
#
#
#
# Elastic Compliance Matrix: (Units=1/GPa)
#
#
# Indices 1 2 3 4 5 6 
#
# 1 0.018398 -0.008764 -0.003217 0.000000 0.000000 0.000000
# 2 -0.008764 0.013409 -0.002036 0.000000 0.000000 0.000000
# 3 -0.003217 -0.002036 0.008765 0.000000 0.000000 0.000000
# 4 0.000000 0.000000 0.000000 0.073691 0.000000 0.000000
# 5 0.000000 0.000000 0.000000 0.000000 0.036841 0.000000
# 6 0.000000 0.000000 0.000000 0.000000 0.000000 0.031628
#
#
# Mechanical properties :
#
#
# Convention : Reuss Voigt Hill
#
# Bulk Modulus (GPa) = 79.74707 81.86007 80.80357
# Shear Modulus (GPa) = 23.26181 27.35895 25.31038
#
# Velocity S-wave (km/s) = 3.60192 3.90626 3.75717
# Velocity P-wave (km/s) = 7.85975 8.12410 7.99302
#
# Compressibility (1/GPa) = 0.01253965
#
# Stress axis : x y z
#
# Youngs Moduli (GPa) = 54.35295 74.57455 114.09192
#
# Poissons Ratio (x) = 0.65354 0.36703
# Poissons Ratio (y) = 0.47633 0.23228
# Poissons Ratio (z) = 0.17485 0.15182
#
# Static dielectric constant tensor:
#      x y z
#    x 3.309500 0.000000 0.000000 
#    y 0.000000 3.243410 0.000000 
#    z 0.000000 0.000000 3.573790 
# 
# 
# High freq. dielectric constant tensor:
#      x y z
#    x 1.694590 0.000000 0.000000 
#    y 0.000000 1.695200 0.000000 
#    z 0.000000 0.000000 1.699890 
# 
# From -- ./inp_files/6610.got.cif
#   From: 2010.03.12/outbox.cif.g09.slc.cpg/sg31_4_cif.got.tgz:6610.got - 2010.04.14 01:42:59.
