data_PCOD8170635
_publ_section_title
;
Structure prediction by ZEFSAII (Michael W. Deem and Ramdas Pophale) SiO2 
 PCOD8170635
Probable space group: P B A 2
;
_chemical_formula_sum "Si O2"
_cell_formula_units_Z 32
_cell_length_a 9.721027
_cell_length_b 17.213868
_cell_length_c 12.223756
_cell_angle_alpha 90.000000
_cell_angle_beta 90.000000
_cell_angle_gamma 90.000000
_cell_volume 2045.480248
_symmetry_space_group_name_H-M "P B A 2"
_symmetry_group_IT_number 32
_symmetry_cell_setting 'orthorhombic'
loop_
_space_group_symop_operation_xyz
x,y,z
-x,-y,z
1/2-x,1/2+y,z
1/2+x,1/2-y,z
loop_
_atom_site_type_symbol
_atom_site_label
_atom_site_fract_x
_atom_site_fract_y
_atom_site_fract_z
Si Si1 0.019487 0.091066 0.169120
Si Si2 0.387039 0.309550 0.751217
Si Si3 0.810369 0.829998 0.336257
Si Si4 0.819142 0.924702 0.543708
Si Si5 0.519487 0.408934 0.918295
Si Si6 0.810368 0.829998 0.751159
Si Si7 0.144295 0.902683 0.543708
Si Si8 0.387038 0.309551 0.336198
O O1 0.891448 0.134066 0.229519
O O2 0.161856 0.115865 0.229520
O O3 0.025065 0.117537 0.043708
O O4 0.000000 0.000000 0.181786
O O5 0.391449 0.365935 0.857895
O O6 0.304796 0.232358 0.781345
O O7 0.544985 0.287799 0.718557
O O8 0.313172 0.353827 0.650867
O O9 0.757480 0.883020 0.436458
O O10 0.695206 0.767642 0.306071
O O11 0.955017 0.787799 0.368858
O O12 0.757478 0.883020 0.650958
O O13 0.982995 0.919652 0.543710
O O14 0.774970 0.015238 0.543708
O O15 0.500000 0.500000 0.905630
O O16 0.661856 0.384135 0.857895
O O17 0.186828 0.853829 0.436547
#
# Coordination Sequence:
#
# PCOD8170635 Si02
#       8
#     4   4   4   4   4   4   4   4
#     4   9  18  31  49  69  89 121 162 190 216 268
#     4   9  18  29  47  71  94 121 149 189 232 269
#     4   9  18  29  47  71  94 121 149 189 232 269
#     4   9  15  26  47  69  91 120 156 186 219 272
#     4   9  18  31  49  69  89 121 162 190 216 268
#     4   9  18  29  47  71  94 121 149 189 232 269
#     4   9  15  26  47  69  91 120 156 186 219 272
#     4   9  18  29  47  71  94 121 149 189 232 269
#
# _framework density 15.644247
#
# number of rings (size 3 to 8) (size 9 to 14) (size 15 to 20)
#    1.500    1.500    0.000    2.250    0.000    1.000 
#    0.000    0.000    0.000    7.500    0.000    3.500 
#    0.000    0.000    0.000    0.000    0.000    0.000 
#
# Total GULP energy -396473.748890 kJ/mol
# GULP energy per Si atom -12389.804653 kJ/mol
# Density = 1.560864 g / cm^3
# Si number density = 15.644247 Si / 1000 Ang^3
#
#
#
# Elastic Constant Matrix: (Units=GPa)
#
#
# Indices 1 2 3 4 5 6 
#
# 1 13.9062 -5.0122 -4.0006 0.0000 0.0000 0.0000
# 2 -5.0122 26.5786 17.2545 0.0000 0.0000 0.0000
# 3 -4.0006 17.2545 124.4251 0.0000 0.0000 0.0000
# 4 0.0000 0.0000 0.0000 24.5547 0.0000 0.0000
# 5 0.0000 0.0000 0.0000 0.0000 2.4105 0.0000
# 6 0.0000 0.0000 0.0000 0.0000 0.0000 30.0654
#
#
#
# Elastic Compliance Matrix: (Units=1/GPa)
#
#
# Indices 1 2 3 4 5 6 
#
# 1 0.077184 0.014225 0.000509 0.000000 0.000000 0.000000
# 2 0.014225 0.043968 -0.005640 0.000000 0.000000 0.000000
# 3 0.000509 -0.005640 0.008835 0.000000 0.000000 0.000000
# 4 0.000000 0.000000 0.000000 0.040725 0.000000 0.000000
# 5 0.000000 0.000000 0.000000 0.000000 0.414856 0.000000
# 6 0.000000 0.000000 0.000000 0.000000 0.000000 0.033261
#
#
# Mechanical properties :
#
#
# Convention : Reuss Voigt Hill
#
# Bulk Modulus (GPa) = 6.74878 20.15484 13.45181
# Shear Modulus (GPa) = 7.69191 21.85066 14.77129
#
# Velocity S-wave (km/s) = 2.21978 3.74133 3.07612
# Velocity P-wave (km/s) = 3.30048 5.61913 4.60802
#
# Compressibility (1/GPa) = 0.14817494
#
# Stress axis : x y z
#
# Youngs Moduli (GPa) = 12.95613 22.74376 113.18065
#
# Poissons Ratio (x) = -0.32353 -0.05761
# Poissons Ratio (y) = -0.18430 0.63832
# Poissons Ratio (z) = -0.00659 0.12827
#
# Static dielectric constant tensor:
#      x y z
#    x 2.468730 0.000000 0.000000 
#    y 0.000000 2.893810 0.000000 
#    z 0.000000 0.000000 3.066280 
# 
# 
# High freq. dielectric constant tensor:
#      x y z
#    x 1.543140 0.000000 0.000000 
#    y 0.000000 1.601840 0.000000 
#    z 0.000000 0.000000 1.606660 
# 
# From -- ./inp_files/3892.got.cif
#   From: 2010.03.12/outbox.cif.g09.slc.cpg/sg32_2_cif.got.tgz:3892.got - 2010.04.14 01:46:39.
