data_PCOD8170415
_publ_section_title
;
Structure prediction by ZEFSAII (Michael W. Deem and Ramdas Pophale) SiO2 
 PCOD8170415
Probable space group: P B A 2
;
_chemical_formula_sum "Si O2"
_cell_formula_units_Z 22
_cell_length_a 7.870966
_cell_length_b 17.350427
_cell_length_c 8.040629
_cell_angle_alpha 90.000000
_cell_angle_beta 90.000000
_cell_angle_gamma 90.000000
_cell_volume 1098.065452
_symmetry_space_group_name_H-M "P B A 2"
_symmetry_group_IT_number 32
_symmetry_cell_setting 'orthorhombic'
loop_
_space_group_symop_operation_xyz
x,y,z
-x,-y,z
1/2-x,1/2+y,z
1/2+x,1/2-y,z
loop_
_atom_site_type_symbol
_atom_site_label
_atom_site_fract_x
_atom_site_fract_y
_atom_site_fract_z
Si Si1 0.337448 0.108710 0.632960
Si Si2 0.121545 0.750176 0.866097
Si Si3 0.500000 0.000000 0.878358
Si Si4 0.984262 0.823612 0.569692
Si Si5 0.388709 0.849839 0.053127
Si Si6 0.356372 0.833113 0.434746
O O1 0.320207 0.191179 0.723417
O O2 0.356685 0.039106 0.762426
O O3 0.152104 0.105734 0.542018
O O4 0.499195 0.890858 0.510190
O O5 0.981436 0.800924 0.766800
O O6 0.259256 0.810403 0.926855
O O7 0.057285 0.702142 0.027009
O O8 0.589160 0.062529 0.995008
O O9 0.920186 0.754058 0.452711
O O10 0.174976 0.849362 0.520665
O O11 0.330130 0.851259 0.241518
#
# Coordination Sequence:
#
# PCOD8170415 Si02
#       6
#     4   4   2   4   4   4
#     4  10  21  40  63  88 121 169 214 250 313 389
#     4  10  18  36  62  87 119 164 216 251 297 381
#     4  10  24  42  62  86 128 176 206 260 336 382
#     4  11  18  36  62  94 119 162 214 263 296 374
#     4  11  22  38  61  95 130 161 207 272 322 369
#     4  11  21  34  62  96 127 153 211 268 316 363
#
# _framework density 20.035235
#
# number of rings (size 3 to 8) (size 9 to 14) (size 15 to 20)
#    0.000    1.455    5.455    3.273    0.000    0.727 
#    0.000    3.636    0.000    2.182    0.000    0.000 
#    0.000    0.000    0.000    0.000    0.000    0.000 
#
# Total GULP energy -272598.364049 kJ/mol
# GULP energy per Si atom -12390.834730 kJ/mol
# Density = 1.998963 g / cm^3
# Si number density = 20.035235 Si / 1000 Ang^3
#
#
#
# Elastic Constant Matrix: (Units=GPa)
#
#
# Indices 1 2 3 4 5 6 
#
# 1 118.4727 32.9169 30.8345 0.0000 0.0000 0.0000
# 2 32.9169 83.0501 36.1124 0.0000 0.0000 0.0000
# 3 30.8345 36.1124 108.6494 0.0000 0.0000 0.0000
# 4 0.0000 0.0000 0.0000 21.2052 0.0000 0.0000
# 5 0.0000 0.0000 0.0000 0.0000 21.2389 0.0000
# 6 0.0000 0.0000 0.0000 0.0000 0.0000 25.4779
#
#
#
# Elastic Compliance Matrix: (Units=1/GPa)
#
#
# Indices 1 2 3 4 5 6 
#
# 1 0.009757 -0.003113 -0.001734 0.000000 0.000000 0.000000
# 2 -0.003113 0.015068 -0.004125 0.000000 0.000000 0.000000
# 3 -0.001734 -0.004125 0.011067 0.000000 0.000000 0.000000
# 4 0.000000 0.000000 0.000000 0.047158 0.000000 0.000000
# 5 0.000000 0.000000 0.000000 0.000000 0.047084 0.000000
# 6 0.000000 0.000000 0.000000 0.000000 0.000000 0.039250
#
#
# Mechanical properties :
#
#
# Convention : Reuss Voigt Hill
#
# Bulk Modulus (GPa) = 55.71643 56.65552 56.18598
# Shear Modulus (GPa) = 25.86502 27.60496 26.73499
#
# Velocity S-wave (km/s) = 3.59691 3.71593 3.65691
# Velocity P-wave (km/s) = 6.71714 6.83741 6.77754
#
# Compressibility (1/GPa) = 0.01794803
#
# Stress axis : x y z
#
# Youngs Moduli (GPa) = 102.48942 66.36403 90.35769
#
# Poissons Ratio (x) = 0.20660 0.15671
# Poissons Ratio (y) = 0.31906 0.37271
# Poissons Ratio (z) = 0.17775 0.27374
#
# Static dielectric constant tensor:
#      x y z
#    x 3.863110 0.000000 0.000000 
#    y 0.000000 3.430400 0.000000 
#    z 0.000000 0.000000 3.530060 
# 
# 
# High freq. dielectric constant tensor:
#      x y z
#    x 1.793820 0.000000 0.000000 
#    y 0.000000 1.752930 0.000000 
#    z 0.000000 0.000000 1.771540 
# 
# From -- ./inp_files/2309.got.cif
#   From: 2010.03.12/outbox.cif.g09.slc.cpg/sg32_2_cif.got.tgz:2309.got - 2010.04.14 01:46:39.
