data_PCOD8170406
_publ_section_title
;
Structure prediction by ZEFSAII (Michael W. Deem and Ramdas Pophale) SiO2 
 PCOD8170406
Probable space group: P B A 2
;
_chemical_formula_sum "Si O2"
_cell_formula_units_Z 30
_cell_length_a 9.548398
_cell_length_b 20.161267
_cell_length_c 8.465270
_cell_angle_alpha 90.000000
_cell_angle_beta 90.000000
_cell_angle_gamma 90.000000
_cell_volume 1629.630517
_symmetry_space_group_name_H-M "P B A 2"
_symmetry_group_IT_number 32
_symmetry_cell_setting 'orthorhombic'
loop_
_space_group_symop_operation_xyz
x,y,z
-x,-y,z
1/2-x,1/2+y,z
1/2+x,1/2-y,z
loop_
_atom_site_type_symbol
_atom_site_label
_atom_site_fract_x
_atom_site_fract_y
_atom_site_fract_z
Si Si1 0.568596 0.813770 0.708460
Si Si2 0.838000 0.850497 0.883165
Si Si3 0.000000 0.500000 0.753673
Si Si4 0.883329 0.168594 0.726843
Si Si5 0.348859 0.795937 0.967884
Si Si6 0.111195 0.412628 0.183856
Si Si7 0.840286 0.452869 0.034360
Si Si8 0.853392 0.598369 0.544997
O O1 0.724509 0.839900 0.743453
O O2 0.570377 0.737927 0.647025
O O3 0.483631 0.820039 0.871564
O O4 0.486889 0.853413 0.571490
O O5 0.855337 0.783690 0.989608
O O6 0.980190 0.870381 0.791242
O O7 0.798854 0.908930 0.008200
O O8 0.880342 0.532686 0.646700
O O9 0.922063 0.447163 0.866128
O O10 0.792065 0.185374 0.879000
O O11 0.796387 0.127315 0.598333
O O12 0.347913 0.838111 0.129747
O O13 0.191186 0.470118 0.080368
O O14 0.158477 0.420732 0.363098
O O15 0.943096 0.422885 0.168418
#
# Coordination Sequence:
#
# PCOD8170406 Si02
#       8
#     4   4   2   4   4   4   4   4
#     4   9  16  34  58  81 106 143 193 236 267 334
#     4  10  17  32  61  84 107 134 197 241 276 318
#     4  10  18  34  62  78 100 146 200 240 256 320
#     4   9  19  32  57  83 108 145 184 237 284 328
#     4   9  17  34  55  81 110 149 188 227 275 338
#     4  10  20  34  56  83 115 149 186 233 287 346
#     4  10  18  34  59  88 101 140 207 240 266 318
#     4  11  20  36  56  85 115 149 188 230 295 347
#
# _framework density 18.409082000000001
#
# number of rings (size 3 to 8) (size 9 to 14) (size 15 to 20)
#    0.000    2.400    2.667    4.000    0.000    0.000 
#    2.400    2.667    2.933    1.600    0.000    0.000 
#    0.000    0.000    0.000    0.000    0.000    0.000 
#
# Total GULP energy -371825.668611 kJ/mol
# GULP energy per Si atom -12394.188954 kJ/mol
# Density = 1.836718 g / cm^3
# Si number density = 18.409082 Si / 1000 Ang^3
#
#
#
# Elastic Constant Matrix: (Units=GPa)
#
#
# Indices 1 2 3 4 5 6 
#
# 1 106.5927 35.6385 31.9106 0.0000 0.0000 0.0000
# 2 35.6385 95.7779 39.5692 0.0000 0.0000 0.0000
# 3 31.9106 39.5692 91.9478 0.0000 0.0000 0.0000
# 4 0.0000 0.0000 0.0000 20.1036 0.0000 0.0000
# 5 0.0000 0.0000 0.0000 0.0000 18.6339 0.0000
# 6 0.0000 0.0000 0.0000 0.0000 0.0000 34.3770
#
#
#
# Elastic Compliance Matrix: (Units=1/GPa)
#
#
# Indices 1 2 3 4 5 6 
#
# 1 0.011183 -0.003111 -0.002542 0.000000 0.000000 0.000000
# 2 -0.003111 0.013564 -0.004758 0.000000 0.000000 0.000000
# 3 -0.002542 -0.004758 0.013805 0.000000 0.000000 0.000000
# 4 0.000000 0.000000 0.000000 0.049742 0.000000 0.000000
# 5 0.000000 0.000000 0.000000 0.000000 0.053666 0.000000
# 6 0.000000 0.000000 0.000000 0.000000 0.000000 0.029089
#
#
# Mechanical properties :
#
#
# Convention : Reuss Voigt Hill
#
# Bulk Modulus (GPa) = 56.39894 56.50612 56.45253
# Shear Modulus (GPa) = 25.28059 27.10292 26.19175
#
# Velocity S-wave (km/s) = 3.70978 3.84116 3.77604
# Velocity P-wave (km/s) = 7.00378 7.10169 7.05291
#
# Compressibility (1/GPa) = 0.01773083
#
# Stress axis : x y z
#
# Youngs Moduli (GPa) = 89.42443 73.72562 72.43535
#
# Poissons Ratio (x) = 0.22934 0.18415
# Poissons Ratio (y) = 0.27817 0.34461
# Poissons Ratio (z) = 0.22734 0.35075
#
# Static dielectric constant tensor:
#      x y z
#    x 3.428850 0.000000 0.000000 
#    y 0.000000 3.582210 0.000000 
#    z 0.000000 0.000000 2.962620 
# 
# 
# High freq. dielectric constant tensor:
#      x y z
#    x 1.700650 0.000000 0.000000 
#    y 0.000000 1.724230 0.000000 
#    z 0.000000 0.000000 1.671550 
# 
# From -- ./inp_files/2572.got.cif
#   From: 2010.03.12/outbox.cif.g09.slc.cpg/sg32_2_cif.got.tgz:2572.got - 2010.04.14 01:46:39.
