data_PCOD8170993
_publ_section_title
;
Structure prediction by ZEFSAII (Michael W. Deem and Ramdas Pophale) SiO2 
 PCOD8170993
Probable space group: P N A 21
;
_chemical_formula_sum "Si O2"
_cell_formula_units_Z 28
_cell_length_a 22.532937
_cell_length_b 6.708528
_cell_length_c 8.004607
_cell_angle_alpha 90.000000
_cell_angle_beta 90.000000
_cell_angle_gamma 90.000000
_cell_volume 1209.999117
_symmetry_space_group_name_H-M "P N A 21"
_symmetry_group_IT_number 33
_symmetry_cell_setting 'orthorhombic'
loop_
_space_group_symop_operation_xyz
x,y,z
-x,-y,1/2+z
1/2-x,1/2+y,1/2+z
1/2+x,1/2-y,z
loop_
_atom_site_type_symbol
_atom_site_label
_atom_site_fract_x
_atom_site_fract_y
_atom_site_fract_z
Si Si1 0.282724 0.450437 0.198720
Si Si2 0.489876 0.057135 0.066364
Si Si3 0.310281 0.759559 0.929782
Si Si4 0.640835 0.932987 0.675274
Si Si5 0.511549 0.311932 0.745756
Si Si6 0.922711 0.829822 0.733698
Si Si7 0.369547 0.702039 0.381956
O O1 0.222233 0.345975 0.263826
O O2 0.331571 0.280665 0.198785
O O3 0.306017 0.608932 0.334925
O O4 0.276891 0.569101 0.019676
O O5 0.421937 0.113320 0.091232
O O6 0.531834 0.146714 0.214419
O O7 0.497437 0.814894 0.074499
O O8 0.511698 0.149775 0.894800
O O9 0.377811 0.697212 0.886826
O O10 0.315150 0.939834 0.058565
O O11 0.632854 0.058188 0.848091
O O12 0.460874 0.472460 0.765786
O O13 0.578831 0.395781 0.760829
O O14 0.881707 0.854059 0.571651
#
# Coordination Sequence:
#
# PCOD8170993 Si02
#       7
#     4   4   4   4   4   4   4
#     4  11  25  46  67  91 132 182 222 289 335 401
#     4  10  21  39  64  96 128 169 210 272 340 411
#     4  11  27  43  68  98 132 176 237 279 346 417
#     4  10  22  43  66  93 135 172 224 274 345 403
#     4  10  21  38  63  95 133 165 213 267 336 405
#     4  11  23  40  66 100 132 167 225 278 344 412
#     4   9  23  41  64  97 130 177 223 273 334 417
#
# _framework density 23.140512999999999
#
# number of rings (size 3 to 8) (size 9 to 14) (size 15 to 20)
#    0.000    1.714    0.000    2.571    4.000   12.571 
#    2.571    0.000    0.000    0.000    0.000    0.000 
#    0.000    0.000    0.000    0.000    0.000    0.000 
#
# Total GULP energy -346989.596006 kJ/mol
# GULP energy per Si atom -12392.485572 kJ/mol
# Density = 2.308784 g / cm^3
# Si number density = 23.140513 Si / 1000 Ang^3
#
#
#
# Elastic Constant Matrix: (Units=GPa)
#
#
# Indices 1 2 3 4 5 6 
#
# 1 93.3831 27.9288 3.7987 0.0000 0.0000 0.0000
# 2 27.9288 80.4399 15.0475 0.0000 0.0000 0.0000
# 3 3.7987 15.0475 54.1654 0.0000 0.0000 0.0000
# 4 0.0000 0.0000 0.0000 33.3532 0.0000 0.0000
# 5 0.0000 0.0000 0.0000 0.0000 34.6046 0.0000
# 6 0.0000 0.0000 0.0000 0.0000 0.0000 41.6096
#
#
#
# Elastic Compliance Matrix: (Units=1/GPa)
#
#
# Indices 1 2 3 4 5 6 
#
# 1 0.011955 -0.004213 0.000332 0.000000 0.000000 0.000000
# 2 -0.004213 0.014598 -0.003760 0.000000 0.000000 0.000000
# 3 0.000332 -0.003760 0.019483 0.000000 0.000000 0.000000
# 4 0.000000 0.000000 0.000000 0.029982 0.000000 0.000000
# 5 0.000000 0.000000 0.000000 0.000000 0.028898 0.000000
# 6 0.000000 0.000000 0.000000 0.000000 0.000000 0.024033
#
#
# Mechanical properties :
#
#
# Convention : Reuss Voigt Hill
#
# Bulk Modulus (GPa) = 32.51576 35.72648 34.12112
# Shear Modulus (GPa) = 32.36622 33.99437 33.18029
#
# Velocity S-wave (km/s) = 3.74395 3.83697 3.79074
# Velocity P-wave (km/s) = 5.72464 5.92471 5.82553
#
# Compressibility (1/GPa) = 0.03075432
#
# Stress axis : x y z
#
# Youngs Moduli (GPa) = 83.64665 68.50391 51.32621
#
# Poissons Ratio (x) = 0.28860 -0.01704
# Poissons Ratio (y) = 0.35239 0.19298
# Poissons Ratio (z) = -0.02777 0.25757
#
# Static dielectric constant tensor:
#      x y z
#    x 4.262740 0.000000 0.000000 
#    y 0.000000 4.178440 0.000000 
#    z 0.000000 0.000000 4.070560 
# 
# 
# High freq. dielectric constant tensor:
#      x y z
#    x 1.919310 0.000000 0.000000 
#    y 0.000000 1.913790 0.000000 
#    z 0.000000 0.000000 1.908140 
# 
# From -- ./inp_files/5132.got.cif
#   From: 2010.03.12/outbox.cif.g09.slc.cpg/sg33_3_cif.got.tgz:5132.got - 2010.04.14 01:49:19.
