data_PCOD8170577
_publ_section_title
;
Structure prediction by ZEFSAII (Michael W. Deem and Ramdas Pophale) SiO2 
 PCOD8170577
Probable space group: P B A 2
;
_chemical_formula_sum "Si O2"
_cell_formula_units_Z 12
_cell_length_a 10.025468
_cell_length_b 10.050765
_cell_length_c 5.232616
_cell_angle_alpha 90.000000
_cell_angle_beta 90.000000
_cell_angle_gamma 90.000000
_cell_volume 527.257345
_symmetry_space_group_name_H-M "P B A 2"
_symmetry_group_IT_number 32
_symmetry_cell_setting 'orthorhombic'
loop_
_space_group_symop_operation_xyz
x,y,z
-x,-y,z
1/2-x,1/2+y,z
1/2+x,1/2-y,z
loop_
_atom_site_type_symbol
_atom_site_label
_atom_site_fract_x
_atom_site_fract_y
_atom_site_fract_z
Si Si1 0.817155 0.234145 0.299930
Si Si2 0.846469 0.514895 0.496522
Si Si3 0.385049 0.396702 0.791614
O O1 0.792465 0.390908 0.328848
O O2 0.916166 0.185340 0.530337
O O3 0.678912 0.149225 0.328700
O O4 0.880539 0.206936 0.024240
O O5 0.756359 0.524950 0.754408
O O6 0.000000 0.500000 0.571930
O O7 0.500000 0.500000 0.852975
#
# Coordination Sequence:
#
# PCOD8170577 Si02
#       3
#     4   4   4
#     4  10  25  42  70 101 142 180 237 287 359 424
#     4  10  26  46  70 108 138 187 237 298 356 426
#     4  10  24  44  72  99 142 187 233 287 362 417
#
# _framework density 22.759284999999998
#
# number of rings (size 3 to 8) (size 9 to 14) (size 15 to 20)
#    2.000    0.000    0.000    1.000    9.333    1.333 
#    0.000    0.000    0.000    0.000    0.000    0.000 
#    0.000    0.000    0.000    0.000    0.000    0.000 
#
# Total GULP energy -148673.624410 kJ/mol
# GULP energy per Si atom -12389.468701 kJ/mol
# Density = 2.270748 g / cm^3
# Si number density = 22.759285 Si / 1000 Ang^3
#
#
#
# Elastic Constant Matrix: (Units=GPa)
#
#
# Indices 1 2 3 4 5 6 
#
# 1 110.8960 46.6728 22.0757 0.0000 0.0000 0.0000
# 2 46.6728 140.5118 33.6588 0.0000 0.0000 0.0000
# 3 22.0757 33.6588 154.2052 0.0000 0.0000 0.0000
# 4 0.0000 0.0000 0.0000 21.3995 0.0000 0.0000
# 5 0.0000 0.0000 0.0000 0.0000 14.8013 0.0000
# 6 0.0000 0.0000 0.0000 0.0000 0.0000 25.0832
#
#
#
# Elastic Compliance Matrix: (Units=1/GPa)
#
#
# Indices 1 2 3 4 5 6 
#
# 1 0.010573 -0.003323 -0.000788 0.000000 0.000000 0.000000
# 2 -0.003323 0.008554 -0.001391 0.000000 0.000000 0.000000
# 3 -0.000788 -0.001391 0.006901 0.000000 0.000000 0.000000
# 4 0.000000 0.000000 0.000000 0.046730 0.000000 0.000000
# 5 0.000000 0.000000 0.000000 0.000000 0.067561 0.000000
# 6 0.000000 0.000000 0.000000 0.000000 0.000000 0.039867
#
#
# Mechanical properties :
#
#
# Convention : Reuss Voigt Hill
#
# Bulk Modulus (GPa) = 66.56532 67.82531 67.19532
# Shear Modulus (GPa) = 25.48416 32.47052 28.97734
#
# Velocity S-wave (km/s) = 3.34986 3.78126 3.57208
# Velocity P-wave (km/s) = 6.65381 6.99498 6.82652
#
# Compressibility (1/GPa) = 0.01502284
#
# Stress axis : x y z
#
# Youngs Moduli (GPa) = 94.58078 116.90508 144.89795
#
# Poissons Ratio (x) = 0.38849 0.11422
# Poissons Ratio (y) = 0.31430 0.20161
# Poissons Ratio (z) = 0.07455 0.16266
#
# Static dielectric constant tensor:
#      x y z
#    x 3.691460 0.000000 0.000000 
#    y 0.000000 4.166670 0.000000 
#    z 0.000000 0.000000 3.833910 
# 
# 
# High freq. dielectric constant tensor:
#      x y z
#    x 1.869430 0.000000 0.000000 
#    y 0.000000 1.905920 0.000000 
#    z 0.000000 0.000000 1.889090 
# 
# From -- ./inp_files/41.got.cif
#   From: 2010.03.12/outbox.cif.g09.slc.cpg/sg32_1_cif.got.tgz:41.got - 2010.04.14 01:46:39.
