data_PCOD8170083
_publ_section_title
;
Structure prediction by ZEFSAII (Michael W. Deem and Ramdas Pophale) SiO2 
 PCOD8170083
Probable space group: P M N 21
;
_chemical_formula_sum "Si O2"
_cell_formula_units_Z 32
_cell_length_a 14.858999
_cell_length_b 11.833922
_cell_length_c 9.153332
_cell_angle_alpha 90.000000
_cell_angle_beta 90.000000
_cell_angle_gamma 90.000000
_cell_volume 1609.524051
_symmetry_space_group_name_H-M "P M N 21"
_symmetry_group_IT_number 31
_symmetry_cell_setting 'orthorhombic'
loop_
_space_group_symop_operation_xyz
x,y,z
1/2-x,-y,1/2+z
-x,y,z
1/2+x,-y,1/2+z
loop_
_atom_site_type_symbol
_atom_site_label
_atom_site_fract_x
_atom_site_fract_y
_atom_site_fract_z
Si Si1 0.219066 0.125079 0.033160
Si Si2 0.598080 0.730854 0.722494
Si Si3 0.342132 0.108847 0.454435
Si Si4 0.280389 0.694251 0.296988
Si Si5 0.099693 0.957734 0.634205
Si Si6 0.345911 0.802386 0.019177
Si Si7 0.397950 0.544015 0.499844
Si Si8 0.100544 0.686834 0.140924
O O1 0.179359 0.192404 0.168472
O O2 0.326805 0.112442 0.044141
O O3 0.200133 0.189510 0.882553
O O4 0.168678 0.006214 0.044994
O O5 0.500000 0.773250 0.665545
O O6 0.614303 0.605393 0.657495
O O7 0.594218 0.737813 0.898557
O O8 0.388781 0.073881 0.303826
O O9 0.243431 0.160402 0.432306
O O10 0.399580 0.195434 0.551933
O O11 0.325595 0.707018 0.139271
O O12 0.325557 0.589576 0.381937
O O13 0.172741 0.680031 0.273193
O O14 0.000000 0.918644 0.585959
O O15 0.107337 0.091182 0.598620
O O16 0.500000 0.562627 0.440399
O O17 0.377951 0.412326 0.524489
O O18 0.000000 0.670605 0.206876
#
# Coordination Sequence:
#
# PCOD8170083 Si02
#       8
#     4   4   4   4   4   4   4   4
#     4  10  21  39  55  86 120 150 196 239 292 366
#     4  10  20  36  60  84 114 153 193 251 303 345
#     4  10  20  36  57  79 121 157 189 239 300 357
#     4  10  21  39  64  85 116 158 195 248 304 353
#     4  11  21  33  55  84 120 156 190 241 298 359
#     4  10  20  35  55  89 115 149 198 249 293 360
#     4   9  21  41  62  87 119 156 202 252 303 362
#     4  10  22  39  62  90 121 159 205 247 303 372
#
# _framework density 19.881653
#
# number of rings (size 3 to 8) (size 9 to 14) (size 15 to 20)
#    0.000    2.000    2.500    0.750    0.000    4.500 
#    0.000    0.000    0.000    0.750    0.000    0.000 
#    0.000    0.000    0.000    0.000    0.000    0.000 
#
# Total GULP energy -396566.664779 kJ/mol
# GULP energy per Si atom -12392.708274 kJ/mol
# Density = 1.983640 g / cm^3
# Si number density = 19.881653 Si / 1000 Ang^3
#
#
#
# Elastic Constant Matrix: (Units=GPa)
#
#
# Indices 1 2 3 4 5 6 
#
# 1 106.7961 48.0623 40.7247 0.0000 0.0000 0.0000
# 2 48.0623 98.2117 36.6980 0.0000 0.0000 0.0000
# 3 40.7247 36.6980 96.4222 0.0000 0.0000 0.0000
# 4 0.0000 0.0000 0.0000 21.0394 0.0000 0.0000
# 5 0.0000 0.0000 0.0000 0.0000 30.0118 0.0000
# 6 0.0000 0.0000 0.0000 0.0000 0.0000 25.3389
#
#
#
# Elastic Compliance Matrix: (Units=1/GPa)
#
#
# Indices 1 2 3 4 5 6 
#
# 1 0.012985 -0.005019 -0.003574 0.000000 0.000000 0.000000
# 2 -0.005019 0.013810 -0.003136 0.000000 0.000000 0.000000
# 3 -0.003574 -0.003136 0.013074 0.000000 0.000000 0.000000
# 4 0.000000 0.000000 0.000000 0.047530 0.000000 0.000000
# 5 0.000000 0.000000 0.000000 0.000000 0.033320 0.000000
# 6 0.000000 0.000000 0.000000 0.000000 0.000000 0.039465
#
#
# Mechanical properties :
#
#
# Convention : Reuss Voigt Hill
#
# Bulk Modulus (GPa) = 60.93593 61.37779 61.15686
# Shear Modulus (GPa) = 26.43900 27.00768 26.72334
#
# Velocity S-wave (km/s) = 3.65062 3.68968 3.67020
# Velocity P-wave (km/s) = 6.96314 7.00644 6.98482
#
# Compressibility (1/GPa) = 0.01641068
#
# Stress axis : x y z
#
# Youngs Moduli (GPa) = 77.00941 72.41001 76.48590
#
# Poissons Ratio (x) = 0.36344 0.27338
# Poissons Ratio (y) = 0.38652 0.23988
# Poissons Ratio (z) = 0.27525 0.22710
#
# Static dielectric constant tensor:
#      x y z
#    x 3.726040 0.000000 0.000000 
#    y 0.000000 3.518720 0.000000 
#    z 0.000000 0.000000 3.452720 
# 
# 
# High freq. dielectric constant tensor:
#      x y z
#    x 1.782690 0.000000 0.000000 
#    y 0.000000 1.764000 0.000000 
#    z 0.000000 0.000000 1.761610 
# 
# From -- ./inp_files/2564.got.cif
#   From: 2010.03.12/outbox.cif.g09.slc.cpg/sg31_2_cif.got.tgz:2564.got - 2010.04.14 01:42:59.
