data_PCOD8170458
_publ_section_title
;
Structure prediction by ZEFSAII (Michael W. Deem and Ramdas Pophale) SiO2 
 PCOD8170458
Probable space group: P B A 2
;
_chemical_formula_sum "Si O2"
_cell_formula_units_Z 26
_cell_length_a 9.438309
_cell_length_b 13.883862
_cell_length_c 9.085139
_cell_angle_alpha 90.000000
_cell_angle_beta 90.000000
_cell_angle_gamma 90.000000
_cell_volume 1190.518247
_symmetry_space_group_name_H-M "P B A 2"
_symmetry_group_IT_number 32
_symmetry_cell_setting 'orthorhombic'
loop_
_space_group_symop_operation_xyz
x,y,z
-x,-y,z
1/2-x,1/2+y,z
1/2+x,1/2-y,z
loop_
_atom_site_type_symbol
_atom_site_label
_atom_site_fract_x
_atom_site_fract_y
_atom_site_fract_z
Si Si1 0.154556 0.787875 0.292630
Si Si2 0.135296 0.123876 0.288071
Si Si3 0.006771 0.351137 0.910576
Si Si4 0.780615 0.536340 0.419836
Si Si5 0.000000 0.000000 0.036132
Si Si6 0.675189 0.666069 0.963075
Si Si7 0.500000 0.000000 0.668158
Si Si8 0.000000 0.500000 0.166871
O O1 0.212488 0.678966 0.293903
O O2 0.226131 0.854104 0.418058
O O3 0.984698 0.794671 0.320824
O O4 0.195999 0.834055 0.137748
O O5 0.148633 0.039567 0.411380
O O6 0.096973 0.073111 0.132965
O O7 0.172612 0.328876 0.886857
O O8 0.954108 0.411357 0.770527
O O9 0.920997 0.252736 0.907026
O O10 0.977387 0.406498 0.063423
O O11 0.865853 0.524442 0.568786
O O12 0.864737 0.512839 0.269850
O O13 0.099859 0.936475 0.928908
#
# Coordination Sequence:
#
# PCOD8170458 Si02
#       8
#     4   4   4   4   2   4   2   2
#     4  11  22  36  67 110 127 173 220 294 348 408
#     4  11  21  38  61 101 143 162 220 277 358 407
#     4  11  23  44  64  98 132 179 230 277 343 412
#     4  11  21  43  65  99 135 178 224 286 343 411
#     4  10  20  36  66 110 136 168 216 300 348 410
#     4  11  21  38  69  96 136 169 228 281 346 406
#     4  10  28  44  66  92 142 188 230 282 344 414
#     4  10  20  36  70  96 126 170 218 286 338 398
#
# _framework density 21.839229
#
# number of rings (size 3 to 8) (size 9 to 14) (size 15 to 20)
#    0.000    1.231    4.615    2.769    4.308    3.692 
#    2.769    0.000    6.769    0.000    0.000    0.000 
#    0.000    0.000    0.000    0.000    0.000    0.000 
#
# Total GULP energy -322315.217356 kJ/mol
# GULP energy per Si atom -12396.739129 kJ/mol
# Density = 2.178952 g / cm^3
# Si number density = 21.839229 Si / 1000 Ang^3
#
#
#
# Elastic Constant Matrix: (Units=GPa)
#
#
# Indices 1 2 3 4 5 6 
#
# 1 68.6950 37.7419 22.6926 0.0000 0.0000 0.0000
# 2 37.7419 131.4628 26.5773 0.0000 0.0000 0.0000
# 3 22.6926 26.5773 86.4181 0.0000 0.0000 0.0000
# 4 0.0000 0.0000 0.0000 15.7721 0.0000 0.0000
# 5 0.0000 0.0000 0.0000 0.0000 19.8870 0.0000
# 6 0.0000 0.0000 0.0000 0.0000 0.0000 51.7743
#
#
#
# Elastic Compliance Matrix: (Units=1/GPa)
#
#
# Indices 1 2 3 4 5 6 
#
# 1 0.018162 -0.004532 -0.003375 0.000000 0.000000 0.000000
# 2 -0.004532 0.009242 -0.001652 0.000000 0.000000 0.000000
# 3 -0.003375 -0.001652 0.012966 0.000000 0.000000 0.000000
# 4 0.000000 0.000000 0.000000 0.063403 0.000000 0.000000
# 5 0.000000 0.000000 0.000000 0.000000 0.050284 0.000000
# 6 0.000000 0.000000 0.000000 0.000000 0.000000 0.019315
#
#
# Mechanical properties :
#
#
# Convention : Reuss Voigt Hill
#
# Bulk Modulus (GPa) = 47.05667 51.17772 49.11720
# Shear Modulus (GPa) = 25.05336 30.79097 27.92217
#
# Velocity S-wave (km/s) = 3.39067 3.75893 3.57954
# Velocity P-wave (km/s) = 6.07639 6.50570 6.29470
#
# Compressibility (1/GPa) = 0.02125097
#
# Stress axis : x y z
#
# Youngs Moduli (GPa) = 55.06016 108.20439 77.12395
#
# Poissons Ratio (x) = 0.49036 0.26033
# Poissons Ratio (y) = 0.24952 0.12743
# Poissons Ratio (z) = 0.18585 0.17878
#
# Static dielectric constant tensor:
#      x y z
#    x 4.176430 0.000000 0.000000 
#    y 0.000000 4.136810 0.000000 
#    z 0.000000 0.000000 3.461810 
# 
# 
# High freq. dielectric constant tensor:
#      x y z
#    x 1.870240 0.000000 0.000000 
#    y 0.000000 1.876950 0.000000 
#    z 0.000000 0.000000 1.801080 
# 
# From -- ./inp_files/2770.got.cif
#   From: 2010.03.12/outbox.cif.g09.slc.cpg/sg32_2_cif.got.tgz:2770.got - 2010.04.14 01:46:39.
