data_PCOD8170695
_publ_section_title
;
Structure prediction by ZEFSAII (Michael W. Deem and Ramdas Pophale) SiO2 
 PCOD8170695
Probable space group: P N A 21
;
_chemical_formula_sum "Si O2"
_cell_formula_units_Z 32
_cell_length_a 18.566918
_cell_length_b 12.772286
_cell_length_c 7.361701
_cell_angle_alpha 90.000000
_cell_angle_beta 90.000000
_cell_angle_gamma 90.000000
_cell_volume 1745.768402
_symmetry_space_group_name_H-M "P N A 21"
_symmetry_group_IT_number 33
_symmetry_cell_setting 'orthorhombic'
loop_
_space_group_symop_operation_xyz
x,y,z
-x,-y,1/2+z
1/2-x,1/2+y,1/2+z
1/2+x,1/2-y,z
loop_
_atom_site_type_symbol
_atom_site_label
_atom_site_fract_x
_atom_site_fract_y
_atom_site_fract_z
Si Si1 0.127876 0.130444 0.314970
Si Si2 0.335711 0.704824 0.426169
Si Si3 0.367767 0.391405 0.767326
Si Si4 0.244554 0.125088 0.591456
Si Si5 0.982843 0.886129 0.361917
Si Si6 0.972281 0.123519 0.270490
Si Si7 0.255758 0.377844 0.059885
Si Si8 0.328012 0.299435 0.412440
O O1 0.177460 0.171054 0.476885
O O2 0.046895 0.173738 0.347056
O O3 0.118595 0.007705 0.331676
O O4 0.164054 0.148675 0.120400
O O5 0.273561 0.652422 0.300500
O O6 0.414963 0.692174 0.336396
O O7 0.315593 0.825702 0.470162
O O8 0.450162 0.348231 0.734215
O O9 0.324529 0.382243 0.578760
O O10 0.322354 0.341330 0.932740
O O11 0.313162 0.186443 0.507102
O O12 0.257465 0.001964 0.565479
O O13 0.019407 0.878652 0.556586
O O14 0.954409 0.004667 0.333105
O O15 0.907353 0.200266 0.324945
O O16 0.269265 0.333079 0.262256
#
# Coordination Sequence:
#
# PCOD8170695 Si02
#       8
#     4   4   4   4   4   4   4   4
#     4   9  20  35  54  83 116 143 184 234 281 336
#     4  11  21  37  55  84 116 150 184 228 286 339
#     4  10  20  35  55  86 115 145 186 236 288 336
#     4  11  23  35  58  82 112 157 188 227 280 338
#     4  10  20  33  57  88 116 143 184 241 296 339
#     4  10  19  32  54  87 114 144 181 239 292 338
#     4  11  22  39  54  82 121 147 194 230 273 348
#     4  12  21  36  57  84 116 153 183 229 292 336
#
# _framework density 18.330037999999998
#
# number of rings (size 3 to 8) (size 9 to 14) (size 15 to 20)
#    0.000    1.500    3.750    3.750    5.250    0.000 
#    0.000    0.000    0.000    3.000    0.000    0.000 
#    0.000    0.000    0.000    0.000    0.000    0.000 
#
# Total GULP energy -396439.658874 kJ/mol
# GULP energy per Si atom -12388.739340 kJ/mol
# Density = 1.828832 g / cm^3
# Si number density = 18.330038 Si / 1000 Ang^3
#
#
#
# Elastic Constant Matrix: (Units=GPa)
#
#
# Indices 1 2 3 4 5 6 
#
# 1 106.6662 60.1467 37.3806 0.0000 0.0000 0.0000
# 2 60.1467 66.0264 27.0531 0.0000 0.0000 0.0000
# 3 37.3806 27.0531 71.9062 0.0000 0.0000 0.0000
# 4 0.0000 0.0000 0.0000 25.7917 0.0000 0.0000
# 5 0.0000 0.0000 0.0000 0.0000 21.8462 0.0000
# 6 0.0000 0.0000 0.0000 0.0000 0.0000 31.4308
#
#
#
# Elastic Compliance Matrix: (Units=1/GPa)
#
#
# Indices 1 2 3 4 5 6 
#
# 1 0.020322 -0.016768 -0.004256 0.000000 0.000000 0.000000
# 2 -0.016768 0.031742 -0.003225 0.000000 0.000000 0.000000
# 3 -0.004256 -0.003225 0.017333 0.000000 0.000000 0.000000
# 4 0.000000 0.000000 0.000000 0.038772 0.000000 0.000000
# 5 0.000000 0.000000 0.000000 0.000000 0.045775 0.000000
# 6 0.000000 0.000000 0.000000 0.000000 0.000000 0.031816
#
#
# Mechanical properties :
#
#
# Convention : Reuss Voigt Hill
#
# Bulk Modulus (GPa) = 47.85096 54.86215 51.35656
# Shear Modulus (GPa) = 20.72767 23.81495 22.27131
#
# Velocity S-wave (km/s) = 3.36639 3.60839 3.48949
# Velocity P-wave (km/s) = 6.42433 6.88156 6.65687
#
# Compressibility (1/GPa) = 0.02089822
#
# Stress axis : x y z
#
# Youngs Moduli (GPa) = 49.20849 31.50393 57.69458
#
# Poissons Ratio (x) = 0.52827 0.24552
# Poissons Ratio (y) = 0.82515 0.18607
# Poissons Ratio (z) = 0.20941 0.10161
#
# Static dielectric constant tensor:
#      x y z
#    x 3.865130 0.000000 0.000000 
#    y 0.000000 3.128700 0.000000 
#    z 0.000000 0.000000 3.633480 
# 
# 
# High freq. dielectric constant tensor:
#      x y z
#    x 1.709680 0.000000 0.000000 
#    y 0.000000 1.659010 0.000000 
#    z 0.000000 0.000000 1.736690 
# 
# From -- ./inp_files/4883.got.cif
#   From: 2010.03.12/outbox.cif.g09.slc.cpg/sg33_3_cif.got.tgz:4883.got - 2010.04.14 01:49:19.
