data_PCOD8170411
_publ_section_title
;
Structure prediction by ZEFSAII (Michael W. Deem and Ramdas Pophale) SiO2 
 PCOD8170411
Probable space group: P B A 2
;
_chemical_formula_sum "Si O2"
_cell_formula_units_Z 30
_cell_length_a 15.138403
_cell_length_b 11.122475
_cell_length_c 8.783232
_cell_angle_alpha 90.000000
_cell_angle_beta 90.000000
_cell_angle_gamma 90.000000
_cell_volume 1478.889941
_symmetry_space_group_name_H-M "P B A 2"
_symmetry_group_IT_number 32
_symmetry_cell_setting 'orthorhombic'
loop_
_space_group_symop_operation_xyz
x,y,z
-x,-y,z
1/2-x,1/2+y,z
1/2+x,1/2-y,z
loop_
_atom_site_type_symbol
_atom_site_label
_atom_site_fract_x
_atom_site_fract_y
_atom_site_fract_z
Si Si1 0.043085 0.333720 0.857990
Si Si2 0.269194 0.336107 0.364022
Si Si3 0.500000 0.000000 0.286670
Si Si4 0.455445 0.617318 0.058364
Si Si5 0.592498 0.175752 0.514970
Si Si6 0.528200 0.636844 0.366883
Si Si7 0.767942 0.912760 0.190910
Si Si8 0.390615 0.060340 0.013278
O O1 0.067995 0.359854 0.685706
O O2 0.066279 0.200801 0.914790
O O3 0.098474 0.421858 0.965847
O O4 0.937951 0.356627 0.885783
O O5 0.199430 0.319379 0.503158
O O6 0.370926 0.338616 0.421401
O O7 0.253571 0.214851 0.267878
O O8 0.245969 0.463711 0.282415
O O9 0.439885 0.920028 0.393671
O O10 0.564311 0.920269 0.179986
O O11 0.500000 0.500000 0.985797
O O12 0.518472 0.677195 0.188442
O O13 0.369264 0.578102 0.149735
O O14 0.541671 0.298513 0.477099
O O15 0.500000 0.500000 0.380764
O O16 0.712286 0.911223 0.032772
#
# Coordination Sequence:
#
# PCOD8170411 Si02
#       8
#     4   4   2   4   4   4   4   4
#     4  10  23  42  58  92 134 172 210 273 353 409
#     4  12  23  40  68 106 126 178 223 294 342 404
#     4  10  18  34  66  88 112 156 216 280 320 362
#     4  11  21  40  64  91 130 175 220 279 328 400
#     4  12  23  40  64  95 137 169 222 280 348 418
#     4  11  22  43  66  94 134 175 228 286 337 405
#     4  12  22  39  69  99 128 161 242 282 336 392
#     4  10  21  40  66  90 119 168 225 279 324 397
#
# _framework density 20.285487
#
# number of rings (size 3 to 8) (size 9 to 14) (size 15 to 20)
#    0.000    1.067    5.333    4.800    0.000    0.533 
#    2.400    1.333    0.000    0.000    0.000    0.000 
#    0.000    0.000    0.000    0.000    0.000    0.000 
#
# Total GULP energy -371739.627983 kJ/mol
# GULP energy per Si atom -12391.320933 kJ/mol
# Density = 2.023932 g / cm^3
# Si number density = 20.285487 Si / 1000 Ang^3
#
#
#
# Elastic Constant Matrix: (Units=GPa)
#
#
# Indices 1 2 3 4 5 6 
#
# 1 139.4736 37.9650 48.1480 0.0000 0.0000 0.0000
# 2 37.9650 116.7897 32.7162 0.0000 0.0000 0.0000
# 3 48.1480 32.7162 103.6907 0.0000 0.0000 0.0000
# 4 0.0000 0.0000 0.0000 172.6033 0.0000 0.0000
# 5 0.0000 0.0000 0.0000 0.0000 25.7675 0.0000
# 6 0.0000 0.0000 0.0000 0.0000 0.0000 27.2007
#
#
#
# Elastic Compliance Matrix: (Units=1/GPa)
#
#
# Indices 1 2 3 4 5 6 
#
# 1 0.008909 -0.001906 -0.003536 0.000000 0.000000 0.000000
# 2 -0.001906 0.009800 -0.002207 0.000000 0.000000 0.000000
# 3 -0.003536 -0.002207 0.011982 0.000000 0.000000 0.000000
# 4 0.000000 0.000000 0.000000 0.005794 0.000000 0.000000
# 5 0.000000 0.000000 0.000000 0.000000 0.038809 0.000000
# 6 0.000000 0.000000 0.000000 0.000000 0.000000 0.036764
#
#
# Mechanical properties :
#
#
# Convention : Reuss Voigt Hill
#
# Bulk Modulus (GPa) = 64.95839 66.40139 65.67989
# Shear Modulus (GPa) = 37.73985 61.18928 49.46456
#
# Velocity S-wave (km/s) = 4.31796 5.49814 4.94339
# Velocity P-wave (km/s) = 7.54661 8.55047 8.06418
#
# Compressibility (1/GPa) = 0.01539447
#
# Stress axis : x y z
#
# Youngs Moduli (GPa) = 112.24521 102.03882 83.45708
#
# Poissons Ratio (x) = 0.19445 0.29507
# Poissons Ratio (y) = 0.21390 0.18421
# Poissons Ratio (z) = 0.39685 0.22523
#
# Static dielectric constant tensor:
#      x y z
#    x 4.087310 0.000000 0.000000 
#    y 0.000000 1.633760 0.000000 
#    z 0.000000 0.000000 3.462360 
# 
# 
# High freq. dielectric constant tensor:
#      x y z
#    x 1.802340 0.000000 0.000000 
#    y 0.000000 1.807600 0.000000 
#    z 0.000000 0.000000 1.753200 
# 
# From -- ./inp_files/3061.got.cif
#   From: 2010.03.12/outbox.cif.g09.slc.cpg/sg32_2_cif.got.tgz:3061.got - 2010.04.14 01:46:39.
