data_PCOD8170396
_publ_section_title
;
Structure prediction by ZEFSAII (Michael W. Deem and Ramdas Pophale) SiO2 
 PCOD8170396
Probable space group: P M N 21
;
_chemical_formula_sum "Si O2"
_cell_formula_units_Z 32
_cell_length_a 9.672877
_cell_length_b 7.597427
_cell_length_c 24.524155
_cell_angle_alpha 90.000000
_cell_angle_beta 90.000000
_cell_angle_gamma 90.000000
_cell_volume 1802.255060
_symmetry_space_group_name_H-M "P M N 21"
_symmetry_group_IT_number 31
_symmetry_cell_setting 'orthorhombic'
loop_
_space_group_symop_operation_xyz
x,y,z
1/2-x,-y,1/2+z
-x,y,z
1/2+x,-y,1/2+z
loop_
_atom_site_type_symbol
_atom_site_label
_atom_site_fract_x
_atom_site_fract_y
_atom_site_fract_z
Si Si1 0.164547 0.804680 0.331460
Si Si2 0.834602 0.500018 0.408612
Si Si3 0.163202 0.500011 0.530312
Si Si4 0.653128 0.791469 0.711511
Si Si5 0.661603 0.202893 0.112142
Si Si6 0.335453 0.804636 0.831456
Si Si7 0.846871 0.791468 0.211516
Si Si8 0.661605 0.797074 0.112146
O O1 0.221812 0.672803 0.377437
O O2 0.207785 0.733334 0.271340
O O3 0.000000 0.813514 0.333103
O O4 0.225577 0.000023 0.342805
O O5 0.772258 0.500004 0.469676
O O6 0.778182 0.327252 0.377428
O O7 0.000000 0.500014 0.408939
O O8 0.210702 0.676843 0.561628
O O9 0.210714 0.323198 0.561636
O O10 0.000000 0.499997 0.524768
O O11 0.500000 0.712730 0.699849
O O12 0.758756 0.726257 0.665420
O O13 0.707780 0.733312 0.771333
O O14 0.643925 0.000000 0.711308
O O15 0.500000 0.227103 0.124125
O O16 0.697516 0.999983 0.098264
O O17 0.500000 0.813466 0.833102
O O18 0.741243 0.726243 0.165427
O O19 0.000000 0.712725 0.199858
O O20 0.500000 0.772861 0.124126
#
# Coordination Sequence:
#
# PCOD8170396 Si02
#       8
#     4   4   4   4   4   4   4   4
#     4   8  14  24  38  58  83 106 130 166 208 246
#     4   9  16  25  38  57  81 109 138 167 204 246
#     4   9  18  29  39  57  85 113 144 177 204 240
#     4   8  14  26  44  66  89 109 134 171 211 251
#     4   9  17  29  44  62  86 114 140 169 207 248
#     4   8  14  24  38  58  83 106 130 166 208 246
#     4   8  14  26  44  66  89 109 134 171 211 251
#     4   9  17  29  44  62  86 114 140 169 207 248
#
# _framework density 17.755534000000001
#
# number of rings (size 3 to 8) (size 9 to 14) (size 15 to 20)
#    0.000    3.500    0.000    1.500    0.000    2.000 
#    0.000    6.875    0.000    0.000    0.000    3.500 
#    0.000    8.000    0.000    0.000    0.000    0.000 
#
# Total GULP energy -396551.234561 kJ/mol
# GULP energy per Si atom -12392.226080 kJ/mol
# Density = 1.771512 g / cm^3
# Si number density = 17.755534 Si / 1000 Ang^3
#
#
#
# Elastic Constant Matrix: (Units=GPa)
#
#
# Indices 1 2 3 4 5 6 
#
# 1 27.3118 19.9176 36.8304 0.0000 0.0000 0.0000
# 2 19.9176 103.7564 81.9824 0.0000 0.0000 0.0000
# 3 36.8304 81.9824 189.0395 0.0000 0.0000 0.0000
# 4 0.0000 0.0000 0.0000 32.4454 0.0000 0.0000
# 5 0.0000 0.0000 0.0000 0.0000 20.2765 0.0000
# 6 0.0000 0.0000 0.0000 0.0000 0.0000 7.4067
#
#
#
# Elastic Compliance Matrix: (Units=1/GPa)
#
#
# Indices 1 2 3 4 5 6 
#
# 1 0.050231 -0.002906 -0.008526 0.000000 0.000000 0.000000
# 2 -0.002906 0.014830 -0.005866 0.000000 0.000000 0.000000
# 3 -0.008526 -0.005866 0.009495 0.000000 0.000000 0.000000
# 4 0.000000 0.000000 0.000000 0.030821 0.000000 0.000000
# 5 0.000000 0.000000 0.000000 0.000000 0.049318 0.000000
# 6 0.000000 0.000000 0.000000 0.000000 0.000000 0.135012
#
#
# Mechanical properties :
#
#
# Convention : Reuss Voigt Hill
#
# Bulk Modulus (GPa) = 25.02419 66.39651 45.71035
# Shear Modulus (GPa) = 14.80942 24.11754 19.46348
#
# Velocity S-wave (km/s) = 2.89117 3.68953 3.31447
# Velocity P-wave (km/s) = 5.02687 7.45829 6.35986
#
# Compressibility (1/GPa) = 0.03996133
#
# Stress axis : x y z
#
# Youngs Moduli (GPa) = 19.90799 67.42939 105.32044
#
# Poissons Ratio (x) = 0.19592 0.89800
# Poissons Ratio (y) = 0.05784 0.61776
# Poissons Ratio (z) = 0.16974 0.39551
#
# Static dielectric constant tensor:
#      x y z
#    x 2.895350 0.000000 0.000000 
#    y 0.000000 3.431780 0.000000 
#    z 0.000000 0.000000 3.656570 
# 
# 
# High freq. dielectric constant tensor:
#      x y z
#    x 1.618650 0.000000 0.000000 
#    y 0.000000 1.689880 0.000000 
#    z 0.000000 0.000000 1.689200 
# 
# From -- ./inp_files/6038.got.cif
#   From: 2010.03.12/outbox.cif.g09.slc.cpg/sg31_4_cif.got.tgz:6038.got - 2010.04.14 01:42:59.
