data_PCOD8170333
_publ_section_title
;
Structure prediction by ZEFSAII (Michael W. Deem and Ramdas Pophale) SiO2 
 PCOD8170333
Probable space group: P M N 21
;
_chemical_formula_sum "Si O2"
_cell_formula_units_Z 32
_cell_length_a 15.029582
_cell_length_b 10.758432
_cell_length_c 9.629385
_cell_angle_alpha 90.000000
_cell_angle_beta 90.000000
_cell_angle_gamma 90.000000
_cell_volume 1557.020865
_symmetry_space_group_name_H-M "P M N 21"
_symmetry_group_IT_number 31
_symmetry_cell_setting 'orthorhombic'
loop_
_space_group_symop_operation_xyz
x,y,z
1/2-x,-y,1/2+z
-x,y,z
1/2+x,-y,1/2+z
loop_
_atom_site_type_symbol
_atom_site_label
_atom_site_fract_x
_atom_site_fract_y
_atom_site_fract_z
Si Si1 0.172220 0.407944 0.858210
Si Si2 0.805456 0.761002 0.222663
Si Si3 0.821539 0.415335 0.382419
Si Si4 0.243591 0.147179 0.442525
Si Si5 0.602026 0.183726 0.229835
Si Si6 0.398004 0.065831 0.931221
Si Si7 0.400080 0.486892 0.629229
Si Si8 0.902330 0.544855 0.635478
O O1 0.222399 0.278963 0.822100
O O2 0.233900 0.525814 0.814595
O O3 0.091403 0.435303 0.752024
O O4 0.141312 0.418030 0.016597
O O5 0.878658 0.822697 0.322730
O O6 0.845825 0.642064 0.141306
O O7 0.773086 0.857397 0.104285
O O8 0.811228 0.272837 0.419027
O O9 0.900905 0.435069 0.272147
O O10 0.835749 0.501843 0.516363
O O11 0.330915 0.131487 0.346662
O O12 0.173659 0.041022 0.403143
O O13 0.500000 0.172246 0.284270
O O14 0.628753 0.325234 0.200899
O O15 0.614361 0.107927 0.088797
O O16 0.500000 0.021404 0.906541
O O17 0.500000 0.452001 0.586157
O O18 0.000000 0.561776 0.569623
#
# Coordination Sequence:
#
# PCOD8170333 Si02
#       8
#     4   4   4   4   4   4   4   4
#     4  11  20  37  59  91 126 155 195 250 311 384
#     4  11  23  41  65  92 123 170 212 263 317 379
#     4  11  21  36  58  89 125 163 203 246 321 380
#     4  12  23  42  66  91 127 170 213 270 323 372
#     4  10  22  41  67  95 124 166 218 265 312 381
#     4  11  26  44  64  90 122 167 225 273 319 375
#     4  11  22  36  60  93 128 160 202 256 312 381
#     4  11  20  35  60  91 123 157 199 251 310 378
#
# _framework density 20.552067999999998
#
# number of rings (size 3 to 8) (size 9 to 14) (size 15 to 20)
#    0.000    1.000    3.750    4.125    1.750    4.000 
#    0.000    0.000    0.000    0.750    0.000    0.000 
#    0.000    0.000    0.000    0.000    0.000    0.000 
#
# Total GULP energy -396694.276474 kJ/mol
# GULP energy per Si atom -12396.696140 kJ/mol
# Density = 2.050529 g / cm^3
# Si number density = 20.552068 Si / 1000 Ang^3
#
#
#
# Elastic Constant Matrix: (Units=GPa)
#
#
# Indices 1 2 3 4 5 6 
#
# 1 110.4519 46.6600 46.7621 0.0000 0.0000 0.0000
# 2 46.6600 61.2378 33.0446 0.0000 0.0000 0.0000
# 3 46.7621 33.0446 121.6540 0.0000 0.0000 0.0000
# 4 0.0000 0.0000 0.0000 28.3764 0.0000 0.0000
# 5 0.0000 0.0000 0.0000 0.0000 33.8031 0.0000
# 6 0.0000 0.0000 0.0000 0.0000 0.0000 31.9880
#
#
#
# Elastic Compliance Matrix: (Units=1/GPa)
#
#
# Indices 1 2 3 4 5 6 
#
# 1 0.014202 -0.009228 -0.002952 0.000000 0.000000 0.000000
# 2 -0.009228 0.025130 -0.003279 0.000000 0.000000 0.000000
# 3 -0.002952 -0.003279 0.010246 0.000000 0.000000 0.000000
# 4 0.000000 0.000000 0.000000 0.035241 0.000000 0.000000
# 5 0.000000 0.000000 0.000000 0.000000 0.029583 0.000000
# 6 0.000000 0.000000 0.000000 0.000000 0.000000 0.031262
#
#
# Mechanical properties :
#
#
# Convention : Reuss Voigt Hill
#
# Bulk Modulus (GPa) = 53.59323 60.69743 57.14533
# Shear Modulus (GPa) = 27.35199 29.95865 28.65532
#
# Velocity S-wave (km/s) = 3.65206 3.82212 3.73806
# Velocity P-wave (km/s) = 6.62697 7.00541 6.81882
#
# Compressibility (1/GPa) = 0.01865907
#
# Stress axis : x y z
#
# Youngs Moduli (GPa) = 70.41235 39.79240 97.60300
#
# Poissons Ratio (x) = 0.36721 0.28817
# Poissons Ratio (y) = 0.64977 0.32004
# Poissons Ratio (z) = 0.20789 0.13048
#
# Static dielectric constant tensor:
#      x y z
#    x 3.731580 0.000000 0.000000 
#    y 0.000000 3.457370 0.000000 
#    z 0.000000 0.000000 3.768340 
# 
# 
# High freq. dielectric constant tensor:
#      x y z
#    x 1.809480 0.000000 0.000000 
#    y 0.000000 1.773690 0.000000 
#    z 0.000000 0.000000 1.818380 
# 
# From -- ./inp_files/2572.got.cif
#   From: 2010.03.12/outbox.cif.g09.slc.cpg/sg31_2_cif.got.tgz:2572.got - 2010.04.14 01:42:59.
