data_PCOD8170326
_publ_section_title
;
Structure prediction by ZEFSAII (Michael W. Deem and Ramdas Pophale) SiO2 
 PCOD8170326
Probable space group: P M N 21
;
_chemical_formula_sum "Si O2"
_cell_formula_units_Z 32
_cell_length_a 8.613217
_cell_length_b 15.288077
_cell_length_c 12.010343
_cell_angle_alpha 90.000000
_cell_angle_beta 90.000000
_cell_angle_gamma 90.000000
_cell_volume 1581.516258
_symmetry_space_group_name_H-M "P M N 21"
_symmetry_group_IT_number 31
_symmetry_cell_setting 'orthorhombic'
loop_
_space_group_symop_operation_xyz
x,y,z
1/2-x,-y,1/2+z
-x,y,z
1/2+x,-y,1/2+z
loop_
_atom_site_type_symbol
_atom_site_label
_atom_site_fract_x
_atom_site_fract_y
_atom_site_fract_z
Si Si1 0.316520 0.252193 0.678850
Si Si2 0.180623 0.400214 0.271200
Si Si3 0.823157 0.332569 0.032519
Si Si4 0.820114 0.844642 0.519624
Si Si5 0.684144 0.105933 0.263534
Si Si6 0.176566 0.416595 0.805813
Si Si7 0.681955 0.911085 0.305659
Si Si8 0.816533 0.743991 0.924408
O O1 0.500000 0.266726 0.686195
O O2 0.231694 0.329393 0.743953
O O3 0.274801 0.158997 0.732455
O O4 0.256628 0.252627 0.551209
O O5 0.236110 0.368626 0.150096
O O6 0.216312 0.502524 0.274531
O O7 0.267768 0.346934 0.367425
O O8 0.000000 0.385073 0.288611
O O9 0.707260 0.256805 0.992990
O O10 0.000000 0.297257 0.040538
O O11 0.812157 0.407142 0.939173
O O12 0.758460 0.862151 0.643473
O O13 0.716561 0.901023 0.436085
O O14 0.000000 0.868794 0.504005
O O15 0.500000 0.107228 0.271496
O O16 0.752940 0.172645 0.356315
O O17 0.745330 0.007558 0.277536
O O18 0.000000 0.435639 0.769680
O O19 0.500000 0.900277 0.281396
O O20 0.000000 0.748687 0.922410
#
# Coordination Sequence:
#
# PCOD8170326 Si02
#       8
#     4   4   4   4   4   4   4   4
#     4  11  24  41  63  90 123 161 207 255 300 360
#     4  11  24  41  63  94 125 156 204 253 301 362
#     4  10  22  41  63  88 121 159 199 252 306 358
#     4  11  21  38  65  91 118 155 208 258 300 358
#     4   9  21  40  62  89 121 162 203 248 304 363
#     4  11  24  42  64  89 123 164 202 245 308 366
#     4  11  23  40  62  89 127 164 201 250 310 366
#     4  10  22  43  64  86 122 165 204 249 307 361
#
# _framework density 20.233747000000001
#
# number of rings (size 3 to 8) (size 9 to 14) (size 15 to 20)
#    0.000    1.500    2.500    1.875    3.500    2.000 
#    0.000    3.125    0.000    0.000    0.000    0.000 
#    0.000    0.000    0.000    0.000    0.000    0.000 
#
# Total GULP energy -396888.303658 kJ/mol
# GULP energy per Si atom -12402.759489 kJ/mol
# Density = 2.018769 g / cm^3
# Si number density = 20.233747 Si / 1000 Ang^3
#
#
#
# Elastic Constant Matrix: (Units=GPa)
#
#
# Indices 1 2 3 4 5 6 
#
# 1 29.5677 3.4046 20.0974 0.0000 0.0000 0.0000
# 2 3.4046 112.1692 35.0192 0.0000 0.0000 0.0000
# 3 20.0974 35.0192 125.9695 0.0000 0.0000 0.0000
# 4 0.0000 0.0000 0.0000 31.4721 0.0000 0.0000
# 5 0.0000 0.0000 0.0000 0.0000 27.0610 0.0000
# 6 0.0000 0.0000 0.0000 0.0000 0.0000 25.4802
#
#
#
# Elastic Compliance Matrix: (Units=1/GPa)
#
#
# Indices 1 2 3 4 5 6 
#
# 1 0.038001 0.000810 -0.006288 0.000000 0.000000 0.000000
# 2 0.000810 0.009780 -0.002848 0.000000 0.000000 0.000000
# 3 -0.006288 -0.002848 0.009733 0.000000 0.000000 0.000000
# 4 0.000000 0.000000 0.000000 0.031774 0.000000 0.000000
# 5 0.000000 0.000000 0.000000 0.000000 0.036954 0.000000
# 6 0.000000 0.000000 0.000000 0.000000 0.000000 0.039246
#
#
# Mechanical properties :
#
#
# Convention : Reuss Voigt Hill
#
# Bulk Modulus (GPa) = 24.47259 42.74986 33.61123
# Shear Modulus (GPa) = 25.54132 30.74833 28.14483
#
# Velocity S-wave (km/s) = 3.55676 3.90251 3.73364
# Velocity P-wave (km/s) = 5.38410 6.44049 5.93584
#
# Compressibility (1/GPa) = 0.04086205
#
# Stress axis : x y z
#
# Youngs Moduli (GPa) = 26.31485 102.25334 102.73989
#
# Poissons Ratio (x) = -0.08279 0.64602
# Poissons Ratio (y) = -0.02131 0.29259
# Poissons Ratio (z) = 0.16546 0.29121
#
# Static dielectric constant tensor:
#      x y z
#    x 3.477430 0.000000 0.000000 
#    y 0.000000 3.692040 0.000000 
#    z 0.000000 0.000000 3.973420 
# 
# 
# High freq. dielectric constant tensor:
#      x y z
#    x 1.778990 0.000000 0.000000 
#    y 0.000000 1.794500 0.000000 
#    z 0.000000 0.000000 1.805310 
# 
# From -- ./inp_files/3643.got.cif
#   From: 2010.03.12/outbox.cif.g09.slc.cpg/sg31_2_cif.got.tgz:3643.got - 2010.04.14 01:42:59.
