data_PCOD8170663
_publ_section_title
;
Structure prediction by ZEFSAII (Michael W. Deem and Ramdas Pophale) SiO2 
 PCOD8170663
Probable space group: P N A 21
;
_chemical_formula_sum "Si O2"
_cell_formula_units_Z 32
_cell_length_a 9.857421
_cell_length_b 19.588109
_cell_length_c 8.272078
_cell_angle_alpha 90.000000
_cell_angle_beta 90.000000
_cell_angle_gamma 90.000000
_cell_volume 1597.240957
_symmetry_space_group_name_H-M "P N A 21"
_symmetry_group_IT_number 33
_symmetry_cell_setting 'orthorhombic'
loop_
_space_group_symop_operation_xyz
x,y,z
-x,-y,1/2+z
1/2-x,1/2+y,1/2+z
1/2+x,1/2-y,z
loop_
_atom_site_type_symbol
_atom_site_label
_atom_site_fract_x
_atom_site_fract_y
_atom_site_fract_z
Si Si1 0.351560 0.017576 0.757720
Si Si2 0.294031 0.837702 0.297051
Si Si3 0.745801 0.607814 0.937118
Si Si4 0.037786 0.413665 0.011695
Si Si5 0.491337 0.825068 0.788259
Si Si6 0.981231 0.817876 0.924600
Si Si7 0.707032 0.865940 0.032626
Si Si8 0.936487 0.256994 0.735279
O O1 0.264111 0.064974 0.635359
O O2 0.265598 0.970957 0.882256
O O3 0.448752 0.973046 0.643646
O O4 0.440420 0.068143 0.864750
O O5 0.313741 0.895409 0.435205
O O6 0.160534 0.793040 0.342973
O O7 0.438828 0.796696 0.318239
O O8 0.281195 0.875192 0.123617
O O9 0.590144 0.623101 0.895382
O O10 0.834924 0.657640 0.826055
O O11 0.973511 0.348495 0.106398
O O12 0.509629 0.743690 0.799165
O O13 0.576945 0.870708 0.915638
O O14 0.990204 0.789529 0.104381
O O15 0.832073 0.850245 0.912462
O O16 0.678115 0.804858 0.156315
#
# Coordination Sequence:
#
# PCOD8170663 Si02
#       8
#     4   4   4   4   4   4   4   4
#     4  11  22  37  56  85 116 161 201 237 280 353
#     4  11  19  37  58  88 114 148 184 247 296 344
#     4  10  20  36  60  84 117 153 197 235 287 357
#     4  11  22  37  60  86 118 150 202 249 282 340
#     4  10  19  36  61  89 106 150 200 250 293 342
#     4  10  19  36  61  85 117 153 186 240 305 358
#     4  11  19  36  62  82 116 154 193 235 294 350
#     4  10  18  33  60  87 110 141 191 235 297 348
#
# _framework density 20.034548000000001
#
# number of rings (size 3 to 8) (size 9 to 14) (size 15 to 20)
#    0.000    1.500    5.000    3.750    0.000    0.000 
#    6.750    3.750    0.000    0.000    0.000    0.000 
#    0.000    0.000    0.000    0.000    0.000    0.000 
#
# Total GULP energy -396499.715217 kJ/mol
# GULP energy per Si atom -12390.616101 kJ/mol
# Density = 1.998895 g / cm^3
# Si number density = 20.034548 Si / 1000 Ang^3
#
#
#
# Elastic Constant Matrix: (Units=GPa)
#
#
# Indices 1 2 3 4 5 6 
#
# 1 89.1909 31.8105 19.0064 0.0000 0.0000 0.0000
# 2 31.8105 76.8148 44.8581 0.0000 0.0000 0.0000
# 3 19.0064 44.8581 81.5060 0.0000 0.0000 0.0000
# 4 0.0000 0.0000 0.0000 37.3220 0.0000 0.0000
# 5 0.0000 0.0000 0.0000 0.0000 15.9991 0.0000
# 6 0.0000 0.0000 0.0000 0.0000 0.0000 18.8543
#
#
#
# Elastic Compliance Matrix: (Units=1/GPa)
#
#
# Indices 1 2 3 4 5 6 
#
# 1 0.013155 -0.005388 -0.000102 0.000000 0.000000 0.000000
# 2 -0.005388 0.021391 -0.010516 0.000000 0.000000 0.000000
# 3 -0.000102 -0.010516 0.018081 0.000000 0.000000 0.000000
# 4 0.000000 0.000000 0.000000 0.026794 0.000000 0.000000
# 5 0.000000 0.000000 0.000000 0.000000 0.062503 0.000000
# 6 0.000000 0.000000 0.000000 0.000000 0.000000 0.053038
#
#
# Mechanical properties :
#
#
# Convention : Reuss Voigt Hill
#
# Bulk Modulus (GPa) = 48.51189 48.76239 48.63714
# Shear Modulus (GPa) = 21.38143 24.55752 22.96948
#
# Velocity S-wave (km/s) = 3.27039 3.50488 3.38966
# Velocity P-wave (km/s) = 6.20703 6.38521 6.29675
#
# Compressibility (1/GPa) = 0.02061350
#
# Stress axis : x y z
#
# Youngs Moduli (GPa) = 76.01420 46.74852 55.30742
#
# Poissons Ratio (x) = 0.25189 0.00565
# Poissons Ratio (y) = 0.40958 0.58164
# Poissons Ratio (z) = 0.00777 0.49163
#
# Static dielectric constant tensor:
#      x y z
#    x 3.496690 0.000000 0.000000 
#    y 0.000000 3.786960 0.000000 
#    z 0.000000 0.000000 3.605560 
# 
# 
# High freq. dielectric constant tensor:
#      x y z
#    x 1.762950 0.000000 0.000000 
#    y 0.000000 1.779250 0.000000 
#    z 0.000000 0.000000 1.769540 
# 
# From -- ./inp_files/3451.got.cif
#   From: 2010.03.12/outbox.cif.g09.slc.cpg/sg33_2_cif.got.tgz:3451.got - 2010.04.14 01:49:19.
