data_PCOD8170371
_publ_section_title
;
Structure prediction by ZEFSAII (Michael W. Deem and Ramdas Pophale) SiO2 
 PCOD8170371
Probable space group: P M N 21
;
_chemical_formula_sum "Si O2"
_cell_formula_units_Z 32
_cell_length_a 13.580283
_cell_length_b 12.226691
_cell_length_c 7.984528
_cell_angle_alpha 90.000000
_cell_angle_beta 90.000000
_cell_angle_gamma 90.000000
_cell_volume 1325.766391
_symmetry_space_group_name_H-M "P M N 21"
_symmetry_group_IT_number 31
_symmetry_cell_setting 'orthorhombic'
loop_
_space_group_symop_operation_xyz
x,y,z
1/2-x,-y,1/2+z
-x,y,z
1/2+x,-y,1/2+z
loop_
_atom_site_type_symbol
_atom_site_label
_atom_site_fract_x
_atom_site_fract_y
_atom_site_fract_z
Si Si1 0.117870 0.237240 0.146300
Si Si2 0.769246 0.752427 0.065158
Si Si3 0.393066 0.071636 0.426357
Si Si4 0.776068 0.428850 0.320683
Si Si5 0.883745 0.583119 0.556921
Si Si6 0.115014 0.797337 0.384590
Si Si7 0.114697 0.153353 0.792343
Si Si8 0.107617 0.023357 0.296935
O O1 0.155638 0.355145 0.201430
O O2 0.157782 0.144061 0.279587
O O3 0.000000 0.233624 0.143713
O O4 0.158267 0.213535 0.958530
O O5 0.813789 0.832031 0.922580
O O6 0.842603 0.739748 0.220098
O O7 0.664675 0.800068 0.126002
O O8 0.756120 0.633335 0.988492
O O9 0.500000 0.118766 0.372911
O O10 0.362231 0.976447 0.296323
O O11 0.401751 0.017555 0.607454
O O12 0.840059 0.531242 0.385212
O O13 0.676969 0.461151 0.217867
O O14 0.868461 0.715755 0.541946
O O15 0.000000 0.553954 0.576241
O O16 0.000000 0.813359 0.349904
O O17 0.160789 0.922793 0.401709
O O18 0.000000 0.177578 0.777858
O O19 0.000000 0.041143 0.378076
#
# Coordination Sequence:
#
# PCOD8170371 Si02
#       8
#     4   4   4   4   4   4   4   4
#     4   9  18  36  63  95 133 174 215 264 323 388
#     4  11  21  34  61  92 124 163 212 270 323 379
#     4   8  16  32  53  82 123 167 205 241 296 376
#     4  12  26  44  65  94 126 165 221 278 338 404
#     4  11  26  48  71  95 129 173 224 283 338 397
#     4   9  18  37  65  94 127 169 213 257 312 379
#     4   9  19  36  58  88 130 175 214 258 317 385
#     4   7  12  27  55  90 126 162 199 243 302 374
#
# _framework density 24.136984000000002
#
# number of rings (size 3 to 8) (size 9 to 14) (size 15 to 20)
#    0.000    2.500    0.000    4.500    0.000    5.000 
#    0.000    5.000    0.000    6.000    0.000    0.000 
#    0.000    0.000    0.000    0.000    0.000    0.000 
#
# Total GULP energy -396478.855755 kJ/mol
# GULP energy per Si atom -12389.964242 kJ/mol
# Density = 2.408205 g / cm^3
# Si number density = 24.136984 Si / 1000 Ang^3
#
#
#
# Elastic Constant Matrix: (Units=GPa)
#
#
# Indices 1 2 3 4 5 6 
#
# 1 94.0956 40.2509 35.6063 0.0000 0.0000 0.0000
# 2 40.2509 92.6745 24.4215 0.0000 0.0000 0.0000
# 3 35.6063 24.4215 68.5633 0.0000 0.0000 0.0000
# 4 0.0000 0.0000 0.0000 30.8798 0.0000 0.0000
# 5 0.0000 0.0000 0.0000 0.0000 30.6535 0.0000
# 6 0.0000 0.0000 0.0000 0.0000 0.0000 29.4295
#
#
#
# Elastic Compliance Matrix: (Units=1/GPa)
#
#
# Indices 1 2 3 4 5 6 
#
# 1 0.015025 -0.004933 -0.006046 0.000000 0.000000 0.000000
# 2 -0.004933 0.013528 -0.002257 0.000000 0.000000 0.000000
# 3 -0.006046 -0.002257 0.018529 0.000000 0.000000 0.000000
# 4 0.000000 0.000000 0.000000 0.032384 0.000000 0.000000
# 5 0.000000 0.000000 0.000000 0.000000 0.032623 0.000000
# 6 0.000000 0.000000 0.000000 0.000000 0.000000 0.033980
#
#
# Mechanical properties :
#
#
# Convention : Reuss Voigt Hill
#
# Bulk Modulus (GPa) = 48.51827 50.65452 49.58639
# Shear Modulus (GPa) = 27.86936 28.52954 28.19945
#
# Velocity S-wave (km/s) = 3.40168 3.44173 3.42176
# Velocity P-wave (km/s) = 5.96434 6.06843 6.01661
#
# Compressibility (1/GPa) = 0.02061079
#
# Stress axis : x y z
#
# Youngs Moduli (GPa) = 66.55417 73.92336 53.97033
#
# Poissons Ratio (x) = 0.36464 0.32630
# Poissons Ratio (y) = 0.32829 0.12180
# Poissons Ratio (z) = 0.40239 0.16682
#
# Static dielectric constant tensor:
#      x y z
#    x 4.289230 0.000000 0.000000 
#    y 0.000000 4.507860 0.000000 
#    z 0.000000 0.000000 4.018250 
# 
# 
# High freq. dielectric constant tensor:
#      x y z
#    x 1.965300 0.000000 0.000000 
#    y 0.000000 1.947400 0.000000 
#    z 0.000000 0.000000 1.937900 
# 
# From -- ./inp_files/2599.got.cif
#   From: 2010.03.12/outbox.cif.g09.slc.cpg/sg31_2_cif.got.tgz:2599.got - 2010.04.14 01:42:59.
