data_PCOD8170791
_publ_section_title
;
Structure prediction by ZEFSAII (Michael W. Deem and Ramdas Pophale) SiO2 
 PCOD8170791
Probable space group: P N A 21
;
_chemical_formula_sum "Si O2"
_cell_formula_units_Z 32
_cell_length_a 14.222621
_cell_length_b 9.117592
_cell_length_c 11.590804
_cell_angle_alpha 90.000000
_cell_angle_beta 90.000000
_cell_angle_gamma 90.000000
_cell_volume 1503.049742
_symmetry_space_group_name_H-M "P N A 21"
_symmetry_group_IT_number 33
_symmetry_cell_setting 'orthorhombic'
loop_
_space_group_symop_operation_xyz
x,y,z
-x,-y,1/2+z
1/2-x,1/2+y,1/2+z
1/2+x,1/2-y,z
loop_
_atom_site_type_symbol
_atom_site_label
_atom_site_fract_x
_atom_site_fract_y
_atom_site_fract_z
Si Si1 0.362019 0.433383 0.257490
Si Si2 0.682925 0.563167 0.197721
Si Si3 0.069319 0.867980 0.522861
Si Si4 0.856157 0.803961 0.557676
Si Si5 0.161336 0.379755 0.281968
Si Si6 0.644772 0.233152 0.798798
Si Si7 0.929073 0.306753 0.794030
Si Si8 0.061766 0.123141 0.368435
O O1 0.362111 0.353312 0.132230
O O2 0.269753 0.377558 0.325625
O O3 0.355609 0.608149 0.239441
O O4 0.454913 0.392818 0.327085
O O5 0.691418 0.465647 0.080717
O O6 0.785348 0.621360 0.235089
O O7 0.608729 0.698551 0.192307
O O8 0.640052 0.444302 0.284661
O O9 0.102018 0.767759 0.415653
O O10 0.967342 0.822634 0.563751
O O11 0.068392 0.040842 0.489741
O O12 0.835349 0.679879 0.651580
O O13 0.823588 0.748101 0.432286
O O14 0.124690 0.543729 0.278416
O O15 0.093798 0.293006 0.372108
O O16 0.540185 0.167174 0.787160
#
# Coordination Sequence:
#
# PCOD8170791 Si02
#       8
#     4   4   4   4   4   4   4   4
#     4  12  21  40  68  92 126 176 215 259 335 383
#     4  10  19  40  65  91 128 169 218 263 315 395
#     4  10  20  43  71  85 126 189 208 255 336 393
#     4  10  21  42  67  95 130 173 214 266 329 387
#     4  11  24  37  64 101 132 159 219 280 312 385
#     4  11  22  41  69  93 128 178 215 268 327 386
#     4  10  21  40  64  93 133 164 221 271 314 382
#     4  10  22  43  64  90 133 168 218 264 322 391
#
# _framework density 21.290046
#
# number of rings (size 3 to 8) (size 9 to 14) (size 15 to 20)
#    0.000    1.500    7.500    0.000    3.500    2.000 
#    2.250    5.000    0.000    0.000    0.000    0.000 
#    0.000    0.000    0.000    0.000    0.000    0.000 
#
# Total GULP energy -396558.900984 kJ/mol
# GULP energy per Si atom -12392.465656 kJ/mol
# Density = 2.124159 g / cm^3
# Si number density = 21.290046 Si / 1000 Ang^3
#
#
#
# Elastic Constant Matrix: (Units=GPa)
#
#
# Indices 1 2 3 4 5 6 
#
# 1 136.9386 38.3289 33.1769 0.0000 0.0000 0.0000
# 2 38.3289 111.6073 32.6190 0.0000 0.0000 0.0000
# 3 33.1769 32.6190 42.7304 0.0000 0.0000 0.0000
# 4 0.0000 0.0000 0.0000 23.5113 0.0000 0.0000
# 5 0.0000 0.0000 0.0000 0.0000 7.9798 0.0000
# 6 0.0000 0.0000 0.0000 0.0000 0.0000 28.0475
#
#
#
# Elastic Compliance Matrix: (Units=1/GPa)
#
#
# Indices 1 2 3 4 5 6 
#
# 1 0.009155 -0.001373 -0.006060 0.000000 0.000000 0.000000
# 2 -0.001373 0.011739 -0.007895 0.000000 0.000000 0.000000
# 3 -0.006060 -0.007895 0.034135 0.000000 0.000000 0.000000
# 4 0.000000 0.000000 0.000000 0.042533 0.000000 0.000000
# 5 0.000000 0.000000 0.000000 0.000000 0.125316 0.000000
# 6 0.000000 0.000000 0.000000 0.000000 0.000000 0.035654
#
#
# Mechanical properties :
#
#
# Convention : Reuss Voigt Hill
#
# Bulk Modulus (GPa) = 41.03033 55.50287 48.26660
# Shear Modulus (GPa) = 16.81733 24.38449 20.60091
#
# Velocity S-wave (km/s) = 2.81359 3.38797 3.11405
# Velocity P-wave (km/s) = 5.46525 6.43668 5.97076
#
# Compressibility (1/GPa) = 0.02437222
#
# Stress axis : x y z
#
# Youngs Moduli (GPa) = 109.22935 85.18639 29.29572
#
# Poissons Ratio (x) = 0.11695 0.17754
# Poissons Ratio (y) = 0.14996 0.23129
# Poissons Ratio (z) = 0.66195 0.67256
#
# Static dielectric constant tensor:
#      x y z
#    x 3.949240 0.000000 0.000000 
#    y 0.000000 4.050940 0.000000 
#    z 0.000000 0.000000 3.876010 
# 
# 
# High freq. dielectric constant tensor:
#      x y z
#    x 1.849080 0.000000 0.000000 
#    y 0.000000 1.831100 0.000000 
#    z 0.000000 0.000000 1.811800 
# 
# From -- ./inp_files/6839.got.cif
#   From: 2010.03.12/outbox.cif.g09.slc.cpg/sg33_4_cif.got.tgz:6839.got - 2010.04.14 01:49:19.
