data_PCOD8170497
_publ_section_title
;
Structure prediction by ZEFSAII (Michael W. Deem and Ramdas Pophale) SiO2 
 PCOD8170497
Probable space group: P B A 2
;
_chemical_formula_sum "Si O2"
_cell_formula_units_Z 32
_cell_length_a 14.130102
_cell_length_b 12.419537
_cell_length_c 8.882156
_cell_angle_alpha 90.000000
_cell_angle_beta 90.000000
_cell_angle_gamma 90.000000
_cell_volume 1558.723557
_symmetry_space_group_name_H-M "P B A 2"
_symmetry_group_IT_number 32
_symmetry_cell_setting 'orthorhombic'
loop_
_space_group_symop_operation_xyz
x,y,z
-x,-y,z
1/2-x,1/2+y,z
1/2+x,1/2-y,z
loop_
_atom_site_type_symbol
_atom_site_label
_atom_site_fract_x
_atom_site_fract_y
_atom_site_fract_z
Si Si1 0.431335 0.101186 0.574570
Si Si2 0.431335 0.101186 0.913230
Si Si3 0.719394 0.032584 0.067827
Si Si4 0.415163 0.769231 0.420276
Si Si5 0.101966 0.044669 0.921289
Si Si6 0.398034 0.544669 0.566511
Si Si7 0.280606 0.967416 0.419973
Si Si8 0.084837 0.269231 0.067524
O O1 0.402422 0.134599 0.743900
O O2 0.484674 0.200646 0.496323
O O3 0.500000 0.000000 0.575921
O O4 0.338180 0.071103 0.480441
O O5 0.500000 0.000000 0.911879
O O6 0.338180 0.071103 0.007359
O O7 0.484674 0.200646 0.991477
O O8 0.735928 0.016844 0.243900
O O9 0.664308 0.142175 0.030661
O O10 0.819675 0.038632 0.982663
O O11 0.378402 0.658296 0.487792
O O12 0.335692 0.857825 0.457139
O O13 0.432851 0.758779 0.243900
O O14 0.111696 0.058263 0.743900
O O15 0.121598 0.158296 0.000007
O O16 0.000000 0.000000 0.968449
O O17 0.500000 0.500000 0.519351
O O18 0.319675 0.461368 0.505137
#
# Coordination Sequence:
#
# PCOD8170497 Si02
#       8
#     4   4   4   4   4   4   4   4
#     4   9  17  32  57  87 117 149 188 235 284 338
#     4   9  17  32  57  87 117 149 188 235 284 338
#     4  10  21  38  61  88 116 151 196 242 291 348
#     4  10  21  38  61  88 119 154 193 241 294 347
#     4  11  25  42  59  83 117 156 197 242 293 348
#     4  11  25  42  59  83 117 156 197 242 293 348
#     4  10  21  38  61  88 116 151 196 242 291 348
#     4  10  21  38  61  88 119 154 193 241 294 347
#
# _framework density 20.529619
#
# number of rings (size 3 to 8) (size 9 to 14) (size 15 to 20)
#    0.000    2.000    0.000    3.000    0.000   10.000 
#    0.000    5.000    0.000    0.000    0.000    0.000 
#    0.000    0.000    0.000    0.000    0.000    0.000 
#
# Total GULP energy -396948.082491 kJ/mol
# GULP energy per Si atom -12404.627578 kJ/mol
# Density = 2.048289 g / cm^3
# Si number density = 20.529619 Si / 1000 Ang^3
#
#
#
# Elastic Constant Matrix: (Units=GPa)
#
#
# Indices 1 2 3 4 5 6 
#
# 1 117.0185 38.2714 40.5529 0.0000 0.0000 0.0000
# 2 38.2714 79.6525 48.3644 0.0000 0.0000 0.0000
# 3 40.5529 48.3644 89.7792 0.0000 0.0000 0.0000
# 4 0.0000 0.0000 0.0000 32.4675 0.0000 0.0000
# 5 0.0000 0.0000 0.0000 0.0000 40.0137 0.0000
# 6 0.0000 0.0000 0.0000 0.0000 0.0000 21.7008
#
#
#
# Elastic Compliance Matrix: (Units=1/GPa)
#
#
# Indices 1 2 3 4 5 6 
#
# 1 0.010676 -0.003272 -0.003060 0.000000 0.000000 0.000000
# 2 -0.003272 0.019660 -0.009113 0.000000 0.000000 0.000000
# 3 -0.003060 -0.009113 0.017430 0.000000 0.000000 0.000000
# 4 0.000000 0.000000 0.000000 0.030800 0.000000 0.000000
# 5 0.000000 0.000000 0.000000 0.000000 0.024991 0.000000
# 6 0.000000 0.000000 0.000000 0.000000 0.000000 0.046081
#
#
# Mechanical properties :
#
#
# Convention : Reuss Voigt Hill
#
# Bulk Modulus (GPa) = 59.25385 60.09196 59.67291
# Shear Modulus (GPa) = 26.85958 29.45382 28.15670
#
# Velocity S-wave (km/s) = 3.62101 3.79185 3.70742
# Velocity P-wave (km/s) = 6.81231 6.96457 6.88886
#
# Compressibility (1/GPa) = 0.01687654
#
# Stress axis : x y z
#
# Youngs Moduli (GPa) = 93.66728 50.86489 57.37297
#
# Poissons Ratio (x) = 0.16642 0.17555
# Poissons Ratio (y) = 0.30645 0.52284
# Poissons Ratio (z) = 0.28661 0.46353
#
# Static dielectric constant tensor:
#      x y z
#    x 3.785080 0.000000 0.000000 
#    y 0.000000 3.526710 0.000000 
#    z 0.000000 0.000000 3.830250 
# 
# 
# High freq. dielectric constant tensor:
#      x y z
#    x 1.804280 0.000000 0.000000 
#    y 0.000000 1.787220 0.000000 
#    z 0.000000 0.000000 1.817730 
# 
# From -- ./inp_files/2877.got.cif
#   From: 2010.03.12/outbox.cif.g09.slc.cpg/sg32_2_cif.got.tgz:2877.got - 2010.04.14 01:46:39.
