data_PCOD8170239
_publ_section_title
;
Structure prediction by ZEFSAII (Michael W. Deem and Ramdas Pophale) SiO2 
 PCOD8170239
Probable space group: P M N 21
;
_chemical_formula_sum "Si O2"
_cell_formula_units_Z 32
_cell_length_a 8.630942
_cell_length_b 15.501299
_cell_length_c 12.047620
_cell_angle_alpha 90.000000
_cell_angle_beta 90.000000
_cell_angle_gamma 90.000000
_cell_volume 1611.860870
_symmetry_space_group_name_H-M "P M N 21"
_symmetry_group_IT_number 31
_symmetry_cell_setting 'orthorhombic'
loop_
_space_group_symop_operation_xyz
x,y,z
1/2-x,-y,1/2+z
-x,y,z
1/2+x,-y,1/2+z
loop_
_atom_site_type_symbol
_atom_site_label
_atom_site_fract_x
_atom_site_fract_y
_atom_site_fract_z
Si Si1 0.821780 0.657266 0.303670
Si Si2 0.182390 0.165681 0.790495
Si Si3 0.183778 0.748746 0.935859
Si Si4 0.818142 0.585476 0.072236
Si Si5 0.815537 0.248476 0.189871
Si Si6 0.316819 0.899014 0.526966
Si Si7 0.683595 0.089238 0.583236
Si Si8 0.318311 0.602212 0.529058
O O1 0.780676 0.750832 0.256215
O O2 0.783971 0.592915 0.203098
O O3 0.713353 0.637957 0.407276
O O4 0.000000 0.651463 0.340220
O O5 0.225355 0.095125 0.699035
O O6 0.000000 0.185119 0.791860
O O7 0.244938 0.135208 0.909642
O O8 0.248170 0.750151 0.812277
O O9 0.000000 0.745274 0.931096
O O10 0.252591 0.664593 0.000153
O O11 0.237783 0.835587 0.998962
O O12 0.743324 0.493412 0.038223
O O13 0.000000 0.586485 0.049482
O O14 0.755028 0.162582 0.126009
O O15 0.752826 0.332158 0.122095
O O16 0.000000 0.249286 0.195905
O O17 0.500000 0.895365 0.526892
O O18 0.260214 0.997153 0.537300
O O19 0.500000 0.092782 0.603610
O O20 0.500000 0.595054 0.546850
#
# Coordination Sequence:
#
# PCOD8170239 Si02
#       8
#     4   4   4   4   4   4   4   4
#     4  11  21  38  62  86 114 150 194 239 285 342
#     4  11  21  38  62  86 114 150 194 239 285 342
#     4  10  21  38  57  80 114 151 186 228 284 342
#     4   9  20  38  58  81 113 150 185 230 288 337
#     4  10  21  38  57  80 114 151 186 228 284 342
#     4   9  20  38  58  81 113 150 185 230 288 337
#     4  10  21  39  60  82 114 152 188 236 290 335
#     4  10  21  39  60  82 114 152 188 236 290 335
#
# _framework density 19.852830000000001
#
# number of rings (size 3 to 8) (size 9 to 14) (size 15 to 20)
#    0.000    2.000    2.500    0.750    3.500    1.000 
#    0.000    2.500    0.000    0.000    0.000    0.000 
#    0.000    0.000    0.000    0.000    0.000    0.000 
#
# Total GULP energy -396770.206911 kJ/mol
# GULP energy per Si atom -12399.068966 kJ/mol
# Density = 1.980764 g / cm^3
# Si number density = 19.852830 Si / 1000 Ang^3
#
#
#
# Elastic Constant Matrix: (Units=GPa)
#
#
# Indices 1 2 3 4 5 6 
#
# 1 13.3032 19.0260 20.6808 0.0000 0.0000 0.0000
# 2 19.0260 155.8727 56.2218 0.0000 0.0000 0.0000
# 3 20.6808 56.2218 126.3301 0.0000 0.0000 0.0000
# 4 0.0000 0.0000 0.0000 29.4323 0.0000 0.0000
# 5 0.0000 0.0000 0.0000 0.0000 33.2890 0.0000
# 6 0.0000 0.0000 0.0000 0.0000 0.0000 12.4046
#
#
#
# Elastic Compliance Matrix: (Units=1/GPa)
#
#
# Indices 1 2 3 4 5 6 
#
# 1 0.108928 -0.008177 -0.014193 0.000000 0.000000 0.000000
# 2 -0.008177 0.008256 -0.002336 0.000000 0.000000 0.000000
# 3 -0.014193 -0.002336 0.011279 0.000000 0.000000 0.000000
# 4 0.000000 0.000000 0.000000 0.033976 0.000000 0.000000
# 5 0.000000 0.000000 0.000000 0.000000 0.030040 0.000000
# 6 0.000000 0.000000 0.000000 0.000000 0.000000 0.080615
#
#
# Mechanical properties :
#
#
# Convention : Reuss Voigt Hill
#
# Bulk Modulus (GPa) = 12.64994 54.15150 33.40072
# Shear Modulus (GPa) = 14.33260 28.33034 21.33147
#
# Velocity S-wave (km/s) = 2.68981 3.78169 3.28148
# Velocity P-wave (km/s) = 4.00406 6.81204 5.58732
#
# Compressibility (1/GPa) = 0.07905176
#
# Stress axis : x y z
#
# Youngs Moduli (GPa) = 9.18040 121.12409 88.66247
#
# Poissons Ratio (x) = 0.99038 1.25840
# Poissons Ratio (y) = 0.07506 0.20709
# Poissons Ratio (z) = 0.13030 0.28291
#
# Static dielectric constant tensor:
#      x y z
#    x 3.188900 0.000000 0.000000 
#    y 0.000000 4.064220 0.000000 
#    z 0.000000 0.000000 3.644450 
# 
# 
# High freq. dielectric constant tensor:
#      x y z
#    x 1.737450 0.000000 0.000000 
#    y 0.000000 1.788880 0.000000 
#    z 0.000000 0.000000 1.785200 
# 
# From -- ./inp_files/3614.got.cif
#   From: 2010.03.12/outbox.cif.g09.slc.cpg/sg31_2_cif.got.tgz:3614.got - 2010.04.14 01:42:59.
