data_PCOD8170918
_publ_section_title
;
Structure prediction by ZEFSAII (Michael W. Deem and Ramdas Pophale) SiO2 
 PCOD8170918
Probable space group: P N A 21
;
_chemical_formula_sum "Si O2"
_cell_formula_units_Z 32
_cell_length_a 14.939013
_cell_length_b 11.659997
_cell_length_c 9.072646
_cell_angle_alpha 90.000000
_cell_angle_beta 90.000000
_cell_angle_gamma 90.000000
_cell_volume 1580.353744
_symmetry_space_group_name_H-M "P N A 21"
_symmetry_group_IT_number 33
_symmetry_cell_setting 'orthorhombic'
loop_
_space_group_symop_operation_xyz
x,y,z
-x,-y,1/2+z
1/2-x,1/2+y,1/2+z
1/2+x,1/2-y,z
loop_
_atom_site_type_symbol
_atom_site_label
_atom_site_fract_x
_atom_site_fract_y
_atom_site_fract_z
Si Si1 0.618473 0.328313 0.260290
Si Si2 0.552363 0.713957 0.939155
Si Si3 0.281936 0.318582 0.244396
Si Si4 0.838232 0.081272 0.670439
Si Si5 0.494003 0.049073 0.389862
Si Si6 0.486894 0.843448 0.573020
Si Si7 0.833263 0.248975 0.943348
Si Si8 0.799353 0.505922 0.936666
O O1 0.547868 0.320137 0.392554
O O2 0.715252 0.279732 0.309871
O O3 0.623834 0.461130 0.223687
O O4 0.587126 0.248978 0.122036
O O5 0.617795 0.704904 0.799031
O O6 0.549649 0.847904 0.985515
O O7 0.583887 0.633909 0.069968
O O8 0.280954 0.320283 0.068727
O O9 0.248899 0.443252 0.293325
O O10 0.745875 0.061117 0.582619
O O11 0.823512 0.172291 0.799198
O O12 0.481880 0.078971 0.215526
O O13 0.597565 0.039470 0.435028
O O14 0.448003 0.930842 0.447083
O O15 0.565836 0.772379 0.495649
O O16 0.783124 0.370381 0.925017
#
# Coordination Sequence:
#
# PCOD8170918 Si02
#       8
#     4   4   4   4   4   4   4   4
#     4  11  22  44  63  96 133 180 217 269 336 400
#     4  10  23  41  67  95 132 179 222 271 337 399
#     4  11  20  44  68  89 137 176 213 283 328 390
#     4  11  26  41  67  97 137 175 223 276 335 409
#     4  10  20  41  65  93 131 168 224 276 322 386
#     4  10  22  40  67  94 131 171 219 275 326 393
#     4  11  23  45  64  98 136 168 225 281 332 397
#     4  10  22  44  63  96 131 171 229 273 326 402
#
# _framework density 20.248632000000001
#
# number of rings (size 3 to 8) (size 9 to 14) (size 15 to 20)
#    0.000    1.500    6.250    0.000    5.250    0.000 
#   11.250    2.500    0.000    0.000    0.000    0.000 
#    0.000    0.000    0.000    0.000    0.000    0.000 
#
# Total GULP energy -396600.693609 kJ/mol
# GULP energy per Si atom -12393.771675 kJ/mol
# Density = 2.020255 g / cm^3
# Si number density = 20.248632 Si / 1000 Ang^3
#
#
#
# Elastic Constant Matrix: (Units=GPa)
#
#
# Indices 1 2 3 4 5 6 
#
# 1 34.7414 -2.3844 17.7801 0.0000 0.0000 0.0000
# 2 -2.3844 108.2675 55.1123 0.0000 0.0000 0.0000
# 3 17.7801 55.1123 105.3769 0.0000 0.0000 0.0000
# 4 0.0000 0.0000 0.0000 42.0335 0.0000 0.0000
# 5 0.0000 0.0000 0.0000 0.0000 20.2853 0.0000
# 6 0.0000 0.0000 0.0000 0.0000 0.0000 29.7416
#
#
#
# Elastic Compliance Matrix: (Units=1/GPa)
#
#
# Indices 1 2 3 4 5 6 
#
# 1 0.033308 0.004898 -0.008182 0.000000 0.000000 0.000000
# 2 0.004898 0.013308 -0.007787 0.000000 0.000000 0.000000
# 3 -0.008182 -0.007787 0.014943 0.000000 0.000000 0.000000
# 4 0.000000 0.000000 0.000000 0.023791 0.000000 0.000000
# 5 0.000000 0.000000 0.000000 0.000000 0.049297 0.000000
# 6 0.000000 0.000000 0.000000 0.000000 0.000000 0.033623
#
#
# Mechanical properties :
#
#
# Convention : Reuss Voigt Hill
#
# Bulk Modulus (GPa) = 25.36900 43.26687 34.31793
# Shear Modulus (GPa) = 24.56426 30.27061 27.41744
#
# Velocity S-wave (km/s) = 3.48678 3.87065 3.68372
# Velocity P-wave (km/s) = 5.36341 6.43351 5.92268
#
# Compressibility (1/GPa) = 0.03941819
#
# Stress axis : x y z
#
# Youngs Moduli (GPa) = 30.02320 75.14322 66.92262
#
# Poissons Ratio (x) = -0.36808 0.54755
# Poissons Ratio (y) = -0.14707 0.52110
# Poissons Ratio (z) = 0.24564 0.58511
#
# Static dielectric constant tensor:
#      x y z
#    x 3.708800 0.000000 0.000000 
#    y 0.000000 4.004520 0.000000 
#    z 0.000000 0.000000 3.717290 
# 
# 
# High freq. dielectric constant tensor:
#      x y z
#    x 1.789630 0.000000 0.000000 
#    y 0.000000 1.801630 0.000000 
#    z 0.000000 0.000000 1.777990 
# 
# From -- ./inp_files/4450.got.cif
#   From: 2010.03.12/outbox.cif.g09.slc.cpg/sg33_3_cif.got.tgz:4450.got - 2010.04.14 01:49:19.
