data_PCOD8170847
_publ_section_title
;
Structure prediction by ZEFSAII (Michael W. Deem and Ramdas Pophale) SiO2 
 PCOD8170847
Probable space group: P N A 21
;
_chemical_formula_sum "Si O2"
_cell_formula_units_Z 32
_cell_length_a 9.763061
_cell_length_b 13.402477
_cell_length_c 11.901376
_cell_angle_alpha 90.000000
_cell_angle_beta 90.000000
_cell_angle_gamma 90.000000
_cell_volume 1557.285534
_symmetry_space_group_name_H-M "P N A 21"
_symmetry_group_IT_number 33
_symmetry_cell_setting 'orthorhombic'
loop_
_space_group_symop_operation_xyz
x,y,z
-x,-y,1/2+z
1/2-x,1/2+y,1/2+z
1/2+x,1/2-y,z
loop_
_atom_site_type_symbol
_atom_site_label
_atom_site_fract_x
_atom_site_fract_y
_atom_site_fract_z
Si Si1 0.690205 0.527794 0.460720
Si Si2 0.712758 0.975263 0.500848
Si Si3 0.457036 0.856625 0.504814
Si Si4 0.072060 0.156456 0.893279
Si Si5 0.321960 0.547063 0.725295
Si Si6 0.224188 0.867463 0.822372
Si Si7 0.968454 0.749590 0.737406
Si Si8 0.107092 0.042582 0.685323
O O1 0.807338 0.596038 0.514735
O O2 0.564436 0.596780 0.425376
O O3 0.739011 0.467446 0.350574
O O4 0.645256 0.444655 0.554001
O O5 0.559783 0.944097 0.464022
O O6 0.811381 0.881439 0.477498
O O7 0.707049 0.986725 0.636078
O O8 0.773453 0.075043 0.442171
O O9 0.453307 0.773461 0.407415
O O10 0.508463 0.806471 0.621678
O O11 0.129372 0.138674 0.765557
O O12 0.370355 0.659434 0.706331
O O13 0.447741 0.475747 0.699579
O O14 0.376211 0.823267 0.812877
O O15 0.103053 0.784135 0.808838
O O16 0.197646 0.949392 0.727074
#
# Coordination Sequence:
#
# PCOD8170847 Si02
#       8
#     4   4   4   4   4   4   4   4
#     4  11  21  39  62  92 123 165 212 262 317 378
#     4  11  22  39  60  92 130 162 201 266 330 375
#     4  12  23  35  64  96 127 156 218 271 308 368
#     4  10  20  36  63  88 119 162 210 259 312 377
#     4  10  21  36  64  87 122 166 208 253 316 384
#     4  10  22  38  63  91 125 160 210 267 316 370
#     4  11  21  38  64  96 117 169 220 261 303 385
#     4   9  18  37  60  90 115 160 209 255 310 375
#
# _framework density 20.548576000000001
#
# number of rings (size 3 to 8) (size 9 to 14) (size 15 to 20)
#    0.000    1.500    3.750    3.000    0.000    2.000 
#    0.000    1.250    0.000    0.000    0.000    0.000 
#    0.000    0.000    0.000    0.000    0.000    0.000 
#
# Total GULP energy -396549.565418 kJ/mol
# GULP energy per Si atom -12392.173919 kJ/mol
# Density = 2.050181 g / cm^3
# Si number density = 20.548576 Si / 1000 Ang^3
#
#
#
# Elastic Constant Matrix: (Units=GPa)
#
#
# Indices 1 2 3 4 5 6 
#
# 1 88.8640 39.6983 48.7431 0.0000 0.0000 0.0000
# 2 39.6983 54.5491 49.4638 0.0000 0.0000 0.0000
# 3 48.7431 49.4638 143.8051 0.0000 0.0000 0.0000
# 4 0.0000 0.0000 0.0000 19.6319 0.0000 0.0000
# 5 0.0000 0.0000 0.0000 0.0000 22.0820 0.0000
# 6 0.0000 0.0000 0.0000 0.0000 0.0000 29.1281
#
#
#
# Elastic Compliance Matrix: (Units=1/GPa)
#
#
# Indices 1 2 3 4 5 6 
#
# 1 0.017143 -0.010474 -0.002208 0.000000 0.000000 0.000000
# 2 -0.010474 0.033041 -0.007815 0.000000 0.000000 0.000000
# 3 -0.002208 -0.007815 0.010390 0.000000 0.000000 0.000000
# 4 0.000000 0.000000 0.000000 0.050937 0.000000 0.000000
# 5 0.000000 0.000000 0.000000 0.000000 0.045286 0.000000
# 6 0.000000 0.000000 0.000000 0.000000 0.000000 0.034331
#
#
# Mechanical properties :
#
#
# Convention : Reuss Voigt Hill
#
# Bulk Modulus (GPa) = 51.07007 62.55874 56.81441
# Shear Modulus (GPa) = 20.95130 24.12261 22.53695
#
# Velocity S-wave (km/s) = 3.19658 3.42998 3.31534
# Velocity P-wave (km/s) = 6.20737 6.79682 6.50877
#
# Compressibility (1/GPa) = 0.01958094
#
# Stress axis : x y z
#
# Youngs Moduli (GPa) = 58.33165 30.26583 96.24386
#
# Poissons Ratio (x) = 0.31700 0.21252
# Poissons Ratio (y) = 0.61096 0.75211
# Poissons Ratio (z) = 0.12881 0.23652
#
# Static dielectric constant tensor:
#      x y z
#    x 3.662690 0.000000 0.000000 
#    y 0.000000 3.578440 0.000000 
#    z 0.000000 0.000000 4.046960 
# 
# 
# High freq. dielectric constant tensor:
#      x y z
#    x 1.802520 0.000000 0.000000 
#    y 0.000000 1.774490 0.000000 
#    z 0.000000 0.000000 1.800840 
# 
# From -- ./inp_files/5965.got.cif
#   From: 2010.03.12/outbox.cif.g09.slc.cpg/sg33_3_cif.got.tgz:5965.got - 2010.04.14 01:49:19.
