data_PCOD8170408
_publ_section_title
;
Structure prediction by ZEFSAII (Michael W. Deem and Ramdas Pophale) SiO2 
 PCOD8170408
Probable space group: P B A 2
;
_chemical_formula_sum "Si O2"
_cell_formula_units_Z 24
_cell_length_a 5.235388
_cell_length_b 14.549250
_cell_length_c 13.690906
_cell_angle_alpha 90.000000
_cell_angle_beta 90.000000
_cell_angle_gamma 90.000000
_cell_volume 1042.849575
_symmetry_space_group_name_H-M "P B A 2"
_symmetry_group_IT_number 32
_symmetry_cell_setting 'orthorhombic'
loop_
_space_group_symop_operation_xyz
x,y,z
-x,-y,z
1/2-x,1/2+y,z
1/2+x,1/2-y,z
loop_
_atom_site_type_symbol
_atom_site_label
_atom_site_fract_x
_atom_site_fract_y
_atom_site_fract_z
Si Si1 0.791040 0.602732 0.035020
Si Si2 0.396023 0.691057 0.760347
Si Si3 0.953892 0.894589 0.348120
Si Si4 0.343322 0.692142 0.543713
Si Si5 0.710674 0.397490 0.953507
Si Si6 0.451805 0.897082 0.258771
O O1 0.870670 0.600056 0.146783
O O2 0.748932 0.501642 0.988837
O O3 0.517881 0.651644 0.016328
O O4 0.020871 0.653944 0.976915
O O5 0.679686 0.731258 0.775063
O O6 0.371794 0.648046 0.651661
O O7 0.352862 0.609631 0.838583
O O8 0.891543 0.885447 0.462561
O O9 0.224444 0.846430 0.319474
O O10 0.725641 0.849028 0.282076
O O11 0.000000 0.000000 0.318627
O O12 0.055438 0.728597 0.530302
O O13 0.500000 0.000000 0.298843
#
# Coordination Sequence:
#
# PCOD8170408 Si02
#       6
#     4   4   4   4   4   4
#     4  10  19  32  55  86 106 148 174 231 284 329
#     4  10  21  38  59  80 108 154 192 226 278 340
#     4  10  21  34  58  90 111 146 188 247 279 328
#     4  10  21  40  63  81 114 158 192 227 293 356
#     4  10  19  32  55  82 109 139 192 225 271 332
#     4  10  18  32  55  83 111 143 186 220 289 341
#
# _framework density 23.013864999999999
#
# number of rings (size 3 to 8) (size 9 to 14) (size 15 to 20)
#    0.000    2.000    1.667    3.000    4.667    0.000 
#    3.000    0.000    7.333   20.000    0.000    0.000 
#    0.000    0.000    0.000    0.000    0.000    0.000 
#
# Total GULP energy -297318.004989 kJ/mol
# GULP energy per Si atom -12388.250208 kJ/mol
# Density = 2.296148 g / cm^3
# Si number density = 23.013865 Si / 1000 Ang^3
#
#
#
# Elastic Constant Matrix: (Units=GPa)
#
#
# Indices 1 2 3 4 5 6 
#
# 1 233.4295 2.0602 73.5117 0.0000 0.0000 0.0000
# 2 2.0602 15.6761 25.3391 0.0000 0.0000 0.0000
# 3 73.5117 25.3391 191.5257 0.0000 0.0000 0.0000
# 4 0.0000 0.0000 0.0000 15.4854 0.0000 0.0000
# 5 0.0000 0.0000 0.0000 0.0000 52.5733 0.0000
# 6 0.0000 0.0000 0.0000 0.0000 0.0000 3.8724
#
#
#
# Elastic Compliance Matrix: (Units=1/GPa)
#
#
# Indices 1 2 3 4 5 6 
#
# 1 0.004989 0.003103 -0.002325 0.000000 0.000000 0.000000
# 2 0.003103 0.083075 -0.012182 0.000000 0.000000 0.000000
# 3 -0.002325 -0.012182 0.007725 0.000000 0.000000 0.000000
# 4 0.000000 0.000000 0.000000 0.064577 0.000000 0.000000
# 5 0.000000 0.000000 0.000000 0.000000 0.019021 0.000000
# 6 0.000000 0.000000 0.000000 0.000000 0.000000 0.258236
#
#
# Mechanical properties :
#
#
# Convention : Reuss Voigt Hill
#
# Bulk Modulus (GPa) = 13.70227 71.38371 42.54299
# Shear Modulus (GPa) = 10.31441 37.03425 23.67433
#
# Velocity S-wave (km/s) = 2.11933 4.01585 3.21081
# Velocity P-wave (km/s) = 3.45769 7.25175 5.68082
#
# Compressibility (1/GPa) = 0.07298059
#
# Stress axis : x y z
#
# Youngs Moduli (GPa) = 200.44610 12.03737 129.44240
#
# Poissons Ratio (x) = -0.03735 0.30100
# Poissons Ratio (y) = -0.62201 1.57686
# Poissons Ratio (z) = 0.46611 0.14664
#
# Static dielectric constant tensor:
#      x y z
#    x -17.864180 0.000000 0.000000 
#    y 0.000000 3.356650 0.000000 
#    z 0.000000 0.000000 4.189090 
# 
# 
# High freq. dielectric constant tensor:
#      x y z
#    x 1.959150 0.000000 0.000000 
#    y 0.000000 1.841720 0.000000 
#    z 0.000000 0.000000 1.913470 
# 
# From -- ./inp_files/3525.got.cif
#   From: 2010.03.12/outbox.cif.g09.slc.cpg/sg32_2_cif.got.tgz:3525.got - 2010.04.14 01:46:39.
