data_PCOD8170676
_publ_section_title
;
Structure prediction by ZEFSAII (Michael W. Deem and Ramdas Pophale) SiO2 
 PCOD8170676
Probable space group: P N A 21
;
_chemical_formula_sum "Si O2"
_cell_formula_units_Z 32
_cell_length_a 5.310735
_cell_length_b 8.307043
_cell_length_c 36.159551
_cell_angle_alpha 90.000000
_cell_angle_beta 90.000000
_cell_angle_gamma 90.000000
_cell_volume 1595.232977
_symmetry_space_group_name_H-M "P N A 21"
_symmetry_group_IT_number 33
_symmetry_cell_setting 'orthorhombic'
loop_
_space_group_symop_operation_xyz
x,y,z
-x,-y,1/2+z
1/2-x,1/2+y,1/2+z
1/2+x,1/2-y,z
loop_
_atom_site_type_symbol
_atom_site_label
_atom_site_fract_x
_atom_site_fract_y
_atom_site_fract_z
Si Si1 0.502277 0.147378 0.784400
Si Si2 0.996316 0.341484 0.152898
Si Si3 0.491746 0.088718 0.067004
Si Si4 0.508287 0.561677 0.536486
Si Si5 0.478279 0.060791 0.352925
Si Si6 0.473188 0.848267 0.200475
Si Si7 0.521584 0.583144 0.883679
Si Si8 0.479202 0.346818 0.469816
O O1 0.243294 0.241095 0.792702
O O2 0.506838 0.085037 0.742273
O O3 0.513237 0.988024 0.809887
O O4 0.736284 0.261489 0.166199
O O5 0.003283 0.356398 0.108991
O O6 0.020697 0.513795 0.171161
O O7 0.484422 0.245633 0.040364
O O8 0.740888 0.987518 0.056111
O O9 0.236294 0.990096 0.058280
O O10 0.498888 0.510551 0.493563
O O11 0.471655 0.252530 0.359443
O O12 0.723920 0.986429 0.373631
O O13 0.226707 0.984359 0.371527
O O14 0.693853 0.719487 0.193529
O O15 0.509381 0.614910 0.926828
O O16 0.215740 0.264300 0.480242
#
# Coordination Sequence:
#
# PCOD8170676 Si02
#       8
#     4   4   4   4   4   4   4   4
#     4  10  21  39  62  83 122 161 189 237 298 359
#     4  12  21  40  70  92 126 168 210 263 311 367
#     4  10  19  40  60  80 112 153 193 245 293 343
#     4  10  20  35  61  79 109 151 195 232 303 355
#     4  10  18  35  59  81 108 153 192 233 292 346
#     4  10  23  43  62  95 133 169 204 254 320 376
#     4  10  19  35  57  80 114 146 189 251 297 331
#     4  12  21  37  57  82 114 155 186 245 308 357
#
# _framework density 20.059767999999998
#
# number of rings (size 3 to 8) (size 9 to 14) (size 15 to 20)
#    0.000    1.500    5.000    2.250    0.000    0.000 
#    4.500    3.750   16.500    0.000    0.000    0.000 
#    0.000    0.000    0.000    0.000    0.000    0.000 
#
# Total GULP energy -396588.519760 kJ/mol
# GULP energy per Si atom -12393.391242 kJ/mol
# Density = 2.001411 g / cm^3
# Si number density = 20.059768 Si / 1000 Ang^3
#
#
#
# Elastic Constant Matrix: (Units=GPa)
#
#
# Indices 1 2 3 4 5 6 
#
# 1 183.4439 2.4064 22.2678 0.0000 0.0000 0.0000
# 2 2.4064 42.4957 53.2164 0.0000 0.0000 0.0000
# 3 22.2678 53.2164 86.7667 0.0000 0.0000 0.0000
# 4 0.0000 0.0000 0.0000 21.8206 0.0000 0.0000
# 5 0.0000 0.0000 0.0000 0.0000 20.8663 0.0000
# 6 0.0000 0.0000 0.0000 0.0000 0.0000 17.0317
#
#
#
# Elastic Compliance Matrix: (Units=1/GPa)
#
#
# Indices 1 2 3 4 5 6 
#
# 1 0.006065 0.006923 -0.005802 0.000000 0.000000 0.000000
# 2 0.006923 0.109356 -0.068848 0.000000 0.000000 0.000000
# 3 -0.005802 -0.068848 0.055241 0.000000 0.000000 0.000000
# 4 0.000000 0.000000 0.000000 0.045828 0.000000 0.000000
# 5 0.000000 0.000000 0.000000 0.000000 0.047924 0.000000
# 6 0.000000 0.000000 0.000000 0.000000 0.000000 0.058714
#
#
# Mechanical properties :
#
#
# Convention : Reuss Voigt Hill
#
# Bulk Modulus (GPa) = 28.40369 52.05417 40.22893
# Shear Modulus (GPa) = 10.63109 27.59811 19.11460
#
# Velocity S-wave (km/s) = 2.30461 3.71319 3.09023
# Velocity P-wave (km/s) = 4.61215 6.66255 5.72981
#
# Compressibility (1/GPa) = 0.03520669
#
# Stress axis : x y z
#
# Youngs Moduli (GPa) = 164.88640 9.14442 18.10265
#
# Poissons Ratio (x) = -0.06330 0.10504
# Poissons Ratio (y) = -1.14146 1.24633
# Poissons Ratio (z) = 0.95673 0.62957
#
# Static dielectric constant tensor:
#      x y z
#    x 5.322010 0.000000 0.000000 
#    y 0.000000 3.186020 0.000000 
#    z 0.000000 0.000000 3.581780 
# 
# 
# High freq. dielectric constant tensor:
#      x y z
#    x 1.831190 0.000000 0.000000 
#    y 0.000000 1.728170 0.000000 
#    z 0.000000 0.000000 1.779670 
# 
# From -- ./inp_files/9372.got.cif
#   From: 2010.03.12/outbox.cif.g09.slc.cpg/sg33_5_cif.got.tgz:9372.got - 2010.04.14 01:49:19.
