data_PCOD8170373
_publ_section_title
;
Structure prediction by ZEFSAII (Michael W. Deem and Ramdas Pophale) SiO2 
 PCOD8170373
Probable space group: P M N 21
;
_chemical_formula_sum "Si O2"
_cell_formula_units_Z 32
_cell_length_a 8.598295
_cell_length_b 14.400807
_cell_length_c 12.340715
_cell_angle_alpha 90.000000
_cell_angle_beta 90.000000
_cell_angle_gamma 90.000000
_cell_volume 1528.056786
_symmetry_space_group_name_H-M "P M N 21"
_symmetry_group_IT_number 31
_symmetry_cell_setting 'orthorhombic'
loop_
_space_group_symop_operation_xyz
x,y,z
1/2-x,-y,1/2+z
-x,y,z
1/2+x,-y,1/2+z
loop_
_atom_site_type_symbol
_atom_site_label
_atom_site_fract_x
_atom_site_fract_y
_atom_site_fract_z
Si Si1 0.817842 0.665949 0.918960
Si Si2 0.328903 0.143340 0.691469
Si Si3 0.315089 0.243469 0.016994
Si Si4 0.181773 0.367828 0.190549
Si Si5 0.319258 0.551283 0.117975
Si Si6 0.320076 0.856998 0.971845
Si Si7 0.328852 0.339321 0.802227
Si Si8 0.684332 0.057135 0.907996
O O1 0.767919 0.620722 0.805572
O O2 0.000000 0.654278 0.936592
O O3 0.733985 0.616552 0.019595
O O4 0.774393 0.774730 0.914649
O O5 0.500000 0.113084 0.646281
O O6 0.197978 0.148255 0.600653
O O7 0.349609 0.242803 0.743100
O O8 0.267890 0.073122 0.783374
O O9 0.500000 0.242840 0.031382
O O10 0.234707 0.274048 0.128931
O O11 0.267751 0.318114 0.923538
O O12 0.252304 0.140266 0.985381
O O13 0.226671 0.454565 0.114348
O O14 0.000000 0.363560 0.212649
O O15 0.500000 0.530286 0.104527
O O16 0.290428 0.597537 0.235514
O O17 0.500000 0.846766 0.939761
O O18 0.248023 0.956497 0.938141
O O19 0.500000 0.388078 0.805784
O O20 0.500000 0.057571 0.919796
#
# Coordination Sequence:
#
# PCOD8170373 Si02
#       8
#     4   4   4   4   4   4   4   4
#     4  12  26  46  67  92 127 168 217 265 319 381
#     4   9  17  34  57  82 115 161 209 255 311 371
#     4   9  19  40  65  91 127 170 213 258 314 375
#     4  12  27  45  65  93 131 171 212 263 322 382
#     4  12  25  42  66  95 126 162 208 260 319 382
#     4  11  21  36  60  93 128 163 207 264 322 378
#     4   9  18  35  62  89 119 159 206 257 309 367
#     4   8  18  36  60  89 125 168 214 260 314 378
#
# _framework density 20.94163
#
# number of rings (size 3 to 8) (size 9 to 14) (size 15 to 20)
#    0.000    1.750    1.250    5.250    1.750    1.500 
#    0.000    6.875    0.000    0.000    0.000    0.000 
#    0.000    0.000    0.000    0.000    0.000    0.000 
#
# Total GULP energy -396759.236173 kJ/mol
# GULP energy per Si atom -12398.726130 kJ/mol
# Density = 2.089397 g / cm^3
# Si number density = 20.941630 Si / 1000 Ang^3
#
#
#
# Elastic Constant Matrix: (Units=GPa)
#
#
# Indices 1 2 3 4 5 6 
#
# 1 66.5713 16.1311 19.8008 0.0000 0.0000 0.0000
# 2 16.1311 82.1389 30.5795 0.0000 0.0000 0.0000
# 3 19.8008 30.5795 78.4864 0.0000 0.0000 0.0000
# 4 0.0000 0.0000 0.0000 17.1843 0.0000 0.0000
# 5 0.0000 0.0000 0.0000 0.0000 33.7895 0.0000
# 6 0.0000 0.0000 0.0000 0.0000 0.0000 27.8914
#
#
#
# Elastic Compliance Matrix: (Units=1/GPa)
#
#
# Indices 1 2 3 4 5 6 
#
# 1 0.016511 -0.001979 -0.003394 0.000000 0.000000 0.000000
# 2 -0.001979 0.014477 -0.005141 0.000000 0.000000 0.000000
# 3 -0.003394 -0.005141 0.015601 0.000000 0.000000 0.000000
# 4 0.000000 0.000000 0.000000 0.058193 0.000000 0.000000
# 5 0.000000 0.000000 0.000000 0.000000 0.029595 0.000000
# 6 0.000000 0.000000 0.000000 0.000000 0.000000 0.035853
#
#
# Mechanical properties :
#
#
# Convention : Reuss Voigt Hill
#
# Bulk Modulus (GPa) = 39.12464 40.02438 39.57451
# Shear Modulus (GPa) = 25.02779 26.48540 25.75660
#
# Velocity S-wave (km/s) = 3.46080 3.56016 3.51083
# Velocity P-wave (km/s) = 5.89006 6.00445 5.94753
#
# Compressibility (1/GPa) = 0.02555934
#
# Stress axis : x y z
#
# Youngs Moduli (GPa) = 60.56722 69.07424 64.10037
#
# Poissons Ratio (x) = 0.13668 0.21758
# Poissons Ratio (y) = 0.11985 0.32956
# Poissons Ratio (z) = 0.20559 0.35513
#
# Static dielectric constant tensor:
#      x y z
#    x 3.103300 0.000000 0.000000 
#    y 0.000000 4.054660 0.000000 
#    z 0.000000 0.000000 4.204170 
# 
# 
# High freq. dielectric constant tensor:
#      x y z
#    x 1.802030 0.000000 0.000000 
#    y 0.000000 1.822950 0.000000 
#    z 0.000000 0.000000 1.820810 
# 
# From -- ./inp_files/3677.got.cif
#   From: 2010.03.12/outbox.cif.g09.slc.cpg/sg31_2_cif.got.tgz:3677.got - 2010.04.14 01:42:59.
