data_PCOD8170456
_publ_section_title
;
Structure prediction by ZEFSAII (Michael W. Deem and Ramdas Pophale) SiO2 
 PCOD8170456
Probable space group: P B A 2
;
_chemical_formula_sum "Si O2"
_cell_formula_units_Z 28
_cell_length_a 9.155715
_cell_length_b 18.811377
_cell_length_c 8.328888
_cell_angle_alpha 90.000000
_cell_angle_beta 90.000000
_cell_angle_gamma 90.000000
_cell_volume 1434.497761
_symmetry_space_group_name_H-M "P B A 2"
_symmetry_group_IT_number 32
_symmetry_cell_setting 'orthorhombic'
loop_
_space_group_symop_operation_xyz
x,y,z
-x,-y,z
1/2-x,1/2+y,z
1/2+x,1/2-y,z
loop_
_atom_site_type_symbol
_atom_site_label
_atom_site_fract_x
_atom_site_fract_y
_atom_site_fract_z
Si Si1 0.216110 0.231459 0.181660
Si Si2 0.997593 0.211365 0.743501
Si Si3 0.352784 0.607719 0.970738
Si Si4 0.195202 0.324760 0.889181
Si Si5 0.445303 0.292033 0.381438
Si Si6 0.335642 0.976687 0.008455
Si Si7 0.911510 0.065125 0.226113
O O1 0.310703 0.239188 0.344131
O O2 0.050440 0.228432 0.236191
O O3 0.248160 0.159685 0.080776
O O4 0.238739 0.300830 0.069778
O O5 0.098736 0.147169 0.807516
O O6 0.049353 0.284009 0.829959
O O7 0.827462 0.195908 0.772106
O O8 0.016754 0.220923 0.553462
O O9 0.253767 0.540449 0.922422
O O10 0.501006 0.587030 0.064146
O O11 0.163510 0.408893 0.889002
O O12 0.399681 0.374431 0.361506
O O13 0.500000 0.000000 0.049489
O O14 0.251794 0.958492 0.174689
O O15 0.000000 0.000000 0.307294
#
# Coordination Sequence:
#
# PCOD8170456 Si02
#       7
#     4   4   4   4   4   4   4
#     4  10  20  36  63  86 113 156 205 249 295 361
#     4  11  23  38  61  91 125 161 201 260 308 366
#     4   9  20  37  60  85 120 159 205 249 299 366
#     4  11  22  40  61  90 119 159 208 249 299 361
#     4  11  21  37  60  90 119 157 194 255 310 361
#     4  11  22  35  63  93 116 155 209 261 295 357
#     4   9  18  39  57  85 117 154 205 244 296 368
#
# _framework density 19.519026
#
# number of rings (size 3 to 8) (size 9 to 14) (size 15 to 20)
#    0.000    1.714    2.857    2.571    6.000    0.000 
#    2.571    0.000    0.000    0.857    0.000    0.000 
#    0.000    0.000    0.000    0.000    0.000    0.000 
#
# Total GULP energy -347158.171557 kJ/mol
# GULP energy per Si atom -12398.506127 kJ/mol
# Density = 1.947460 g / cm^3
# Si number density = 19.519026 Si / 1000 Ang^3
#
#
#
# Elastic Constant Matrix: (Units=GPa)
#
#
# Indices 1 2 3 4 5 6 
#
# 1 96.2586 49.4649 18.9421 0.0000 0.0000 0.0000
# 2 49.4649 127.9767 33.1431 0.0000 0.0000 0.0000
# 3 18.9421 33.1431 82.0530 0.0000 0.0000 0.0000
# 4 0.0000 0.0000 0.0000 19.9992 0.0000 0.0000
# 5 0.0000 0.0000 0.0000 0.0000 28.0390 0.0000
# 6 0.0000 0.0000 0.0000 0.0000 0.0000 31.8317
#
#
#
# Elastic Compliance Matrix: (Units=1/GPa)
#
#
# Indices 1 2 3 4 5 6 
#
# 1 0.013050 -0.004762 -0.001089 0.000000 0.000000 0.000000
# 2 -0.004762 0.010464 -0.003128 0.000000 0.000000 0.000000
# 3 -0.001089 -0.003128 0.013702 0.000000 0.000000 0.000000
# 4 0.000000 0.000000 0.000000 0.050002 0.000000 0.000000
# 5 0.000000 0.000000 0.000000 0.000000 0.035665 0.000000
# 6 0.000000 0.000000 0.000000 0.000000 0.000000 0.031415
#
#
# Mechanical properties :
#
#
# Convention : Reuss Voigt Hill
#
# Bulk Modulus (GPa) = 51.92336 56.59874 54.26105
# Shear Modulus (GPa) = 27.98370 29.62318 28.80344
#
# Velocity S-wave (km/s) = 3.79048 3.89994 3.84560
# Velocity P-wave (km/s) = 6.76876 7.02417 6.89765
#
# Compressibility (1/GPa) = 0.01925915
#
# Stress axis : x y z
#
# Youngs Moduli (GPa) = 76.62797 95.56163 72.98228
#
# Poissons Ratio (x) = 0.45506 0.07949
# Poissons Ratio (y) = 0.36490 0.22825
# Poissons Ratio (z) = 0.08346 0.29887
#
# Static dielectric constant tensor:
#      x y z
#    x 3.501700 0.000000 0.000000 
#    y 0.000000 3.828770 0.000000 
#    z 0.000000 0.000000 3.098630 
# 
# 
# High freq. dielectric constant tensor:
#      x y z
#    x 1.765840 0.000000 0.000000 
#    y 0.000000 1.770370 0.000000 
#    z 0.000000 0.000000 1.719460 
# 
# From -- ./inp_files/2516.got.cif
#   From: 2010.03.12/outbox.cif.g09.slc.cpg/sg32_2_cif.got.tgz:2516.got - 2010.04.14 01:46:39.
