data_PCOD8170035
_publ_section_title
;
Structure prediction by ZEFSAII (Michael W. Deem and Ramdas Pophale) SiO2 
 PCOD8170035
Probable space group: P M N 21
;
_chemical_formula_sum "Si O2"
_cell_formula_units_Z 32
_cell_length_a 9.389359
_cell_length_b 11.267499
_cell_length_c 15.832049
_cell_angle_alpha 90.000000
_cell_angle_beta 90.000000
_cell_angle_gamma 90.000000
_cell_volume 1674.945183
_symmetry_space_group_name_H-M "P M N 21"
_symmetry_group_IT_number 31
_symmetry_cell_setting 'orthorhombic'
loop_
_space_group_symop_operation_xyz
x,y,z
1/2-x,-y,1/2+z
-x,y,z
1/2+x,-y,1/2+z
loop_
_atom_site_type_symbol
_atom_site_label
_atom_site_fract_x
_atom_site_fract_y
_atom_site_fract_z
Si Si1 0.168955 0.724293 0.937330
Si Si2 0.341967 0.347755 0.754554
Si Si3 0.339749 0.458858 0.571183
Si Si4 0.342336 0.449742 0.299594
Si Si5 0.333079 0.904386 0.617763
Si Si6 0.331586 0.010846 0.434525
Si Si7 0.839918 0.665018 0.618614
Si Si8 0.332353 0.079002 0.771232
O O1 0.224117 0.658065 0.853366
O O2 0.000000 0.736921 0.941233
O O3 0.225590 0.647444 0.015769
O O4 0.231778 0.856202 0.939510
O O5 0.500000 0.348210 0.793448
O O6 0.340237 0.411378 0.665213
O O7 0.243407 0.428079 0.814713
O O8 0.287945 0.212982 0.746594
O O9 0.500000 0.491030 0.542207
O O10 0.246201 0.577703 0.555972
O O11 0.500000 0.477581 0.333756
O O12 0.347036 0.407266 0.204545
O O13 0.500000 0.874631 0.624555
O O14 0.295234 0.951894 0.524512
O O15 0.242249 0.786980 0.632904
O O16 0.288603 0.997298 0.691246
O O17 0.500000 0.006769 0.416447
O O18 0.252092 0.949067 0.356812
O O19 0.000000 0.689773 0.584612
O O20 0.500000 0.066834 0.788978
#
# Coordination Sequence:
#
# PCOD8170035 Si02
#       8
#     4   4   4   4   4   4   4   4
#     4   9  17  32  54  76  98 127 169 216 258 304
#     4   9  18  33  52  74 101 133 169 208 256 312
#     4   9  17  32  55  77  98 131 173 215 260 316
#     4   9  18  32  51  75 101 130 165 209 259 310
#     4  10  21  37  57  79 107 145 185 221 262 321
#     4  10  21  37  57  81 107 141 186 227 265 320
#     4  10  20  34  52  76 107 138 171 215 267 317
#     4  10  21  37  56  80 111 145 180 223 273 320
#
# _framework density 19.105101999999999
#
# number of rings (size 3 to 8) (size 9 to 14) (size 15 to 20)
#    0.000    2.500    0.000    1.875    0.000    7.000 
#    0.000    5.625    0.000    3.000    0.000    0.000 
#    0.000    0.000    0.000    0.000    0.000    0.000 
#
# Total GULP energy -396625.605999 kJ/mol
# GULP energy per Si atom -12394.550187 kJ/mol
# Density = 1.906162 g / cm^3
# Si number density = 19.105102 Si / 1000 Ang^3
#
#
#
# Elastic Constant Matrix: (Units=GPa)
#
#
# Indices 1 2 3 4 5 6 
#
# 1 70.1915 58.8241 29.2793 0.0000 0.0000 0.0000
# 2 58.8241 145.0689 16.7960 0.0000 0.0000 0.0000
# 3 29.2793 16.7960 62.2292 0.0000 0.0000 0.0000
# 4 0.0000 0.0000 0.0000 17.5840 0.0000 0.0000
# 5 0.0000 0.0000 0.0000 0.0000 9.5454 0.0000
# 6 0.0000 0.0000 0.0000 0.0000 0.0000 31.4672
#
#
#
# Elastic Compliance Matrix: (Units=1/GPa)
#
#
# Indices 1 2 3 4 5 6 
#
# 1 0.026340 -0.009544 -0.009817 0.000000 0.000000 0.000000
# 2 -0.009544 0.010574 0.001637 0.000000 0.000000 0.000000
# 3 -0.009817 0.001637 0.020247 0.000000 0.000000 0.000000
# 4 0.000000 0.000000 0.000000 0.056870 0.000000 0.000000
# 5 0.000000 0.000000 0.000000 0.000000 0.104762 0.000000
# 6 0.000000 0.000000 0.000000 0.000000 0.000000 0.031779
#
#
# Mechanical properties :
#
#
# Convention : Reuss Voigt Hill
#
# Bulk Modulus (GPa) = 46.05834 54.14316 50.10075
# Shear Modulus (GPa) = 17.04977 23.22535 20.13756
#
# Velocity S-wave (km/s) = 2.99058 3.49042 3.25012
# Velocity P-wave (km/s) = 6.00708 6.68170 6.35335
#
# Compressibility (1/GPa) = 0.02171159
#
# Stress axis : x y z
#
# Youngs Moduli (GPa) = 37.96456 94.57303 49.39003
#
# Poissons Ratio (x) = 0.90262 0.48488
# Poissons Ratio (y) = 0.36234 -0.08083
# Poissons Ratio (z) = 0.37271 -0.15478
#
# Static dielectric constant tensor:
#      x y z
#    x 3.599000 0.000000 0.000000 
#    y 0.000000 3.692440 0.000000 
#    z 0.000000 0.000000 3.403710 
# 
# 
# High freq. dielectric constant tensor:
#      x y z
#    x 1.722510 0.000000 0.000000 
#    y 0.000000 1.756800 0.000000 
#    z 0.000000 0.000000 1.738240 
# 
# From -- ./inp_files/5020.got.cif
#   From: 2010.03.12/outbox.cif.g09.slc.cpg/sg31_3_cif.got.tgz:5020.got - 2010.04.14 01:42:59.
