data_PCOD8170434
_publ_section_title
;
Structure prediction by ZEFSAII (Michael W. Deem and Ramdas Pophale) SiO2 
 PCOD8170434
Probable space group: P B A 2
;
_chemical_formula_sum "Si O2"
_cell_formula_units_Z 32
_cell_length_a 17.779088
_cell_length_b 16.535136
_cell_length_c 5.142732
_cell_angle_alpha 90.000000
_cell_angle_beta 90.000000
_cell_angle_gamma 90.000000
_cell_volume 1511.858492
_symmetry_space_group_name_H-M "P B A 2"
_symmetry_group_IT_number 32
_symmetry_cell_setting 'orthorhombic'
loop_
_space_group_symop_operation_xyz
x,y,z
-x,-y,z
1/2-x,1/2+y,z
1/2+x,1/2-y,z
loop_
_atom_site_type_symbol
_atom_site_label
_atom_site_fract_x
_atom_site_fract_y
_atom_site_fract_z
Si Si1 0.490804 0.364591 0.558440
Si Si2 0.750855 0.400695 0.034362
Si Si3 0.319843 0.174530 0.532618
Si Si4 0.989680 0.327207 0.557793
Si Si5 0.736024 0.083250 0.030161
Si Si6 0.821344 0.135483 0.531957
Si Si7 0.579235 0.172095 0.059048
Si Si8 0.580338 0.364689 0.059929
O O1 0.487697 0.268631 0.549187
O O2 0.406045 0.398099 0.558771
O O3 0.535329 0.397059 0.308958
O O4 0.534197 0.395764 0.811531
O O5 0.786876 0.341438 0.247150
O O6 0.661462 0.405460 0.063288
O O7 0.769348 0.369144 0.747247
O O8 0.783800 0.489885 0.080065
O O9 0.404584 0.139911 0.549282
O O10 0.317118 0.269441 0.587322
O O11 0.036309 0.360201 0.313077
O O12 0.030300 0.358686 0.816231
O O13 0.770204 0.090492 0.742428
O O14 0.794281 0.116510 0.241841
O O15 0.661040 0.134791 0.049466
O O16 0.589042 0.268215 0.058675
#
# Coordination Sequence:
#
# PCOD8170434 Si02
#       8
#     4   4   4   4   4   4   4   4
#     4   9  19  35  60  88 112 143 198 253 290 338
#     4  12  25  40  58  90 128 160 195 244 298 354
#     4  11  22  41  65  88 115 157 204 247 294 354
#     4   9  19  35  60  88 112 143 198 253 290 338
#     4  12  25  40  58  90 128 160 195 244 298 354
#     4  11  22  41  65  88 115 157 204 247 294 354
#     4  10  19  36  59  84 113 152 197 244 292 348
#     4  10  19  36  59  84 113 152 197 244 292 348
#
# _framework density 21.166003
#
# number of rings (size 3 to 8) (size 9 to 14) (size 15 to 20)
#    0.000    1.500    0.000    6.000    0.000    6.000 
#    0.000    7.500    0.000    0.000    0.000    0.000 
#    0.000    0.000    0.000    0.000    0.000    0.000 
#
# Total GULP energy -396995.450955 kJ/mol
# GULP energy per Si atom -12406.107842 kJ/mol
# Density = 2.111783 g / cm^3
# Si number density = 21.166003 Si / 1000 Ang^3
#
#
#
# Elastic Constant Matrix: (Units=GPa)
#
#
# Indices 1 2 3 4 5 6 
#
# 1 99.9228 6.2965 37.0706 0.0000 0.0000 0.0000
# 2 6.2965 38.7402 10.6445 0.0000 0.0000 0.0000
# 3 37.0706 10.6445 129.9979 0.0000 0.0000 0.0000
# 4 0.0000 0.0000 0.0000 14.3561 0.0000 0.0000
# 5 0.0000 0.0000 0.0000 0.0000 48.0725 0.0000
# 6 0.0000 0.0000 0.0000 0.0000 0.0000 -3.5032
#
#
#
# Elastic Compliance Matrix: (Units=1/GPa)
#
#
# Indices 1 2 3 4 5 6 
#
# 1 0.011227 -0.000967 -0.003122 0.000000 0.000000 0.000000
# 2 -0.000967 0.026490 -0.001893 0.000000 0.000000 0.000000
# 3 -0.003122 -0.001893 0.008738 0.000000 0.000000 0.000000
# 4 0.000000 0.000000 0.000000 0.069657 0.000000 0.000000
# 5 0.000000 0.000000 0.000000 0.000000 0.020802 0.000000
# 6 0.000000 0.000000 0.000000 0.000000 0.000000 -0.285450
#
#
# Mechanical properties :
#
#
# Convention : Reuss Voigt Hill
#
# Bulk Modulus (GPa) = 28.99385 41.85380 35.42382
# Shear Modulus (GPa) = -39.97626 26.09502 -6.94062
#
# Velocity S-wave (km/s) = -4.35063 3.51504 -1.81280
# Velocity P-wave (km/s) = 3.39254 6.02420 3.52006
#
# Compressibility (1/GPa) = 0.03449008
#
# Stress axis : x y z
#
# Youngs Moduli (GPa) = 89.07082 37.74956 114.44458
#
# Poissons Ratio (x) = 0.03650 0.35734
# Poissons Ratio (y) = 0.08612 0.21669
# Poissons Ratio (z) = 0.27811 0.07147
#
# Static dielectric constant tensor:
#      x y z
#    x 3.982980 0.000000 0.000000 
#    y 0.000000 3.512630 0.000000 
#    z 0.000000 0.000000 4.113460 
# 
# 
# High freq. dielectric constant tensor:
#      x y z
#    x 1.845260 0.000000 0.000000 
#    y 0.000000 1.802850 0.000000 
#    z 0.000000 0.000000 1.847680 
# 
# From -- ./inp_files/1275.got.cif
#   From: 2010.03.12/outbox.cif.g09.slc.cpg/sg32_1_cif.got.tgz:1275.got - 2010.04.14 01:46:39.
