data_PCOD8170561
_publ_section_title
;
Structure prediction by ZEFSAII (Michael W. Deem and Ramdas Pophale) SiO2 
 PCOD8170561
Probable space group: P B A 2
;
_chemical_formula_sum "Si O2"
_cell_formula_units_Z 32
_cell_length_a 10.248858
_cell_length_b 13.921372
_cell_length_c 10.271681
_cell_angle_alpha 90.000000
_cell_angle_beta 90.000000
_cell_angle_gamma 90.000000
_cell_volume 1465.544594
_symmetry_space_group_name_H-M "P B A 2"
_symmetry_group_IT_number 32
_symmetry_cell_setting 'orthorhombic'
loop_
_space_group_symop_operation_xyz
x,y,z
-x,-y,z
1/2-x,1/2+y,z
1/2+x,1/2-y,z
loop_
_atom_site_type_symbol
_atom_site_label
_atom_site_fract_x
_atom_site_fract_y
_atom_site_fract_z
Si Si1 0.640181 0.989023 0.852690
Si Si2 0.625568 0.055124 0.142045
Si Si3 0.628821 0.437102 0.214532
Si Si4 0.889535 0.211383 0.575248
Si Si5 0.356468 0.488161 0.660075
Si Si6 0.383741 0.747390 0.040843
Si Si7 0.142164 0.732105 0.874463
Si Si8 0.340156 0.666847 0.485695
O O1 0.674949 0.879455 0.873982
O O2 0.500000 0.000000 0.779829
O O3 0.753406 0.039911 0.770502
O O4 0.630651 0.043698 0.987613
O O5 0.610890 0.171356 0.156578
O O6 0.500000 0.000000 0.201419
O O7 0.752060 0.012152 0.211505
O O8 0.500000 0.500000 0.197240
O O9 0.640451 0.357831 0.101317
O O10 0.629177 0.380399 0.348770
O O11 0.863014 0.097681 0.554220
O O12 0.874849 0.231609 0.728025
O O13 0.789561 0.268486 0.483449
O O14 0.037030 0.233190 0.528362
O O15 0.500000 0.500000 0.724300
O O16 0.311037 0.585045 0.591297
O O17 0.267105 0.778809 0.944277
O O18 0.516107 0.743233 0.959146
#
# Coordination Sequence:
#
# PCOD8170561 Si02
#       8
#     4   4   4   4   4   4   4   4
#     4  11  21  40  65  96 140 170 212 281 343 404
#     4  11  23  44  66  96 134 174 220 281 340 405
#     4  12  27  46  70  97 136 182 233 278 330 400
#     4  11  24  42  70  96 137 175 219 282 338 400
#     4  10  23  41  65  95 133 174 221 274 336 402
#     4  12  24  42  68 102 137 177 223 280 343 404
#     4  12  23  40  67 103 136 173 223 275 348 413
#     4  11  26  47  66  97 132 179 233 276 328 398
#
# _framework density 21.834887999999999
#
# number of rings (size 3 to 8) (size 9 to 14) (size 15 to 20)
#    0.000    0.750    5.000    3.375    3.500    4.500 
#    0.000    0.625    0.000    0.000    0.000    0.000 
#    0.000    0.000    0.000    0.000    0.000    0.000 
#
# Total GULP energy -396844.211105 kJ/mol
# GULP energy per Si atom -12401.381597 kJ/mol
# Density = 2.178519 g / cm^3
# Si number density = 21.834888 Si / 1000 Ang^3
#
#
#
# Elastic Constant Matrix: (Units=GPa)
#
#
# Indices 1 2 3 4 5 6 
#
# 1 144.7551 35.9339 37.2060 0.0000 0.0000 0.0000
# 2 35.9339 89.2805 2.6243 0.0000 0.0000 0.0000
# 3 37.2060 2.6243 67.9701 0.0000 0.0000 0.0000
# 4 0.0000 0.0000 0.0000 22.6308 0.0000 0.0000
# 5 0.0000 0.0000 0.0000 0.0000 17.1232 0.0000
# 6 0.0000 0.0000 0.0000 0.0000 0.0000 40.8694
#
#
#
# Elastic Compliance Matrix: (Units=1/GPa)
#
#
# Indices 1 2 3 4 5 6 
#
# 1 0.009005 -0.003484 -0.004795 0.000000 0.000000 0.000000
# 2 -0.003484 0.012561 0.001422 0.000000 0.000000 0.000000
# 3 -0.004795 0.001422 0.017282 0.000000 0.000000 0.000000
# 4 0.000000 0.000000 0.000000 0.044188 0.000000 0.000000
# 5 0.000000 0.000000 0.000000 0.000000 0.058400 0.000000
# 6 0.000000 0.000000 0.000000 0.000000 0.000000 0.024468
#
#
# Mechanical properties :
#
#
# Convention : Reuss Voigt Hill
#
# Bulk Modulus (GPa) = 39.78478 50.39266 45.08872
# Shear Modulus (GPa) = 26.59629 31.20745 28.90187
#
# Velocity S-wave (km/s) = 3.49386 3.78464 3.64215
# Velocity P-wave (km/s) = 5.87677 6.49824 6.19530
#
# Compressibility (1/GPa) = 0.02513524
#
# Stress axis : x y z
#
# Youngs Moduli (GPa) = 111.04433 79.61182 57.86315
#
# Poissons Ratio (x) = 0.27733 0.27745
# Poissons Ratio (y) = 0.38683 -0.08228
# Poissons Ratio (z) = 0.53245 -0.11320
#
# Static dielectric constant tensor:
#      x y z
#    x 4.218420 0.000000 0.000000 
#    y 0.000000 4.419170 0.000000 
#    z 0.000000 0.000000 3.692090 
# 
# 
# High freq. dielectric constant tensor:
#      x y z
#    x 1.875220 0.000000 0.000000 
#    y 0.000000 1.876070 0.000000 
#    z 0.000000 0.000000 1.830360 
# 
# From -- ./inp_files/3789.got.cif
#   From: 2010.03.12/outbox.cif.g09.slc.cpg/sg32_2_cif.got.tgz:3789.got - 2010.04.14 01:46:39.
