data_PCOD8170837
_publ_section_title
;
Structure prediction by ZEFSAII (Michael W. Deem and Ramdas Pophale) SiO2 
 PCOD8170837
Probable space group: P N A 21
;
_chemical_formula_sum "Si O2"
_cell_formula_units_Z 32
_cell_length_a 9.184454
_cell_length_b 22.301597
_cell_length_c 8.080744
_cell_angle_alpha 90.000000
_cell_angle_beta 90.000000
_cell_angle_gamma 90.000000
_cell_volume 1655.162566
_symmetry_space_group_name_H-M "P N A 21"
_symmetry_group_IT_number 33
_symmetry_cell_setting 'orthorhombic'
loop_
_space_group_symop_operation_xyz
x,y,z
-x,-y,1/2+z
1/2-x,1/2+y,1/2+z
1/2+x,1/2-y,z
loop_
_atom_site_type_symbol
_atom_site_label
_atom_site_fract_x
_atom_site_fract_y
_atom_site_fract_z
Si Si1 0.912137 0.808261 0.350420
Si Si2 0.344367 0.620976 0.050974
Si Si3 0.586964 0.546990 0.871014
Si Si4 0.087862 0.691739 0.442006
Si Si5 0.076158 0.074968 0.046246
Si Si6 0.076157 0.574968 0.246182
Si Si7 0.344368 0.120977 0.241453
Si Si8 0.086966 0.453009 0.421414
O O1 0.914525 0.824019 0.154286
O O2 0.749998 0.792128 0.396209
O O3 0.973299 0.864037 0.456681
O O4 0.999997 0.750000 0.396214
O O5 0.237604 0.581961 0.168459
O O6 0.476757 0.580070 0.993320
O O7 0.250000 0.646123 0.896214
O O8 0.543459 0.558344 0.682166
O O9 0.749999 0.572256 0.896214
O O10 0.581156 0.476453 0.908619
O O11 0.026698 0.635962 0.335750
O O12 0.085478 0.675982 0.638141
O O13 0.237605 0.081961 0.123970
O O14 0.081156 0.523546 0.383807
O O15 0.956541 0.558344 0.110261
O O16 0.476760 0.080072 0.299108
#
# Coordination Sequence:
#
# PCOD8170837 Si02
#       8
#     4   4   4   4   4   4   4   4
#     4  10  21  39  58  78 108 147 186 226 277 333
#     4   9  20  38  57  78 112 148 179 225 288 335
#     4  11  20  33  57  86 111 141 184 228 271 335
#     4  10  21  39  58  78 108 147 186 226 277 333
#     4  10  20  36  55  80 114 148 175 223 286 333
#     4  10  20  36  55  80 114 148 175 223 286 333
#     4   9  20  38  57  78 112 148 179 225 288 335
#     4  11  20  33  57  86 111 141 184 228 271 335
#
# _framework density 19.333449000000002
#
# number of rings (size 3 to 8) (size 9 to 14) (size 15 to 20)
#    0.000    2.000    0.000    5.250    0.000    2.000 
#    0.000   18.750    0.000    0.000    0.000    0.000 
#    0.000    0.000    0.000    0.000    0.000    0.000 
#
# Total GULP energy -396777.816795 kJ/mol
# GULP energy per Si atom -12399.306775 kJ/mol
# Density = 1.928945 g / cm^3
# Si number density = 19.333449 Si / 1000 Ang^3
#
#
#
# Elastic Constant Matrix: (Units=GPa)
#
#
# Indices 1 2 3 4 5 6 
#
# 1 96.0464 64.5392 51.3081 0.0000 0.0000 0.0000
# 2 64.5392 142.4748 88.8260 0.0000 0.0000 0.0000
# 3 51.3081 88.8260 133.9278 0.0000 0.0000 0.0000
# 4 0.0000 0.0000 0.0000 22.7039 0.0000 0.0000
# 5 0.0000 0.0000 0.0000 0.0000 29.5681 0.0000
# 6 0.0000 0.0000 0.0000 0.0000 0.0000 21.1127
#
#
#
# Elastic Compliance Matrix: (Units=1/GPa)
#
#
# Indices 1 2 3 4 5 6 
#
# 1 0.015326 -0.005596 -0.002160 0.000000 0.000000 0.000000
# 2 -0.005596 0.014010 -0.007148 0.000000 0.000000 0.000000
# 3 -0.002160 -0.007148 0.013035 0.000000 0.000000 0.000000
# 4 0.000000 0.000000 0.000000 0.044045 0.000000 0.000000
# 5 0.000000 0.000000 0.000000 0.000000 0.033820 0.000000
# 6 0.000000 0.000000 0.000000 0.000000 0.000000 0.047365
#
#
# Mechanical properties :
#
#
# Convention : Reuss Voigt Hill
#
# Bulk Modulus (GPa) = 79.59901 86.86618 83.23259
# Shear Modulus (GPa) = 24.80194 25.86199 25.33196
#
# Velocity S-wave (km/s) = 3.58558 3.66140 3.62369
# Velocity P-wave (km/s) = 7.64218 7.93111 7.78798
#
# Compressibility (1/GPa) = 0.01256297
#
# Stress axis : x y z
#
# Youngs Moduli (GPa) = 65.25057 71.37665 76.71470
#
# Poissons Ratio (x) = 0.39939 0.16571
# Poissons Ratio (y) = 0.36512 0.54839
# Poissons Ratio (z) = 0.14094 0.51023
#
# Static dielectric constant tensor:
#      x y z
#    x 3.582850 0.000000 0.000000 
#    y 0.000000 3.315230 0.000000 
#    z 0.000000 0.000000 3.929460 
# 
# 
# High freq. dielectric constant tensor:
#      x y z
#    x 1.753220 0.000000 0.000000 
#    y 0.000000 1.731340 0.000000 
#    z 0.000000 0.000000 1.771090 
# 
# From -- ./inp_files/3488.got.cif
#   From: 2010.03.12/outbox.cif.g09.slc.cpg/sg33_2_cif.got.tgz:3488.got - 2010.04.14 01:49:19.
