data_PCOD8170573
_publ_section_title
;
Structure prediction by ZEFSAII (Michael W. Deem and Ramdas Pophale) SiO2 
 PCOD8170573
Probable space group: P B A 2
;
_chemical_formula_sum "Si O2"
_cell_formula_units_Z 24
_cell_length_a 9.150536
_cell_length_b 14.975779
_cell_length_c 8.096600
_cell_angle_alpha 90.000000
_cell_angle_beta 90.000000
_cell_angle_gamma 90.000000
_cell_volume 1109.528956
_symmetry_space_group_name_H-M "P B A 2"
_symmetry_group_IT_number 32
_symmetry_cell_setting 'orthorhombic'
loop_
_space_group_symop_operation_xyz
x,y,z
-x,-y,z
1/2-x,1/2+y,z
1/2+x,1/2-y,z
loop_
_atom_site_type_symbol
_atom_site_label
_atom_site_fract_x
_atom_site_fract_y
_atom_site_fract_z
Si Si1 0.500000 0.000000 0.291510
Si Si2 0.426369 0.323992 0.671514
Si Si3 0.844776 0.329027 0.179573
Si Si4 0.240872 0.982418 0.500308
Si Si5 0.000000 0.000000 0.241007
Si Si6 0.467643 0.671227 0.040499
Si Si7 0.735925 0.324669 0.543948
O O1 0.417771 0.072471 0.178730
O O2 0.612401 0.053683 0.412467
O O3 0.333428 0.410207 0.616374
O O4 0.561461 0.308211 0.547557
O O5 0.318841 0.239612 0.672145
O O6 0.491014 0.340102 0.850749
O O7 0.707768 0.327559 0.055167
O O8 0.792243 0.300648 0.361424
O O9 0.966323 0.260796 0.116586
O O10 0.138692 0.020205 0.354104
O O11 0.274444 0.073856 0.600735
O O12 0.963984 0.086266 0.132299
#
# Coordination Sequence:
#
# PCOD8170573 Si02
#       7
#     2   4   4   4   2   4   4
#     4  10  24  42  74 104 132 180 252 290 322 414
#     4  12  26  44  70 103 143 180 230 295 358 408
#     4  11  24  47  70 102 138 187 239 286 343 423
#     4  11  23  44  71 104 131 183 245 281 342 424
#     4  12  22  44  70 104 126 192 238 280 350 416
#     4  12  27  43  69 105 146 181 228 299 360 408
#     4  11  23  44  70  99 131 188 234 280 335 432
#
# _framework density 21.630800000000001
#
# number of rings (size 3 to 8) (size 9 to 14) (size 15 to 20)
#    0.000    0.667    5.000    3.000   11.667    0.000 
#    0.000    0.000    0.000    2.000    0.000    0.000 
#    0.000    0.000    0.000    0.000    0.000    0.000 
#
# Total GULP energy -297675.491123 kJ/mol
# GULP energy per Si atom -12403.145463 kJ/mol
# Density = 2.158157 g / cm^3
# Si number density = 21.630800 Si / 1000 Ang^3
#
#
#
# Elastic Constant Matrix: (Units=GPa)
#
#
# Indices 1 2 3 4 5 6 
#
# 1 141.7515 71.0747 51.8320 0.0000 0.0000 0.0000
# 2 71.0747 161.7737 59.2138 0.0000 0.0000 0.0000
# 3 51.8320 59.2138 108.7155 0.0000 0.0000 0.0000
# 4 0.0000 0.0000 0.0000 15.6570 0.0000 0.0000
# 5 0.0000 0.0000 0.0000 0.0000 36.8076 0.0000
# 6 0.0000 0.0000 0.0000 0.0000 0.0000 43.7377
#
#
#
# Elastic Compliance Matrix: (Units=1/GPa)
#
#
# Indices 1 2 3 4 5 6 
#
# 1 0.009721 -0.003216 -0.002883 0.000000 0.000000 0.000000
# 2 -0.003216 0.008784 -0.003251 0.000000 0.000000 0.000000
# 3 -0.002883 -0.003251 0.012344 0.000000 0.000000 0.000000
# 4 0.000000 0.000000 0.000000 0.063869 0.000000 0.000000
# 5 0.000000 0.000000 0.000000 0.000000 0.027168 0.000000
# 6 0.000000 0.000000 0.000000 0.000000 0.000000 0.022864
#
#
# Mechanical properties :
#
#
# Convention : Reuss Voigt Hill
#
# Bulk Modulus (GPa) = 82.31292 86.27575 84.29433
# Shear Modulus (GPa) = 29.85057 34.58181 32.21619
#
# Velocity S-wave (km/s) = 3.71887 4.00275 3.86342
# Velocity P-wave (km/s) = 7.52171 7.83166 7.67825
#
# Compressibility (1/GPa) = 0.01214876
#
# Stress axis : x y z
#
# Youngs Moduli (GPa) = 102.86783 113.83861 81.01132
#
# Poissons Ratio (x) = 0.36606 0.23358
# Poissons Ratio (y) = 0.33078 0.26341
# Poissons Ratio (z) = 0.29660 0.37014
#
# Static dielectric constant tensor:
#      x y z
#    x 4.239310 0.000000 0.000000 
#    y 0.000000 3.904900 0.000000 
#    z 0.000000 0.000000 3.666490 
# 
# 
# High freq. dielectric constant tensor:
#      x y z
#    x 1.867320 0.000000 0.000000 
#    y 0.000000 1.859760 0.000000 
#    z 0.000000 0.000000 1.829090 
# 
# From -- ./inp_files/2331.got.cif
#   From: 2010.03.12/outbox.cif.g09.slc.cpg/sg32_2_cif.got.tgz:2331.got - 2010.04.14 01:46:39.
