data_PCOD8170961
_publ_section_title
;
Structure prediction by ZEFSAII (Michael W. Deem and Ramdas Pophale) SiO2 
 PCOD8170961
Probable space group: P N A 21
;
_chemical_formula_sum "Si O2"
_cell_formula_units_Z 32
_cell_length_a 8.638726
_cell_length_b 32.025421
_cell_length_c 5.024682
_cell_angle_alpha 90.000000
_cell_angle_beta 90.000000
_cell_angle_gamma 90.000000
_cell_volume 1390.122679
_symmetry_space_group_name_H-M "P N A 21"
_symmetry_group_IT_number 33
_symmetry_cell_setting 'orthorhombic'
loop_
_space_group_symop_operation_xyz
x,y,z
-x,-y,1/2+z
1/2-x,1/2+y,1/2+z
1/2+x,1/2-y,z
loop_
_atom_site_type_symbol
_atom_site_label
_atom_site_fract_x
_atom_site_fract_y
_atom_site_fract_z
Si Si1 0.663095 0.900089 0.335730
Si Si2 0.519613 0.025541 0.097851
Si Si3 0.146824 0.961880 0.716366
Si Si4 0.363713 0.152332 0.341276
Si Si5 0.534863 0.219204 0.652246
Si Si6 0.815730 0.234333 0.976960
Si Si7 0.091523 0.210394 0.299636
Si Si8 0.963917 0.944733 0.222692
O O1 0.589528 0.942117 0.447175
O O2 0.618272 0.863121 0.539206
O O3 0.845707 0.907781 0.294830
O O4 0.603507 0.885922 0.045215
O O5 0.670138 0.046718 0.231988
O O6 0.430404 0.005740 0.354309
O O7 0.099078 0.943272 0.435810
O O8 0.125371 0.011461 0.737750
O O9 0.047446 0.937915 0.939919
O O10 0.490551 0.187802 0.412501
O O11 0.186123 0.168504 0.367047
O O12 0.704468 0.208526 0.773039
O O13 0.394535 0.222429 0.865333
O O14 0.528571 0.268456 0.568137
O O15 0.705953 0.252724 0.203965
O O16 0.946847 0.203095 0.098170
#
# Coordination Sequence:
#
# PCOD8170961 Si02
#       8
#     4   4   4   4   4   4   4   4
#     4  12  27  45  66 101 145 185 220 287 371 416
#     4  12  24  43  74 106 136 181 239 283 336 426
#     4  10  21  38  72  98 128 167 234 285 316 386
#     4  12  26  43  67  97 144 183 223 291 362 419
#     4  11  21  40  66  98 126 177 233 292 334 417
#     4  10  21  36  68  96 128 163 245 290 331 395
#     4  11  21  40  66  98 125 178 237 287 335 417
#     4  10  21  41  65 100 130 174 219 279 337 406
#
# _framework density 23.019553999999999
#
# number of rings (size 3 to 8) (size 9 to 14) (size 15 to 20)
#    0.000    1.000    3.750    3.000    7.000    0.000 
#    0.000    3.750    0.000    0.000    0.000    0.000 
#    0.000    0.000    0.000    0.000    0.000    0.000 
#
# Total GULP energy -396586.926343 kJ/mol
# GULP energy per Si atom -12393.341448 kJ/mol
# Density = 2.296716 g / cm^3
# Si number density = 23.019554 Si / 1000 Ang^3
#
#
#
# Elastic Constant Matrix: (Units=GPa)
#
#
# Indices 1 2 3 4 5 6 
#
# 1 130.5698 17.9350 28.8169 0.0000 0.0000 0.0000
# 2 17.9350 38.9577 9.8538 0.0000 0.0000 0.0000
# 3 28.8169 9.8538 89.6920 0.0000 0.0000 0.0000
# 4 0.0000 0.0000 0.0000 34.0618 0.0000 0.0000
# 5 0.0000 0.0000 0.0000 0.0000 38.1451 0.0000
# 6 0.0000 0.0000 0.0000 0.0000 0.0000 27.5854
#
#
#
# Elastic Compliance Matrix: (Units=1/GPa)
#
#
# Indices 1 2 3 4 5 6 
#
# 1 0.008654 -0.003375 -0.002410 0.000000 0.000000 0.000000
# 2 -0.003375 0.027718 -0.001961 0.000000 0.000000 0.000000
# 3 -0.002410 -0.001961 0.012139 0.000000 0.000000 0.000000
# 4 0.000000 0.000000 0.000000 0.029358 0.000000 0.000000
# 5 0.000000 0.000000 0.000000 0.000000 0.026216 0.000000
# 6 0.000000 0.000000 0.000000 0.000000 0.000000 0.036251
#
#
# Mechanical properties :
#
#
# Convention : Reuss Voigt Hill
#
# Bulk Modulus (GPa) = 30.28392 41.38122 35.83257
# Shear Modulus (GPa) = 29.96989 33.46606 31.71797
#
# Velocity S-wave (km/s) = 3.61214 3.81702 3.71600
# Velocity P-wave (km/s) = 5.53002 6.11897 5.83193
#
# Compressibility (1/GPa) = 0.03302082
#
# Stress axis : x y z
#
# Youngs Moduli (GPa) = 115.55219 36.07709 82.37970
#
# Poissons Ratio (x) = 0.12175 0.19851
# Poissons Ratio (y) = 0.38994 0.16155
# Poissons Ratio (z) = 0.27845 0.07075
#
# Static dielectric constant tensor:
#      x y z
#    x 4.171240 0.000000 0.000000 
#    y 0.000000 3.797690 0.000000 
#    z 0.000000 0.000000 4.393540 
# 
# 
# High freq. dielectric constant tensor:
#      x y z
#    x 1.913840 0.000000 0.000000 
#    y 0.000000 1.860330 0.000000 
#    z 0.000000 0.000000 1.932810 
# 
# From -- ./inp_files/613.got.cif
#   From: 2010.03.12/outbox.cif.g09.slc.cpg/sg33_1_cif.got.tgz:613.got - 2010.04.14 01:49:19.
