data_PCOD8170556
_publ_section_title
;
Structure prediction by ZEFSAII (Michael W. Deem and Ramdas Pophale) SiO2 
 PCOD8170556
Probable space group: P B A 2
;
_chemical_formula_sum "Si O2"
_cell_formula_units_Z 22
_cell_length_a 10.234416
_cell_length_b 14.037859
_cell_length_c 6.152241
_cell_angle_alpha 90.000000
_cell_angle_beta 90.000000
_cell_angle_gamma 90.000000
_cell_volume 883.888089
_symmetry_space_group_name_H-M "P B A 2"
_symmetry_group_IT_number 32
_symmetry_cell_setting 'orthorhombic'
loop_
_space_group_symop_operation_xyz
x,y,z
-x,-y,z
1/2-x,1/2+y,z
1/2+x,1/2-y,z
loop_
_atom_site_type_symbol
_atom_site_label
_atom_site_fract_x
_atom_site_fract_y
_atom_site_fract_z
Si Si1 0.049620 0.647552 0.896440
Si Si2 0.000000 0.000000 0.732890
Si Si3 0.836292 0.716463 0.581628
Si Si4 0.139111 0.841252 0.927261
Si Si5 0.745211 0.923097 0.543762
Si Si6 0.852061 0.570694 0.216867
O O1 0.955237 0.713725 0.750344
O O2 0.118374 0.734965 0.029004
O O3 0.150480 0.583947 0.755249
O O4 0.975213 0.573054 0.051024
O O5 0.009492 0.904192 0.879851
O O6 0.866785 0.992873 0.593188
O O7 0.709671 0.672699 0.695427
O O8 0.804599 0.820544 0.485423
O O9 0.884243 0.652124 0.386459
O O10 0.219907 0.905787 0.092616
O O11 0.663913 0.968192 0.339689
#
# Coordination Sequence:
#
# PCOD8170556 Si02
#       6
#     4   2   4   4   4   4
#     4  10  24  48  74 108 154 198 245 319 390 445
#     4  12  22  46  78 104 148 196 248 314 380 448
#     4  10  22  48  72 103 147 196 246 313 380 449
#     4  10  23  45  72 106 146 191 245 308 380 447
#     4  11  25  47  78 110 153 199 251 319 382 457
#     4  11  25  47  75 111 145 194 260 304 374 465
#
# _framework density 24.890028999999998
#
# number of rings (size 3 to 8) (size 9 to 14) (size 15 to 20)
#    0.000    1.455    3.636    0.000    0.000    7.273 
#    6.545    0.000    0.000    0.000    0.000    0.000 
#    0.000    0.000    0.000    0.000    0.000    0.000 
#
# Total GULP energy -272701.997035 kJ/mol
# GULP energy per Si atom -12395.545320 kJ/mol
# Density = 2.483338 g / cm^3
# Si number density = 24.890029 Si / 1000 Ang^3
#
#
#
# Elastic Constant Matrix: (Units=GPa)
#
#
# Indices 1 2 3 4 5 6 
#
# 1 114.1458 53.3095 33.8770 0.0000 0.0000 0.0000
# 2 53.3095 176.8047 63.8471 0.0000 0.0000 0.0000
# 3 33.8770 63.8471 80.0026 0.0000 0.0000 0.0000
# 4 0.0000 0.0000 0.0000 39.2708 0.0000 0.0000
# 5 0.0000 0.0000 0.0000 0.0000 34.3900 0.0000
# 6 0.0000 0.0000 0.0000 0.0000 0.0000 39.3446
#
#
#
# Elastic Compliance Matrix: (Units=1/GPa)
#
#
# Indices 1 2 3 4 5 6 
#
# 1 0.010603 -0.002213 -0.002723 0.000000 0.000000 0.000000
# 2 -0.002213 0.008408 -0.005773 0.000000 0.000000 0.000000
# 3 -0.002723 -0.005773 0.018260 0.000000 0.000000 0.000000
# 4 0.000000 0.000000 0.000000 0.025464 0.000000 0.000000
# 5 0.000000 0.000000 0.000000 0.000000 0.029078 0.000000
# 6 0.000000 0.000000 0.000000 0.000000 0.000000 0.025416
#
#
# Mechanical properties :
#
#
# Convention : Reuss Voigt Hill
#
# Bulk Modulus (GPa) = 63.08552 74.78003 68.93277
# Shear Modulus (GPa) = 34.73854 37.26237 36.00045
#
# Velocity S-wave (km/s) = 3.73993 3.87341 3.80726
# Velocity P-wave (km/s) = 6.63703 7.07911 6.86163
#
# Compressibility (1/GPa) = 0.01585150
#
# Stress axis : x y z
#
# Youngs Moduli (GPa) = 94.31557 118.93392 54.76506
#
# Poissons Ratio (x) = 0.26326 0.14914
# Poissons Ratio (y) = 0.20877 0.31615
# Poissons Ratio (z) = 0.25684 0.68659
#
# Static dielectric constant tensor:
#      x y z
#    x 4.547610 0.000000 0.000000 
#    y 0.000000 4.649620 0.000000 
#    z 0.000000 0.000000 4.353660 
# 
# 
# High freq. dielectric constant tensor:
#      x y z
#    x 1.997630 0.000000 0.000000 
#    y 0.000000 2.020120 0.000000 
#    z 0.000000 0.000000 1.965450 
# 
# From -- ./inp_files/849.got.cif
#   From: 2010.03.12/outbox.cif.g09.slc.cpg/sg32_1_cif.got.tgz:849.got - 2010.04.14 01:46:39.
