data_PCOD8170972
_publ_section_title
;
Structure prediction by ZEFSAII (Michael W. Deem and Ramdas Pophale) SiO2 
 PCOD8170972
Probable space group: P N A 21
;
_chemical_formula_sum "Si O2"
_cell_formula_units_Z 32
_cell_length_a 16.426837
_cell_length_b 10.605424
_cell_length_c 8.699790
_cell_angle_alpha 90.000000
_cell_angle_beta 90.000000
_cell_angle_gamma 90.000000
_cell_volume 1515.621486
_symmetry_space_group_name_H-M "P N A 21"
_symmetry_group_IT_number 33
_symmetry_cell_setting 'orthorhombic'
loop_
_space_group_symop_operation_xyz
x,y,z
-x,-y,1/2+z
1/2-x,1/2+y,1/2+z
1/2+x,1/2-y,z
loop_
_atom_site_type_symbol
_atom_site_label
_atom_site_fract_x
_atom_site_fract_y
_atom_site_fract_z
Si Si1 0.102168 0.551536 0.649360
Si Si2 0.798983 0.377577 0.655164
Si Si3 0.353641 0.322624 0.244836
Si Si4 0.452671 0.029986 0.490370
Si Si5 0.493075 0.309552 0.492684
Si Si6 0.353014 0.525243 0.991253
Si Si7 0.141032 0.901147 0.172938
Si Si8 0.740904 0.026748 0.441790
O O1 0.149872 0.683919 0.669480
O O2 0.077416 0.496877 0.817684
O O3 0.162129 0.456742 0.554292
O O4 0.018186 0.572784 0.551985
O O5 0.875624 0.463402 0.604167
O O6 0.728112 0.401614 0.533917
O O7 0.815005 0.231042 0.639785
O O8 0.775436 0.408040 0.830754
O O9 0.428100 0.331712 0.360087
O O10 0.266784 0.355206 0.328934
O O11 0.377257 0.426929 0.121067
O O12 0.503770 0.159893 0.507160
O O13 0.578816 0.371116 0.456500
O O14 0.455399 0.378020 0.645041
O O15 0.337760 0.445012 0.840607
O O16 0.180879 0.999621 0.051168
#
# Coordination Sequence:
#
# PCOD8170972 Si02
#       8
#     4   4   4   4   4   4   4   4
#     4  11  21  39  65  88 128 168 210 262 324 377
#     4  10  22  40  59  90 126 159 211 260 308 379
#     4   9  21  39  60  91 124 163 209 266 315 374
#     4  10  22  39  60  92 123 164 210 261 317 378
#     4   9  20  38  59  88 121 160 207 258 314 378
#     4  11  20  36  66  86 123 164 207 256 317 379
#     4  10  21  37  61  90 124 161 202 260 317 362
#     4  10  21  38  62  87 123 167 206 257 314 373
#
# _framework density 21.113451000000001
#
# number of rings (size 3 to 8) (size 9 to 14) (size 15 to 20)
#    0.000    2.000    0.000    3.750    1.750    1.000 
#    0.000    0.000   24.750    0.000    0.000    0.000 
#    0.000    0.000    0.000    0.000    0.000    0.000 
#
# Total GULP energy -396555.096486 kJ/mol
# GULP energy per Si atom -12392.346765 kJ/mol
# Density = 2.106540 g / cm^3
# Si number density = 21.113451 Si / 1000 Ang^3
#
#
#
# Elastic Constant Matrix: (Units=GPa)
#
#
# Indices 1 2 3 4 5 6 
#
# 1 117.0390 45.3043 33.1706 0.0000 0.0000 0.0000
# 2 45.3043 54.1685 32.4673 0.0000 0.0000 0.0000
# 3 33.1706 32.4673 102.1616 0.0000 0.0000 0.0000
# 4 0.0000 0.0000 0.0000 30.0765 0.0000 0.0000
# 5 0.0000 0.0000 0.0000 0.0000 29.6321 0.0000
# 6 0.0000 0.0000 0.0000 0.0000 0.0000 25.4147
#
#
#
# Elastic Compliance Matrix: (Units=1/GPa)
#
#
# Indices 1 2 3 4 5 6 
#
# 1 0.012705 -0.010072 -0.000924 0.000000 0.000000 0.000000
# 2 -0.010072 0.030789 -0.006515 0.000000 0.000000 0.000000
# 3 -0.000924 -0.006515 0.012159 0.000000 0.000000 0.000000
# 4 0.000000 0.000000 0.000000 0.033249 0.000000 0.000000
# 5 0.000000 0.000000 0.000000 0.000000 0.033747 0.000000
# 6 0.000000 0.000000 0.000000 0.000000 0.000000 0.039347
#
#
# Mechanical properties :
#
#
# Convention : Reuss Voigt Hill
#
# Bulk Modulus (GPa) = 48.46973 55.02818 51.74895
# Shear Modulus (GPa) = 24.52247 27.85311 26.18779
#
# Velocity S-wave (km/s) = 3.41172 3.63604 3.52566
# Velocity P-wave (km/s) = 6.20697 6.61418 6.41380
#
# Compressibility (1/GPa) = 0.02063143
#
# Stress axis : x y z
#
# Youngs Moduli (GPa) = 78.71076 32.47886 82.24417
#
# Poissons Ratio (x) = 0.32712 0.07601
# Poissons Ratio (y) = 0.79275 0.53580
# Poissons Ratio (z) = 0.07275 0.21159
#
# Static dielectric constant tensor:
#      x y z
#    x 3.921820 0.000000 0.000000 
#    y 0.000000 3.700730 0.000000 
#    z 0.000000 0.000000 4.073060 
# 
# 
# High freq. dielectric constant tensor:
#      x y z
#    x 1.830020 0.000000 0.000000 
#    y 0.000000 1.801260 0.000000 
#    z 0.000000 0.000000 1.844440 
# 
# From -- ./inp_files/4374.got.cif
#   From: 2010.03.12/outbox.cif.g09.slc.cpg/sg33_3_cif.got.tgz:4374.got - 2010.04.14 01:49:19.
