data_PCOD8170671
_publ_section_title
;
Structure prediction by ZEFSAII (Michael W. Deem and Ramdas Pophale) SiO2 
 PCOD8170671
Probable space group: P N A 21
;
_chemical_formula_sum "Si O2"
_cell_formula_units_Z 28
_cell_length_a 5.255497
_cell_length_b 8.581367
_cell_length_c 32.063702
_cell_angle_alpha 90.000000
_cell_angle_beta 90.000000
_cell_angle_gamma 90.000000
_cell_volume 1446.052071
_symmetry_space_group_name_H-M "P N A 21"
_symmetry_group_IT_number 33
_symmetry_cell_setting 'orthorhombic'
loop_
_space_group_symop_operation_xyz
x,y,z
-x,-y,1/2+z
1/2-x,1/2+y,1/2+z
1/2+x,1/2-y,z
loop_
_atom_site_type_symbol
_atom_site_label
_atom_site_fract_x
_atom_site_fract_y
_atom_site_fract_z
Si Si1 0.233353 0.154745 0.111990
Si Si2 0.264461 0.564945 0.933436
Si Si3 0.741475 0.161693 0.564617
Si Si4 0.750203 0.151355 0.858743
Si Si5 0.759347 0.847502 0.708176
Si Si6 0.264418 0.901787 0.968090
Si Si7 0.736219 0.652291 0.262721
O O1 0.456725 0.276373 0.101716
O O2 0.250205 0.102112 0.159946
O O3 0.277533 0.010215 0.082160
O O4 0.260903 0.506710 0.885815
O O5 0.267367 0.752705 0.936703
O O6 0.514367 0.497190 0.957195
O O7 0.017196 0.498384 0.958186
O O8 0.498440 0.257649 0.581131
O O9 0.739938 0.159261 0.514844
O O10 0.491976 0.242186 0.869571
O O11 0.754078 0.099276 0.810747
O O12 0.523780 0.735891 0.719313
O O13 0.732304 0.001405 0.734920
O O14 0.468040 0.732378 0.252111
#
# Coordination Sequence:
#
# PCOD8170671 Si02
#       7
#     4   4   4   4   4   4   4
#     4  10  23  41  59  86 123 156 185 241 298 352
#     4  10  18  35  54  75 105 145 181 224 291 315
#     4  12  21  38  63  85 116 150 200 245 291 337
#     4  10  21  37  54  80 115 150 184 232 283 342
#     4  10  21  40  61  86 122 153 192 237 292 348
#     4  10  19  35  56  74 107 141 180 247 272 315
#     4  10  21  38  61  86 122 153 192 242 289 345
#
# _framework density 19.363064999999999
#
# number of rings (size 3 to 8) (size 9 to 14) (size 15 to 20)
#    0.000    1.714    2.857    2.571    0.000    1.143 
#    5.143    4.286    0.000    0.000    0.000    0.000 
#    0.000    0.000    0.000    0.000    0.000    0.000 
#
# Total GULP energy -347155.675004 kJ/mol
# GULP energy per Si atom -12398.416964 kJ/mol
# Density = 1.931899 g / cm^3
# Si number density = 19.363065 Si / 1000 Ang^3
#
#
#
# Elastic Constant Matrix: (Units=GPa)
#
#
# Indices 1 2 3 4 5 6 
#
# 1 150.9942 8.1544 20.9980 0.0000 0.0000 0.0000
# 2 8.1544 72.0456 53.3622 0.0000 0.0000 0.0000
# 3 20.9980 53.3622 66.0735 0.0000 0.0000 0.0000
# 4 0.0000 0.0000 0.0000 19.5851 0.0000 0.0000
# 5 0.0000 0.0000 0.0000 0.0000 15.3002 0.0000
# 6 0.0000 0.0000 0.0000 0.0000 0.0000 21.2274
#
#
#
# Elastic Compliance Matrix: (Units=1/GPa)
#
#
# Indices 1 2 3 4 5 6 
#
# 1 0.007060 0.002147 -0.003978 0.000000 0.000000 0.000000
# 2 0.002147 0.035196 -0.029107 0.000000 0.000000 0.000000
# 3 -0.003978 -0.029107 0.039906 0.000000 0.000000 0.000000
# 4 0.000000 0.000000 0.000000 0.051059 0.000000 0.000000
# 5 0.000000 0.000000 0.000000 0.000000 0.065358 0.000000
# 6 0.000000 0.000000 0.000000 0.000000 0.000000 0.047109
#
#
# Mechanical properties :
#
#
# Convention : Reuss Voigt Hill
#
# Bulk Modulus (GPa) = 49.29369 50.46027 49.87698
# Shear Modulus (GPa) = 15.90697 24.99579 20.45138
#
# Velocity S-wave (km/s) = 2.86931 3.59681 3.25346
# Velocity P-wave (km/s) = 6.04070 6.58529 6.31887
#
# Compressibility (1/GPa) = 0.02028657
#
# Stress axis : x y z
#
# Youngs Moduli (GPa) = 141.64362 28.41217 25.05860
#
# Poissons Ratio (x) = -0.06100 0.09967
# Poissons Ratio (y) = -0.30412 0.72939
# Poissons Ratio (z) = 0.56341 0.82701
#
# Static dielectric constant tensor:
#      x y z
#    x 4.699460 0.000000 0.000000 
#    y 0.000000 3.173720 0.000000 
#    z 0.000000 0.000000 3.454350 
# 
# 
# High freq. dielectric constant tensor:
#      x y z
#    x 1.793260 0.000000 0.000000 
#    y 0.000000 1.725580 0.000000 
#    z 0.000000 0.000000 1.744850 
# 
# From -- ./inp_files/9324.got.cif
#   From: 2010.03.12/outbox.cif.g09.slc.cpg/sg33_5_cif.got.tgz:9324.got - 2010.04.14 01:49:19.
