data_PCOD8170336
_publ_section_title
;
Structure prediction by ZEFSAII (Michael W. Deem and Ramdas Pophale) SiO2 
 PCOD8170336
Probable space group: P M N 21
;
_chemical_formula_sum "Si O2"
_cell_formula_units_Z 20
_cell_length_a 9.973854
_cell_length_b 11.603132
_cell_length_c 7.381577
_cell_angle_alpha 90.000000
_cell_angle_beta 90.000000
_cell_angle_gamma 90.000000
_cell_volume 854.254733
_symmetry_space_group_name_H-M "P M N 21"
_symmetry_group_IT_number 31
_symmetry_cell_setting 'orthorhombic'
loop_
_space_group_symop_operation_xyz
x,y,z
1/2-x,-y,1/2+z
-x,y,z
1/2+x,-y,1/2+z
loop_
_atom_site_type_symbol
_atom_site_label
_atom_site_fract_x
_atom_site_fract_y
_atom_site_fract_z
Si Si1 0.355145 0.857838 0.809280
Si Si2 0.853151 0.582081 0.056361
Si Si3 0.151150 0.027685 0.928721
Si Si4 0.781685 0.647009 0.672139
Si Si5 0.348730 0.222445 0.823059
O O1 0.500000 0.869027 0.910132
O O2 0.359884 0.938390 0.634788
O O3 0.339759 0.724777 0.750257
O O4 0.228402 0.903850 0.925899
O O5 0.764868 0.468609 0.073257
O O6 0.792451 0.686749 0.174971
O O7 0.000000 0.555494 0.136010
O O8 0.870440 0.614819 0.845684
O O9 0.241403 0.119617 0.819174
O O10 0.000000 0.017290 0.844415
O O11 0.860984 0.720512 0.522589
O O12 0.500000 0.179002 0.772936
#
# Coordination Sequence:
#
# PCOD8170336 Si02
#       5
#     4   4   4   4   4
#     4  10  23  42  65  94 130 168 211 266 322 384
#     4  11  23  40  64  94 131 171 217 266 319 386
#     4  10  23  42  65  93 127 166 213 266 323 385
#     4  11  22  42  65  97 129 174 215 268 320 383
#     4  10  22  42  65  94 131 171 216 268 326 382
#
# _framework density 23.412220000000001
#
# number of rings (size 3 to 8) (size 9 to 14) (size 15 to 20)
#    0.000    1.600    2.000    1.800    2.800    5.600 
#    0.000    1.000    0.000    0.000    0.000    0.000 
#    0.000    0.000    0.000    0.000    0.000    0.000 
#
# Total GULP energy -247889.633450 kJ/mol
# GULP energy per Si atom -12394.481672 kJ/mol
# Density = 2.335893 g / cm^3
# Si number density = 23.412220 Si / 1000 Ang^3
#
#
#
# Elastic Constant Matrix: (Units=GPa)
#
#
# Indices 1 2 3 4 5 6 
#
# 1 148.4561 37.0227 -6.7482 0.0000 0.0000 0.0000
# 2 37.0227 93.5824 8.8653 0.0000 0.0000 0.0000
# 3 -6.7482 8.8653 61.8216 0.0000 0.0000 0.0000
# 4 0.0000 0.0000 0.0000 38.4735 0.0000 0.0000
# 5 0.0000 0.0000 0.0000 0.0000 20.2703 0.0000
# 6 0.0000 0.0000 0.0000 0.0000 0.0000 10.2356
#
#
#
# Elastic Compliance Matrix: (Units=1/GPa)
#
#
# Indices 1 2 3 4 5 6 
#
# 1 0.007571 -0.003116 0.001273 0.000000 0.000000 0.000000
# 2 -0.003116 0.012115 -0.002077 0.000000 0.000000 0.000000
# 3 0.001273 -0.002077 0.016612 0.000000 0.000000 0.000000
# 4 0.000000 0.000000 0.000000 0.025992 0.000000 0.000000
# 5 0.000000 0.000000 0.000000 0.000000 0.049333 0.000000
# 6 0.000000 0.000000 0.000000 0.000000 0.000000 0.097698
#
#
# Mechanical properties :
#
#
# Convention : Reuss Voigt Hill
#
# Bulk Modulus (GPa) = 35.13881 42.45997 38.79939
# Shear Modulus (GPa) = 22.06060 31.44389 26.75225
#
# Velocity S-wave (km/s) = 3.07297 3.66875 3.38400
# Velocity P-wave (km/s) = 5.25663 6.01011 5.64596
#
# Compressibility (1/GPa) = 0.02845856
#
# Stress axis : x y z
#
# Youngs Moduli (GPa) = 132.08464 82.54075 60.19577
#
# Poissons Ratio (x) = 0.25718 -0.07664
# Poissons Ratio (y) = 0.41155 0.12505
# Poissons Ratio (z) = -0.16817 0.17147
#
# Static dielectric constant tensor:
#      x y z
#    x 4.300680 0.000000 0.000000 
#    y 0.000000 4.255820 0.000000 
#    z 0.000000 0.000000 4.092020 
# 
# 
# High freq. dielectric constant tensor:
#      x y z
#    x 1.916260 0.000000 0.000000 
#    y 0.000000 1.932700 0.000000 
#    z 0.000000 0.000000 1.924780 
# 
# From -- ./inp_files/1588.got.cif
#   From: 2010.03.12/outbox.cif.g09.slc.cpg/sg31_1_cif.got.tgz:1588.got - 2010.04.14 01:42:59.
