data_PCOD8170464
_publ_section_title
;
Structure prediction by ZEFSAII (Michael W. Deem and Ramdas Pophale) SiO2 
 PCOD8170464
Probable space group: P B A 2
;
_chemical_formula_sum "Si O2"
_cell_formula_units_Z 32
_cell_length_a 14.467300
_cell_length_b 9.507391
_cell_length_c 10.877572
_cell_angle_alpha 90.000000
_cell_angle_beta 90.000000
_cell_angle_gamma 90.000000
_cell_volume 1496.169540
_symmetry_space_group_name_H-M "P B A 2"
_symmetry_group_IT_number 32
_symmetry_cell_setting 'orthorhombic'
loop_
_space_group_symop_operation_xyz
x,y,z
-x,-y,z
1/2-x,1/2+y,z
1/2+x,1/2-y,z
loop_
_atom_site_type_symbol
_atom_site_label
_atom_site_fract_x
_atom_site_fract_y
_atom_site_fract_z
Si Si1 0.812897 0.919308 0.347590
Si Si2 0.820789 0.217863 0.234647
Si Si3 0.305765 0.257495 0.955697
Si Si4 0.510532 0.159026 0.967855
Si Si5 0.906576 0.913228 0.600816
Si Si6 0.264196 0.511572 0.797188
Si Si7 0.476238 0.658226 0.184856
Si Si8 0.580850 0.110573 0.706409
O O1 0.721102 0.825939 0.333216
O O2 0.835876 0.941438 0.489634
O O3 0.900574 0.837687 0.290770
O O4 0.792468 0.062513 0.275964
O O5 0.931584 0.233864 0.235881
O O6 0.779297 0.254048 0.099684
O O7 0.413199 0.228083 0.937347
O O8 0.281258 0.412892 0.913307
O O9 0.251867 0.159993 0.861011
O O10 0.571029 0.163078 0.845932
O O11 0.500000 0.000000 0.017287
O O12 0.562727 0.253100 0.069580
O O13 0.857998 0.978273 0.719763
O O14 0.924152 0.745216 0.615921
O O15 0.000000 0.000000 0.575745
O O16 0.180646 0.466095 0.705212
O O17 0.500000 0.500000 0.141561
O O18 0.500000 0.000000 0.670010
#
# Coordination Sequence:
#
# PCOD8170464 Si02
#       8
#     4   4   4   4   4   4   4   4
#     4  11  25  46  67  96 133 183 232 286 333 411
#     4  10  23  42  68  99 135 170 226 283 344 409
#     4  11  22  40  66 103 135 176 216 285 350 423
#     4  10  20  37  65  95 136 166 213 281 343 415
#     4  12  28  46  71  95 135 194 237 287 339 412
#     4  12  24  42  67 100 138 175 229 275 353 411
#     4   9  21  41  64  93 129 176 217 275 339 414
#     4  11  24  44  66 102 137 177 222 291 340 415
#
# _framework density 21.38795
#
# number of rings (size 3 to 8) (size 9 to 14) (size 15 to 20)
#    0.000    1.250    3.750    2.625    3.500    5.500 
#    2.250    0.625    0.000    0.000    0.000    0.000 
#    0.000    0.000    0.000    0.000    0.000    0.000 
#
# Total GULP energy -396854.648773 kJ/mol
# GULP energy per Si atom -12401.707774 kJ/mol
# Density = 2.133927 g / cm^3
# Si number density = 21.387950 Si / 1000 Ang^3
#
#
#
# Elastic Constant Matrix: (Units=GPa)
#
#
# Indices 1 2 3 4 5 6 
#
# 1 70.7596 26.8707 11.4588 0.0000 0.0000 0.0000
# 2 26.8707 80.7773 29.6542 0.0000 0.0000 0.0000
# 3 11.4588 29.6542 83.9032 0.0000 0.0000 0.0000
# 4 0.0000 0.0000 0.0000 29.4091 0.0000 0.0000
# 5 0.0000 0.0000 0.0000 0.0000 42.0108 0.0000
# 6 0.0000 0.0000 0.0000 0.0000 0.0000 34.5708
#
#
#
# Elastic Compliance Matrix: (Units=1/GPa)
#
#
# Indices 1 2 3 4 5 6 
#
# 1 0.016185 -0.005254 -0.000353 0.000000 0.000000 0.000000
# 2 -0.005254 0.015931 -0.004913 0.000000 0.000000 0.000000
# 3 -0.000353 -0.004913 0.013703 0.000000 0.000000 0.000000
# 4 0.000000 0.000000 0.000000 0.034003 0.000000 0.000000
# 5 0.000000 0.000000 0.000000 0.000000 0.023803 0.000000
# 6 0.000000 0.000000 0.000000 0.000000 0.000000 0.028926
#
#
# Mechanical properties :
#
#
# Convention : Reuss Voigt Hill
#
# Bulk Modulus (GPa) = 40.35839 41.26749 40.81294
# Shear Modulus (GPa) = 30.89236 32.36190 31.62713
#
# Velocity S-wave (km/s) = 3.80462 3.89407 3.84961
# Velocity P-wave (km/s) = 6.18149 6.28927 6.23562
#
# Compressibility (1/GPa) = 0.02477799
#
# Stress axis : x y z
#
# Youngs Moduli (GPa) = 61.78619 62.77015 72.97572
#
# Poissons Ratio (x) = 0.32981 0.02579
# Poissons Ratio (y) = 0.32464 0.35853
# Poissons Ratio (z) = 0.02183 0.30839
#
# Static dielectric constant tensor:
#      x y z
#    x 3.919040 0.000000 0.000000 
#    y 0.000000 3.967580 0.000000 
#    z 0.000000 0.000000 3.770780 
# 
# 
# High freq. dielectric constant tensor:
#      x y z
#    x 1.846780 0.000000 0.000000 
#    y 0.000000 1.845170 0.000000 
#    z 0.000000 0.000000 1.825560 
# 
# From -- ./inp_files/3965.got.cif
#   From: 2010.03.12/outbox.cif.g09.slc.cpg/sg32_2_cif.got.tgz:3965.got - 2010.04.14 01:46:39.
