data_PCOD8170324
_publ_section_title
;
Structure prediction by ZEFSAII (Michael W. Deem and Ramdas Pophale) SiO2 
 PCOD8170324
Probable space group: P M N 21
;
_chemical_formula_sum "Si O2"
_cell_formula_units_Z 32
_cell_length_a 14.907302
_cell_length_b 9.370849
_cell_length_c 11.305566
_cell_angle_alpha 90.000000
_cell_angle_beta 90.000000
_cell_angle_gamma 90.000000
_cell_volume 1579.320596
_symmetry_space_group_name_H-M "P M N 21"
_symmetry_group_IT_number 31
_symmetry_cell_setting 'orthorhombic'
loop_
_space_group_symop_operation_xyz
x,y,z
1/2-x,-y,1/2+z
-x,y,z
1/2+x,-y,1/2+z
loop_
_atom_site_type_symbol
_atom_site_label
_atom_site_fract_x
_atom_site_fract_y
_atom_site_fract_z
Si Si1 0.334844 0.881144 0.373570
Si Si2 0.320683 0.332427 0.846668
Si Si3 0.100902 0.036267 0.623874
Si Si4 0.605512 0.294528 0.100483
Si Si5 0.735726 0.633071 0.756237
Si Si6 0.900211 0.172035 0.124504
Si Si7 0.601140 0.144471 0.654287
Si Si8 0.248550 0.841506 0.968508
O O1 0.275539 0.741685 0.353722
O O2 0.394588 0.917225 0.260179
O O3 0.399778 0.851307 0.483471
O O4 0.269811 0.014482 0.397065
O O5 0.305393 0.478685 0.777523
O O6 0.389339 0.235311 0.772901
O O7 0.366019 0.357540 0.973829
O O8 0.162884 0.139005 0.546861
O O9 0.000000 0.056367 0.577933
O O10 0.130919 0.872433 0.607671
O O11 0.500000 0.321459 0.124920
O O12 0.664006 0.374499 0.201201
O O13 0.671529 0.711236 0.662487
O O14 0.735820 0.711487 0.881177
O O15 0.000000 0.221435 0.162111
O O16 0.875213 0.020436 0.185249
O O17 0.500000 0.155627 0.605939
O O18 0.666119 0.202949 0.552463
#
# Coordination Sequence:
#
# PCOD8170324 Si02
#       8
#     4   4   4   4   4   4   4   4
#     4  11  20  41  66  93 128 165 216 269 325 377
#     4  12  24  40  67  90 130 176 215 261 321 389
#     4  11  22  39  70 103 128 166 219 275 328 380
#     4  11  24  44  67  96 130 170 217 272 329 388
#     4  12  26  42  64  94 132 178 212 256 326 387
#     4  10  22  41  67  95 129 165 212 271 321 375
#     4  10  22  40  67  97 122 161 215 267 319 378
#     4  11  22  39  64  94 131 165 210 269 319 384
#
# _framework density 20.261877999999999
#
# number of rings (size 3 to 8) (size 9 to 14) (size 15 to 20)
#    0.000    1.000    5.000    2.250    1.750    2.500 
#    0.000    2.500    0.000    0.000    0.000    0.000 
#    0.000    0.000    0.000    0.000    0.000    0.000 
#
# Total GULP energy -396957.971543 kJ/mol
# GULP energy per Si atom -12404.936611 kJ/mol
# Density = 2.021576 g / cm^3
# Si number density = 20.261878 Si / 1000 Ang^3
#
#
#
# Elastic Constant Matrix: (Units=GPa)
#
#
# Indices 1 2 3 4 5 6 
#
# 1 109.5975 39.0682 43.2455 0.0000 0.0000 0.0000
# 2 39.0682 90.7591 40.4221 0.0000 0.0000 0.0000
# 3 43.2455 40.4221 102.3792 0.0000 0.0000 0.0000
# 4 0.0000 0.0000 0.0000 25.0412 0.0000 0.0000
# 5 0.0000 0.0000 0.0000 0.0000 18.5423 0.0000
# 6 0.0000 0.0000 0.0000 0.0000 0.0000 16.3619
#
#
#
# Elastic Compliance Matrix: (Units=1/GPa)
#
#
# Indices 1 2 3 4 5 6 
#
# 1 0.011784 -0.003465 -0.003609 0.000000 0.000000 0.000000
# 2 -0.003465 0.014388 -0.004217 0.000000 0.000000 0.000000
# 3 -0.003609 -0.004217 0.012957 0.000000 0.000000 0.000000
# 4 0.000000 0.000000 0.000000 0.039934 0.000000 0.000000
# 5 0.000000 0.000000 0.000000 0.000000 0.053931 0.000000
# 6 0.000000 0.000000 0.000000 0.000000 0.000000 0.061117
#
#
# Mechanical properties :
#
#
# Convention : Reuss Voigt Hill
#
# Bulk Modulus (GPa) = 60.43781 60.91193 60.67487
# Shear Modulus (GPa) = 22.50130 23.98909 23.24520
#
# Velocity S-wave (km/s) = 3.33607 3.44459 3.39076
# Velocity P-wave (km/s) = 6.68821 6.77849 6.73350
#
# Compressibility (1/GPa) = 0.01654593
#
# Stress axis : x y z
#
# Youngs Moduli (GPa) = 84.86346 69.50292 77.17642
#
# Poissons Ratio (x) = 0.24081 0.27857
# Poissons Ratio (y) = 0.29404 0.32547
# Poissons Ratio (z) = 0.30631 0.29311
#
# Static dielectric constant tensor:
#      x y z
#    x 3.668560 0.000000 0.000000 
#    y 0.000000 3.508960 0.000000 
#    z 0.000000 0.000000 3.733240 
# 
# 
# High freq. dielectric constant tensor:
#      x y z
#    x 1.799520 0.000000 0.000000 
#    y 0.000000 1.769930 0.000000 
#    z 0.000000 0.000000 1.799630 
# 
# From -- ./inp_files/4263.got.cif
#   From: 2010.03.12/outbox.cif.g09.slc.cpg/sg31_3_cif.got.tgz:4263.got - 2010.04.14 01:42:59.
