data_PCOD8170288
_publ_section_title
;
Structure prediction by ZEFSAII (Michael W. Deem and Ramdas Pophale) SiO2 
 PCOD8170288
Probable space group: P M N 21
;
_chemical_formula_sum "Si O2"
_cell_formula_units_Z 32
_cell_length_a 14.625008
_cell_length_b 11.322691
_cell_length_c 8.918814
_cell_angle_alpha 90.000000
_cell_angle_beta 90.000000
_cell_angle_gamma 90.000000
_cell_volume 1476.906067
_symmetry_space_group_name_H-M "P M N 21"
_symmetry_group_IT_number 31
_symmetry_cell_setting 'orthorhombic'
loop_
_space_group_symop_operation_xyz
x,y,z
1/2-x,-y,1/2+z
-x,y,z
1/2+x,-y,1/2+z
loop_
_atom_site_type_symbol
_atom_site_label
_atom_site_fract_x
_atom_site_fract_y
_atom_site_fract_z
Si Si1 0.155082 0.645139 0.720120
Si Si2 0.893487 0.065478 0.498978
Si Si3 0.102091 0.672179 0.053318
Si Si4 0.272593 0.156738 0.008614
Si Si5 0.724690 0.767325 0.187780
Si Si6 0.600921 0.827074 0.680703
Si Si7 0.902856 0.427739 0.560195
Si Si8 0.145011 0.433039 0.222710
O O1 0.107223 0.678128 0.874636
O O2 0.172457 0.762803 0.624767
O O3 0.090279 0.557869 0.629349
O O4 0.247745 0.574540 0.750558
O O5 0.838099 0.122849 0.637059
O O6 0.885057 0.153568 0.358404
O O7 0.000000 0.042545 0.540973
O O8 0.842064 0.944715 0.456636
O O9 0.000000 0.710744 0.102111
O O10 0.173599 0.768059 0.117527
O O11 0.121140 0.540181 0.112775
O O12 0.180636 0.105320 0.089071
O O13 0.237296 0.231098 0.866154
O O14 0.678152 0.646598 0.133449
O O15 0.500000 0.872843 0.631577
O O16 0.608166 0.687442 0.647164
O O17 0.898459 0.450303 0.384018
O O18 0.000000 0.362791 0.593255
#
# Coordination Sequence:
#
# PCOD8170288 Si02
#       8
#     4   4   4   4   4   4   4   4
#     4  11  23  42  62  96 140 183 219 281 341 408
#     4  11  24  47  73  97 131 182 241 294 346 409
#     4  12  25  41  66  99 139 183 226 274 342 420
#     4  11  26  43  70  96 139 183 231 284 350 413
#     4  12  24  43  68 101 137 174 228 283 353 410
#     4  10  21  40  66  97 131 173 227 284 344 408
#     4  12  23  38  65  97 132 173 223 279 345 415
#     4  11  20  40  64  93 135 179 223 277 343 407
#
# _framework density 21.666913999999998
#
# number of rings (size 3 to 8) (size 9 to 14) (size 15 to 20)
#    0.000    0.750    3.750    4.125    3.500    2.500 
#    0.000    0.625    0.000    0.000    0.000    0.000 
#    0.000    0.000    0.000    0.000    0.000    0.000 
#
# Total GULP energy -396804.371283 kJ/mol
# GULP energy per Si atom -12400.136603 kJ/mol
# Density = 2.161760 g / cm^3
# Si number density = 21.666914 Si / 1000 Ang^3
#
#
#
# Elastic Constant Matrix: (Units=GPa)
#
#
# Indices 1 2 3 4 5 6 
#
# 1 153.7681 28.7401 44.2449 0.0000 0.0000 0.0000
# 2 28.7401 63.6671 37.4363 0.0000 0.0000 0.0000
# 3 44.2449 37.4363 88.7018 0.0000 0.0000 0.0000
# 4 0.0000 0.0000 0.0000 26.8768 0.0000 0.0000
# 5 0.0000 0.0000 0.0000 0.0000 14.6383 0.0000
# 6 0.0000 0.0000 0.0000 0.0000 0.0000 14.1391
#
#
#
# Elastic Compliance Matrix: (Units=1/GPa)
#
#
# Indices 1 2 3 4 5 6 
#
# 1 0.007717 -0.001623 -0.003164 0.000000 0.000000 0.000000
# 2 -0.001623 0.021232 -0.008152 0.000000 0.000000 0.000000
# 3 -0.003164 -0.008152 0.016292 0.000000 0.000000 0.000000
# 4 0.000000 0.000000 0.000000 0.037207 0.000000 0.000000
# 5 0.000000 0.000000 0.000000 0.000000 0.068314 0.000000
# 6 0.000000 0.000000 0.000000 0.000000 0.000000 0.070726
#
#
# Mechanical properties :
#
#
# Convention : Reuss Voigt Hill
#
# Bulk Modulus (GPa) = 51.64144 58.55329 55.09737
# Shear Modulus (GPa) = 19.69891 24.17855 21.93873
#
# Velocity S-wave (km/s) = 3.01852 3.34416 3.18550
# Velocity P-wave (km/s) = 6.00288 6.48029 6.24615
#
# Compressibility (1/GPa) = 0.01936429
#
# Stress axis : x y z
#
# Youngs Moduli (GPa) = 129.58141 47.09771 61.37798
#
# Poissons Ratio (x) = 0.07644 0.19422
# Poissons Ratio (y) = 0.21030 0.50033
# Poissons Ratio (z) = 0.41005 0.38392
#
# Static dielectric constant tensor:
#      x y z
#    x 4.265840 0.000000 0.000000 
#    y 0.000000 3.644110 0.000000 
#    z 0.000000 0.000000 3.808220 
# 
# 
# High freq. dielectric constant tensor:
#      x y z
#    x 1.872500 0.000000 0.000000 
#    y 0.000000 1.830730 0.000000 
#    z 0.000000 0.000000 1.848230 
# 
# From -- ./inp_files/2607.got.cif
#   From: 2010.03.12/outbox.cif.g09.slc.cpg/sg31_2_cif.got.tgz:2607.got - 2010.04.14 01:42:59.
