data_PCOD8170115
_publ_section_title
;
Structure prediction by ZEFSAII (Michael W. Deem and Ramdas Pophale) SiO2 
 PCOD8170115
Probable space group: P M N 21
;
_chemical_formula_sum "Si O2"
_cell_formula_units_Z 32
_cell_length_a 9.134705
_cell_length_b 14.247045
_cell_length_c 12.598076
_cell_angle_alpha 90.000000
_cell_angle_beta 90.000000
_cell_angle_gamma 90.000000
_cell_volume 1639.545776
_symmetry_space_group_name_H-M "P M N 21"
_symmetry_group_IT_number 31
_symmetry_cell_setting 'orthorhombic'
loop_
_space_group_symop_operation_xyz
x,y,z
1/2-x,-y,1/2+z
-x,y,z
1/2+x,-y,1/2+z
loop_
_atom_site_type_symbol
_atom_site_label
_atom_site_fract_x
_atom_site_fract_y
_atom_site_fract_z
Si Si1 0.663139 0.692144 0.494730
Si Si2 0.339850 0.823474 0.291463
Si Si3 0.829008 0.159225 0.334459
Si Si4 0.325981 0.654818 0.151938
Si Si5 0.667418 0.039106 0.918210
Si Si6 0.327184 0.337792 0.432452
Si Si7 0.671800 0.535534 0.347727
Si Si8 0.826636 0.840578 0.616721
O O1 0.500000 0.680179 0.544991
O O2 0.652184 0.759471 0.394433
O O3 0.730950 0.593675 0.450873
O O4 0.772589 0.736825 0.581244
O O5 0.500000 0.863189 0.263087
O O6 0.284166 0.759077 0.194122
O O7 0.240054 0.913260 0.314780
O O8 0.753156 0.248570 0.385375
O O9 0.753858 0.131449 0.224336
O O10 0.000000 0.179712 0.316394
O O11 0.805677 0.072362 0.415320
O O12 0.500000 0.647464 0.130256
O O13 0.269743 0.576440 0.236139
O O14 0.234041 0.636578 0.047170
O O15 0.500000 0.066042 0.906675
O O16 0.723278 0.081336 0.030172
O O17 0.500000 0.319042 0.438072
O O18 0.289705 0.426023 0.356502
O O19 0.500000 0.554999 0.349819
O O20 0.000000 0.837375 0.635013
#
# Coordination Sequence:
#
# PCOD8170115 Si02
#       8
#     4   4   4   4   4   4   4   4
#     4   8  14  30  55  81 107 139 176 217 264 321
#     4   8  15  29  54  82 106 135 176 219 264 319
#     4  11  24  41  56  76 109 149 185 218 263 327
#     4   9  18  36  58  80 109 147 181 218 272 330
#     4   9  20  37  57  80 108 140 181 228 273 321
#     4  11  23  38  55  81 113 144 181 228 270 312
#     4   8  17  35  58  81 109 144 186 227 267 319
#     4  10  20  36  57  83 111 140 176 227 279 319
#
# _framework density 19.517600999999999
#
# number of rings (size 3 to 8) (size 9 to 14) (size 15 to 20)
#    0.000    2.750    0.000    2.625    0.000    4.000 
#    0.000   10.625    0.000    0.000    0.000    0.000 
#    0.000    0.000    0.000    0.000    0.000    0.000 
#
# Total GULP energy -396647.765389 kJ/mol
# GULP energy per Si atom -12395.242668 kJ/mol
# Density = 1.947318 g / cm^3
# Si number density = 19.517601 Si / 1000 Ang^3
#
#
#
# Elastic Constant Matrix: (Units=GPa)
#
#
# Indices 1 2 3 4 5 6 
#
# 1 84.9288 54.0083 47.6322 0.0000 0.0000 0.0000
# 2 54.0083 123.3302 51.0942 0.0000 0.0000 0.0000
# 3 47.6322 51.0942 101.8837 0.0000 0.0000 0.0000
# 4 0.0000 0.0000 0.0000 26.8184 0.0000 0.0000
# 5 0.0000 0.0000 0.0000 0.0000 30.6159 0.0000
# 6 0.0000 0.0000 0.0000 0.0000 0.0000 23.2187
#
#
#
# Elastic Compliance Matrix: (Units=1/GPa)
#
#
# Indices 1 2 3 4 5 6 
#
# 1 0.018736 -0.005776 -0.005863 0.000000 0.000000 0.000000
# 2 -0.005776 0.012015 -0.003325 0.000000 0.000000 0.000000
# 3 -0.005863 -0.003325 0.014224 0.000000 0.000000 0.000000
# 4 0.000000 0.000000 0.000000 0.037288 0.000000 0.000000
# 5 0.000000 0.000000 0.000000 0.000000 0.032663 0.000000
# 6 0.000000 0.000000 0.000000 0.000000 0.000000 0.043069
#
#
# Mechanical properties :
#
#
# Convention : Reuss Voigt Hill
#
# Bulk Modulus (GPa) = 66.45865 68.40135 67.43000
# Shear Modulus (GPa) = 25.91519 26.62447 26.26983
#
# Velocity S-wave (km/s) = 3.64783 3.69741 3.67271
# Velocity P-wave (km/s) = 7.20186 7.30410 7.25316
#
# Compressibility (1/GPa) = 0.01504695
#
# Stress axis : x y z
#
# Youngs Moduli (GPa) = 53.37433 83.22742 70.30552
#
# Poissons Ratio (x) = 0.48070 0.41218
# Poissons Ratio (y) = 0.30828 0.23379
# Poissons Ratio (z) = 0.31292 0.27676
#
# Static dielectric constant tensor:
#      x y z
#    x 3.527110 0.000000 0.000000 
#    y 0.000000 3.715470 0.000000 
#    z 0.000000 0.000000 3.554500 
# 
# 
# High freq. dielectric constant tensor:
#      x y z
#    x 1.746170 0.000000 0.000000 
#    y 0.000000 1.761080 0.000000 
#    z 0.000000 0.000000 1.750500 
# 
# From -- ./inp_files/3649.got.cif
#   From: 2010.03.12/outbox.cif.g09.slc.cpg/sg31_2_cif.got.tgz:3649.got - 2010.04.14 01:42:59.
