data_PCOD8170516
_publ_section_title
;
Structure prediction by ZEFSAII (Michael W. Deem and Ramdas Pophale) SiO2 
 PCOD8170516
Probable space group: P B A 2
;
_chemical_formula_sum "Si O2"
_cell_formula_units_Z 32
_cell_length_a 17.478050
_cell_length_b 13.270111
_cell_length_c 6.587978
_cell_angle_alpha 90.000000
_cell_angle_beta 90.000000
_cell_angle_gamma 90.000000
_cell_volume 1527.987049
_symmetry_space_group_name_H-M "P B A 2"
_symmetry_group_IT_number 32
_symmetry_cell_setting 'orthorhombic'
loop_
_space_group_symop_operation_xyz
x,y,z
-x,-y,z
1/2-x,1/2+y,z
1/2+x,1/2-y,z
loop_
_atom_site_type_symbol
_atom_site_label
_atom_site_fract_x
_atom_site_fract_y
_atom_site_fract_z
Si Si1 0.547273 0.697674 0.132450
Si Si2 0.207879 0.517299 0.490449
Si Si3 0.628391 0.897575 0.107203
Si Si4 0.950110 0.908282 0.443199
Si Si5 0.922609 0.551126 0.780960
Si Si6 0.420454 0.714842 0.825992
Si Si7 0.168342 0.966045 0.193187
Si Si8 0.227938 0.112881 0.873799
O O1 0.560564 0.817128 0.125207
O O2 0.505929 0.673054 0.342092
O O3 0.626695 0.636250 0.125175
O O4 0.490405 0.665332 0.950441
O O5 0.159894 0.583240 0.331621
O O6 0.266187 0.444996 0.364343
O O7 0.147417 0.454973 0.623290
O O8 0.258578 0.589240 0.635739
O O9 0.693432 0.845566 0.968316
O O10 0.597781 0.998776 0.996555
O O11 0.909652 0.847265 0.619908
O O12 0.890350 0.951072 0.279942
O O13 0.000000 0.000000 0.533809
O O14 0.000000 0.500000 0.692200
O O15 0.938593 0.668187 0.809359
O O16 0.336526 0.697020 0.922355
O O17 0.206982 0.008966 0.989661
#
# Coordination Sequence:
#
# PCOD8170516 Si02
#       8
#     4   4   4   4   4   4   4   4
#     4  11  24  39  67  97 131 170 212 269 334 388
#     4  10  23  43  66  91 134 175 211 285 323 391
#     4  10  24  44  63  92 132 172 221 270 322 390
#     4  10  23  38  64 103 131 165 212 270 338 400
#     4  11  25  44  64  97 131 175 232 271 328 393
#     4  12  24  40  68  96 131 176 218 273 330 396
#     4  10  21  42  63  97 133 164 211 269 339 398
#     4  10  22  40  66  93 132 167 220 268 332 395
#
# _framework density 20.942584
#
# number of rings (size 3 to 8) (size 9 to 14) (size 15 to 20)
#    0.000    1.500    3.750    0.000    3.500    5.500 
#    0.000    0.000    0.000    0.000    0.000    0.000 
#    0.000    0.000    0.000    0.000    0.000    0.000 
#
# Total GULP energy -396726.843654 kJ/mol
# GULP energy per Si atom -12397.713864 kJ/mol
# Density = 2.089492 g / cm^3
# Si number density = 20.942584 Si / 1000 Ang^3
#
#
#
# Elastic Constant Matrix: (Units=GPa)
#
#
# Indices 1 2 3 4 5 6 
#
# 1 109.7388 34.1019 29.1216 0.0000 0.0000 0.0000
# 2 34.1019 93.7097 40.1978 0.0000 0.0000 0.0000
# 3 29.1216 40.1978 95.3957 0.0000 0.0000 0.0000
# 4 0.0000 0.0000 0.0000 22.1029 0.0000 0.0000
# 5 0.0000 0.0000 0.0000 0.0000 33.1654 0.0000
# 6 0.0000 0.0000 0.0000 0.0000 0.0000 37.6174
#
#
#
# Elastic Compliance Matrix: (Units=1/GPa)
#
#
# Indices 1 2 3 4 5 6 
#
# 1 0.010566 -0.003005 -0.001959 0.000000 0.000000 0.000000
# 2 -0.003005 0.013880 -0.004932 0.000000 0.000000 0.000000
# 3 -0.001959 -0.004932 0.013159 0.000000 0.000000 0.000000
# 4 0.000000 0.000000 0.000000 0.045243 0.000000 0.000000
# 5 0.000000 0.000000 0.000000 0.000000 0.030152 0.000000
# 6 0.000000 0.000000 0.000000 0.000000 0.000000 0.026583
#
#
# Mechanical properties :
#
#
# Convention : Reuss Voigt Hill
#
# Bulk Modulus (GPa) = 56.13597 56.18743 56.16170
# Shear Modulus (GPa) = 30.24565 31.60531 30.92548
#
# Velocity S-wave (km/s) = 3.80441 3.88898 3.84693
# Velocity P-wave (km/s) = 6.79418 6.85952 6.82693
#
# Compressibility (1/GPa) = 0.01781389
#
# Stress axis : x y z
#
# Youngs Moduli (GPa) = 94.64105 72.04547 75.99420
#
# Poissons Ratio (x) = 0.21647 0.14891
# Poissons Ratio (y) = 0.28436 0.37477
# Poissons Ratio (z) = 0.18545 0.35530
#
# Static dielectric constant tensor:
#      x y z
#    x 4.098290 0.000000 0.000000 
#    y 0.000000 3.387580 0.000000 
#    z 0.000000 0.000000 3.771670 
# 
# 
# High freq. dielectric constant tensor:
#      x y z
#    x 1.845000 0.000000 0.000000 
#    y 0.000000 1.792300 0.000000 
#    z 0.000000 0.000000 1.820060 
# 
# From -- ./inp_files/1487.got.cif
#   From: 2010.03.12/outbox.cif.g09.slc.cpg/sg32_1_cif.got.tgz:1487.got - 2010.04.14 01:46:39.
