data_PCOD8170741
_publ_section_title
;
Structure prediction by ZEFSAII (Michael W. Deem and Ramdas Pophale) SiO2 
 PCOD8170741
Probable space group: P N A 21
;
_chemical_formula_sum "Si O2"
_cell_formula_units_Z 32
_cell_length_a 15.333255
_cell_length_b 8.129678
_cell_length_c 12.678041
_cell_angle_alpha 90.000000
_cell_angle_beta 90.000000
_cell_angle_gamma 90.000000
_cell_volume 1580.373922
_symmetry_space_group_name_H-M "P N A 21"
_symmetry_group_IT_number 33
_symmetry_cell_setting 'orthorhombic'
loop_
_space_group_symop_operation_xyz
x,y,z
-x,-y,1/2+z
1/2-x,1/2+y,1/2+z
1/2+x,1/2-y,z
loop_
_atom_site_type_symbol
_atom_site_label
_atom_site_fract_x
_atom_site_fract_y
_atom_site_fract_z
Si Si1 0.675841 0.610662 0.657190
Si Si2 0.877230 0.588571 0.101854
Si Si3 0.377230 0.588569 0.965871
Si Si4 0.495648 0.312475 0.922378
Si Si5 0.004352 0.687523 0.645348
Si Si6 0.324159 0.110661 0.910535
Si Si7 0.166227 0.212684 0.791776
Si Si8 0.666227 0.212685 0.275950
O O1 0.676956 0.547224 0.535015
O O2 0.589803 0.713823 0.681432
O O3 0.676682 0.457780 0.733462
O O4 0.760503 0.723305 0.684169
O O5 0.822738 0.639714 0.206281
O O6 0.968952 0.505129 0.136071
O O7 0.900266 0.750000 0.033862
O O8 0.823044 0.452776 0.032710
O O9 0.468952 0.505126 0.931655
O O10 0.322739 0.639712 0.861443
O O11 0.410197 0.213821 0.886293
O O12 0.569419 0.280458 0.837341
O O13 0.532020 0.249997 0.033862
O O14 0.930581 0.719540 0.730384
O O15 0.239497 0.223304 0.883556
O O16 0.323317 0.957778 0.834264
#
# Coordination Sequence:
#
# PCOD8170741 Si02
#       8
#     4   4   4   4   4   4   4   4
#     4   9  20  36  54  81 111 139 183 232 270 327
#     4   9  19  36  54  77 111 143 178 231 275 318
#     4   9  19  36  54  77 111 143 178 231 275 318
#     4  10  20  34  54  80 109 141 181 226 271 329
#     4  10  20  34  54  80 109 141 181 226 271 329
#     4   9  20  36  54  81 111 139 183 232 270 327
#     4  10  19  36  58  78 107 148 182 219 281 336
#     4  10  19  36  58  78 107 148 182 219 281 336
#
# _framework density 20.248372
#
# number of rings (size 3 to 8) (size 9 to 14) (size 15 to 20)
#    0.000    2.500    0.000    1.500    0.000    4.000 
#    0.000   13.750    0.000    0.000    0.000    0.000 
#    0.000    0.000    0.000    0.000    0.000    0.000 
#
# Total GULP energy -396610.985908 kJ/mol
# GULP energy per Si atom -12394.093310 kJ/mol
# Density = 2.020229 g / cm^3
# Si number density = 20.248372 Si / 1000 Ang^3
#
#
#
# Elastic Constant Matrix: (Units=GPa)
#
#
# Indices 1 2 3 4 5 6 
#
# 1 134.4931 36.7997 74.6900 0.0000 0.0000 0.0000
# 2 36.7997 41.4543 32.2387 0.0000 0.0000 0.0000
# 3 74.6900 32.2387 114.2583 0.0000 0.0000 0.0000
# 4 0.0000 0.0000 0.0000 3.5675 0.0000 0.0000
# 5 0.0000 0.0000 0.0000 0.0000 26.4803 0.0000
# 6 0.0000 0.0000 0.0000 0.0000 0.0000 17.1151
#
#
#
# Elastic Compliance Matrix: (Units=1/GPa)
#
#
# Indices 1 2 3 4 5 6 
#
# 1 0.012816 -0.006228 -0.006620 0.000000 0.000000 0.000000
# 2 -0.006228 0.033931 -0.005502 0.000000 0.000000 0.000000
# 3 -0.006620 -0.005502 0.014632 0.000000 0.000000 0.000000
# 4 0.000000 0.000000 0.000000 0.280305 0.000000 0.000000
# 5 0.000000 0.000000 0.000000 0.000000 0.037764 0.000000
# 6 0.000000 0.000000 0.000000 0.000000 0.000000 0.058428
#
#
# Mechanical properties :
#
#
# Convention : Reuss Voigt Hill
#
# Bulk Modulus (GPa) = 40.52327 64.18470 52.35399
# Shear Modulus (GPa) = 10.35616 19.19774 14.77695
#
# Velocity S-wave (km/s) = 2.26399 3.08248 2.70438
# Velocity P-wave (km/s) = 5.18563 6.66607 5.97190
#
# Compressibility (1/GPa) = 0.02467718
#
# Stress axis : x y z
#
# Youngs Moduli (GPa) = 78.02634 29.47134 68.34146
#
# Poissons Ratio (x) = 0.18356 0.45245
# Poissons Ratio (y) = 0.48598 0.37604
# Poissons Ratio (z) = 0.51657 0.16216
#
# Static dielectric constant tensor:
#      x y z
#    x 3.550600 0.000000 0.000000 
#    y 0.000000 3.881830 0.000000 
#    z 0.000000 0.000000 3.973860 
# 
# 
# High freq. dielectric constant tensor:
#      x y z
#    x 1.765510 0.000000 0.000000 
#    y 0.000000 1.801540 0.000000 
#    z 0.000000 0.000000 1.800860 
# 
# From -- ./inp_files/4516.got.cif
#   From: 2010.03.12/outbox.cif.g09.slc.cpg/sg33_3_cif.got.tgz:4516.got - 2010.04.14 01:49:19.
