data_PCOD8170628
_publ_section_title
;
Structure prediction by ZEFSAII (Michael W. Deem and Ramdas Pophale) SiO2 
 PCOD8170628
Probable space group: P B A 2
;
_chemical_formula_sum "Si O2"
_cell_formula_units_Z 24
_cell_length_a 14.539034
_cell_length_b 15.216550
_cell_length_c 4.985142
_cell_angle_alpha 90.000000
_cell_angle_beta 90.000000
_cell_angle_gamma 90.000000
_cell_volume 1102.882595
_symmetry_space_group_name_H-M "P B A 2"
_symmetry_group_IT_number 32
_symmetry_cell_setting 'orthorhombic'
loop_
_space_group_symop_operation_xyz
x,y,z
-x,-y,z
1/2-x,1/2+y,z
1/2+x,1/2-y,z
loop_
_atom_site_type_symbol
_atom_site_label
_atom_site_fract_x
_atom_site_fract_y
_atom_site_fract_z
Si Si1 0.100116 0.464056 0.128490
Si Si2 0.113029 0.348828 0.625756
Si Si3 0.715544 0.767462 0.599219
Si Si4 0.241460 0.616561 0.092017
Si Si5 0.981418 0.193975 0.581294
Si Si6 0.953714 0.908757 0.080021
O O1 0.122212 0.382954 0.323126
O O2 0.175432 0.538323 0.181773
O O3 0.000000 0.500000 0.200718
O O4 0.103778 0.431345 0.823288
O O5 0.201762 0.292552 0.703907
O O6 0.023841 0.287814 0.659919
O O7 0.739194 0.806807 0.310779
O O8 0.627651 0.704874 0.576189
O O9 0.703127 0.845735 0.812257
O O10 0.344229 0.579223 0.062994
O O11 0.018968 0.166122 0.291393
O O12 0.008721 0.118767 0.790384
O O13 0.000000 0.000000 0.166939
#
# Coordination Sequence:
#
# PCOD8170628 Si02
#       6
#     4   4   4   4   4   4
#     4  12  26  43  70  99 136 174 221 278 338 401
#     4  12  24  44  68 101 131 172 227 274 331 399
#     4  12  25  44  72  97 132 178 224 276 332 395
#     4  12  24  47  67 102 138 176 219 279 337 392
#     4  12  25  46  70  97 135 177 226 277 332 398
#     4  12  26  44  67  99 138 180 221 276 335 401
#
# _framework density 21.761153
#
# number of rings (size 3 to 8) (size 9 to 14) (size 15 to 20)
#    0.000    0.000    3.333    7.000    4.667    0.000 
#    0.000    0.000    0.000    0.000    0.000    0.000 
#    0.000    0.000    0.000    0.000    0.000    0.000 
#
# Total GULP energy -297890.619693 kJ/mol
# GULP energy per Si atom -12412.109154 kJ/mol
# Density = 2.171162 g / cm^3
# Si number density = 21.761153 Si / 1000 Ang^3
#
#
#
# Elastic Constant Matrix: (Units=GPa)
#
#
# Indices 1 2 3 4 5 6 
#
# 1 108.5353 39.2919 23.2968 0.0000 0.0000 0.0000
# 2 39.2919 86.7527 15.1701 0.0000 0.0000 0.0000
# 3 23.2968 15.1701 91.8153 0.0000 0.0000 0.0000
# 4 0.0000 0.0000 0.0000 48.4763 0.0000 0.0000
# 5 0.0000 0.0000 0.0000 0.0000 35.1471 0.0000
# 6 0.0000 0.0000 0.0000 0.0000 0.0000 30.3032
#
#
#
# Elastic Compliance Matrix: (Units=1/GPa)
#
#
# Indices 1 2 3 4 5 6 
#
# 1 0.011401 -0.004796 -0.002100 0.000000 0.000000 0.000000
# 2 -0.004796 0.013888 -0.001078 0.000000 0.000000 0.000000
# 3 -0.002100 -0.001078 0.011602 0.000000 0.000000 0.000000
# 4 0.000000 0.000000 0.000000 0.020629 0.000000 0.000000
# 5 0.000000 0.000000 0.000000 0.000000 0.028452 0.000000
# 6 0.000000 0.000000 0.000000 0.000000 0.000000 0.033000
#
#
# Mechanical properties :
#
#
# Convention : Reuss Voigt Hill
#
# Bulk Modulus (GPa) = 47.74987 49.18013 48.46500
# Shear Modulus (GPa) = 35.23592 36.74163 35.98877
#
# Velocity S-wave (km/s) = 4.02831 4.11348 4.07112
# Velocity P-wave (km/s) = 6.60505 6.72384 6.66471
#
# Compressibility (1/GPa) = 0.02094247
#
# Stress axis : x y z
#
# Youngs Moduli (GPa) = 87.71320 72.00551 86.18911
#
# Poissons Ratio (x) = 0.34536 0.18102
# Poissons Ratio (y) = 0.42070 0.09288
# Poissons Ratio (z) = 0.18422 0.07759
#
# Static dielectric constant tensor:
#      x y z
#    x 4.085610 0.000000 0.000000 
#    y 0.000000 3.756640 0.000000 
#    z 0.000000 0.000000 3.877160 
# 
# 
# High freq. dielectric constant tensor:
#      x y z
#    x 1.869930 0.000000 0.000000 
#    y 0.000000 1.858960 0.000000 
#    z 0.000000 0.000000 1.868760 
# 
# From -- ./inp_files/1185.got.cif
#   From: 2010.03.12/outbox.cif.g09.slc.cpg/sg32_1_cif.got.tgz:1185.got - 2010.04.14 01:46:39.
