data_PCOD8170362
_publ_section_title
;
Structure prediction by ZEFSAII (Michael W. Deem and Ramdas Pophale) SiO2 
 PCOD8170362
Probable space group: P M N 21
;
_chemical_formula_sum "Si O2"
_cell_formula_units_Z 20
_cell_length_a 17.973998
_cell_length_b 6.597550
_cell_length_c 7.694051
_cell_angle_alpha 90.000000
_cell_angle_beta 90.000000
_cell_angle_gamma 90.000000
_cell_volume 912.394041
_symmetry_space_group_name_H-M "P M N 21"
_symmetry_group_IT_number 31
_symmetry_cell_setting 'orthorhombic'
loop_
_space_group_symop_operation_xyz
x,y,z
1/2-x,-y,1/2+z
-x,y,z
1/2+x,-y,1/2+z
loop_
_atom_site_type_symbol
_atom_site_label
_atom_site_fract_x
_atom_site_fract_y
_atom_site_fract_z
Si Si1 0.638948 0.479864 0.502340
Si Si2 0.083236 0.257288 0.298445
Si Si3 0.086687 0.517757 0.624365
Si Si4 0.684916 0.087306 0.643144
Si Si5 0.779244 0.747140 0.490451
O O1 0.588025 0.559946 0.659439
O O2 0.602778 0.554253 0.321179
O O3 0.643007 0.233119 0.503952
O O4 0.721272 0.569823 0.532736
O O5 0.106934 0.337700 0.489359
O O6 0.000000 0.175926 0.306414
O O7 0.131362 0.067347 0.241001
O O8 0.141069 0.705649 0.580156
O O9 0.000000 0.582653 0.603987
O O10 0.751642 0.967282 0.553142
O O11 0.715482 0.246769 0.782992
#
# Coordination Sequence:
#
# PCOD8170362 Si02
#       5
#     4   4   4   4   4
#     4  11  23  44  70  96 134 180 228 288 345 410
#     4  10  24  44  65  97 134 177 225 281 345 415
#     4  11  24  43  68  97 137 180 222 282 354 412
#     4  11  24  41  69 100 133 181 232 291 339 414
#     4  11  24  40  69  98 136 174 235 284 346 409
#
# _framework density 21.920352999999999
#
# number of rings (size 3 to 8) (size 9 to 14) (size 15 to 20)
#    0.000    1.200    2.000    3.000    8.400    2.400 
#    0.000    0.000    0.000    0.000    0.000    0.000 
#    0.000    0.000    0.000    0.000    0.000    0.000 
#
# Total GULP energy -248014.460350 kJ/mol
# GULP energy per Si atom -12400.723018 kJ/mol
# Density = 2.187046 g / cm^3
# Si number density = 21.920353 Si / 1000 Ang^3
#
#
#
# Elastic Constant Matrix: (Units=GPa)
#
#
# Indices 1 2 3 4 5 6 
#
# 1 84.1281 23.4579 32.1368 0.0000 0.0000 0.0000
# 2 23.4579 102.9224 37.7015 0.0000 0.0000 0.0000
# 3 32.1368 37.7015 138.0921 0.0000 0.0000 0.0000
# 4 0.0000 0.0000 0.0000 35.9030 0.0000 0.0000
# 5 0.0000 0.0000 0.0000 0.0000 30.2614 0.0000
# 6 0.0000 0.0000 0.0000 0.0000 0.0000 13.8456
#
#
#
# Elastic Compliance Matrix: (Units=1/GPa)
#
#
# Indices 1 2 3 4 5 6 
#
# 1 0.013455 -0.002133 -0.002549 0.000000 0.000000 0.000000
# 2 -0.002133 0.011134 -0.002543 0.000000 0.000000 0.000000
# 3 -0.002549 -0.002543 0.008529 0.000000 0.000000 0.000000
# 4 0.000000 0.000000 0.000000 0.027853 0.000000 0.000000
# 5 0.000000 0.000000 0.000000 0.000000 0.033045 0.000000
# 6 0.000000 0.000000 0.000000 0.000000 0.000000 0.072225
#
#
# Mechanical properties :
#
#
# Convention : Reuss Voigt Hill
#
# Bulk Modulus (GPa) = 53.56889 56.85946 55.21418
# Shear Modulus (GPa) = 26.75022 31.45842 29.10432
#
# Velocity S-wave (km/s) = 3.49712 3.79241 3.64776
# Velocity P-wave (km/s) = 6.38729 6.72101 6.55627
#
# Compressibility (1/GPa) = 0.01866755
#
# Stress axis : x y z
#
# Youngs Moduli (GPa) = 74.32140 89.81617 117.24556
#
# Poissons Ratio (x) = 0.19157 0.29885
# Poissons Ratio (y) = 0.15852 0.29820
# Poissons Ratio (z) = 0.18944 0.22843
#
# Static dielectric constant tensor:
#      x y z
#    x 3.936660 0.000000 0.000000 
#    y 0.000000 3.744460 0.000000 
#    z 0.000000 0.000000 4.183170 
# 
# 
# High freq. dielectric constant tensor:
#      x y z
#    x 1.860860 0.000000 0.000000 
#    y 0.000000 1.849890 0.000000 
#    z 0.000000 0.000000 1.879180 
# 
# From -- ./inp_files/2685.got.cif
#   From: 2010.03.12/outbox.cif.g09.slc.cpg/sg31_2_cif.got.tgz:2685.got - 2010.04.14 01:42:59.
