data_PCOD8170679
_publ_section_title
;
Structure prediction by ZEFSAII (Michael W. Deem and Ramdas Pophale) SiO2 
 PCOD8170679
Probable space group: P N A 21
;
_chemical_formula_sum "Si O2"
_cell_formula_units_Z 28
_cell_length_a 13.629208
_cell_length_b 11.629907
_cell_length_c 8.229905
_cell_angle_alpha 90.000000
_cell_angle_beta 90.000000
_cell_angle_gamma 90.000000
_cell_volume 1304.492791
_symmetry_space_group_name_H-M "P N A 21"
_symmetry_group_IT_number 33
_symmetry_cell_setting 'orthorhombic'
loop_
_space_group_symop_operation_xyz
x,y,z
-x,-y,1/2+z
1/2-x,1/2+y,1/2+z
1/2+x,1/2-y,z
loop_
_atom_site_type_symbol
_atom_site_label
_atom_site_fract_x
_atom_site_fract_y
_atom_site_fract_z
Si Si1 0.278796 0.384981 0.681640
Si Si2 0.103944 0.990209 0.919661
Si Si3 0.585403 0.637954 0.457981
Si Si4 0.325323 0.076278 0.365458
Si Si5 0.745641 0.516836 0.666852
Si Si6 0.814468 0.724597 0.867778
Si Si7 0.968910 0.244382 0.277423
O O1 0.353962 0.477968 0.600956
O O2 0.351038 0.312232 0.804429
O O3 0.193771 0.454833 0.776765
O O4 0.221853 0.306562 0.550665
O O5 0.189471 0.051516 0.811371
O O6 0.096739 0.858439 0.852199
O O7 0.005390 0.060650 0.898540
O O8 0.660153 0.552905 0.543887
O O9 0.539995 0.733953 0.579788
O O10 0.248750 0.170430 0.299919
O O11 0.431839 0.128222 0.325463
O O12 0.318587 0.062450 0.561824
O O13 0.808026 0.620471 0.741599
O O14 0.925481 0.768679 0.859209
#
# Coordination Sequence:
#
# PCOD8170679 Si02
#       7
#     4   4   4   4   4   4   4
#     4  10  21  37  62  92 131 163 208 277 317 389
#     4  10  18  38  62  96 118 158 221 268 317 362
#     4  10  18  36  62  95 120 158 222 266 311 368
#     4  11  21  42  63  86 128 171 208 262 324 379
#     4   9  20  37  60  87 127 165 199 264 318 378
#     4  11  22  42  60  93 130 166 214 266 327 382
#     4  11  22  38  67  87 128 173 204 263 326 388
#
# _framework density 21.464279999999999
#
# number of rings (size 3 to 8) (size 9 to 14) (size 15 to 20)
#    0.000    1.714    4.286    4.286    0.000    1.143 
#    5.143    4.286    0.000    0.000    0.000    0.000 
#    0.000    0.000    0.000    0.000    0.000    0.000 
#
# Total GULP energy -346917.891859 kJ/mol
# GULP energy per Si atom -12389.924709 kJ/mol
# Density = 2.141543 g / cm^3
# Si number density = 21.464280 Si / 1000 Ang^3
#
#
#
# Elastic Constant Matrix: (Units=GPa)
#
#
# Indices 1 2 3 4 5 6 
#
# 1 48.9225 4.7620 29.8002 0.0000 0.0000 0.0000
# 2 4.7620 43.2601 22.5741 0.0000 0.0000 0.0000
# 3 29.8002 22.5741 118.9456 0.0000 0.0000 0.0000
# 4 0.0000 0.0000 0.0000 36.1419 0.0000 0.0000
# 5 0.0000 0.0000 0.0000 0.0000 28.0102 0.0000
# 6 0.0000 0.0000 0.0000 0.0000 0.0000 32.2673
#
#
#
# Elastic Compliance Matrix: (Units=1/GPa)
#
#
# Indices 1 2 3 4 5 6 
#
# 1 0.024134 0.000553 -0.006151 0.000000 0.000000 0.000000
# 2 0.000553 0.025670 -0.005010 0.000000 0.000000 0.000000
# 3 -0.006151 -0.005010 0.010899 0.000000 0.000000 0.000000
# 4 0.000000 0.000000 0.000000 0.027669 0.000000 0.000000
# 5 0.000000 0.000000 0.000000 0.000000 0.035701 0.000000
# 6 0.000000 0.000000 0.000000 0.000000 0.000000 0.030991
#
#
# Mechanical properties :
#
#
# Convention : Reuss Voigt Hill
#
# Bulk Modulus (GPa) = 25.32563 36.15564 30.74063
# Shear Modulus (GPa) = 26.39327 29.55000 27.97164
#
# Velocity S-wave (km/s) = 3.51042 3.71442 3.61386
# Velocity P-wave (km/s) = 5.31557 5.93945 5.63615
#
# Compressibility (1/GPa) = 0.03948569
#
# Stress axis : x y z
#
# Youngs Moduli (GPa) = 41.43595 38.95658 91.74961
#
# Poissons Ratio (x) = -0.02155 0.56438
# Poissons Ratio (y) = -0.02293 0.45970
# Poissons Ratio (z) = 0.25489 0.19519
#
# Static dielectric constant tensor:
#      x y z
#    x 3.803480 0.000000 0.000000 
#    y 0.000000 3.528270 0.000000 
#    z 0.000000 0.000000 4.328740 
# 
# 
# High freq. dielectric constant tensor:
#      x y z
#    x 1.839660 0.000000 0.000000 
#    y 0.000000 1.803070 0.000000 
#    z 0.000000 0.000000 1.854970 
# 
# From -- ./inp_files/4360.got.cif
#   From: 2010.03.12/outbox.cif.g09.slc.cpg/sg33_3_cif.got.tgz:4360.got - 2010.04.14 01:49:19.
