data_PCOD8170690
_publ_section_title
;
Structure prediction by ZEFSAII (Michael W. Deem and Ramdas Pophale) SiO2 
 PCOD8170690
Probable space group: P N A 21
;
_chemical_formula_sum "Si O2"
_cell_formula_units_Z 28
_cell_length_a 12.573143
_cell_length_b 12.171560
_cell_length_c 9.195698
_cell_angle_alpha 90.000000
_cell_angle_beta 90.000000
_cell_angle_gamma 90.000000
_cell_volume 1407.261477
_symmetry_space_group_name_H-M "P N A 21"
_symmetry_group_IT_number 33
_symmetry_cell_setting 'orthorhombic'
loop_
_space_group_symop_operation_xyz
x,y,z
-x,-y,1/2+z
1/2-x,1/2+y,1/2+z
1/2+x,1/2-y,z
loop_
_atom_site_type_symbol
_atom_site_label
_atom_site_fract_x
_atom_site_fract_y
_atom_site_fract_z
Si Si1 0.884031 0.719132 0.822930
Si Si2 0.976388 0.091057 0.284516
Si Si3 0.382032 0.571175 0.499398
Si Si4 0.180929 0.421901 0.584663
Si Si5 0.981489 0.392352 0.087400
Si Si6 0.193850 0.785778 0.631781
Si Si7 0.838637 0.683015 0.393906
O O1 0.963391 0.814632 0.877781
O O2 0.793579 0.771163 0.716268
O O3 0.949174 0.626948 0.732580
O O4 0.826877 0.668058 0.960248
O O5 0.858220 0.128642 0.241935
O O6 0.044390 0.079576 0.139269
O O7 0.959783 0.984272 0.380668
O O8 0.279385 0.500795 0.546941
O O9 0.349446 0.685691 0.423438
O O10 0.069966 0.487639 0.593017
O O11 0.193983 0.351870 0.732178
O O12 0.887801 0.304376 0.076180
O O13 0.054321 0.379980 0.943666
O O14 0.239022 0.853820 0.493893
#
# Coordination Sequence:
#
# PCOD8170690 Si02
#       7
#     4   4   4   4   4   4   4
#     4  10  21  41  62  90 130 170 211 268 323 383
#     4  11  24  42  66  91 130 173 213 267 335 382
#     4  12  25  43  67  96 132 172 218 275 324 399
#     4  12  24  40  65 101 128 166 230 266 322 389
#     4  10  20  42  66  85 128 175 209 263 328 383
#     4  10  18  43  64  85 128 172 208 261 332 386
#     4  11  24  41  66  96 128 176 215 270 328 392
#
# _framework density 19.896799999999999
#
# number of rings (size 3 to 8) (size 9 to 14) (size 15 to 20)
#    0.000    1.143    7.143    0.857    4.000    0.000 
#    0.000    0.000    0.000    0.000    0.000    0.000 
#    0.000    0.000    0.000    0.000    0.000    0.000 
#
# Total GULP energy -347058.360905 kJ/mol
# GULP energy per Si atom -12394.941461 kJ/mol
# Density = 1.985151 g / cm^3
# Si number density = 19.896800 Si / 1000 Ang^3
#
#
#
# Elastic Constant Matrix: (Units=GPa)
#
#
# Indices 1 2 3 4 5 6 
#
# 1 102.3131 25.5392 37.3269 0.0000 0.0000 0.0000
# 2 25.5392 79.8860 38.3602 0.0000 0.0000 0.0000
# 3 37.3269 38.3602 89.0191 0.0000 0.0000 0.0000
# 4 0.0000 0.0000 0.0000 27.8499 0.0000 0.0000
# 5 0.0000 0.0000 0.0000 0.0000 23.8153 0.0000
# 6 0.0000 0.0000 0.0000 0.0000 0.0000 24.1236
#
#
#
# Elastic Compliance Matrix: (Units=1/GPa)
#
#
# Indices 1 2 3 4 5 6 
#
# 1 0.011730 -0.001750 -0.004164 0.000000 0.000000 0.000000
# 2 -0.001750 0.016045 -0.006180 0.000000 0.000000 0.000000
# 3 -0.004164 -0.006180 0.015643 0.000000 0.000000 0.000000
# 4 0.000000 0.000000 0.000000 0.035907 0.000000 0.000000
# 5 0.000000 0.000000 0.000000 0.000000 0.041990 0.000000
# 6 0.000000 0.000000 0.000000 0.000000 0.000000 0.041453
#
#
# Mechanical properties :
#
#
# Convention : Reuss Voigt Hill
#
# Bulk Modulus (GPa) = 52.00683 52.63008 52.31845
# Shear Modulus (GPa) = 25.85757 26.49056 26.17406
#
# Velocity S-wave (km/s) = 3.60889 3.65279 3.63090
# Velocity P-wave (km/s) = 6.60003 6.65578 6.62797
#
# Compressibility (1/GPa) = 0.01922824
#
# Stress axis : x y z
#
# Youngs Moduli (GPa) = 85.25062 62.32442 63.92694
#
# Poissons Ratio (x) = 0.10909 0.26621
# Poissons Ratio (y) = 0.14922 0.39508
# Poissons Ratio (z) = 0.35501 0.38518
#
# Static dielectric constant tensor:
#      x y z
#    x 4.056700 0.000000 0.000000 
#    y 0.000000 3.783500 0.000000 
#    z 0.000000 0.000000 3.613240 
# 
# 
# High freq. dielectric constant tensor:
#      x y z
#    x 1.798670 0.000000 0.000000 
#    y 0.000000 1.762320 0.000000 
#    z 0.000000 0.000000 1.772350 
# 
# From -- ./inp_files/3856.got.cif
#   From: 2010.03.12/outbox.cif.g09.slc.cpg/sg33_2_cif.got.tgz:3856.got - 2010.04.14 01:49:19.
