data_PCOD8170349
_publ_section_title
;
Structure prediction by ZEFSAII (Michael W. Deem and Ramdas Pophale) SiO2 
 PCOD8170349
Probable space group: P M N 21
;
_chemical_formula_sum "Si O2"
_cell_formula_units_Z 24
_cell_length_a 8.438266
_cell_length_b 15.118566
_cell_length_c 8.817376
_cell_angle_alpha 90.000000
_cell_angle_beta 90.000000
_cell_angle_gamma 90.000000
_cell_volume 1124.872171
_symmetry_space_group_name_H-M "P M N 21"
_symmetry_group_IT_number 31
_symmetry_cell_setting 'orthorhombic'
loop_
_space_group_symop_operation_xyz
x,y,z
1/2-x,-y,1/2+z
-x,y,z
1/2+x,-y,1/2+z
loop_
_atom_site_type_symbol
_atom_site_label
_atom_site_fract_x
_atom_site_fract_y
_atom_site_fract_z
Si Si1 0.315990 0.265498 0.262190
Si Si2 0.313957 0.931026 0.250402
Si Si3 0.814842 0.096527 0.414671
Si Si4 0.184721 0.428077 0.432656
Si Si5 0.182835 0.607188 0.260570
Si Si6 0.815387 0.234935 0.936780
O O1 0.500000 0.252463 0.297662
O O2 0.216793 0.195173 0.358643
O O3 0.260005 0.362345 0.310134
O O4 0.287506 0.254943 0.084108
O O5 0.500000 0.919485 0.238812
O O6 0.250281 0.857242 0.367341
O O7 0.270323 0.028813 0.302261
O O8 0.242540 0.914792 0.082981
O O9 0.000000 0.075886 0.410602
O O10 0.215453 0.526357 0.373216
O O11 0.272354 0.419546 0.591454
O O12 0.000000 0.407110 0.451885
O O13 0.290572 0.688861 0.312541
O O14 0.000000 0.635809 0.265019
O O15 0.000000 0.229000 0.980791
#
# Coordination Sequence:
#
# PCOD8170349 Si02
#       6
#     4   4   4   4   4   4
#     4  12  25  41  63  91 124 160 205 258 309 366
#     4  10  23  41  61  89 122 159 203 250 302 363
#     4  11  23  40  63  90 122 160 203 251 306 368
#     4  11  24  42  64  91 125 164 206 252 306 367
#     4  11  24  41  64  94 126 162 206 255 306 361
#     4  11  23  41  65  91 125 165 205 252 307 367
#
# _framework density 21.335760000000001
#
# number of rings (size 3 to 8) (size 9 to 14) (size 15 to 20)
#    0.000    1.000    0.000    6.500    0.000   12.000 
#    0.000    0.000    0.000    0.000    0.000    0.000 
#    0.000    0.000    0.000    0.000    0.000    0.000 
#
# Total GULP energy -297800.686540 kJ/mol
# GULP energy per Si atom -12408.361939 kJ/mol
# Density = 2.128720 g / cm^3
# Si number density = 21.335760 Si / 1000 Ang^3
#
#
#
# Elastic Constant Matrix: (Units=GPa)
#
#
# Indices 1 2 3 4 5 6 
#
# 1 27.1636 29.3559 17.2133 0.0000 0.0000 0.0000
# 2 29.3559 62.7138 9.1782 0.0000 0.0000 0.0000
# 3 17.2133 9.1782 73.7518 0.0000 0.0000 0.0000
# 4 0.0000 0.0000 0.0000 34.5100 0.0000 0.0000
# 5 0.0000 0.0000 0.0000 0.0000 32.7380 0.0000
# 6 0.0000 0.0000 0.0000 0.0000 0.0000 33.5801
#
#
#
# Elastic Compliance Matrix: (Units=1/GPa)
#
#
# Indices 1 2 3 4 5 6 
#
# 1 0.089943 -0.039754 -0.016045 0.000000 0.000000 0.000000
# 2 -0.039754 0.033812 0.005071 0.000000 0.000000 0.000000
# 3 -0.016045 0.005071 0.016673 0.000000 0.000000 0.000000
# 4 0.000000 0.000000 0.000000 0.028977 0.000000 0.000000
# 5 0.000000 0.000000 0.000000 0.000000 0.030546 0.000000
# 6 0.000000 0.000000 0.000000 0.000000 0.000000 0.029780
#
#
# Mechanical properties :
#
#
# Convention : Reuss Voigt Hill
#
# Bulk Modulus (GPa) = 25.65973 30.56933 28.11453
# Shear Modulus (GPa) = 14.52739 27.35772 20.94256
#
# Velocity S-wave (km/s) = 2.61223 3.58473 3.13640
# Velocity P-wave (km/s) = 4.59903 5.61183 5.13048
#
# Compressibility (1/GPa) = 0.03897157
#
# Stress axis : x y z
#
# Youngs Moduli (GPa) = 11.11809 29.57549 59.97787
#
# Poissons Ratio (x) = 1.17573 0.96235
# Poissons Ratio (y) = 0.44198 -0.30412
# Poissons Ratio (z) = 0.17839 -0.14996
#
# Static dielectric constant tensor:
#      x y z
#    x 3.769890 0.000000 0.000000 
#    y 0.000000 3.982350 0.000000 
#    z 0.000000 0.000000 3.994120 
# 
# 
# High freq. dielectric constant tensor:
#      x y z
#    x 1.837270 0.000000 0.000000 
#    y 0.000000 1.849720 0.000000 
#    z 0.000000 0.000000 1.853930 
# 
# From -- ./inp_files/1711.got.cif
#   From: 2010.03.12/outbox.cif.g09.slc.cpg/sg31_1_cif.got.tgz:1711.got - 2010.04.14 01:42:59.
