data_PCOD8170906
_publ_section_title
;
Structure prediction by ZEFSAII (Michael W. Deem and Ramdas Pophale) SiO2 
 PCOD8170906
Probable space group: P N A 21
;
_chemical_formula_sum "Si O2"
_cell_formula_units_Z 24
_cell_length_a 14.337648
_cell_length_b 6.214709
_cell_length_c 13.391755
_cell_angle_alpha 90.000000
_cell_angle_beta 90.000000
_cell_angle_gamma 90.000000
_cell_volume 1193.263090
_symmetry_space_group_name_H-M "P N A 21"
_symmetry_group_IT_number 33
_symmetry_cell_setting 'orthorhombic'
loop_
_space_group_symop_operation_xyz
x,y,z
-x,-y,1/2+z
1/2-x,1/2+y,1/2+z
1/2+x,1/2-y,z
loop_
_atom_site_type_symbol
_atom_site_label
_atom_site_fract_x
_atom_site_fract_y
_atom_site_fract_z
Si Si1 0.461924 0.809019 0.599990
Si Si2 0.536264 0.189415 0.468590
Si Si3 0.184949 0.595106 0.174008
Si Si4 0.137389 0.929752 0.569555
Si Si5 0.316347 0.095448 0.895043
Si Si6 0.638973 0.571666 0.999048
O O1 0.553075 0.675104 0.635657
O O2 0.394157 0.661186 0.534123
O O3 0.499360 0.000611 0.535330
O O4 0.399509 0.921747 0.685007
O O5 0.604653 0.338354 0.533045
O O6 0.444910 0.322349 0.432695
O O7 0.597946 0.074449 0.383595
O O8 0.275118 0.458888 0.141311
O O9 0.200539 0.694543 0.284610
O O10 0.163661 0.785112 0.096190
O O11 0.163099 0.785343 0.473111
O O12 0.227187 0.956024 0.928179
#
# Coordination Sequence:
#
# PCOD8170906 Si02
#       6
#     4   4   4   4   4   4
#     4   9  20  39  63  84 121 161 194 255 309 351
#     4   9  20  39  63  84 121 161 194 255 309 351
#     4  11  22  37  63  92 121 165 207 245 305 363
#     4  10  20  40  61  88 127 156 200 259 299 354
#     4  11  22  37  63  92 121 165 207 245 305 363
#     4  10  20  40  61  88 127 156 200 259 299 354
#
# _framework density 20.112914
#
# number of rings (size 3 to 8) (size 9 to 14) (size 15 to 20)
#    0.000    2.000    3.333    0.000    0.000    2.667 
#    0.000   13.333    0.000    0.000    0.000    0.000 
#    0.000    0.000    0.000    0.000    0.000    0.000 
#
# Total GULP energy -297315.272832 kJ/mol
# GULP energy per Si atom -12388.136368 kJ/mol
# Density = 2.006714 g / cm^3
# Si number density = 20.112914 Si / 1000 Ang^3
#
#
#
# Elastic Constant Matrix: (Units=GPa)
#
#
# Indices 1 2 3 4 5 6 
#
# 1 132.3030 43.7645 51.7739 0.0000 0.0000 0.0000
# 2 43.7645 95.4911 29.2872 0.0000 0.0000 0.0000
# 3 51.7739 29.2872 96.8283 0.0000 0.0000 0.0000
# 4 0.0000 0.0000 0.0000 19.6280 0.0000 0.0000
# 5 0.0000 0.0000 0.0000 0.0000 11.8223 0.0000
# 6 0.0000 0.0000 0.0000 0.0000 0.0000 43.1925
#
#
#
# Elastic Compliance Matrix: (Units=1/GPa)
#
#
# Indices 1 2 3 4 5 6 
#
# 1 0.010471 -0.003397 -0.004571 0.000000 0.000000 0.000000
# 2 -0.003397 0.012645 -0.002008 0.000000 0.000000 0.000000
# 3 -0.004571 -0.002008 0.013379 0.000000 0.000000 0.000000
# 4 0.000000 0.000000 0.000000 0.050948 0.000000 0.000000
# 5 0.000000 0.000000 0.000000 0.000000 0.084586 0.000000
# 6 0.000000 0.000000 0.000000 0.000000 0.000000 0.023152
#
#
# Mechanical properties :
#
#
# Convention : Reuss Voigt Hill
#
# Bulk Modulus (GPa) = 60.45209 63.80818 62.13013
# Shear Modulus (GPa) = 22.66048 28.24834 25.45441
#
# Velocity S-wave (km/s) = 3.36022 3.75172 3.56135
# Velocity P-wave (km/s) = 6.72134 7.11063 6.91872
#
# Compressibility (1/GPa) = 0.01654203
#
# Stress axis : x y z
#
# Youngs Moduli (GPa) = 95.50222 79.08281 74.74231
#
# Poissons Ratio (x) = 0.26864 0.34167
# Poissons Ratio (y) = 0.32441 0.15011
# Poissons Ratio (z) = 0.43657 0.15883
#
# Static dielectric constant tensor:
#      x y z
#    x 4.558360 0.000000 0.000000 
#    y 0.000000 3.932940 0.000000 
#    z 0.000000 0.000000 2.448600 
# 
# 
# High freq. dielectric constant tensor:
#      x y z
#    x 1.815420 0.000000 0.000000 
#    y 0.000000 1.798860 0.000000 
#    z 0.000000 0.000000 1.734040 
# 
# From -- ./inp_files/6618.got.cif
#   From: 2010.03.12/outbox.cif.g09.slc.cpg/sg33_4_cif.got.tgz:6618.got - 2010.04.14 01:49:19.
