data_PCOD8170158
_publ_section_title
;
Structure prediction by ZEFSAII (Michael W. Deem and Ramdas Pophale) SiO2 
 PCOD8170158
Probable space group: P M N 21
;
_chemical_formula_sum "Si O2"
_cell_formula_units_Z 32
_cell_length_a 9.156513
_cell_length_b 11.285311
_cell_length_c 16.125716
_cell_angle_alpha 90.000000
_cell_angle_beta 90.000000
_cell_angle_gamma 90.000000
_cell_volume 1666.336299
_symmetry_space_group_name_H-M "P M N 21"
_symmetry_group_IT_number 31
_symmetry_cell_setting 'orthorhombic'
loop_
_space_group_symop_operation_xyz
x,y,z
1/2-x,-y,1/2+z
-x,y,z
1/2+x,-y,1/2+z
loop_
_atom_site_type_symbol
_atom_site_label
_atom_site_fract_x
_atom_site_fract_y
_atom_site_fract_z
Si Si1 0.165624 0.691010 0.985300
Si Si2 0.333717 0.331802 0.778428
Si Si3 0.171539 0.437427 0.625829
Si Si4 0.159966 0.427805 0.351464
Si Si5 0.326345 0.928695 0.654151
Si Si6 0.332322 0.030378 0.479182
Si Si7 0.664349 0.661567 0.665377
Si Si8 0.328210 0.065803 0.817882
O O1 0.206042 0.632660 0.897859
O O2 0.184583 0.829924 0.978784
O O3 0.000000 0.656903 0.009606
O O4 0.282054 0.641758 0.049145
O O5 0.500000 0.329004 0.743262
O O6 0.225185 0.368094 0.706119
O O7 0.320189 0.429420 0.851339
O O8 0.288514 0.204277 0.812884
O O9 0.238452 0.568832 0.614036
O O10 0.000000 0.451386 0.629643
O O11 0.165206 0.378250 0.259557
O O12 0.000000 0.397212 0.390229
O O13 0.500000 0.935462 0.656982
O O14 0.269748 0.793533 0.658119
O O15 0.268991 0.984042 0.567480
O O16 0.266780 0.000302 0.734882
O O17 0.500000 0.990762 0.469181
O O18 0.244106 0.981129 0.401452
O O19 0.500000 0.658783 0.629281
O O20 0.500000 0.043946 0.825855
#
# Coordination Sequence:
#
# PCOD8170158 Si02
#       8
#     4   4   4   4   4   4   4   4
#     4  11  22  36  54  76 108 147 183 224 277 330
#     4   9  19  37  58  80 110 145 179 219 274 335
#     4  11  22  35  55  81 108 139 180 230 274 321
#     4   9  18  33  54  80 108 137 176 226 272 324
#     4   9  18  35  59  82 108 147 186 221 269 333
#     4  10  22  38  56  82 113 144 186 234 276 328
#     4   9  18  35  57  79 106 140 177 218 272 334
#     4  10  20  37  61  84 111 149 187 224 274 333
#
# _framework density 19.203806
#
# number of rings (size 3 to 8) (size 9 to 14) (size 15 to 20)
#    0.000    2.250    0.000    3.750    0.000    7.500 
#    0.000    4.375    0.000    0.000    0.000    0.000 
#    0.000    0.000    0.000    0.000    0.000    0.000 
#
# Total GULP energy -396739.544876 kJ/mol
# GULP energy per Si atom -12398.110777 kJ/mol
# Density = 1.916010 g / cm^3
# Si number density = 19.203806 Si / 1000 Ang^3
#
#
#
# Elastic Constant Matrix: (Units=GPa)
#
#
# Indices 1 2 3 4 5 6 
#
# 1 75.2364 54.0075 33.8367 0.0000 0.0000 0.0000
# 2 54.0075 138.5993 54.3421 0.0000 0.0000 0.0000
# 3 33.8367 54.3421 101.0099 0.0000 0.0000 0.0000
# 4 0.0000 0.0000 0.0000 21.2617 0.0000 0.0000
# 5 0.0000 0.0000 0.0000 0.0000 32.6787 0.0000
# 6 0.0000 0.0000 0.0000 0.0000 0.0000 23.0501
#
#
#
# Elastic Compliance Matrix: (Units=1/GPa)
#
#
# Indices 1 2 3 4 5 6 
#
# 1 0.019164 -0.006274 -0.003044 0.000000 0.000000 0.000000
# 2 -0.006274 0.011198 -0.003923 0.000000 0.000000 0.000000
# 3 -0.003044 -0.003923 0.013030 0.000000 0.000000 0.000000
# 4 0.000000 0.000000 0.000000 0.047033 0.000000 0.000000
# 5 0.000000 0.000000 0.000000 0.000000 0.030601 0.000000
# 6 0.000000 0.000000 0.000000 0.000000 0.000000 0.043384
#
#
# Mechanical properties :
#
#
# Convention : Reuss Voigt Hill
#
# Bulk Modulus (GPa) = 59.13568 66.57982 62.85775
# Shear Modulus (GPa) = 25.44156 26.90871 26.17513
#
# Velocity S-wave (km/s) = 3.64375 3.74735 3.69591
# Velocity P-wave (km/s) = 6.96873 7.31224 7.14255
#
# Compressibility (1/GPa) = 0.01691027
#
# Stress axis : x y z
#
# Youngs Moduli (GPa) = 52.18008 89.30319 76.74514
#
# Poissons Ratio (x) = 0.56030 0.23364
# Poissons Ratio (y) = 0.32738 0.30104
# Poissons Ratio (z) = 0.15886 0.35030
#
# Static dielectric constant tensor:
#      x y z
#    x 3.522610 0.000000 0.000000 
#    y 0.000000 3.953450 0.000000 
#    z 0.000000 0.000000 3.494830 
# 
# 
# High freq. dielectric constant tensor:
#      x y z
#    x 1.726580 0.000000 0.000000 
#    y 0.000000 1.763780 0.000000 
#    z 0.000000 0.000000 1.741540 
# 
# From -- ./inp_files/5023.got.cif
#   From: 2010.03.12/outbox.cif.g09.slc.cpg/sg31_3_cif.got.tgz:5023.got - 2010.04.14 01:42:59.
