data_PCOD8170950
_publ_section_title
;
Structure prediction by ZEFSAII (Michael W. Deem and Ramdas Pophale) SiO2 
 PCOD8170950
Probable space group: P N A 21
;
_chemical_formula_sum "Si O2"
_cell_formula_units_Z 32
_cell_length_a 15.129574
_cell_length_b 10.797292
_cell_length_c 8.892002
_cell_angle_alpha 90.000000
_cell_angle_beta 90.000000
_cell_angle_gamma 90.000000
_cell_volume 1452.583471
_symmetry_space_group_name_H-M "P N A 21"
_symmetry_group_IT_number 33
_symmetry_cell_setting 'orthorhombic'
loop_
_space_group_symop_operation_xyz
x,y,z
-x,-y,1/2+z
1/2-x,1/2+y,1/2+z
1/2+x,1/2-y,z
loop_
_atom_site_type_symbol
_atom_site_label
_atom_site_fract_x
_atom_site_fract_y
_atom_site_fract_z
Si Si1 0.452431 0.798513 0.858410
Si Si2 0.931834 0.652570 0.526770
Si Si3 0.068635 0.062333 0.989727
Si Si4 0.650515 0.797306 0.783418
Si Si5 0.402225 0.527112 0.827885
Si Si6 0.389903 0.027841 0.004605
Si Si7 0.228841 0.513133 0.973371
Si Si8 0.775043 0.035648 0.294571
O O1 0.426740 0.874706 0.706460
O O2 0.553170 0.753863 0.832450
O O3 0.397385 0.672440 0.873097
O O4 0.434384 0.888042 0.003970
O O5 0.911464 0.793820 0.494896
O O6 0.852531 0.579590 0.450023
O O7 0.027036 0.614388 0.454701
O O8 0.075759 0.002987 0.154495
O O9 0.135713 0.997252 0.878358
O O10 0.969961 0.044629 0.932984
O O11 0.648101 0.907611 0.656143
O O12 0.714219 0.680828 0.744657
O O13 0.694963 0.851866 0.930697
O O14 0.306787 0.468005 0.862324
O O15 0.308601 0.008492 0.891905
O O16 0.266827 0.534969 0.138791
#
# Coordination Sequence:
#
# PCOD8170950 Si02
#       8
#     4   4   4   4   4   4   4   4
#     4  10  20  46  72  96 138 188 229 294 358 414
#     4  10  24  43  70 101 143 181 235 293 353 420
#     4  11  25  49  68 105 142 191 235 292 358 424
#     4  11  25  47  70 102 145 183 238 297 359 424
#     4  11  24  44  74  99 144 187 235 293 356 427
#     4  11  23  44  77 100 135 188 236 293 363 417
#     4  12  25  44  68 103 139 184 236 291 357 426
#     4  12  26  47  71 102 144 190 232 299 364 420
#
# _framework density 22.029713999999998
#
# number of rings (size 3 to 8) (size 9 to 14) (size 15 to 20)
#    0.000    1.000    3.750    2.250    7.000    0.000 
#   11.250    0.000    0.000    0.000    0.000    0.000 
#    0.000    0.000    0.000    0.000    0.000    0.000 
#
# Total GULP energy -396522.751525 kJ/mol
# GULP energy per Si atom -12391.335985 kJ/mol
# Density = 2.197957 g / cm^3
# Si number density = 22.029714 Si / 1000 Ang^3
#
#
#
# Elastic Constant Matrix: (Units=GPa)
#
#
# Indices 1 2 3 4 5 6 
#
# 1 136.5682 29.0870 49.1402 0.0000 0.0000 0.0000
# 2 29.0870 69.3238 60.5390 0.0000 0.0000 0.0000
# 3 49.1402 60.5390 101.7090 0.0000 0.0000 0.0000
# 4 0.0000 0.0000 0.0000 32.6369 0.0000 0.0000
# 5 0.0000 0.0000 0.0000 0.0000 44.2293 0.0000
# 6 0.0000 0.0000 0.0000 0.0000 0.0000 24.3928
#
#
#
# Elastic Compliance Matrix: (Units=1/GPa)
#
#
# Indices 1 2 3 4 5 6 
#
# 1 0.008863 0.000043 -0.004308 0.000000 0.000000 0.000000
# 2 0.000043 0.030039 -0.017901 0.000000 0.000000 0.000000
# 3 -0.004308 -0.017901 0.022568 0.000000 0.000000 0.000000
# 4 0.000000 0.000000 0.000000 0.030640 0.000000 0.000000
# 5 0.000000 0.000000 0.000000 0.000000 0.022609 0.000000
# 6 0.000000 0.000000 0.000000 0.000000 0.000000 0.040996
#
#
# Mechanical properties :
#
#
# Convention : Reuss Voigt Hill
#
# Bulk Modulus (GPa) = 58.34424 65.01482 61.67953
# Shear Modulus (GPa) = 24.30014 31.50747 27.90380
#
# Velocity S-wave (km/s) = 3.32484 3.78594 3.56286
# Velocity P-wave (km/s) = 6.42505 6.97764 6.70704
#
# Compressibility (1/GPa) = 0.01713965
#
# Stress axis : x y z
#
# Youngs Moduli (GPa) = 112.82561 33.28973 44.31024
#
# Poissons Ratio (x) = -0.00144 0.19088
# Poissons Ratio (y) = -0.00487 0.79319
# Poissons Ratio (z) = 0.48604 0.59591
#
# Static dielectric constant tensor:
#      x y z
#    x 4.341060 0.000000 0.000000 
#    y 0.000000 3.884060 0.000000 
#    z 0.000000 0.000000 3.963620 
# 
# 
# High freq. dielectric constant tensor:
#      x y z
#    x 1.897070 0.000000 0.000000 
#    y 0.000000 1.859810 0.000000 
#    z 0.000000 0.000000 1.850820 
# 
# From -- ./inp_files/4446.got.cif
#   From: 2010.03.12/outbox.cif.g09.slc.cpg/sg33_3_cif.got.tgz:4446.got - 2010.04.14 01:49:19.
