data_PCOD8170727
_publ_section_title
;
Structure prediction by ZEFSAII (Michael W. Deem and Ramdas Pophale) SiO2 
 PCOD8170727
Probable space group: P N A 21
;
_chemical_formula_sum "Si O2"
_cell_formula_units_Z 28
_cell_length_a 10.107640
_cell_length_b 27.167944
_cell_length_c 5.152778
_cell_angle_alpha 90.000000
_cell_angle_beta 90.000000
_cell_angle_gamma 90.000000
_cell_volume 1414.972406
_symmetry_space_group_name_H-M "P N A 21"
_symmetry_group_IT_number 33
_symmetry_cell_setting 'orthorhombic'
loop_
_space_group_symop_operation_xyz
x,y,z
-x,-y,1/2+z
1/2-x,1/2+y,1/2+z
1/2+x,1/2-y,z
loop_
_atom_site_type_symbol
_atom_site_label
_atom_site_fract_x
_atom_site_fract_y
_atom_site_fract_z
Si Si1 0.407097 0.634262 0.385590
Si Si2 0.567485 0.060917 0.851567
Si Si3 0.362750 0.215922 0.395676
Si Si4 0.062075 0.196974 0.388679
Si Si5 0.662833 0.018279 0.350825
Si Si6 0.444081 0.523391 0.399478
Si Si7 0.608852 0.845955 0.391726
O O1 0.444187 0.657531 0.660048
O O2 0.475451 0.581101 0.368938
O O3 0.249531 0.627397 0.357422
O O4 0.461779 0.668811 0.157888
O O5 0.659180 0.053993 0.599872
O O6 0.507107 0.115121 0.851411
O O7 0.456917 0.019386 0.853894
O O8 0.659105 0.054155 0.103028
O O9 0.204061 0.225139 0.386894
O O10 0.440951 0.266052 0.345292
O O11 0.406850 0.196244 0.676244
O O12 0.404195 0.176800 0.177192
O O13 0.792058 0.985475 0.337467
O O14 0.468987 0.506829 0.694543
#
# Coordination Sequence:
#
# PCOD8170727 Si02
#       7
#     4   4   4   4   4   4   4
#     4  10  21  39  60  81 111 157 198 227 279 356
#     4  10  19  35  59  83 114 145 189 248 282 339
#     4  10  21  36  60  87 115 149 191 245 290 351
#     4  10  21  39  61  85 114 148 195 238 295 349
#     4  10  21  35  55  84 115 150 190 239 294 318
#     4  12  24  40  59  84 121 159 202 237 278 354
#     4  10  19  36  60  86 112 148 197 234 286 351
#
# _framework density 19.788373
#
# number of rings (size 3 to 8) (size 9 to 14) (size 15 to 20)
#    0.000    1.714    1.429    3.429    0.000    0.000 
#    0.000    8.571    0.000    0.000    0.000    0.000 
#    0.000    0.000    0.000    0.000    0.000    0.000 
#
# Total GULP energy -347298.263647 kJ/mol
# GULP energy per Si atom -12403.509416 kJ/mol
# Density = 1.974333 g / cm^3
# Si number density = 19.788373 Si / 1000 Ang^3
#
#
#
# Elastic Constant Matrix: (Units=GPa)
#
#
# Indices 1 2 3 4 5 6 
#
# 1 42.9122 33.0515 21.4581 0.0000 0.0000 0.0000
# 2 33.0515 92.2725 14.1803 0.0000 0.0000 0.0000
# 3 21.4581 14.1803 109.3627 0.0000 0.0000 0.0000
# 4 0.0000 0.0000 0.0000 22.6124 0.0000 0.0000
# 5 0.0000 0.0000 0.0000 0.0000 21.5999 0.0000
# 6 0.0000 0.0000 0.0000 0.0000 0.0000 33.0153
#
#
#
# Elastic Compliance Matrix: (Units=1/GPa)
#
#
# Indices 1 2 3 4 5 6 
#
# 1 0.035001 -0.011715 -0.005349 0.000000 0.000000 0.000000
# 2 -0.011715 0.014979 0.000356 0.000000 0.000000 0.000000
# 3 -0.005349 0.000356 0.010147 0.000000 0.000000 0.000000
# 4 0.000000 0.000000 0.000000 0.044223 0.000000 0.000000
# 5 0.000000 0.000000 0.000000 0.000000 0.046297 0.000000
# 6 0.000000 0.000000 0.000000 0.000000 0.000000 0.030289
#
#
# Mechanical properties :
#
#
# Convention : Reuss Voigt Hill
#
# Bulk Modulus (GPa) = 37.43562 42.43636 39.93599
# Shear Modulus (GPa) = 22.39588 27.16936 24.78262
#
# Velocity S-wave (km/s) = 3.36783 3.70942 3.54274
# Velocity P-wave (km/s) = 5.83799 6.31174 6.07948
#
# Compressibility (1/GPa) = 0.02671253
#
# Stress axis : x y z
#
# Youngs Moduli (GPa) = 28.57045 66.75996 98.55021
#
# Poissons Ratio (x) = 0.78211 0.52710
# Poissons Ratio (y) = 0.33471 -0.03513
# Poissons Ratio (z) = 0.15281 -0.02380
#
# Static dielectric constant tensor:
#      x y z
#    x 3.471830 0.000000 0.000000 
#    y 0.000000 3.352960 0.000000 
#    z 0.000000 0.000000 3.968700 
# 
# 
# High freq. dielectric constant tensor:
#      x y z
#    x 1.756250 0.000000 0.000000 
#    y 0.000000 1.761570 0.000000 
#    z 0.000000 0.000000 1.794440 
# 
# From -- ./inp_files/483.got.cif
#   From: 2010.03.12/outbox.cif.g09.slc.cpg/sg33_1_cif.got.tgz:483.got - 2010.04.14 01:49:19.
