data_PCOD8170280
_publ_section_title
;
Structure prediction by ZEFSAII (Michael W. Deem and Ramdas Pophale) SiO2 
 PCOD8170280
Probable space group: P M N 21
;
_chemical_formula_sum "Si O2"
_cell_formula_units_Z 32
_cell_length_a 13.593401
_cell_length_b 8.524192
_cell_length_c 12.673086
_cell_angle_alpha 90.000000
_cell_angle_beta 90.000000
_cell_angle_gamma 90.000000
_cell_volume 1468.465453
_symmetry_space_group_name_H-M "P M N 21"
_symmetry_group_IT_number 31
_symmetry_cell_setting 'orthorhombic'
loop_
_space_group_symop_operation_xyz
x,y,z
1/2-x,-y,1/2+z
-x,y,z
1/2+x,-y,1/2+z
loop_
_atom_site_type_symbol
_atom_site_label
_atom_site_fract_x
_atom_site_fract_y
_atom_site_fract_z
Si Si1 0.891711 0.337196 0.931460
Si Si2 0.613812 0.405715 0.850574
Si Si3 0.257371 0.107830 0.859980
Si Si4 0.885273 0.567242 0.744660
Si Si5 0.391545 0.931410 0.003277
Si Si6 0.392442 0.438895 0.614450
Si Si7 0.690164 0.605264 0.043603
Si Si8 0.612061 0.076184 0.221025
O O1 0.819846 0.189898 0.937887
O O2 0.852253 0.468249 0.847532
O O3 0.000000 0.282670 0.895209
O O4 0.894690 0.399685 0.050004
O O5 0.500000 0.392133 0.887101
O O6 0.657648 0.231960 0.830776
O O7 0.623659 0.487867 0.736462
O O8 0.674456 0.505458 0.936565
O O9 0.193190 0.047116 0.762018
O O10 0.308969 0.960597 0.915606
O O11 0.830034 0.506491 0.642021
O O12 0.858748 0.750307 0.760067
O O13 0.000000 0.549620 0.723239
O O14 0.500000 0.940990 0.952236
O O15 0.378751 0.756333 0.048075
O O16 0.382926 0.062301 0.094431
O O17 0.500000 0.353115 0.601534
O O18 0.304028 0.338372 0.561054
O O19 0.500000 0.034592 0.257974
#
# Coordination Sequence:
#
# PCOD8170280 Si02
#       8
#     4   4   4   4   4   4   4   4
#     4  10  21  40  64  95 128 167 216 268 319 381
#     4  11  23  41  65  94 129 174 222 270 321 381
#     4  12  23  40  63  93 132 172 212 264 327 393
#     4  10  21  39  69 100 126 163 223 281 320 378
#     4  11  25  43  63  94 134 171 214 268 327 388
#     4  10  23  40  63  93 129 164 213 273 319 373
#     4  12  23  41  71  96 126 173 224 268 324 386
#     4  10  23  42  64  95 130 168 214 270 333 390
#
# _framework density 21.791454999999999
#
# number of rings (size 3 to 8) (size 9 to 14) (size 15 to 20)
#    0.000    1.250    1.250    4.875    1.750    3.000 
#    0.000    0.625    0.000    2.250    0.000    0.000 
#    0.000    0.000    0.000    0.000    0.000    0.000 
#
# Total GULP energy -396672.856438 kJ/mol
# GULP energy per Si atom -12396.026764 kJ/mol
# Density = 2.174186 g / cm^3
# Si number density = 21.791455 Si / 1000 Ang^3
#
#
#
# Elastic Constant Matrix: (Units=GPa)
#
#
# Indices 1 2 3 4 5 6 
#
# 1 131.9157 39.3432 55.4618 0.0000 0.0000 0.0000
# 2 39.3432 76.8581 25.6303 0.0000 0.0000 0.0000
# 3 55.4618 25.6303 108.7246 0.0000 0.0000 0.0000
# 4 0.0000 0.0000 0.0000 24.4902 0.0000 0.0000
# 5 0.0000 0.0000 0.0000 0.0000 35.9180 0.0000
# 6 0.0000 0.0000 0.0000 0.0000 0.0000 33.6688
#
#
#
# Elastic Compliance Matrix: (Units=1/GPa)
#
#
# Indices 1 2 3 4 5 6 
#
# 1 0.010652 -0.003951 -0.004502 0.000000 0.000000 0.000000
# 2 -0.003951 0.015587 -0.001659 0.000000 0.000000 0.000000
# 3 -0.004502 -0.001659 0.011885 0.000000 0.000000 0.000000
# 4 0.000000 0.000000 0.000000 0.040833 0.000000 0.000000
# 5 0.000000 0.000000 0.000000 0.000000 0.027841 0.000000
# 6 0.000000 0.000000 0.000000 0.000000 0.000000 0.029701
#
#
# Mechanical properties :
#
#
# Convention : Reuss Voigt Hill
#
# Bulk Modulus (GPa) = 55.86781 62.04102 58.95442
# Shear Modulus (GPa) = 30.73330 31.95293 31.34311
#
# Velocity S-wave (km/s) = 3.75952 3.83339 3.79664
# Velocity P-wave (km/s) = 6.67371 6.93724 6.80675
#
# Compressibility (1/GPa) = 0.01789939
#
# Stress axis : x y z
#
# Youngs Moduli (GPa) = 93.87963 64.15687 84.13805
#
# Poissons Ratio (x) = 0.25350 0.37881
# Poissons Ratio (y) = 0.37095 0.13957
# Poissons Ratio (z) = 0.42267 0.10642
#
# Static dielectric constant tensor:
#      x y z
#    x 4.411310 0.000000 0.000000 
#    y 0.000000 3.648250 0.000000 
#    z 0.000000 0.000000 3.789760 
# 
# 
# High freq. dielectric constant tensor:
#      x y z
#    x 1.886210 0.000000 0.000000 
#    y 0.000000 1.828660 0.000000 
#    z 0.000000 0.000000 1.850350 
# 
# From -- ./inp_files/4303.got.cif
#   From: 2010.03.12/outbox.cif.g09.slc.cpg/sg31_3_cif.got.tgz:4303.got - 2010.04.14 01:42:59.
