data_PCOD8170833
_publ_section_title
;
Structure prediction by ZEFSAII (Michael W. Deem and Ramdas Pophale) SiO2 
 PCOD8170833
Probable space group: P N A 21
;
_chemical_formula_sum "Si O2"
_cell_formula_units_Z 32
_cell_length_a 9.824039
_cell_length_b 28.925813
_cell_length_c 5.256087
_cell_angle_alpha 90.000000
_cell_angle_beta 90.000000
_cell_angle_gamma 90.000000
_cell_volume 1493.613386
_symmetry_space_group_name_H-M "P N A 21"
_symmetry_group_IT_number 33
_symmetry_cell_setting 'orthorhombic'
loop_
_space_group_symop_operation_xyz
x,y,z
-x,-y,1/2+z
1/2-x,1/2+y,1/2+z
1/2+x,1/2-y,z
loop_
_atom_site_type_symbol
_atom_site_label
_atom_site_fract_x
_atom_site_fract_y
_atom_site_fract_z
Si Si1 0.186510 0.513264 0.538800
Si Si2 0.014694 0.651515 0.034605
Si Si3 0.955199 0.301403 0.037878
Si Si4 0.219755 0.838343 0.047503
Si Si5 0.443906 0.934149 0.744472
Si Si6 0.976069 0.972776 0.417821
Si Si7 0.767181 0.073349 0.842791
Si Si8 0.218440 0.790362 0.544550
O O1 0.083545 0.553741 0.606436
O O2 0.319182 0.541803 0.448831
O O3 0.218044 0.478383 0.771545
O O4 0.129011 0.482160 0.310267
O O5 0.086044 0.664967 0.300078
O O6 0.874017 0.679563 0.040651
O O7 0.091943 0.669467 0.784729
O O8 0.981687 0.596596 0.993484
O O9 0.851698 0.259097 0.042736
O O10 0.115846 0.287139 0.041125
O O11 0.219405 0.894190 0.091896
O O12 0.154299 0.815264 0.296773
O O13 0.157390 0.820572 0.781689
O O14 0.342208 0.905970 0.549305
O O15 0.082278 0.930892 0.469101
O O16 0.996053 0.987448 0.124601
#
# Coordination Sequence:
#
# PCOD8170833 Si02
#       8
#     4   4   4   4   4   4   4   4
#     4  11  23  36  59  89 128 172 219 270 315 364
#     4  10  21  36  60  89 121 157 199 253 307 370
#     4  10  21  40  63  88 120 154 194 250 312 379
#     4  10  20  35  61  93 116 156 206 255 292 376
#     4  12  21  37  59  92 124 167 223 262 312 370
#     4  10  22  39  57  83 120 172 218 259 316 366
#     4  11  21  37  61  85 127 168 217 267 305 371
#     4  10  21  38  64  91 120 150 200 244 317 382
#
# _framework density 21.424555999999999
#
# number of rings (size 3 to 8) (size 9 to 14) (size 15 to 20)
#    0.000    1.500    3.750    3.000    0.000    0.000 
#    0.000    1.250    0.000   10.500    0.000    0.000 
#    0.000    0.000    0.000    0.000    0.000    0.000 
#
# Total GULP energy -396422.746377 kJ/mol
# GULP energy per Si atom -12388.210824 kJ/mol
# Density = 2.137579 g / cm^3
# Si number density = 21.424556 Si / 1000 Ang^3
#
#
#
# Elastic Constant Matrix: (Units=GPa)
#
#
# Indices 1 2 3 4 5 6 
#
# 1 103.2373 30.3225 31.2777 0.0000 0.0000 0.0000
# 2 30.3225 79.3289 38.9621 0.0000 0.0000 0.0000
# 3 31.2777 38.9621 142.3045 0.0000 0.0000 0.0000
# 4 0.0000 0.0000 0.0000 42.2657 0.0000 0.0000
# 5 0.0000 0.0000 0.0000 0.0000 20.0001 0.0000
# 6 0.0000 0.0000 0.0000 0.0000 0.0000 25.7200
#
#
#
# Elastic Compliance Matrix: (Units=1/GPa)
#
#
# Indices 1 2 3 4 5 6 
#
# 1 0.011177 -0.003542 -0.001487 0.000000 0.000000 0.000000
# 2 -0.003542 0.015687 -0.003516 0.000000 0.000000 0.000000
# 3 -0.001487 -0.003516 0.008317 0.000000 0.000000 0.000000
# 4 0.000000 0.000000 0.000000 0.023660 0.000000 0.000000
# 5 0.000000 0.000000 0.000000 0.000000 0.050000 0.000000
# 6 0.000000 0.000000 0.000000 0.000000 0.000000 0.038880
#
#
# Mechanical properties :
#
#
# Convention : Reuss Voigt Hill
#
# Bulk Modulus (GPa) = 55.27917 58.44393 56.86155
# Shear Modulus (GPa) = 29.26692 32.55105 30.90898
#
# Velocity S-wave (km/s) = 3.70001 3.90209 3.80240
# Velocity P-wave (km/s) = 6.64163 6.90217 6.77315
#
# Compressibility (1/GPa) = 0.01809000
#
# Stress axis : x y z
#
# Youngs Moduli (GPa) = 89.46721 63.74808 120.23908
#
# Poissons Ratio (x) = 0.22580 0.17878
# Poissons Ratio (y) = 0.31690 0.42281
# Poissons Ratio (z) = 0.13303 0.22416
#
# Static dielectric constant tensor:
#      x y z
#    x 3.862730 0.000000 0.000000 
#    y 0.000000 3.538890 0.000000 
#    z 0.000000 0.000000 4.246950 
# 
# 
# High freq. dielectric constant tensor:
#      x y z
#    x 1.812200 0.000000 0.000000 
#    y 0.000000 1.811600 0.000000 
#    z 0.000000 0.000000 1.863240 
# 
# From -- ./inp_files/607.got.cif
#   From: 2010.03.12/outbox.cif.g09.slc.cpg/sg33_1_cif.got.tgz:607.got - 2010.04.14 01:49:19.
