data_PCOD8170136
_publ_section_title
;
Structure prediction by ZEFSAII (Michael W. Deem and Ramdas Pophale) SiO2 
 PCOD8170136
Probable space group: P M N 21
;
_chemical_formula_sum "Si O2"
_cell_formula_units_Z 32
_cell_length_a 8.938052
_cell_length_b 15.904710
_cell_length_c 10.615575
_cell_angle_alpha 90.000000
_cell_angle_beta 90.000000
_cell_angle_gamma 90.000000
_cell_volume 1509.079622
_symmetry_space_group_name_H-M "P M N 21"
_symmetry_group_IT_number 31
_symmetry_cell_setting 'orthorhombic'
loop_
_space_group_symop_operation_xyz
x,y,z
1/2-x,-y,1/2+z
-x,y,z
1/2+x,-y,1/2+z
loop_
_atom_site_type_symbol
_atom_site_label
_atom_site_fract_x
_atom_site_fract_y
_atom_site_fract_z
Si Si1 0.676326 0.533670 0.310150
Si Si2 0.326314 0.922329 0.045752
Si Si3 0.328118 0.741220 0.649033
Si Si4 0.337325 0.148088 0.762090
Si Si5 0.677260 0.423715 0.068195
Si Si6 0.325996 0.108534 0.035486
Si Si7 0.172225 0.250646 0.437820
Si Si8 0.165768 0.669032 0.153425
O O1 0.500000 0.533406 0.333227
O O2 0.722162 0.464619 0.203502
O O3 0.754286 0.524105 0.448513
O O4 0.728006 0.620784 0.249532
O O5 0.500000 0.928395 0.021668
O O6 0.288746 0.905512 0.191596
O O7 0.258317 0.014455 0.016634
O O8 0.262166 0.844586 0.961462
O O9 0.500000 0.738690 0.605992
O O10 0.238368 0.671729 0.568479
O O11 0.264040 0.835640 0.635528
O O12 0.310138 0.720465 0.795526
O O13 0.500000 0.102871 0.747985
O O14 0.348994 0.239497 0.707683
O O15 0.295294 0.157045 0.906675
O O16 0.500000 0.422404 0.049415
O O17 0.500000 0.105677 0.075654
O O18 0.260441 0.322281 0.515415
O O19 0.000000 0.251276 0.482643
O O20 0.000000 0.627385 0.141717
#
# Coordination Sequence:
#
# PCOD8170136 Si02
#       8
#     4   4   4   4   4   4   4   4
#     4  11  25  44  69 100 132 169 213 265 320 382
#     4   9  19  35  55  82 115 155 200 250 305 365
#     4  11  24  40  63  91 124 166 211 263 321 381
#     4   9  19  35  55  79 110 148 192 242 298 363
#     4  11  26  46  68  97 134 172 215 268 323 386
#     4  10  21  36  57  82 116 158 199 250 312 372
#     4   9  20  38  59  87 124 165 210 261 316 377
#     4  10  20  36  62  92 121 161 206 253 313 374
#
# _framework density 21.204978000000001
#
# number of rings (size 3 to 8) (size 9 to 14) (size 15 to 20)
#    0.000    2.000    0.000    2.250    3.500    5.500 
#    0.000    0.000    0.000    0.000    0.000    0.000 
#    0.000    0.000    0.000    0.000    0.000    0.000 
#
# Total GULP energy -396605.194161 kJ/mol
# GULP energy per Si atom -12393.912318 kJ/mol
# Density = 2.115671 g / cm^3
# Si number density = 21.204978 Si / 1000 Ang^3
#
#
#
# Elastic Constant Matrix: (Units=GPa)
#
#
# Indices 1 2 3 4 5 6 
#
# 1 69.4739 38.1789 33.8783 0.0000 0.0000 0.0000
# 2 38.1789 63.4213 31.4432 0.0000 0.0000 0.0000
# 3 33.8783 31.4432 78.6939 0.0000 0.0000 0.0000
# 4 0.0000 0.0000 0.0000 19.5756 0.0000 0.0000
# 5 0.0000 0.0000 0.0000 0.0000 36.1280 0.0000
# 6 0.0000 0.0000 0.0000 0.0000 0.0000 26.1341
#
#
#
# Elastic Compliance Matrix: (Units=1/GPa)
#
#
# Indices 1 2 3 4 5 6 
#
# 1 0.023283 -0.011282 -0.005516 0.000000 0.000000 0.000000
# 2 -0.011282 0.025129 -0.005184 0.000000 0.000000 0.000000
# 3 -0.005516 -0.005184 0.017153 0.000000 0.000000 0.000000
# 4 0.000000 0.000000 0.000000 0.051084 0.000000 0.000000
# 5 0.000000 0.000000 0.000000 0.000000 0.027679 0.000000
# 6 0.000000 0.000000 0.000000 0.000000 0.000000 0.038264
#
#
# Mechanical properties :
#
#
# Convention : Reuss Voigt Hill
#
# Bulk Modulus (GPa) = 46.28978 46.50998 46.39988
# Shear Modulus (GPa) = 21.38973 23.57347 22.48160
#
# Velocity S-wave (km/s) = 3.17947 3.33783 3.25961
# Velocity P-wave (km/s) = 5.94607 6.06926 6.00798
#
# Compressibility (1/GPa) = 0.02160304
#
# Stress axis : x y z
#
# Youngs Moduli (GPa) = 42.94904 39.79466 58.29757
#
# Poissons Ratio (x) = 0.44895 0.32157
# Poissons Ratio (y) = 0.48453 0.30220
# Poissons Ratio (z) = 0.23690 0.20629
#
# Static dielectric constant tensor:
#      x y z
#    x 4.065160 0.000000 0.000000 
#    y 0.000000 3.916600 0.000000 
#    z 0.000000 0.000000 3.903670 
# 
# 
# High freq. dielectric constant tensor:
#      x y z
#    x 1.823650 0.000000 0.000000 
#    y 0.000000 1.832240 0.000000 
#    z 0.000000 0.000000 1.833220 
# 
# From -- ./inp_files/3748.got.cif
#   From: 2010.03.12/outbox.cif.g09.slc.cpg/sg31_2_cif.got.tgz:3748.got - 2010.04.14 01:42:59.
