data_PCOD8170344
_publ_section_title
;
Structure prediction by ZEFSAII (Michael W. Deem and Ramdas Pophale) SiO2 
 PCOD8170344
Probable space group: P M N 21
;
_chemical_formula_sum "Si O2"
_cell_formula_units_Z 32
_cell_length_a 8.678914
_cell_length_b 11.239518
_cell_length_c 16.193654
_cell_angle_alpha 90.000000
_cell_angle_beta 90.000000
_cell_angle_gamma 90.000000
_cell_volume 1579.639292
_symmetry_space_group_name_H-M "P M N 21"
_symmetry_group_IT_number 31
_symmetry_cell_setting 'orthorhombic'
loop_
_space_group_symop_operation_xyz
x,y,z
1/2-x,-y,1/2+z
-x,y,z
1/2+x,-y,1/2+z
loop_
_atom_site_type_symbol
_atom_site_label
_atom_site_fract_x
_atom_site_fract_y
_atom_site_fract_z
Si Si1 0.330906 0.590988 0.694680
Si Si2 0.818954 0.696060 0.406082
Si Si3 0.172763 0.648614 0.117346
Si Si4 0.823476 0.731258 0.824007
Si Si5 0.324203 0.782476 0.566082
Si Si6 0.319413 0.812437 0.243417
Si Si7 0.180014 0.430220 0.454180
Si Si8 0.819716 0.065073 0.223741
O O1 0.500000 0.635177 0.727403
O O2 0.333133 0.449609 0.689323
O O3 0.196826 0.625713 0.757561
O O4 0.302932 0.651899 0.605931
O O5 0.777329 0.783209 0.483041
O O6 0.738303 0.744583 0.324441
O O7 0.762556 0.560821 0.424667
O O8 0.000000 0.701117 0.392111
O O9 0.241070 0.765806 0.159198
O O10 0.000000 0.673959 0.083139
O O11 0.284832 0.593058 0.049419
O O12 0.768666 0.678017 0.910384
O O13 0.718499 0.841427 0.796006
O O14 0.000000 0.771629 0.829440
O O15 0.500000 0.806100 0.539917
O O16 0.271647 0.881281 0.633853
O O17 0.500000 0.793434 0.236752
O O18 0.279756 0.950845 0.246130
O O19 0.000000 0.419422 0.436798
O O20 0.000000 0.034306 0.225893
#
# Coordination Sequence:
#
# PCOD8170344 Si02
#       8
#     4   4   4   4   4   4   4   4
#     4   9  18  34  58  87 121 158 196 243 303 363
#     4  11  23  39  63  94 128 164 206 257 311 368
#     4  11  22  39  62  88 124 163 202 251 310 368
#     4  11  22  36  60  91 121 158 202 250 303 361
#     4   9  18  36  63  92 120 156 200 253 306 363
#     4  12  26  43  63  90 125 165 212 260 311 372
#     4  11  23  39  60  92 129 163 204 251 307 370
#     4  10  22  44  67  88 120 161 208 257 309 369
#
# _framework density 20.257791000000001
#
# number of rings (size 3 to 8) (size 9 to 14) (size 15 to 20)
#    0.000    1.500    1.250    5.250    0.000    8.000 
#    2.250    0.000    0.000    0.000    0.000    0.000 
#    0.000    0.000    0.000    0.000    0.000    0.000 
#
# Total GULP energy -396769.667306 kJ/mol
# GULP energy per Si atom -12399.052103 kJ/mol
# Density = 2.021168 g / cm^3
# Si number density = 20.257791 Si / 1000 Ang^3
#
#
#
# Elastic Constant Matrix: (Units=GPa)
#
#
# Indices 1 2 3 4 5 6 
#
# 1 82.1193 20.7271 28.7478 0.0000 0.0000 0.0000
# 2 20.7271 89.9479 41.5838 0.0000 0.0000 0.0000
# 3 28.7478 41.5838 79.4998 0.0000 0.0000 0.0000
# 4 0.0000 0.0000 0.0000 28.0908 0.0000 0.0000
# 5 0.0000 0.0000 0.0000 0.0000 35.8163 0.0000
# 6 0.0000 0.0000 0.0000 0.0000 0.0000 26.2985
#
#
#
# Elastic Compliance Matrix: (Units=1/GPa)
#
#
# Indices 1 2 3 4 5 6 
#
# 1 0.014035 -0.001171 -0.004463 0.000000 0.000000 0.000000
# 2 -0.001171 0.014761 -0.007298 0.000000 0.000000 0.000000
# 3 -0.004463 -0.007298 0.018010 0.000000 0.000000 0.000000
# 4 0.000000 0.000000 0.000000 0.035599 0.000000 0.000000
# 5 0.000000 0.000000 0.000000 0.000000 0.027920 0.000000
# 6 0.000000 0.000000 0.000000 0.000000 0.000000 0.038025
#
#
# Mechanical properties :
#
#
# Convention : Reuss Voigt Hill
#
# Bulk Modulus (GPa) = 47.74825 48.18716 47.96770
# Shear Modulus (GPa) = 27.59472 28.74165 28.16818
#
# Velocity S-wave (km/s) = 3.69477 3.77078 3.73297
# Velocity P-wave (km/s) = 6.46709 6.54194 6.50462
#
# Compressibility (1/GPa) = 0.02094318
#
# Stress axis : x y z
#
# Youngs Moduli (GPa) = 71.24906 67.74532 55.52597
#
# Poissons Ratio (x) = 0.07933 0.24780
# Poissons Ratio (y) = 0.08344 0.40521
# Poissons Ratio (z) = 0.31797 0.49438
#
# Static dielectric constant tensor:
#      x y z
#    x 3.669060 0.000000 0.000000 
#    y 0.000000 3.609820 0.000000 
#    z 0.000000 0.000000 3.586310 
# 
# 
# High freq. dielectric constant tensor:
#      x y z
#    x 1.793460 0.000000 0.000000 
#    y 0.000000 1.782780 0.000000 
#    z 0.000000 0.000000 1.788630 
# 
# From -- ./inp_files/5895.got.cif
#   From: 2010.03.12/outbox.cif.g09.slc.cpg/sg31_3_cif.got.tgz:5895.got - 2010.04.14 01:42:59.
