data_PCOD8170874
_publ_section_title
;
Structure prediction by ZEFSAII (Michael W. Deem and Ramdas Pophale) SiO2 
 PCOD8170874
Probable space group: P N A 21
;
_chemical_formula_sum "Si O2"
_cell_formula_units_Z 32
_cell_length_a 20.298405
_cell_length_b 8.620555
_cell_length_c 9.129783
_cell_angle_alpha 90.000000
_cell_angle_beta 90.000000
_cell_angle_gamma 90.000000
_cell_volume 1597.561536
_symmetry_space_group_name_H-M "P N A 21"
_symmetry_group_IT_number 33
_symmetry_cell_setting 'orthorhombic'
loop_
_space_group_symop_operation_xyz
x,y,z
-x,-y,1/2+z
1/2-x,1/2+y,1/2+z
1/2+x,1/2-y,z
loop_
_atom_site_type_symbol
_atom_site_label
_atom_site_fract_x
_atom_site_fract_y
_atom_site_fract_z
Si Si1 0.162283 0.887535 0.551750
Si Si2 0.916930 0.365769 0.167954
Si Si3 0.693832 0.219570 0.058511
Si Si4 0.167347 0.608515 0.933868
Si Si5 0.622144 0.412282 0.823818
Si Si6 0.951542 0.191627 0.430491
Si Si7 0.424223 0.803231 0.086166
Si Si8 0.816054 0.819559 0.886913
O O1 0.103498 0.761411 0.545498
O O2 0.228464 0.790048 0.542595
O O3 0.160866 0.980664 0.706499
O O4 0.155893 0.006075 0.415866
O O5 0.851661 0.416535 0.262256
O O6 0.968613 0.284007 0.278847
O O7 0.947811 0.517930 0.093842
O O8 0.672974 0.272850 0.220024
O O9 0.671957 0.352821 0.946698
O O10 0.662305 0.052063 0.022729
O O11 0.113760 0.728205 0.003739
O O12 0.240112 0.684295 0.940472
O O13 0.564203 0.511825 0.899548
O O14 0.590773 0.262069 0.747042
O O15 0.015932 0.198410 0.529041
O O16 0.359138 0.797169 0.985356
#
# Coordination Sequence:
#
# PCOD8170874 Si02
#       8
#     4   4   4   4   4   4   4   4
#     4   9  20  37  58  85 120 157 197 247 301 364
#     4   9  18  40  61  83 118 165 199 251 306 362
#     4  11  19  36  60  89 121 156 201 248 306 369
#     4   9  19  40  58  84 120 164 194 252 303 366
#     4  10  20  38  61  81 119 161 191 251 310 365
#     4   9  21  39  57  83 116 158 202 246 298 366
#     4  11  22  38  64  91 116 162 208 250 310 373
#     4  10  21  36  59  94 122 151 208 251 306 367
#
# _framework density 20.030528
#
# number of rings (size 3 to 8) (size 9 to 14) (size 15 to 20)
#    0.750    1.500    2.500    0.000    0.000    4.000 
#    0.000   10.000    0.000    0.000    0.000    0.000 
#    0.000    0.000    0.000    0.000    0.000    0.000 
#
# Total GULP energy -396592.412005 kJ/mol
# GULP energy per Si atom -12393.512875 kJ/mol
# Density = 1.998494 g / cm^3
# Si number density = 20.030528 Si / 1000 Ang^3
#
#
#
# Elastic Constant Matrix: (Units=GPa)
#
#
# Indices 1 2 3 4 5 6 
#
# 1 54.0556 0.6733 13.8460 0.0000 0.0000 0.0000
# 2 0.6733 85.9437 31.6758 0.0000 0.0000 0.0000
# 3 13.8460 31.6758 73.9517 0.0000 0.0000 0.0000
# 4 0.0000 0.0000 0.0000 31.6597 0.0000 0.0000
# 5 0.0000 0.0000 0.0000 0.0000 22.0326 0.0000
# 6 0.0000 0.0000 0.0000 0.0000 0.0000 21.4052
#
#
#
# Elastic Compliance Matrix: (Units=1/GPa)
#
#
# Indices 1 2 3 4 5 6 
#
# 1 0.019577 0.001422 -0.004274 0.000000 0.000000 0.000000
# 2 0.001422 0.013920 -0.006229 0.000000 0.000000 0.000000
# 3 -0.004274 -0.006229 0.016991 0.000000 0.000000 0.000000
# 4 0.000000 0.000000 0.000000 0.031586 0.000000 0.000000
# 5 0.000000 0.000000 0.000000 0.000000 0.045387 0.000000
# 6 0.000000 0.000000 0.000000 0.000000 0.000000 0.046718
#
#
# Mechanical properties :
#
#
# Convention : Reuss Voigt Hill
#
# Bulk Modulus (GPa) = 30.93566 34.03792 32.48679
# Shear Modulus (GPa) = 24.61658 26.20323 25.40990
#
# Velocity S-wave (km/s) = 3.50945 3.62078 3.56555
# Velocity P-wave (km/s) = 5.64796 5.87452 5.76235
#
# Compressibility (1/GPa) = 0.03232516
#
# Stress axis : x y z
#
# Youngs Moduli (GPa) = 51.08132 71.83890 58.85625
#
# Poissons Ratio (x) = -0.10216 0.25158
# Poissons Ratio (y) = -0.07264 0.36659
# Poissons Ratio (z) = 0.21834 0.44746
#
# Static dielectric constant tensor:
#      x y z
#    x 3.342540 0.000000 0.000000 
#    y 0.000000 3.705890 0.000000 
#    z 0.000000 0.000000 3.472080 
# 
# 
# High freq. dielectric constant tensor:
#      x y z
#    x 1.762910 0.000000 0.000000 
#    y 0.000000 1.791310 0.000000 
#    z 0.000000 0.000000 1.759630 
# 
# From -- ./inp_files/4990.got.cif
#   From: 2010.03.12/outbox.cif.g09.slc.cpg/sg33_3_cif.got.tgz:4990.got - 2010.04.14 01:49:19.
