data_PCOD8170281
_publ_section_title
;
Structure prediction by ZEFSAII (Michael W. Deem and Ramdas Pophale) SiO2 
 PCOD8170281
Probable space group: P M N 21
;
_chemical_formula_sum "Si O2"
_cell_formula_units_Z 32
_cell_length_a 8.856846
_cell_length_b 15.425892
_cell_length_c 11.988290
_cell_angle_alpha 90.000000
_cell_angle_beta 90.000000
_cell_angle_gamma 90.000000
_cell_volume 1637.897122
_symmetry_space_group_name_H-M "P M N 21"
_symmetry_group_IT_number 31
_symmetry_cell_setting 'orthorhombic'
loop_
_space_group_symop_operation_xyz
x,y,z
1/2-x,-y,1/2+z
-x,y,z
1/2+x,-y,1/2+z
loop_
_atom_site_type_symbol
_atom_site_label
_atom_site_fract_x
_atom_site_fract_y
_atom_site_fract_z
Si Si1 0.678041 0.600305 0.738680
Si Si2 0.823042 0.895626 0.723964
Si Si3 0.823675 0.589909 0.279750
Si Si4 0.677238 0.257049 0.390570
Si Si5 0.673668 0.342869 0.015827
Si Si6 0.827654 0.170034 0.005066
Si Si7 0.828364 0.090361 0.773290
Si Si8 0.820864 0.754284 0.144771
O O1 0.500000 0.599985 0.755737
O O2 0.745167 0.502575 0.743664
O O3 0.747021 0.659294 0.835272
O O4 0.718111 0.636158 0.617866
O O5 0.780300 0.830518 0.824340
O O6 0.721366 0.873990 0.618848
O O7 0.000000 0.887520 0.694776
O O8 0.774881 0.992354 0.755461
O O9 0.792660 0.595083 0.411862
O O10 0.751791 0.670413 0.210482
O O11 0.000000 0.591899 0.254251
O O12 0.500000 0.273576 0.388326
O O13 0.736858 0.248260 0.517154
O O14 0.500000 0.347456 0.054717
O O15 0.713830 0.247117 0.974768
O O16 0.000000 0.203294 0.015954
O O17 0.810666 0.102278 0.905369
O O18 0.730319 0.156866 0.701773
O O19 0.000000 0.103954 0.734604
O O20 0.000000 0.752928 0.149585
#
# Coordination Sequence:
#
# PCOD8170281 Si02
#       8
#     4   4   4   4   4   4   4   4
#     4  11  23  39  60  88 121 154 196 249 294 344
#     4  10  22  40  59  84 121 159 194 239 295 352
#     4   9  21  39  59  86 119 154 195 242 293 347
#     4  10  22  39  61  85 116 158 199 238 291 354
#     4  11  21  39  63  86 117 156 197 242 297 355
#     4  11  22  38  62  90 117 150 198 251 294 343
#     4  10  23  40  59  88 122 154 193 247 299 343
#     4  10  21  40  63  85 115 159 200 238 289 354
#
# _framework density 19.537246
#
# number of rings (size 3 to 8) (size 9 to 14) (size 15 to 20)
#    0.000    1.750    2.500    1.125    3.500    1.500 
#    0.000    3.125    0.000    0.000    0.000    0.000 
#    0.000    0.000    0.000    0.000    0.000    0.000 
#
# Total GULP energy -396823.364794 kJ/mol
# GULP energy per Si atom -12400.730150 kJ/mol
# Density = 1.949278 g / cm^3
# Si number density = 19.537246 Si / 1000 Ang^3
#
#
#
# Elastic Constant Matrix: (Units=GPa)
#
#
# Indices 1 2 3 4 5 6 
#
# 1 30.6502 28.9350 42.1813 0.0000 0.0000 0.0000
# 2 28.9350 137.2333 49.9061 0.0000 0.0000 0.0000
# 3 42.1813 49.9061 114.9970 0.0000 0.0000 0.0000
# 4 0.0000 0.0000 0.0000 24.7333 0.0000 0.0000
# 5 0.0000 0.0000 0.0000 0.0000 22.3586 0.0000
# 6 0.0000 0.0000 0.0000 0.0000 0.0000 25.2772
#
#
#
# Elastic Compliance Matrix: (Units=1/GPa)
#
#
# Indices 1 2 3 4 5 6 
#
# 1 0.070420 -0.006476 -0.023020 0.000000 0.000000 0.000000
# 2 -0.006476 0.009248 -0.001638 0.000000 0.000000 0.000000
# 3 -0.023020 -0.001638 0.017850 0.000000 0.000000 0.000000
# 4 0.000000 0.000000 0.000000 0.040431 0.000000 0.000000
# 5 0.000000 0.000000 0.000000 0.000000 0.044725 0.000000
# 6 0.000000 0.000000 0.000000 0.000000 0.000000 0.039561
#
#
# Mechanical properties :
#
#
# Convention : Reuss Voigt Hill
#
# Bulk Modulus (GPa) = 28.36829 58.32504 43.34666
# Shear Modulus (GPa) = 16.87733 25.26436 21.07084
#
# Velocity S-wave (km/s) = 2.94233 3.59992 3.28761
# Velocity P-wave (km/s) = 5.10830 6.87003 6.05359
#
# Compressibility (1/GPa) = 0.03525063
#
# Stress axis : x y z
#
# Youngs Moduli (GPa) = 14.20042 108.13139 56.02113
#
# Poissons Ratio (x) = 0.70031 1.28960
# Poissons Ratio (y) = 0.09197 0.09175
# Poissons Ratio (z) = 0.32689 0.17710
#
# Static dielectric constant tensor:
#      x y z
#    x 3.388800 0.000000 0.000000 
#    y 0.000000 3.810890 0.000000 
#    z 0.000000 0.000000 3.670810 
# 
# 
# High freq. dielectric constant tensor:
#      x y z
#    x 1.744200 0.000000 0.000000 
#    y 0.000000 1.771660 0.000000 
#    z 0.000000 0.000000 1.772650 
# 
# From -- ./inp_files/3636.got.cif
#   From: 2010.03.12/outbox.cif.g09.slc.cpg/sg31_2_cif.got.tgz:3636.got - 2010.04.14 01:42:59.
