data_PCOD8170555
_publ_section_title
;
Structure prediction by ZEFSAII (Michael W. Deem and Ramdas Pophale) SiO2 
 PCOD8170555
Probable space group: P B A 2
;
_chemical_formula_sum "Si O2"
_cell_formula_units_Z 26
_cell_length_a 17.712927
_cell_length_b 10.997781
_cell_length_c 5.744229
_cell_angle_alpha 90.000000
_cell_angle_beta 90.000000
_cell_angle_gamma 90.000000
_cell_volume 1118.992422
_symmetry_space_group_name_H-M "P B A 2"
_symmetry_group_IT_number 32
_symmetry_cell_setting 'orthorhombic'
loop_
_space_group_symop_operation_xyz
x,y,z
-x,-y,z
1/2-x,1/2+y,z
1/2+x,1/2-y,z
loop_
_atom_site_type_symbol
_atom_site_label
_atom_site_fract_x
_atom_site_fract_y
_atom_site_fract_z
Si Si1 0.838173 0.128663 0.057430
Si Si2 0.298431 0.186404 0.442961
Si Si3 0.574746 0.826453 0.768087
Si Si4 0.197815 0.311019 0.807478
Si Si5 0.500000 0.000000 0.121332
Si Si6 0.655417 0.369050 0.191040
Si Si7 0.571665 0.182107 0.481753
O O1 0.828229 0.197286 0.301269
O O2 0.877009 0.998930 0.109604
O O3 0.891130 0.205974 0.885828
O O4 0.755629 0.099962 0.942981
O O5 0.371506 0.120680 0.559196
O O6 0.249325 0.221372 0.662283
O O7 0.242851 0.108053 0.276705
O O8 0.496981 0.787849 0.650695
O O9 0.561045 0.929930 0.961799
O O10 0.138268 0.379962 0.638954
O O11 0.151106 0.228334 0.985592
O O12 0.549198 0.091087 0.276379
O O13 0.601809 0.312110 0.389699
#
# Coordination Sequence:
#
# PCOD8170555 Si02
#       7
#     4   4   4   4   2   4   4
#     4  10  22  46  71 104 139 182 234 287 348 426
#     4   9  21  44  65 100 139 179 231 278 349 406
#     4  11  24  46  67 100 143 187 232 292 357 414
#     4   9  21  44  65 100 139 179 231 278 349 406
#     4  12  26  48  66 102 140 188 242 284 348 430
#     4  10  22  46  71 104 139 182 234 287 348 426
#     4  11  24  46  67 100 143 187 232 292 357 414
#
# _framework density 23.235188999999998
#
# number of rings (size 3 to 8) (size 9 to 14) (size 15 to 20)
#    0.000    1.846    0.000    2.308    0.000    4.923 
#   66.462   11.538    0.000    0.000    0.000    0.000 
#    0.000    0.000    0.000    0.000    0.000    0.000 
#
# Total GULP energy -322233.864976 kJ/mol
# GULP energy per Si atom -12393.610191 kJ/mol
# Density = 2.318230 g / cm^3
# Si number density = 23.235189 Si / 1000 Ang^3
#
#
#
# Elastic Constant Matrix: (Units=GPa)
#
#
# Indices 1 2 3 4 5 6 
#
# 1 131.3149 46.9923 58.1848 0.0000 0.0000 0.0000
# 2 46.9923 118.7187 44.2113 0.0000 0.0000 0.0000
# 3 58.1848 44.2113 121.0828 0.0000 0.0000 0.0000
# 4 0.0000 0.0000 0.0000 21.9239 0.0000 0.0000
# 5 0.0000 0.0000 0.0000 0.0000 58.9876 0.0000
# 6 0.0000 0.0000 0.0000 0.0000 0.0000 23.2963
#
#
#
# Elastic Compliance Matrix: (Units=1/GPa)
#
#
# Indices 1 2 3 4 5 6 
#
# 1 0.010321 -0.002591 -0.004014 0.000000 0.000000 0.000000
# 2 -0.002591 0.010399 -0.002552 0.000000 0.000000 0.000000
# 3 -0.004014 -0.002552 0.011119 0.000000 0.000000 0.000000
# 4 0.000000 0.000000 0.000000 0.045612 0.000000 0.000000
# 5 0.000000 0.000000 0.000000 0.000000 0.016953 0.000000
# 6 0.000000 0.000000 0.000000 0.000000 0.000000 0.042925
#
#
# Mechanical properties :
#
#
# Convention : Reuss Voigt Hill
#
# Bulk Modulus (GPa) = 73.92877 74.43257 74.18067
# Shear Modulus (GPa) = 31.22046 35.62340 33.42193
#
# Velocity S-wave (km/s) = 3.66959 3.91981 3.79676
# Velocity P-wave (km/s) = 7.05983 7.25193 7.15653
#
# Compressibility (1/GPa) = 0.01352653
#
# Stress axis : x y z
#
# Youngs Moduli (GPa) = 96.89221 96.16171 89.93291
#
# Poissons Ratio (x) = 0.24911 0.36096
# Poissons Ratio (y) = 0.25101 0.22953
# Poissons Ratio (z) = 0.38889 0.24542
#
# Static dielectric constant tensor:
#      x y z
#    x 4.650970 0.000000 0.000000 
#    y 0.000000 3.656690 0.000000 
#    z 0.000000 0.000000 4.693740 
# 
# 
# High freq. dielectric constant tensor:
#      x y z
#    x 1.922900 0.000000 0.000000 
#    y 0.000000 1.883230 0.000000 
#    z 0.000000 0.000000 1.947470 
# 
# From -- ./inp_files/1428.got.cif
#   From: 2010.03.12/outbox.cif.g09.slc.cpg/sg32_1_cif.got.tgz:1428.got - 2010.04.14 01:46:39.
