data_PCOD8170424
_publ_section_title
;
Structure prediction by ZEFSAII (Michael W. Deem and Ramdas Pophale) SiO2 
 PCOD8170424
Probable space group: P B A 2
;
_chemical_formula_sum "Si O2"
_cell_formula_units_Z 32
_cell_length_a 33.361625
_cell_length_b 9.751372
_cell_length_c 5.087004
_cell_angle_alpha 90.000000
_cell_angle_beta 90.000000
_cell_angle_gamma 90.000000
_cell_volume 1654.912361
_symmetry_space_group_name_H-M "P B A 2"
_symmetry_group_IT_number 32
_symmetry_cell_setting 'orthorhombic'
loop_
_space_group_symop_operation_xyz
x,y,z
-x,-y,z
1/2-x,1/2+y,z
1/2+x,1/2-y,z
loop_
_atom_site_type_symbol
_atom_site_label
_atom_site_fract_x
_atom_site_fract_y
_atom_site_fract_z
Si Si1 0.582558 0.520595 0.421070
Si Si2 0.482744 0.853443 0.901537
Si Si3 0.344477 0.845107 0.368992
Si Si4 0.432623 0.795957 0.402904
Si Si5 0.280619 0.556223 0.858379
Si Si6 0.795137 0.626086 0.857868
Si Si7 0.829752 0.969079 0.370846
Si Si8 0.036748 0.896964 0.932684
O O1 0.574530 0.363521 0.342589
O O2 0.629739 0.557749 0.400728
O O3 0.567908 0.553961 0.712899
O O4 0.558927 0.612793 0.211923
O O5 0.448087 0.813369 0.698146
O O6 0.520266 0.752536 0.868104
O O7 0.500000 0.000000 0.830467
O O8 0.464767 0.851663 0.194571
O O9 0.391482 0.883434 0.378611
O O10 0.317976 0.919317 0.592257
O O11 0.341488 0.685644 0.435067
O O12 0.327888 0.883600 0.085694
O O13 0.238156 0.487625 0.918476
O O14 0.275695 0.721405 0.845156
O O15 0.296785 0.489490 0.588090
O O16 0.311829 0.512232 0.082657
O O17 0.000000 0.000000 0.950943
#
# Coordination Sequence:
#
# PCOD8170424 Si02
#       8
#     4   4   4   4   4   4   4   4
#     4  11  20  35  61  87 109 137 188 241 276 312
#     4  12  25  38  57  80 115 152 184 220 285 337
#     4   9  19  33  57  83 104 138 188 222 259 311
#     4  11  20  38  60  83 109 145 189 237 269 320
#     4  10  19  34  56  79 110 141 178 215 264 321
#     4  10  19  34  56  83 108 140 176 221 264 320
#     4   9  19  33  54  84 108 138 175 224 274 315
#     4  12  21  36  59  86 109 140 188 232 273 325
#
# _framework density 19.336371
#
# number of rings (size 3 to 8) (size 9 to 14) (size 15 to 20)
#    0.000    1.500    2.500    3.750    0.000    4.000 
#    0.000    0.000   16.500    0.000    0.000    0.000 
#    0.000    0.000    0.000    0.000    0.000    0.000 
#
# Total GULP energy -396912.982960 kJ/mol
# GULP energy per Si atom -12403.530718 kJ/mol
# Density = 1.929236 g / cm^3
# Si number density = 19.336371 Si / 1000 Ang^3
#
#
#
# Elastic Constant Matrix: (Units=GPa)
#
#
# Indices 1 2 3 4 5 6 
#
# 1 70.5554 17.9669 8.8427 0.0000 0.0000 0.0000
# 2 17.9669 45.0856 9.6116 0.0000 0.0000 0.0000
# 3 8.8427 9.6116 83.2479 0.0000 0.0000 0.0000
# 4 0.0000 0.0000 0.0000 11.7584 0.0000 0.0000
# 5 0.0000 0.0000 0.0000 0.0000 34.8867 0.0000
# 6 0.0000 0.0000 0.0000 0.0000 0.0000 18.0942
#
#
#
# Elastic Compliance Matrix: (Units=1/GPa)
#
#
# Indices 1 2 3 4 5 6 
#
# 1 0.015851 -0.006108 -0.000979 0.000000 0.000000 0.000000
# 2 -0.006108 0.025094 -0.002248 0.000000 0.000000 0.000000
# 3 -0.000979 -0.002248 0.012376 0.000000 0.000000 0.000000
# 4 0.000000 0.000000 0.000000 0.085045 0.000000 0.000000
# 5 0.000000 0.000000 0.000000 0.000000 0.028664 0.000000
# 6 0.000000 0.000000 0.000000 0.000000 0.000000 0.055266
#
#
# Mechanical properties :
#
#
# Convention : Reuss Voigt Hill
#
# Bulk Modulus (GPa) = 28.85971 30.19237 29.52604
# Shear Modulus (GPa) = 19.80064 23.77906 21.78985
#
# Velocity S-wave (km/s) = 3.20349 3.51059 3.36055
# Velocity P-wave (km/s) = 5.35169 5.66397 5.51004
#
# Compressibility (1/GPa) = 0.03465039
#
# Stress axis : x y z
#
# Youngs Moduli (GPa) = 63.08611 39.85092 80.80258
#
# Poissons Ratio (x) = 0.24342 0.07907
# Poissons Ratio (y) = 0.38535 0.18168
# Poissons Ratio (z) = 0.06173 0.08960
#
# Static dielectric constant tensor:
#      x y z
#    x 3.821260 0.000000 0.000000 
#    y 0.000000 3.252680 0.000000 
#    z 0.000000 0.000000 3.588890 
# 
# 
# High freq. dielectric constant tensor:
#      x y z
#    x 1.761860 0.000000 0.000000 
#    y 0.000000 1.708890 0.000000 
#    z 0.000000 0.000000 1.771700 
# 
# From -- ./inp_files/1833.got.cif
#   From: 2010.03.12/outbox.cif.g09.slc.cpg/sg32_1_cif.got.tgz:1833.got - 2010.04.14 01:46:39.
