data_PCOD8170314
_publ_section_title
;
Structure prediction by ZEFSAII (Michael W. Deem and Ramdas Pophale) SiO2 
 PCOD8170314
Probable space group: P M N 21
;
_chemical_formula_sum "Si O2"
_cell_formula_units_Z 24
_cell_length_a 28.093288
_cell_length_b 4.975924
_cell_length_c 8.411752
_cell_angle_alpha 90.000000
_cell_angle_beta 90.000000
_cell_angle_gamma 90.000000
_cell_volume 1175.879367
_symmetry_space_group_name_H-M "P M N 21"
_symmetry_group_IT_number 31
_symmetry_cell_setting 'orthorhombic'
loop_
_space_group_symop_operation_xyz
x,y,z
1/2-x,-y,1/2+z
-x,y,z
1/2+x,-y,1/2+z
loop_
_atom_site_type_symbol
_atom_site_label
_atom_site_fract_x
_atom_site_fract_y
_atom_site_fract_z
Si Si1 0.228934 0.360868 0.617140
Si Si2 0.945564 0.065641 0.191375
Si Si3 0.554457 0.444617 0.899533
Si Si4 0.876729 0.982490 0.902682
Si Si5 0.876893 0.469380 0.687980
Si Si6 0.728950 0.860855 0.461847
O O1 0.173728 0.437996 0.601698
O O2 0.259863 0.627816 0.588681
O O3 0.242837 0.249130 0.789309
O O4 0.239969 0.127409 0.490376
O O5 0.927317 0.345457 0.266219
O O6 0.000000 0.088060 0.133042
O O7 0.939903 0.850885 0.330742
O O8 0.915213 0.978191 0.040866
O O9 0.500000 0.513162 0.943527
O O10 0.584229 0.451592 0.059902
O O11 0.872998 0.688921 0.826765
O O12 0.892783 0.190205 0.767034
O O13 0.826340 0.066998 0.976567
#
# Coordination Sequence:
#
# PCOD8170314 Si02
#       6
#     4   4   4   4   4   4
#     4  11  23  40  59  85 118 153 194 239 286 341
#     4  10  22  40  61  88 119 151 192 239 287 344
#     4  10  22  40  61  88 119 151 192 239 287 344
#     4  11  23  40  60  87 119 152 194 240 287 343
#     4  11  23  40  60  87 119 152 194 240 287 343
#     4  11  23  40  59  85 118 153 194 239 286 341
#
# _framework density 20.410256
#
# number of rings (size 3 to 8) (size 9 to 14) (size 15 to 20)
#    0.000    1.333    0.000    7.000    0.000    5.333 
#    0.000    0.000    0.000    0.000    0.000    0.000 
#    0.000    0.000    0.000    0.000    0.000    0.000 
#
# Total GULP energy -297753.702494 kJ/mol
# GULP energy per Si atom -12406.404271 kJ/mol
# Density = 2.036380 g / cm^3
# Si number density = 20.410256 Si / 1000 Ang^3
#
#
#
# Elastic Constant Matrix: (Units=GPa)
#
#
# Indices 1 2 3 4 5 6 
#
# 1 100.4367 27.1332 62.1122 0.0000 0.0000 0.0000
# 2 27.1332 86.7378 6.8934 0.0000 0.0000 0.0000
# 3 62.1122 6.8934 71.9316 0.0000 0.0000 0.0000
# 4 0.0000 0.0000 0.0000 46.7575 0.0000 0.0000
# 5 0.0000 0.0000 0.0000 0.0000 40.1505 0.0000
# 6 0.0000 0.0000 0.0000 0.0000 0.0000 -34.9218
#
#
#
# Elastic Compliance Matrix: (Units=1/GPa)
#
#
# Indices 1 2 3 4 5 6 
#
# 1 0.024043 -0.005916 -0.020194 0.000000 0.000000 0.000000
# 2 -0.005916 0.013073 0.003856 0.000000 0.000000 0.000000
# 3 -0.020194 0.003856 0.030970 0.000000 0.000000 0.000000
# 4 0.000000 0.000000 0.000000 0.021387 0.000000 0.000000
# 5 0.000000 0.000000 0.000000 0.000000 0.024906 0.000000
# 6 0.000000 0.000000 0.000000 0.000000 0.000000 -0.028635
#
#
# Mechanical properties :
#
#
# Convention : Reuss Voigt Hill
#
# Bulk Modulus (GPa) = 42.41363 50.15375 46.28369
# Shear Modulus (GPa) = 36.20221 21.26172 28.73197
#
# Velocity S-wave (km/s) = 4.21613 3.23107 3.75603
# Velocity P-wave (km/s) = 6.67283 6.20853 6.44487
#
# Compressibility (1/GPa) = 0.02357732
#
# Stress axis : x y z
#
# Youngs Moduli (GPa) = 41.59150 76.49186 32.28921
#
# Poissons Ratio (x) = 0.45255 0.65206
# Poissons Ratio (y) = 0.24607 -0.12450
# Poissons Ratio (z) = 0.83991 -0.29494
#
# Static dielectric constant tensor:
#      x y z
#    x 3.661790 0.000000 0.000000 
#    y 0.000000 4.031110 0.000000 
#    z 0.000000 0.000000 3.557190 
# 
# 
# High freq. dielectric constant tensor:
#      x y z
#    x 1.794600 0.000000 0.000000 
#    y 0.000000 1.823630 0.000000 
#    z 0.000000 0.000000 1.796190 
# 
# From -- ./inp_files/3050.got.cif
#   From: 2010.03.12/outbox.cif.g09.slc.cpg/sg31_2_cif.got.tgz:3050.got - 2010.04.14 01:42:59.
