data_PCOD8170140
_publ_section_title
;
Structure prediction by ZEFSAII (Michael W. Deem and Ramdas Pophale) SiO2 
 PCOD8170140
Probable space group: P M N 21
;
_chemical_formula_sum "Si O2"
_cell_formula_units_Z 32
_cell_length_a 9.219397
_cell_length_b 14.313934
_cell_length_c 12.710529
_cell_angle_alpha 90.000000
_cell_angle_beta 90.000000
_cell_angle_gamma 90.000000
_cell_volume 1677.355639
_symmetry_space_group_name_H-M "P M N 21"
_symmetry_group_IT_number 31
_symmetry_cell_setting 'orthorhombic'
loop_
_space_group_symop_operation_xyz
x,y,z
1/2-x,-y,1/2+z
-x,y,z
1/2+x,-y,1/2+z
loop_
_atom_site_type_symbol
_atom_site_label
_atom_site_fract_x
_atom_site_fract_y
_atom_site_fract_z
Si Si1 0.669189 0.944049 0.615050
Si Si2 0.829299 0.368949 0.830319
Si Si3 0.673972 0.675094 0.097357
Si Si4 0.327190 0.430758 0.407705
Si Si5 0.171391 0.855826 0.028722
Si Si6 0.658694 0.323500 0.202631
Si Si7 0.670730 0.749669 0.520294
Si Si8 0.342340 0.123700 0.295556
O O1 0.500000 0.937004 0.632653
O O2 0.721392 0.856520 0.542434
O O3 0.738473 0.944972 0.731238
O O4 0.715873 0.040529 0.562988
O O5 0.770246 0.361732 0.711206
O O6 0.778192 0.462757 0.889578
O O7 0.780079 0.280620 0.902507
O O8 0.000000 0.371080 0.820761
O O9 0.500000 0.675037 0.086360
O O10 0.734288 0.780378 0.090876
O O11 0.743577 0.609256 0.008562
O O12 0.500000 0.417494 0.424834
O O13 0.274763 0.376931 0.302680
O O14 0.000000 0.835249 0.043231
O O15 0.222051 0.849250 0.908179
O O16 0.500000 0.366642 0.174644
O O17 0.639288 0.215979 0.228700
O O18 0.762673 0.326575 0.101420
O O19 0.500000 0.740056 0.533904
O O20 0.500000 0.074859 0.310795
#
# Coordination Sequence:
#
# PCOD8170140 Si02
#       8
#     4   4   4   4   4   4   4   4
#     4   9  19  33  54  81 109 144 190 236 274 327
#     4   9  21  38  57  82 116 153 183 224 287 342
#     4  11  23  38  58  87 116 144 190 243 282 330
#     4  10  20  38  59  79 111 151 184 223 282 347
#     4  10  20  37  57  79 111 154 191 226 287 350
#     4   9  17  31  54  78 102 139 182 227 275 327
#     4   9  18  35  55  79 111 146 187 231 278 330
#     4   9  17  32  52  75 104 141 183 224 275 335
#
# _framework density 19.077646000000001
#
# number of rings (size 3 to 8) (size 9 to 14) (size 15 to 20)
#    0.000    2.500    1.250    0.375    1.750    2.500 
#    0.000    5.000    0.000    3.000    0.000    0.000 
#    0.000    0.000    0.000    0.000    0.000    0.000 
#
# Total GULP energy -396594.755868 kJ/mol
# GULP energy per Si atom -12393.586121 kJ/mol
# Density = 1.903422 g / cm^3
# Si number density = 19.077646 Si / 1000 Ang^3
#
#
#
# Elastic Constant Matrix: (Units=GPa)
#
#
# Indices 1 2 3 4 5 6 
#
# 1 43.8568 38.9675 42.0004 0.0000 0.0000 0.0000
# 2 38.9675 106.8635 62.7002 0.0000 0.0000 0.0000
# 3 42.0004 62.7002 137.3663 0.0000 0.0000 0.0000
# 4 0.0000 0.0000 0.0000 20.8074 0.0000 0.0000
# 5 0.0000 0.0000 0.0000 0.0000 30.8556 0.0000
# 6 0.0000 0.0000 0.0000 0.0000 0.0000 22.3663
#
#
#
# Elastic Compliance Matrix: (Units=1/GPa)
#
#
# Indices 1 2 3 4 5 6 
#
# 1 0.038452 -0.009729 -0.007316 0.000000 0.000000 0.000000
# 2 -0.009729 0.015242 -0.003982 0.000000 0.000000 0.000000
# 3 -0.007316 -0.003982 0.011335 0.000000 0.000000 0.000000
# 4 0.000000 0.000000 0.000000 0.048060 0.000000 0.000000
# 5 0.000000 0.000000 0.000000 0.000000 0.032409 0.000000
# 6 0.000000 0.000000 0.000000 0.000000 0.000000 0.044710
#
#
# Mechanical properties :
#
#
# Convention : Reuss Voigt Hill
#
# Bulk Modulus (GPa) = 43.52811 63.93585 53.73198
# Shear Modulus (GPa) = 20.84019 24.43377 22.63698
#
# Velocity S-wave (km/s) = 3.30871 3.58264 3.44840
# Velocity P-wave (km/s) = 6.12067 7.12040 6.63938
#
# Compressibility (1/GPa) = 0.02297366
#
# Stress axis : x y z
#
# Youngs Moduli (GPa) = 26.00618 65.60830 88.22546
#
# Poissons Ratio (x) = 0.63829 0.64549
# Poissons Ratio (y) = 0.25301 0.35136
# Poissons Ratio (z) = 0.19027 0.26128
#
# Static dielectric constant tensor:
#      x y z
#    x 3.508800 0.000000 0.000000 
#    y 0.000000 3.589370 0.000000 
#    z 0.000000 0.000000 3.659200 
# 
# 
# High freq. dielectric constant tensor:
#      x y z
#    x 1.719010 0.000000 0.000000 
#    y 0.000000 1.738760 0.000000 
#    z 0.000000 0.000000 1.747780 
# 
# From -- ./inp_files/3630.got.cif
#   From: 2010.03.12/outbox.cif.g09.slc.cpg/sg31_2_cif.got.tgz:3630.got - 2010.04.14 01:42:59.
