data_PCOD8170102
_publ_section_title
;
Structure prediction by ZEFSAII (Michael W. Deem and Ramdas Pophale) SiO2 
 PCOD8170102
Probable space group: P M N 21
;
_chemical_formula_sum "Si O2"
_cell_formula_units_Z 32
_cell_length_a 8.954655
_cell_length_b 12.284981
_cell_length_c 15.002072
_cell_angle_alpha 90.000000
_cell_angle_beta 90.000000
_cell_angle_gamma 90.000000
_cell_volume 1650.344434
_symmetry_space_group_name_H-M "P M N 21"
_symmetry_group_IT_number 31
_symmetry_cell_setting 'orthorhombic'
loop_
_space_group_symop_operation_xyz
x,y,z
1/2-x,-y,1/2+z
-x,y,z
1/2+x,-y,1/2+z
loop_
_atom_site_type_symbol
_atom_site_label
_atom_site_fract_x
_atom_site_fract_y
_atom_site_fract_z
Si Si1 0.323589 0.781003 0.413910
Si Si2 0.828842 0.756455 0.711742
Si Si3 0.170264 0.995023 0.410219
Si Si4 0.676489 0.618421 0.564431
Si Si5 0.176496 0.385071 0.561530
Si Si6 0.326326 0.766708 0.899506
Si Si7 0.827818 0.229565 0.712980
Si Si8 0.831065 0.993699 0.731064
O O1 0.500000 0.785577 0.413348
O O2 0.265829 0.685477 0.478374
O O3 0.260139 0.760657 0.313454
O O4 0.267778 0.897609 0.452352
O O5 0.726186 0.678437 0.653962
O O6 0.778012 0.749367 0.814114
O O7 0.812932 0.881677 0.675384
O O8 0.000000 0.717248 0.705174
O O9 0.203724 0.116230 0.448204
O O10 0.205250 0.005761 0.305847
O O11 0.000000 0.961445 0.425262
O O12 0.500000 0.607729 0.565016
O O13 0.746821 0.500643 0.560700
O O14 0.216764 0.325953 0.469537
O O15 0.245305 0.314554 0.643889
O O16 0.000000 0.399184 0.571476
O O17 0.500000 0.760303 0.870567
O O18 0.000000 0.260599 0.719080
O O19 0.808189 0.105371 0.674904
O O20 0.000000 0.996436 0.772812
#
# Coordination Sequence:
#
# PCOD8170102 Si02
#       8
#     4   4   4   4   4   4   4   4
#     4   9  19  36  55  75 105 144 179 215 265 321
#     4  10  20  35  58  83 107 140 180 221 267 325
#     4   9  16  28  51  82 112 138 169 213 264 317
#     4  11  24  39  53  74 107 144 185 233 276 313
#     4  10  21  37  56  78 105 141 185 225 262 315
#     4   9  19  35  55  82 115 144 171 215 272 321
#     4   8  15  32  57  80 103 134 173 216 262 315
#     4   8  15  30  53  80 108 137 172 212 260 323
#
# _framework density 19.389894000000002
#
# number of rings (size 3 to 8) (size 9 to 14) (size 15 to 20)
#    0.000    2.750    0.000    1.875    0.000    4.500 
#    0.000    6.250    0.000    0.000    0.000    0.000 
#    0.000    0.000    0.000    0.000    0.000    0.000 
#
# Total GULP energy -396519.585935 kJ/mol
# GULP energy per Si atom -12391.237060 kJ/mol
# Density = 1.934576 g / cm^3
# Si number density = 19.389894 Si / 1000 Ang^3
#
#
#
# Elastic Constant Matrix: (Units=GPa)
#
#
# Indices 1 2 3 4 5 6 
#
# 1 30.5740 37.9769 27.3623 0.0000 0.0000 0.0000
# 2 37.9769 176.7384 67.8550 0.0000 0.0000 0.0000
# 3 27.3623 67.8550 81.4444 0.0000 0.0000 0.0000
# 4 0.0000 0.0000 0.0000 34.9423 0.0000 0.0000
# 5 0.0000 0.0000 0.0000 0.0000 16.0838 0.0000
# 6 0.0000 0.0000 0.0000 0.0000 0.0000 31.6915
#
#
#
# Elastic Compliance Matrix: (Units=1/GPa)
#
#
# Indices 1 2 3 4 5 6 
#
# 1 0.051376 -0.006488 -0.011855 0.000000 0.000000 0.000000
# 2 -0.006488 0.009138 -0.005434 0.000000 0.000000 0.000000
# 3 -0.011855 -0.005434 0.020788 0.000000 0.000000 0.000000
# 4 0.000000 0.000000 0.000000 0.028619 0.000000 0.000000
# 5 0.000000 0.000000 0.000000 0.000000 0.062174 0.000000
# 6 0.000000 0.000000 0.000000 0.000000 0.000000 0.031554
#
#
# Mechanical properties :
#
#
# Convention : Reuss Voigt Hill
#
# Bulk Modulus (GPa) = 29.63037 61.68277 45.65657
# Shear Modulus (GPa) = 19.05097 26.91437 22.98267
#
# Velocity S-wave (km/s) = 3.13792 3.72971 3.44654
# Velocity P-wave (km/s) = 5.33322 7.10131 6.27980
#
# Compressibility (1/GPa) = 0.03374916
#
# Stress axis : x y z
#
# Youngs Moduli (GPa) = 19.46424 109.42784 48.10380
#
# Poissons Ratio (x) = 0.70997 0.57027
# Poissons Ratio (y) = 0.12629 0.26139
# Poissons Ratio (z) = 0.23075 0.59462
#
# Static dielectric constant tensor:
#      x y z
#    x 3.373970 0.000000 0.000000 
#    y 0.000000 3.823480 0.000000 
#    z 0.000000 0.000000 3.476220 
# 
# 
# High freq. dielectric constant tensor:
#      x y z
#    x 1.736850 0.000000 0.000000 
#    y 0.000000 1.767090 0.000000 
#    z 0.000000 0.000000 1.733580 
# 
# From -- ./inp_files/5033.got.cif
#   From: 2010.03.12/outbox.cif.g09.slc.cpg/sg31_3_cif.got.tgz:5033.got - 2010.04.14 01:42:59.
