data_PCOD8170123
_publ_section_title
;
Structure prediction by ZEFSAII (Michael W. Deem and Ramdas Pophale) SiO2 
 PCOD8170123
Probable space group: P M N 21
;
_chemical_formula_sum "Si O2"
_cell_formula_units_Z 32
_cell_length_a 8.637128
_cell_length_b 16.392392
_cell_length_c 10.663429
_cell_angle_alpha 90.000000
_cell_angle_beta 90.000000
_cell_angle_gamma 90.000000
_cell_volume 1509.762272
_symmetry_space_group_name_H-M "P M N 21"
_symmetry_group_IT_number 31
_symmetry_cell_setting 'orthorhombic'
loop_
_space_group_symop_operation_xyz
x,y,z
1/2-x,-y,1/2+z
-x,y,z
1/2+x,-y,1/2+z
loop_
_atom_site_type_symbol
_atom_site_label
_atom_site_fract_x
_atom_site_fract_y
_atom_site_fract_z
Si Si1 0.821492 0.682183 0.730150
Si Si2 0.324046 0.926417 0.617139
Si Si3 0.816644 0.237201 0.996301
Si Si4 0.822390 0.735525 0.234854
Si Si5 0.326288 0.825440 0.851598
Si Si6 0.316547 0.529049 0.868479
Si Si7 0.820385 0.892817 0.086600
Si Si8 0.817274 0.422742 0.648441
O O1 0.726202 0.698402 0.603861
O O2 0.804134 0.759371 0.820835
O O3 0.749621 0.607944 0.802967
O O4 0.000000 0.665467 0.697945
O O5 0.500000 0.934187 0.574274
O O6 0.250191 0.853773 0.531529
O O7 0.307806 0.902884 0.761691
O O8 0.250824 0.016629 0.609507
O O9 0.000000 0.233921 0.981246
O O10 0.738904 0.273775 0.874556
O O11 0.801161 0.831402 0.203053
O O12 0.731439 0.673052 0.142349
O O13 0.000000 0.709115 0.228041
O O14 0.500000 0.788350 0.838568
O O15 0.297251 0.856075 0.988689
O O16 0.500000 0.528565 0.863939
O O17 0.255340 0.455720 0.779873
O O18 0.264592 0.530740 0.017803
O O19 0.000000 0.895091 0.043060
O O20 0.000000 0.430148 0.660274
#
# Coordination Sequence:
#
# PCOD8170123 Si02
#       8
#     4   4   4   4   4   4   4   4
#     4  11  22  39  65  93 124 162 209 256 317 385
#     4   8  18  36  56  83 119 158 203 257 314 376
#     4  10  21  39  63  90 127 169 213 266 322 383
#     4  11  24  40  62  91 129 170 215 268 327 388
#     4  10  20  36  58  84 117 155 202 255 311 372
#     4  11  25  45  71 101 135 171 217 270 325 389
#     4  10  21  37  58  84 119 162 207 258 316 377
#     4  11  26  46  69  98 134 175 222 270 328 396
#
# _framework density 21.19539
#
# number of rings (size 3 to 8) (size 9 to 14) (size 15 to 20)
#    0.000    1.750    0.000    4.500    3.500    5.000 
#    0.000    3.125    0.000    0.000    0.000    0.000 
#    0.000    0.000    0.000    0.000    0.000    0.000 
#
# Total GULP energy -396521.378882 kJ/mol
# GULP energy per Si atom -12391.293090 kJ/mol
# Density = 2.114715 g / cm^3
# Si number density = 21.195390 Si / 1000 Ang^3
#
#
#
# Elastic Constant Matrix: (Units=GPa)
#
#
# Indices 1 2 3 4 5 6 
#
# 1 55.0058 27.4958 34.6536 0.0000 0.0000 0.0000
# 2 27.4958 79.8093 39.5677 0.0000 0.0000 0.0000
# 3 34.6536 39.5677 115.1389 0.0000 0.0000 0.0000
# 4 0.0000 0.0000 0.0000 19.0414 0.0000 0.0000
# 5 0.0000 0.0000 0.0000 0.0000 29.0907 0.0000
# 6 0.0000 0.0000 0.0000 0.0000 0.0000 26.5531
#
#
#
# Elastic Compliance Matrix: (Units=1/GPa)
#
#
# Indices 1 2 3 4 5 6 
#
# 1 0.024446 -0.005755 -0.005380 0.000000 0.000000 0.000000
# 2 -0.005755 0.016458 -0.003924 0.000000 0.000000 0.000000
# 3 -0.005380 -0.003924 0.011653 0.000000 0.000000 0.000000
# 4 0.000000 0.000000 0.000000 0.052517 0.000000 0.000000
# 5 0.000000 0.000000 0.000000 0.000000 0.034375 0.000000
# 6 0.000000 0.000000 0.000000 0.000000 0.000000 0.037660
#
#
# Mechanical properties :
#
#
# Convention : Reuss Voigt Hill
#
# Bulk Modulus (GPa) = 44.56412 50.37648 47.47030
# Shear Modulus (GPa) = 23.28768 24.81951 24.05359
#
# Velocity S-wave (km/s) = 3.31828 3.42568 3.37241
# Velocity P-wave (km/s) = 5.97933 6.28222 6.13264
#
# Compressibility (1/GPa) = 0.02243958
#
# Stress axis : x y z
#
# Youngs Moduli (GPa) = 40.90667 60.76145 85.81667
#
# Poissons Ratio (x) = 0.34967 0.46168
# Poissons Ratio (y) = 0.23541 0.33672
# Poissons Ratio (z) = 0.22007 0.23841
#
# Static dielectric constant tensor:
#      x y z
#    x 3.751570 0.000000 0.000000 
#    y 0.000000 4.214510 0.000000 
#    z 0.000000 0.000000 3.970860 
# 
# 
# High freq. dielectric constant tensor:
#      x y z
#    x 1.819920 0.000000 0.000000 
#    y 0.000000 1.840120 0.000000 
#    z 0.000000 0.000000 1.833520 
# 
# From -- ./inp_files/3738.got.cif
#   From: 2010.03.12/outbox.cif.g09.slc.cpg/sg31_2_cif.got.tgz:3738.got - 2010.04.14 01:42:59.
