data_PCOD8170674
_publ_section_title
;
Structure prediction by ZEFSAII (Michael W. Deem and Ramdas Pophale) SiO2 
 PCOD8170674
Probable space group: P N A 21
;
_chemical_formula_sum "Si O2"
_cell_formula_units_Z 24
_cell_length_a 12.334455
_cell_length_b 14.221521
_cell_length_c 6.459983
_cell_angle_alpha 90.000000
_cell_angle_beta 90.000000
_cell_angle_gamma 90.000000
_cell_volume 1133.176050
_symmetry_space_group_name_H-M "P N A 21"
_symmetry_group_IT_number 33
_symmetry_cell_setting 'orthorhombic'
loop_
_space_group_symop_operation_xyz
x,y,z
-x,-y,1/2+z
1/2-x,1/2+y,1/2+z
1/2+x,1/2-y,z
loop_
_atom_site_type_symbol
_atom_site_label
_atom_site_fract_x
_atom_site_fract_y
_atom_site_fract_z
Si Si1 0.379844 0.905363 0.713320
Si Si2 0.759586 0.348846 0.092338
Si Si3 0.408355 0.050903 0.397176
Si Si4 0.469248 0.707612 0.580903
Si Si5 0.393515 0.218503 0.717540
Si Si6 0.171607 0.826440 0.844887
O O1 0.468515 0.971281 0.826438
O O2 0.434849 0.803076 0.697215
O O3 0.262560 0.908642 0.827889
O O4 0.360129 0.955488 0.492843
O O5 0.828506 0.430814 0.201650
O O6 0.630275 0.366814 0.066712
O O7 0.768094 0.260533 0.241771
O O8 0.802078 0.324543 0.864968
O O9 0.423043 0.138090 0.554166
O O10 0.507344 0.740137 0.352418
O O11 0.562094 0.654233 0.713304
O O12 0.350476 0.308037 0.586612
#
# Coordination Sequence:
#
# PCOD8170674 Si02
#       6
#     4   4   4   4   4   4
#     4  11  21  37  59  88 124 159 198 258 309 370
#     4   9  20  35  57  85 118 153 198 249 299 367
#     4  11  22  37  55  88 127 155 201 253 321 363
#     4  10  19  38  60  88 114 156 206 250 302 360
#     4  10  18  35  56  89 116 153 204 251 311 352
#     4   9  20  36  57  88 117 152 205 253 298 362
#
# _framework density 21.179409
#
# number of rings (size 3 to 8) (size 9 to 14) (size 15 to 20)
#    0.000    2.000    5.000    1.000    2.333    1.333 
#    3.000    0.000    3.667    0.000    0.000    0.000 
#    0.000    0.000    0.000    0.000    0.000    0.000 
#
# Total GULP energy -297362.386349 kJ/mol
# GULP energy per Si atom -12390.099431 kJ/mol
# Density = 2.113120 g / cm^3
# Si number density = 21.179409 Si / 1000 Ang^3
#
#
#
# Elastic Constant Matrix: (Units=GPa)
#
#
# Indices 1 2 3 4 5 6 
#
# 1 182.8304 29.0058 58.7049 0.0000 0.0000 0.0000
# 2 29.0058 24.5622 10.4014 0.0000 0.0000 0.0000
# 3 58.7049 10.4014 114.4002 0.0000 0.0000 0.0000
# 4 0.0000 0.0000 0.0000 31.0777 0.0000 0.0000
# 5 0.0000 0.0000 0.0000 0.0000 20.1222 0.0000
# 6 0.0000 0.0000 0.0000 0.0000 0.0000 15.7606
#
#
#
# Elastic Compliance Matrix: (Units=1/GPa)
#
#
# Indices 1 2 3 4 5 6 
#
# 1 0.007753 -0.007770 -0.003272 0.000000 0.000000 0.000000
# 2 -0.007770 0.050130 -0.000571 0.000000 0.000000 0.000000
# 3 -0.003272 -0.000571 0.010472 0.000000 0.000000 0.000000
# 4 0.000000 0.000000 0.000000 0.032177 0.000000 0.000000
# 5 0.000000 0.000000 0.000000 0.000000 0.049696 0.000000
# 6 0.000000 0.000000 0.000000 0.000000 0.000000 0.063449
#
#
# Mechanical properties :
#
#
# Convention : Reuss Voigt Hill
#
# Bulk Modulus (GPa) = 22.15817 57.55746 39.85781
# Shear Modulus (GPa) = 19.84547 28.30415 24.07481
#
# Velocity S-wave (km/s) = 3.06439 3.65965 3.37517
# Velocity P-wave (km/s) = 4.79641 6.71509 5.83515
#
# Compressibility (1/GPa) = 0.04513008
#
# Stress axis : x y z
#
# Youngs Moduli (GPa) = 128.98551 19.94803 95.49140
#
# Poissons Ratio (x) = 0.15499 0.31244
# Poissons Ratio (y) = 1.00219 0.05451
# Poissons Ratio (z) = 0.42203 0.01139
#
# Static dielectric constant tensor:
#      x y z
#    x 4.302650 0.000000 0.000000 
#    y 0.000000 3.497800 0.000000 
#    z 0.000000 0.000000 4.109680 
# 
# 
# High freq. dielectric constant tensor:
#      x y z
#    x 1.838790 0.000000 0.000000 
#    y 0.000000 1.782850 0.000000 
#    z 0.000000 0.000000 1.838330 
# 
# From -- ./inp_files/837.got.cif
#   From: 2010.03.12/outbox.cif.g09.slc.cpg/sg33_1_cif.got.tgz:837.got - 2010.04.14 01:49:19.
