data_PCOD8170537
_publ_section_title
;
Structure prediction by ZEFSAII (Michael W. Deem and Ramdas Pophale) SiO2 
 PCOD8170537
Probable space group: P B A 2
;
_chemical_formula_sum "Si O2"
_cell_formula_units_Z 20
_cell_length_a 12.230245
_cell_length_b 15.047601
_cell_length_c 5.038914
_cell_angle_alpha 90.000000
_cell_angle_beta 90.000000
_cell_angle_gamma 90.000000
_cell_volume 927.340805
_symmetry_space_group_name_H-M "P B A 2"
_symmetry_group_IT_number 32
_symmetry_cell_setting 'orthorhombic'
loop_
_space_group_symop_operation_xyz
x,y,z
-x,-y,z
1/2-x,1/2+y,z
1/2+x,1/2-y,z
loop_
_atom_site_type_symbol
_atom_site_label
_atom_site_fract_x
_atom_site_fract_y
_atom_site_fract_z
Si Si1 0.686804 0.139944 0.093930
Si Si2 0.578213 0.576310 0.191566
Si Si3 0.388442 0.953488 0.609500
Si Si4 0.178801 0.052681 0.558940
Si Si5 0.127361 0.160017 0.069549
O O1 0.809585 0.101093 0.037797
O O2 0.647444 0.116127 0.386263
O O3 0.685078 0.245242 0.059202
O O4 0.601324 0.099916 0.884044
O O5 0.500000 0.500000 0.050124
O O6 0.608016 0.537350 0.487106
O O7 0.498219 0.662766 0.189044
O O8 0.500000 0.000000 0.528979
O O9 0.299312 0.029602 0.657072
O O10 0.196235 0.100464 0.274350
O O11 0.125029 0.116963 0.775830
#
# Coordination Sequence:
#
# PCOD8170537 Si02
#       5
#     4   4   4   4   4
#     4  11  24  40  61  96 124 157 210 261 310 370
#     4   9  21  39  64  88 124 165 206 250 306 377
#     4  11  23  41  62  85 123 166 203 245 304 376
#     4  10  22  40  62  90 119 164 211 245 303 384
#     4  11  23  40  63  93 124 156 202 267 313 349
#
# _framework density 21.567046000000001
#
# number of rings (size 3 to 8) (size 9 to 14) (size 15 to 20)
#    0.000    1.600    0.000    5.400    0.000   18.400 
#    0.000    0.000    0.000    0.000    0.000    0.000 
#    0.000    0.000    0.000    0.000    0.000    0.000 
#
# Total GULP energy -247769.730610 kJ/mol
# GULP energy per Si atom -12388.486530 kJ/mol
# Density = 2.151796 g / cm^3
# Si number density = 21.567046 Si / 1000 Ang^3
#
#
#
# Elastic Constant Matrix: (Units=GPa)
#
#
# Indices 1 2 3 4 5 6 
#
# 1 124.1881 56.6509 22.9180 0.0000 0.0000 0.0000
# 2 56.6509 95.4238 42.7835 0.0000 0.0000 0.0000
# 3 22.9180 42.7835 107.6458 0.0000 0.0000 0.0000
# 4 0.0000 0.0000 0.0000 32.6299 0.0000 0.0000
# 5 0.0000 0.0000 0.0000 0.0000 20.5904 0.0000
# 6 0.0000 0.0000 0.0000 0.0000 0.0000 34.5868
#
#
#
# Elastic Compliance Matrix: (Units=1/GPa)
#
#
# Indices 1 2 3 4 5 6 
#
# 1 0.011051 -0.006700 0.000310 0.000000 0.000000 0.000000
# 2 -0.006700 0.016814 -0.005256 0.000000 0.000000 0.000000
# 3 0.000310 -0.005256 0.011313 0.000000 0.000000 0.000000
# 4 0.000000 0.000000 0.000000 0.030647 0.000000 0.000000
# 5 0.000000 0.000000 0.000000 0.000000 0.048566 0.000000
# 6 0.000000 0.000000 0.000000 0.000000 0.000000 0.028913
#
#
# Mechanical properties :
#
#
# Convention : Reuss Voigt Hill
#
# Bulk Modulus (GPa) = 62.94947 63.55139 63.25043
# Shear Modulus (GPa) = 28.42667 31.22178 29.82422
#
# Velocity S-wave (km/s) = 3.63445 3.80894 3.72272
# Velocity P-wave (km/s) = 6.84569 6.99106 6.91876
#
# Compressibility (1/GPa) = 0.01588576
#
# Stress axis : x y z
#
# Youngs Moduli (GPa) = 90.48618 59.47503 88.39564
#
# Poissons Ratio (x) = 0.39848 -0.02740
# Poissons Ratio (y) = 0.60625 0.46462
# Poissons Ratio (z) = -0.02805 0.31261
#
# Static dielectric constant tensor:
#      x y z
#    x 4.089890 0.000000 0.000000 
#    y 0.000000 3.821600 0.000000 
#    z 0.000000 0.000000 3.840320 
# 
# 
# High freq. dielectric constant tensor:
#      x y z
#    x 1.843890 0.000000 0.000000 
#    y 0.000000 1.826720 0.000000 
#    z 0.000000 0.000000 1.853580 
# 
# From -- ./inp_files/798.got.cif
#   From: 2010.03.12/outbox.cif.g09.slc.cpg/sg32_1_cif.got.tgz:798.got - 2010.04.14 01:46:39.
