data_PCOD8170862
_publ_section_title
;
Structure prediction by ZEFSAII (Michael W. Deem and Ramdas Pophale) SiO2 
 PCOD8170862
Probable space group: P N A 21
;
_chemical_formula_sum "Si O2"
_cell_formula_units_Z 32
_cell_length_a 12.199059
_cell_length_b 12.372246
_cell_length_c 10.191764
_cell_angle_alpha 90.000000
_cell_angle_beta 90.000000
_cell_angle_gamma 90.000000
_cell_volume 1538.240483
_symmetry_space_group_name_H-M "P N A 21"
_symmetry_group_IT_number 33
_symmetry_cell_setting 'orthorhombic'
loop_
_space_group_symop_operation_xyz
x,y,z
-x,-y,1/2+z
1/2-x,1/2+y,1/2+z
1/2+x,1/2-y,z
loop_
_atom_site_type_symbol
_atom_site_label
_atom_site_fract_x
_atom_site_fract_y
_atom_site_fract_z
Si Si1 0.593773 0.738683 0.551890
Si Si2 0.562090 0.343353 0.838625
Si Si3 0.373272 0.468240 0.733720
Si Si4 0.181539 0.960242 0.943751
Si Si5 0.794036 0.656320 0.406781
Si Si6 0.471127 0.951263 0.578623
Si Si7 0.509027 0.670142 0.817610
Si Si8 0.075140 0.405457 0.369357
O O1 0.503896 0.669219 0.473759
O O2 0.712725 0.734341 0.486622
O O3 0.567502 0.865264 0.555306
O O4 0.590168 0.685671 0.694466
O O5 0.471314 0.377271 0.728869
O O6 0.649767 0.439275 0.851189
O O7 0.627270 0.230662 0.812954
O O8 0.320790 0.494860 0.594476
O O9 0.270819 0.428512 0.819351
O O10 0.417503 0.578591 0.796196
O O11 0.091069 0.865299 0.932504
O O12 0.298062 0.918171 0.898839
O O13 0.858393 0.592697 0.519204
O O14 0.456765 0.971788 0.735566
O O15 0.504654 0.056771 0.495504
O O16 0.445723 0.779161 0.850839
#
# Coordination Sequence:
#
# PCOD8170862 Si02
#       8
#     4   4   4   4   4   4   4   4
#     4   9  17  38  66  87 115 170 218 250 319 391
#     4   9  19  37  60  90 121 158 215 266 303 387
#     4  10  22  38  66  91 127 172 218 264 327 387
#     4  11  22  40  63  94 125 172 214 263 323 386
#     4  10  20  37  65  95 121 165 216 264 325 385
#     4  10  23  41  63  93 128 167 212 273 323 390
#     4  10  22  42  63  91 130 169 220 268 316 399
#     4  11  25  43  64  95 133 171 215 272 334 381
#
# _framework density 20.802990000000001
#
# number of rings (size 3 to 8) (size 9 to 14) (size 15 to 20)
#    0.000    2.000    1.250    1.500    1.750    2.000 
#    9.000    0.000    0.000    0.000    0.000    0.000 
#    0.000    0.000    0.000    0.000    0.000    0.000 
#
# Total GULP energy -396721.752259 kJ/mol
# GULP energy per Si atom -12397.554758 kJ/mol
# Density = 2.075564 g / cm^3
# Si number density = 20.802990 Si / 1000 Ang^3
#
#
#
# Elastic Constant Matrix: (Units=GPa)
#
#
# Indices 1 2 3 4 5 6 
#
# 1 96.2092 43.0849 40.2766 0.0000 0.0000 0.0000
# 2 43.0849 89.3843 33.7354 0.0000 0.0000 0.0000
# 3 40.2766 33.7354 88.2324 0.0000 0.0000 0.0000
# 4 0.0000 0.0000 0.0000 26.3612 0.0000 0.0000
# 5 0.0000 0.0000 0.0000 0.0000 28.9801 0.0000
# 6 0.0000 0.0000 0.0000 0.0000 0.0000 29.1706
#
#
#
# Elastic Compliance Matrix: (Units=1/GPa)
#
#
# Indices 1 2 3 4 5 6 
#
# 1 0.014749 -0.005339 -0.004691 0.000000 0.000000 0.000000
# 2 -0.005339 0.015007 -0.003301 0.000000 0.000000 0.000000
# 3 -0.004691 -0.003301 0.014737 0.000000 0.000000 0.000000
# 4 0.000000 0.000000 0.000000 0.037934 0.000000 0.000000
# 5 0.000000 0.000000 0.000000 0.000000 0.034506 0.000000
# 6 0.000000 0.000000 0.000000 0.000000 0.000000 0.034281
#
#
# Mechanical properties :
#
#
# Convention : Reuss Voigt Hill
#
# Bulk Modulus (GPa) = 56.08122 56.44661 56.26392
# Shear Modulus (GPa) = 27.20053 27.35099 27.27576
#
# Velocity S-wave (km/s) = 3.61990 3.62990 3.62490
# Velocity P-wave (km/s) = 6.66996 6.69037 6.68017
#
# Compressibility (1/GPa) = 0.01783128
#
# Stress axis : x y z
#
# Youngs Moduli (GPa) = 67.80248 66.63679 67.85509
#
# Poissons Ratio (x) = 0.35574 0.31833
# Poissons Ratio (y) = 0.36197 0.22398
# Poissons Ratio (z) = 0.31809 0.21996
#
# Static dielectric constant tensor:
#      x y z
#    x 3.807660 0.000000 0.000000 
#    y 0.000000 3.715170 0.000000 
#    z 0.000000 0.000000 3.737110 
# 
# 
# High freq. dielectric constant tensor:
#      x y z
#    x 1.824730 0.000000 0.000000 
#    y 0.000000 1.809770 0.000000 
#    z 0.000000 0.000000 1.802300 
# 
# From -- ./inp_files/6516.got.cif
#   From: 2010.03.12/outbox.cif.g09.slc.cpg/sg33_4_cif.got.tgz:6516.got - 2010.04.14 01:49:19.
