data_PCOD8170959
_publ_section_title
;
Structure prediction by ZEFSAII (Michael W. Deem and Ramdas Pophale) SiO2 
 PCOD8170959
Probable space group: P N A 21
;
_chemical_formula_sum "Si O2"
_cell_formula_units_Z 24
_cell_length_a 12.452799
_cell_length_b 17.797581
_cell_length_c 4.967323
_cell_angle_alpha 90.000000
_cell_angle_beta 90.000000
_cell_angle_gamma 90.000000
_cell_volume 1100.906301
_symmetry_space_group_name_H-M "P N A 21"
_symmetry_group_IT_number 33
_symmetry_cell_setting 'orthorhombic'
loop_
_space_group_symop_operation_xyz
x,y,z
-x,-y,1/2+z
1/2-x,1/2+y,1/2+z
1/2+x,1/2-y,z
loop_
_atom_site_type_symbol
_atom_site_label
_atom_site_fract_x
_atom_site_fract_y
_atom_site_fract_z
Si Si1 0.289859 0.818057 0.762170
Si Si2 0.456134 0.960940 0.242829
Si Si3 0.542896 0.461975 0.520931
Si Si4 0.769168 0.055601 0.909210
Si Si5 0.911076 0.174228 0.584405
Si Si6 0.933165 0.703336 0.279078
O O1 0.276518 0.906634 0.684320
O O2 0.341850 0.774809 0.502416
O O3 0.170136 0.790252 0.859172
O O4 0.375390 0.805872 0.994538
O O5 0.327326 0.965822 0.212365
O O6 0.487851 0.877157 0.345581
O O7 0.494746 0.023127 0.453081
O O8 0.524693 0.481256 0.833722
O O9 0.668379 0.477766 0.465210
O O10 0.506670 0.376718 0.452824
O O11 0.842044 0.120125 0.775228
O O12 0.969840 0.237461 0.761800
#
# Coordination Sequence:
#
# PCOD8170959 Si02
#       6
#     4   4   4   4   4   4
#     4  11  21  43  66  93 135 181 212 278 344 394
#     4  11  23  43  66  92 131 177 220 271 330 406
#     4  10  21  36  67 101 125 166 219 268 334 399
#     4  10  22  43  69  98 132 178 215 283 336 397
#     4  11  23  44  72  98 137 181 218 289 337 403
#     4  11  26  41  70  98 132 179 236 263 343 407
#
# _framework density 21.800218999999998
#
# number of rings (size 3 to 8) (size 9 to 14) (size 15 to 20)
#    0.000    1.333    5.000    2.000    2.333    0.000 
#    3.000    0.000    3.667    0.000    0.000    0.000 
#    0.000    0.000    0.000    0.000    0.000    0.000 
#
# Total GULP energy -297346.174034 kJ/mol
# GULP energy per Si atom -12389.423918 kJ/mol
# Density = 2.175060 g / cm^3
# Si number density = 21.800219 Si / 1000 Ang^3
#
#
#
# Elastic Constant Matrix: (Units=GPa)
#
#
# Indices 1 2 3 4 5 6 
#
# 1 132.8888 67.7615 41.3056 0.0000 0.0000 0.0000
# 2 67.7615 79.8822 21.1325 0.0000 0.0000 0.0000
# 3 41.3056 21.1325 105.1400 0.0000 0.0000 0.0000
# 4 0.0000 0.0000 0.0000 27.0843 0.0000 0.0000
# 5 0.0000 0.0000 0.0000 0.0000 41.4021 0.0000
# 6 0.0000 0.0000 0.0000 0.0000 0.0000 42.6872
#
#
#
# Elastic Compliance Matrix: (Units=1/GPa)
#
#
# Indices 1 2 3 4 5 6 
#
# 1 0.014302 -0.011244 -0.003359 0.000000 0.000000 0.000000
# 2 -0.011244 0.022061 -0.000017 0.000000 0.000000 0.000000
# 3 -0.003359 -0.000017 0.010834 0.000000 0.000000 0.000000
# 4 0.000000 0.000000 0.000000 0.036922 0.000000 0.000000
# 5 0.000000 0.000000 0.000000 0.000000 0.024153 0.000000
# 6 0.000000 0.000000 0.000000 0.000000 0.000000 0.023426
#
#
# Mechanical properties :
#
#
# Convention : Reuss Voigt Hill
#
# Bulk Modulus (GPa) = 55.68508 64.25670 59.97089
# Shear Modulus (GPa) = 29.95384 34.74881 32.35132
#
# Velocity S-wave (km/s) = 3.71079 3.99678 3.85644
# Velocity P-wave (km/s) = 6.63014 7.13010 6.88466
#
# Compressibility (1/GPa) = 0.01795813
#
# Stress axis : x y z
#
# Youngs Moduli (GPa) = 69.91814 45.32981 92.30098
#
# Poissons Ratio (x) = 0.50967 0.31004
# Poissons Ratio (y) = 0.78614 0.00155
# Poissons Ratio (z) = 0.23485 0.00076
#
# Static dielectric constant tensor:
#      x y z
#    x 4.222220 0.000000 0.000000 
#    y 0.000000 3.895890 0.000000 
#    z 0.000000 0.000000 4.006040 
# 
# 
# High freq. dielectric constant tensor:
#      x y z
#    x 1.860760 0.000000 0.000000 
#    y 0.000000 1.816270 0.000000 
#    z 0.000000 0.000000 1.867620 
# 
# From -- ./inp_files/883.got.cif
#   From: 2010.03.12/outbox.cif.g09.slc.cpg/sg33_1_cif.got.tgz:883.got - 2010.04.14 01:49:19.
