data_PCOD8170766
_publ_section_title
;
Structure prediction by ZEFSAII (Michael W. Deem and Ramdas Pophale) SiO2 
 PCOD8170766
Probable space group: P N A 21
;
_chemical_formula_sum "Si O2"
_cell_formula_units_Z 32
_cell_length_a 5.116638
_cell_length_b 14.861513
_cell_length_c 19.415327
_cell_angle_alpha 90.000000
_cell_angle_beta 90.000000
_cell_angle_gamma 90.000000
_cell_volume 1476.360534
_symmetry_space_group_name_H-M "P N A 21"
_symmetry_group_IT_number 33
_symmetry_cell_setting 'orthorhombic'
loop_
_space_group_symop_operation_xyz
x,y,z
-x,-y,1/2+z
1/2-x,1/2+y,1/2+z
1/2+x,1/2-y,z
loop_
_atom_site_type_symbol
_atom_site_label
_atom_site_fract_x
_atom_site_fract_y
_atom_site_fract_z
Si Si1 0.950528 0.644172 0.165610
Si Si2 0.952685 0.842001 0.104071
Si Si3 0.417118 0.938176 0.313265
Si Si4 0.419361 0.451563 0.331671
Si Si5 0.987420 0.806923 0.942797
Si Si6 0.314130 0.306483 0.074578
Si Si7 0.676395 0.190747 0.932103
Si Si8 0.239941 0.309326 0.223363
O O1 0.921985 0.750613 0.149353
O O2 0.690799 0.598756 0.133640
O O3 0.975039 0.621793 0.245945
O O4 0.190426 0.602692 0.121469
O O5 0.993967 0.822819 0.024202
O O6 0.277890 0.877902 0.370768
O O7 0.694639 0.973382 0.342513
O O8 0.193607 0.013210 0.299841
O O9 0.479210 0.401359 0.403638
O O10 0.283890 0.385850 0.278025
O O11 0.716353 0.761284 0.920675
O O12 0.619911 0.280677 0.072087
O O13 0.260167 0.355487 0.147356
O O14 0.233400 0.361342 0.005267
O O15 0.382614 0.227777 0.926994
O O16 0.450577 0.230101 0.233573
#
# Coordination Sequence:
#
# PCOD8170766 Si02
#       8
#     4   4   4   4   4   4   4   4
#     4  10  20  36  60  86 128 151 212 269 315 375
#     4  10  19  37  64  98 111 157 225 278 308 356
#     4  12  26  41  57  90 138 171 202 259 332 395
#     4  12  26  41  57  92 135 173 201 257 334 395
#     4  12  21  41  68  95 125 165 228 279 316 389
#     4   8  16  32  58  85 109 130 191 257 286 338
#     4  10  21  38  63  90 109 158 210 254 301 355
#     4  10  19  38  65  90 109 155 211 257 298 355
#
# _framework density 21.674921999999999
#
# number of rings (size 3 to 8) (size 9 to 14) (size 15 to 20)
#    0.000    1.500    2.500    3.750    3.500    0.000 
#    0.000    3.750    0.000    0.000    0.000    0.000 
#    0.000    0.000    0.000    0.000    0.000    0.000 
#
# Total GULP energy -396523.556037 kJ/mol
# GULP energy per Si atom -12391.361126 kJ/mol
# Density = 2.162559 g / cm^3
# Si number density = 21.674922 Si / 1000 Ang^3
#
#
#
# Elastic Constant Matrix: (Units=GPa)
#
#
# Indices 1 2 3 4 5 6 
#
# 1 133.7732 7.5154 19.5258 0.0000 0.0000 0.0000
# 2 7.5154 42.8895 45.1735 0.0000 0.0000 0.0000
# 3 19.5258 45.1735 130.2961 0.0000 0.0000 0.0000
# 4 0.0000 0.0000 0.0000 6.1695 0.0000 0.0000
# 5 0.0000 0.0000 0.0000 0.0000 33.1924 0.0000
# 6 0.0000 0.0000 0.0000 0.0000 0.0000 11.4990
#
#
#
# Elastic Compliance Matrix: (Units=1/GPa)
#
#
# Indices 1 2 3 4 5 6 
#
# 1 0.007644 -0.000209 -0.001073 0.000000 0.000000 0.000000
# 2 -0.000209 0.036733 -0.012704 0.000000 0.000000 0.000000
# 3 -0.001073 -0.012704 0.012240 0.000000 0.000000 0.000000
# 4 0.000000 0.000000 0.000000 0.162088 0.000000 0.000000
# 5 0.000000 0.000000 0.000000 0.000000 0.030127 0.000000
# 6 0.000000 0.000000 0.000000 0.000000 0.000000 0.086964
#
#
# Mechanical properties :
#
#
# Convention : Reuss Voigt Hill
#
# Bulk Modulus (GPa) = 34.91092 50.15424 42.53258
# Shear Modulus (GPa) = 13.39347 25.82178 19.60763
#
# Velocity S-wave (km/s) = 2.48851 3.45530 3.01096
# Velocity P-wave (km/s) = 4.93948 6.25366 5.63501
#
# Compressibility (1/GPa) = 0.02864433
#
# Stress axis : x y z
#
# Youngs Moduli (GPa) = 130.82672 27.22364 81.69938
#
# Poissons Ratio (x) = 0.00570 0.08765
# Poissons Ratio (y) = 0.02739 1.03789
# Poissons Ratio (z) = 0.14036 0.34584
#
# Static dielectric constant tensor:
#      x y z
#    x 5.193230 0.000000 0.000000 
#    y 0.000000 3.425380 0.000000 
#    z 0.000000 0.000000 4.163190 
# 
# 
# High freq. dielectric constant tensor:
#      x y z
#    x 1.889640 0.000000 0.000000 
#    y 0.000000 1.787600 0.000000 
#    z 0.000000 0.000000 1.868740 
# 
# From -- ./inp_files/8369.got.cif
#   From: 2010.03.12/outbox.cif.g09.slc.cpg/sg33_5_cif.got.tgz:8369.got - 2010.04.14 01:49:19.
