data_PCOD8170801
_publ_section_title
;
Structure prediction by ZEFSAII (Michael W. Deem and Ramdas Pophale) SiO2 
 PCOD8170801
Probable space group: P N A 21
;
_chemical_formula_sum "Si O2"
_cell_formula_units_Z 20
_cell_length_a 9.180224
_cell_length_b 16.982844
_cell_length_c 6.840997
_cell_angle_alpha 90.000000
_cell_angle_beta 90.000000
_cell_angle_gamma 90.000000
_cell_volume 1066.554613
_symmetry_space_group_name_H-M "P N A 21"
_symmetry_group_IT_number 33
_symmetry_cell_setting 'orthorhombic'
loop_
_space_group_symop_operation_xyz
x,y,z
-x,-y,1/2+z
1/2-x,1/2+y,1/2+z
1/2+x,1/2-y,z
loop_
_atom_site_type_symbol
_atom_site_label
_atom_site_fract_x
_atom_site_fract_y
_atom_site_fract_z
Si Si1 0.131069 0.310088 0.648690
Si Si2 0.305730 0.163779 0.720418
Si Si3 0.890556 0.083505 0.650207
Si Si4 0.109808 0.175111 0.388826
Si Si5 0.601020 0.409393 0.998878
O O1 0.223513 0.246201 0.775758
O O2 0.221774 0.390769 0.640396
O O3 0.100166 0.269442 0.435279
O O4 0.977667 0.329806 0.749387
O O5 0.256528 0.141308 0.497075
O O6 0.246205 0.096693 0.866809
O O7 0.969747 0.133761 0.484376
O O8 0.958676 0.101068 0.863428
O O9 0.902042 0.991361 0.611302
O O10 0.107339 0.160226 0.158900
#
# Coordination Sequence:
#
# PCOD8170801 Si02
#       5
#     4   4   4   4   4
#     4  10  19  44  59  83 130 156 196 267 290 353
#     4   9  20  39  59  85 123 152 203 250 296 358
#     4  11  21  39  66  88 122 163 203 251 303 365
#     4   9  19  39  62  87 114 157 200 249 294 366
#     4  11  21  39  64  89 121 164 206 245 307 368
#
# _framework density 18.751968000000002
#
# number of rings (size 3 to 8) (size 9 to 14) (size 15 to 20)
#    1.200    0.800    4.000    0.000    0.000    0.000 
#   18.000    0.000    0.000    0.000    0.000    0.000 
#    0.000    0.000    0.000    0.000    0.000    0.000 
#
# Total GULP energy -247790.285682 kJ/mol
# GULP energy per Si atom -12389.514284 kJ/mol
# Density = 1.870929 g / cm^3
# Si number density = 18.751968 Si / 1000 Ang^3
#
#
#
# Elastic Constant Matrix: (Units=GPa)
#
#
# Indices 1 2 3 4 5 6 
#
# 1 151.7101 31.1198 35.8166 0.0000 0.0000 0.0000
# 2 31.1198 53.8942 32.8199 0.0000 0.0000 0.0000
# 3 35.8166 32.8199 107.8962 0.0000 0.0000 0.0000
# 4 0.0000 0.0000 0.0000 28.7706 0.0000 0.0000
# 5 0.0000 0.0000 0.0000 0.0000 9.1107 0.0000
# 6 0.0000 0.0000 0.0000 0.0000 0.0000 30.3705
#
#
#
# Elastic Compliance Matrix: (Units=1/GPa)
#
#
# Indices 1 2 3 4 5 6 
#
# 1 0.007663 -0.003529 -0.001470 0.000000 0.000000 0.000000
# 2 -0.003529 0.024399 -0.006250 0.000000 0.000000 0.000000
# 3 -0.001470 -0.006250 0.011657 0.000000 0.000000 0.000000
# 4 0.000000 0.000000 0.000000 0.034758 0.000000 0.000000
# 5 0.000000 0.000000 0.000000 0.000000 0.109761 0.000000
# 6 0.000000 0.000000 0.000000 0.000000 0.000000 0.032927
#
#
# Mechanical properties :
#
#
# Convention : Reuss Voigt Hill
#
# Bulk Modulus (GPa) = 47.12578 57.00146 52.06362
# Shear Modulus (GPa) = 19.94127 27.89997 23.92062
#
# Velocity S-wave (km/s) = 3.26455 3.86144 3.57547
# Velocity P-wave (km/s) = 6.27658 7.09539 6.69851
#
# Compressibility (1/GPa) = 0.02121981
#
# Stress axis : x y z
#
# Youngs Moduli (GPa) = 130.50513 40.98550 85.78310
#
# Poissons Ratio (x) = 0.14465 0.12611
# Poissons Ratio (y) = 0.46059 0.53615
# Poissons Ratio (z) = 0.19185 0.25616
#
# Static dielectric constant tensor:
#      x y z
#    x 3.309400 0.000000 0.000000 
#    y 0.000000 3.338780 0.000000 
#    z 0.000000 0.000000 3.227650 
# 
# 
# High freq. dielectric constant tensor:
#      x y z
#    x 1.721480 0.000000 0.000000 
#    y 0.000000 1.712130 0.000000 
#    z 0.000000 0.000000 1.706610 
# 
# From -- ./inp_files/355.got.cif
#   From: 2010.03.12/outbox.cif.g09.slc.cpg/sg33_1_cif.got.tgz:355.got - 2010.04.14 01:49:19.
