data_PCOD8170282
_publ_section_title
;
Structure prediction by ZEFSAII (Michael W. Deem and Ramdas Pophale) SiO2 
 PCOD8170282
Probable space group: P M N 21
;
_chemical_formula_sum "Si O2"
_cell_formula_units_Z 32
_cell_length_a 14.189174
_cell_length_b 9.479167
_cell_length_c 11.691154
_cell_angle_alpha 90.000000
_cell_angle_beta 90.000000
_cell_angle_gamma 90.000000
_cell_volume 1572.478334
_symmetry_space_group_name_H-M "P M N 21"
_symmetry_group_IT_number 31
_symmetry_cell_setting 'orthorhombic'
loop_
_space_group_symop_operation_xyz
x,y,z
1/2-x,-y,1/2+z
-x,y,z
1/2+x,-y,1/2+z
loop_
_atom_site_type_symbol
_atom_site_label
_atom_site_fract_x
_atom_site_fract_y
_atom_site_fract_z
Si Si1 0.275498 0.635290 0.225720
Si Si2 0.775771 0.131971 0.899849
Si Si3 0.605264 0.942818 0.844938
Si Si4 0.608194 0.796159 0.609724
Si Si5 0.391537 0.079569 0.254892
Si Si6 0.895540 0.151368 0.587914
Si Si7 0.893071 0.536736 0.081532
Si Si8 0.388480 0.385950 0.322005
O O1 0.274569 0.710549 0.348933
O O2 0.322209 0.737394 0.133787
O O3 0.171034 0.608294 0.178266
O O4 0.335346 0.493700 0.238574
O O5 0.672232 0.072729 0.875212
O O6 0.852263 0.032889 0.842672
O O7 0.811225 0.135897 0.030116
O O8 0.500000 0.004317 0.828465
O O9 0.636581 0.852639 0.735057
O O10 0.608861 0.836466 0.951594
O O11 0.500000 0.841360 0.579088
O O12 0.615992 0.629544 0.598151
O O13 0.500000 0.097532 0.283357
O O14 0.348537 0.234813 0.277358
O O15 0.373209 0.011188 0.128858
O O16 0.000000 0.190733 0.633390
O O17 0.000000 0.586693 0.103961
O O18 0.861743 0.586506 0.954563
O O19 0.500000 0.405265 0.303528
#
# Coordination Sequence:
#
# PCOD8170282 Si02
#       8
#     4   4   4   4   4   4   4   4
#     4  11  23  37  62  94 123 166 205 257 318 379
#     4  11  23  37  65  93 124 159 212 259 314 382
#     4  10  24  41  62  89 126 166 210 262 319 380
#     4  10  22  43  67  92 125 171 216 264 320 380
#     4   9  20  36  62  94 124 157 201 266 321 367
#     4   9  20  40  61  90 127 163 207 260 319 380
#     4  10  23  40  62  93 133 167 210 265 318 381
#     4  10  21  40  63  93 126 163 211 265 315 375
#
# _framework density 20.350041999999998
#
# number of rings (size 3 to 8) (size 9 to 14) (size 15 to 20)
#    0.000    2.000    1.250    0.750    7.000    1.500 
#    0.000    2.500    0.000    1.500    0.000    0.000 
#    0.000    0.000    0.000    0.000    0.000    0.000 
#
# Total GULP energy -396634.415843 kJ/mol
# GULP energy per Si atom -12394.825495 kJ/mol
# Density = 2.030372 g / cm^3
# Si number density = 20.350042 Si / 1000 Ang^3
#
#
#
# Elastic Constant Matrix: (Units=GPa)
#
#
# Indices 1 2 3 4 5 6 
#
# 1 78.7636 43.4466 59.0824 0.0000 0.0000 0.0000
# 2 43.4466 102.8904 49.5038 0.0000 0.0000 0.0000
# 3 59.0824 49.5038 132.0014 0.0000 0.0000 0.0000
# 4 0.0000 0.0000 0.0000 20.9411 0.0000 0.0000
# 5 0.0000 0.0000 0.0000 0.0000 31.0928 0.0000
# 6 0.0000 0.0000 0.0000 0.0000 0.0000 33.1538
#
#
#
# Elastic Compliance Matrix: (Units=1/GPa)
#
#
# Indices 1 2 3 4 5 6 
#
# 1 0.021302 -0.005378 -0.007518 0.000000 0.000000 0.000000
# 2 -0.005378 0.013217 -0.002549 0.000000 0.000000 0.000000
# 3 -0.007518 -0.002549 0.011897 0.000000 0.000000 0.000000
# 4 0.000000 0.000000 0.000000 0.047753 0.000000 0.000000
# 5 0.000000 0.000000 0.000000 0.000000 0.032162 0.000000
# 6 0.000000 0.000000 0.000000 0.000000 0.000000 0.030162
#
#
# Mechanical properties :
#
#
# Convention : Reuss Voigt Hill
#
# Bulk Modulus (GPa) = 64.41221 68.63567 66.52394
# Shear Modulus (GPa) = 25.96626 27.81236 26.88931
#
# Velocity S-wave (km/s) = 3.57596 3.70090 3.63897
# Velocity P-wave (km/s) = 6.98361 7.21547 7.10049
#
# Compressibility (1/GPa) = 0.01552501
#
# Stress axis : x y z
#
# Youngs Moduli (GPa) = 46.94411 75.66235 84.05775
#
# Poissons Ratio (x) = 0.40691 0.63192
# Poissons Ratio (y) = 0.25247 0.21430
# Poissons Ratio (z) = 0.35291 0.19289
#
# Static dielectric constant tensor:
#      x y z
#    x 3.807880 0.000000 0.000000 
#    y 0.000000 3.626310 0.000000 
#    z 0.000000 0.000000 3.764270 
# 
# 
# High freq. dielectric constant tensor:
#      x y z
#    x 1.805120 0.000000 0.000000 
#    y 0.000000 1.787610 0.000000 
#    z 0.000000 0.000000 1.793980 
# 
# From -- ./inp_files/4285.got.cif
#   From: 2010.03.12/outbox.cif.g09.slc.cpg/sg31_3_cif.got.tgz:4285.got - 2010.04.14 01:42:59.
