data_PCOD8170466
_publ_section_title
;
Structure prediction by ZEFSAII (Michael W. Deem and Ramdas Pophale) SiO2 
 PCOD8170466
Probable space group: P B A 2
;
_chemical_formula_sum "Si O2"
_cell_formula_units_Z 24
_cell_length_a 17.644850
_cell_length_b 8.619895
_cell_length_c 7.714597
_cell_angle_alpha 90.000000
_cell_angle_beta 90.000000
_cell_angle_gamma 90.000000
_cell_volume 1173.365164
_symmetry_space_group_name_H-M "P B A 2"
_symmetry_group_IT_number 32
_symmetry_cell_setting 'orthorhombic'
loop_
_space_group_symop_operation_xyz
x,y,z
-x,-y,z
1/2-x,1/2+y,z
1/2+x,1/2-y,z
loop_
_atom_site_type_symbol
_atom_site_label
_atom_site_fract_x
_atom_site_fract_y
_atom_site_fract_z
Si Si1 0.356683 0.860265 0.664160
Si Si2 0.719151 0.832703 0.544606
Si Si3 0.645696 0.191910 0.044905
Si Si4 0.388572 0.388982 0.378532
Si Si5 0.732763 0.466409 0.174217
Si Si6 0.949540 0.773925 0.371315
O O1 0.293071 0.728836 0.641256
O O2 0.423891 0.844574 0.522435
O O3 0.319565 0.029488 0.650746
O O4 0.391308 0.835261 0.856181
O O5 0.660085 0.689345 0.531784
O O6 0.745073 0.887818 0.355537
O O7 0.701415 0.339549 0.040795
O O8 0.693417 0.040158 0.091658
O O9 0.580806 0.217491 0.186356
O O10 0.333701 0.405800 0.210137
O O11 0.460192 0.277360 0.344044
O O12 0.417327 0.559517 0.430783
#
# Coordination Sequence:
#
# PCOD8170466 Si02
#       6
#     4   4   4   4   4   4
#     4  12  22  37  62  88 121 157 198 250 296 356
#     4  12  19  38  64  88 115 156 204 245 296 347
#     4  11  22  37  60  88 119 155 197 246 296 348
#     4  10  20  37  67  85 114 165 194 242 309 346
#     4  11  18  38  62  85 114 151 203 246 290 347
#     4  10  21  41  60  86 125 155 197 243 299 369
#
# _framework density 20.453992
#
# number of rings (size 3 to 8) (size 9 to 14) (size 15 to 20)
#    0.000    1.000    8.333    1.000    0.000    0.667 
#    0.000    8.333    3.667    0.000    0.000    0.000 
#    0.000    0.000    0.000    0.000    0.000    0.000 
#
# Total GULP energy -297546.658848 kJ/mol
# GULP energy per Si atom -12397.777452 kJ/mol
# Density = 2.040744 g / cm^3
# Si number density = 20.453992 Si / 1000 Ang^3
#
#
#
# Elastic Constant Matrix: (Units=GPa)
#
#
# Indices 1 2 3 4 5 6 
#
# 1 67.4530 -8.8407 21.8030 0.0000 0.0000 0.0000
# 2 -8.8407 49.1084 22.0756 0.0000 0.0000 0.0000
# 3 21.8030 22.0756 123.0658 0.0000 0.0000 0.0000
# 4 0.0000 0.0000 0.0000 24.5838 0.0000 0.0000
# 5 0.0000 0.0000 0.0000 0.0000 10.1914 0.0000
# 6 0.0000 0.0000 0.0000 0.0000 0.0000 26.8785
#
#
#
# Elastic Compliance Matrix: (Units=1/GPa)
#
#
# Indices 1 2 3 4 5 6 
#
# 1 0.016670 0.004708 -0.003798 0.000000 0.000000 0.000000
# 2 0.004708 0.023479 -0.005046 0.000000 0.000000 0.000000
# 3 -0.003798 -0.005046 0.009704 0.000000 0.000000 0.000000
# 4 0.000000 0.000000 0.000000 0.040677 0.000000 0.000000
# 5 0.000000 0.000000 0.000000 0.000000 0.098122 0.000000
# 6 0.000000 0.000000 0.000000 0.000000 0.000000 0.037204
#
#
# Mechanical properties :
#
#
# Convention : Reuss Voigt Hill
#
# Bulk Modulus (GPa) = 24.04912 34.41144 29.23028
# Shear Modulus (GPa) = 20.16229 25.97003 23.06616
#
# Velocity S-wave (km/s) = 3.14305 3.56712 3.36178
# Velocity P-wave (km/s) = 4.99549 5.81603 5.42130
#
# Compressibility (1/GPa) = 0.04158157
#
# Stress axis : x y z
#
# Youngs Moduli (GPa) = 59.98864 42.59137 103.05344
#
# Poissons Ratio (x) = -0.20053 0.39138
# Poissons Ratio (y) = -0.28244 0.51999
# Poissons Ratio (z) = 0.22783 0.21491
#
# Static dielectric constant tensor:
#      x y z
#    x 3.860280 0.000000 0.000000 
#    y 0.000000 3.891870 0.000000 
#    z 0.000000 0.000000 3.498820 
# 
# 
# High freq. dielectric constant tensor:
#      x y z
#    x 1.793460 0.000000 0.000000 
#    y 0.000000 1.809790 0.000000 
#    z 0.000000 0.000000 1.771370 
# 
# From -- ./inp_files/2394.got.cif
#   From: 2010.03.12/outbox.cif.g09.slc.cpg/sg32_2_cif.got.tgz:2394.got - 2010.04.14 01:46:39.
