data_PCOD8170032
_publ_section_title
;
Structure prediction by ZEFSAII (Michael W. Deem and Ramdas Pophale) SiO2 
 PCOD8170032
Probable space group: P M N 21
;
_chemical_formula_sum "Si O2"
_cell_formula_units_Z 32
_cell_length_a 8.769192
_cell_length_b 11.396906
_cell_length_c 16.505215
_cell_angle_alpha 90.000000
_cell_angle_beta 90.000000
_cell_angle_gamma 90.000000
_cell_volume 1649.558535
_symmetry_space_group_name_H-M "P M N 21"
_symmetry_group_IT_number 31
_symmetry_cell_setting 'orthorhombic'
loop_
_space_group_symop_operation_xyz
x,y,z
1/2-x,-y,1/2+z
-x,y,z
1/2+x,-y,1/2+z
loop_
_atom_site_type_symbol
_atom_site_label
_atom_site_fract_x
_atom_site_fract_y
_atom_site_fract_z
Si Si1 0.181567 0.525499 0.533330
Si Si2 0.677106 0.060059 0.893914
Si Si3 0.819331 0.788426 0.538444
Si Si4 0.325601 0.830943 0.238094
Si Si5 0.674269 0.814727 0.845088
Si Si6 0.677074 0.077078 0.193710
Si Si7 0.181644 0.426143 0.706925
Si Si8 0.821203 0.569750 0.867227
O O1 0.244421 0.657662 0.530338
O O2 0.241929 0.473334 0.619544
O O3 0.243628 0.465043 0.452027
O O4 0.000000 0.516717 0.530234
O O5 0.500000 0.086847 0.880281
O O6 0.765288 0.115177 0.819926
O O7 0.701696 0.920088 0.909955
O O8 0.747507 0.129014 0.969201
O O9 0.763299 0.845350 0.620730
O O10 0.000000 0.786757 0.535184
O O11 0.500000 0.798783 0.251313
O O12 0.250011 0.706647 0.213125
O O13 0.304130 0.937239 0.173159
O O14 0.500000 0.769040 0.847377
O O15 0.708200 0.882665 0.762638
O O16 0.788091 0.707268 0.856604
O O17 0.500000 0.102930 0.216592
O O18 0.239414 0.499981 0.786494
O O19 0.000000 0.432603 0.705277
O O20 0.000000 0.549079 0.875949
#
# Coordination Sequence:
#
# PCOD8170032 Si02
#       8
#     4   4   4   4   4   4   4   4
#     4  10  20  35  55  79 106 138 179 220 259 313
#     4   9  18  32  51  75 102 132 169 215 262 311
#     4   9  17  31  52  76 101 133 171 209 257 315
#     4   9  17  31  52  76 101 132 171 210 255 311
#     4  10  20  34  52  75 103 135 173 215 262 313
#     4   9  17  31  53  77 100 130 169 212 256 309
#     4   9  19  35  55  78 107 144 179 214 261 318
#     4  11  22  37  56  78 108 144 181 221 264 312
#
# _framework density 19.39913
#
# number of rings (size 3 to 8) (size 9 to 14) (size 15 to 20)
#    0.000    2.500    0.000    2.250    0.000    3.500 
#    0.000    8.750    0.000    3.000    0.000    0.000 
#    0.000    0.000    0.000    0.000    0.000    0.000 
#
# Total GULP energy -396426.154572 kJ/mol
# GULP energy per Si atom -12388.317330 kJ/mol
# Density = 1.935498 g / cm^3
# Si number density = 19.399130 Si / 1000 Ang^3
#
#
#
# Elastic Constant Matrix: (Units=GPa)
#
#
# Indices 1 2 3 4 5 6 
#
# 1 17.4609 16.6955 8.4672 0.0000 0.0000 0.0000
# 2 16.6955 156.2143 56.5403 0.0000 0.0000 0.0000
# 3 8.4672 56.5403 103.1723 0.0000 0.0000 0.0000
# 4 0.0000 0.0000 0.0000 34.9636 0.0000 0.0000
# 5 0.0000 0.0000 0.0000 0.0000 21.5799 0.0000
# 6 0.0000 0.0000 0.0000 0.0000 0.0000 30.3402
#
#
#
# Elastic Compliance Matrix: (Units=1/GPa)
#
#
# Indices 1 2 3 4 5 6 
#
# 1 0.064080 -0.006169 -0.001878 0.000000 0.000000 0.000000
# 2 -0.006169 0.008579 -0.004195 0.000000 0.000000 0.000000
# 3 -0.001878 -0.004195 0.012146 0.000000 0.000000 0.000000
# 4 0.000000 0.000000 0.000000 0.028601 0.000000 0.000000
# 5 0.000000 0.000000 0.000000 0.000000 0.046339 0.000000
# 6 0.000000 0.000000 0.000000 0.000000 0.000000 0.032960
#
#
# Mechanical properties :
#
#
# Convention : Reuss Voigt Hill
#
# Bulk Modulus (GPa) = 16.57817 48.91704 32.74761
# Shear Modulus (GPa) = 21.07065 30.38637 25.72851
#
# Velocity S-wave (km/s) = 3.29928 3.96204 3.64575
# Velocity P-wave (km/s) = 4.80396 6.79715 5.88554
#
# Compressibility (1/GPa) = 0.06032028
#
# Stress axis : x y z
#
# Youngs Moduli (GPa) = 15.60546 116.56094 82.33317
#
# Poissons Ratio (x) = 0.71904 0.15465
# Poissons Ratio (y) = 0.09627 0.34541
# Poissons Ratio (z) = 0.02931 0.48901
#
# Static dielectric constant tensor:
#      x y z
#    x 3.178260 0.000000 0.000000 
#    y 0.000000 4.095550 0.000000 
#    z 0.000000 0.000000 3.693990 
# 
# 
# High freq. dielectric constant tensor:
#      x y z
#    x 1.720240 0.000000 0.000000 
#    y 0.000000 1.777270 0.000000 
#    z 0.000000 0.000000 1.751140 
# 
# From -- ./inp_files/4916.got.cif
#   From: 2010.03.12/outbox.cif.g09.slc.cpg/sg31_3_cif.got.tgz:4916.got - 2010.04.14 01:42:59.
