data_PCOD8170923
_publ_section_title
;
Structure prediction by ZEFSAII (Michael W. Deem and Ramdas Pophale) SiO2 
 PCOD8170923
Probable space group: P N A 21
;
_chemical_formula_sum "Si O2"
_cell_formula_units_Z 32
_cell_length_a 11.740584
_cell_length_b 14.464670
_cell_length_c 8.479249
_cell_angle_alpha 90.000000
_cell_angle_beta 90.000000
_cell_angle_gamma 90.000000
_cell_volume 1439.977211
_symmetry_space_group_name_H-M "P N A 21"
_symmetry_group_IT_number 33
_symmetry_cell_setting 'orthorhombic'
loop_
_space_group_symop_operation_xyz
x,y,z
-x,-y,1/2+z
1/2-x,1/2+y,1/2+z
1/2+x,1/2-y,z
loop_
_atom_site_type_symbol
_atom_site_label
_atom_site_fract_x
_atom_site_fract_y
_atom_site_fract_z
Si Si1 0.159919 0.195351 0.668580
Si Si2 0.369956 0.691086 0.809623
Si Si3 0.563127 0.597160 0.249201
Si Si4 0.674893 0.928723 0.659715
Si Si5 0.193847 0.379552 0.825222
Si Si6 0.062155 0.933454 0.883554
Si Si7 0.717181 0.971553 0.306554
Si Si8 0.577828 0.122709 0.154996
O O1 0.175517 0.175363 0.485134
O O2 0.163249 0.304699 0.692453
O O3 0.258920 0.133137 0.748374
O O4 0.039362 0.168800 0.744698
O O5 0.285589 0.634282 0.694696
O O6 0.503007 0.658101 0.809408
O O7 0.367553 0.798602 0.765297
O O8 0.670747 0.637812 0.343452
O O9 0.533918 0.510242 0.357747
O O10 0.595219 0.571069 0.068359
O O11 0.681189 0.969070 0.485991
O O12 0.558504 0.870429 0.671279
O O13 0.668817 0.015659 0.776444
O O14 0.121488 0.356505 0.979619
O O15 0.172642 0.962266 0.783126
O O16 0.617185 0.020000 0.207001
#
# Coordination Sequence:
#
# PCOD8170923 Si02
#       8
#     4   4   4   4   4   4   4   4
#     4  10  25  42  69 103 138 176 233 288 348 414
#     4  11  24  44  69 104 136 180 236 289 347 422
#     4  10  22  39  69  97 128 176 222 287 343 405
#     4  12  25  47  70 100 145 185 235 290 354 425
#     4  12  24  45  66 101 140 186 231 283 351 415
#     4  10  20  41  69  98 127 172 231 293 340 408
#     4  11  23  45  69 102 138 182 235 288 355 414
#     4  12  29  41  69 101 142 193 227 292 356 423
#
# _framework density 22.222573000000001
#
# number of rings (size 3 to 8) (size 9 to 14) (size 15 to 20)
#    0.000    1.000    2.500    3.000    5.250    5.000 
#    0.000    0.000    0.000    0.000    0.000    0.000 
#    0.000    0.000    0.000    0.000    0.000    0.000 
#
# Total GULP energy -396740.422142 kJ/mol
# GULP energy per Si atom -12398.138192 kJ/mol
# Density = 2.217199 g / cm^3
# Si number density = 22.222573 Si / 1000 Ang^3
#
#
#
# Elastic Constant Matrix: (Units=GPa)
#
#
# Indices 1 2 3 4 5 6 
#
# 1 86.3388 24.3071 20.3225 0.0000 0.0000 0.0000
# 2 24.3071 101.7090 15.5744 0.0000 0.0000 0.0000
# 3 20.3225 15.5744 63.3939 0.0000 0.0000 0.0000
# 4 0.0000 0.0000 0.0000 34.3071 0.0000 0.0000
# 5 0.0000 0.0000 0.0000 0.0000 29.5946 0.0000
# 6 0.0000 0.0000 0.0000 0.0000 0.0000 27.7535
#
#
#
# Elastic Compliance Matrix: (Units=1/GPa)
#
#
# Indices 1 2 3 4 5 6 
#
# 1 0.013156 -0.002596 -0.003580 0.000000 0.000000 0.000000
# 2 -0.002596 0.010729 -0.001804 0.000000 0.000000 0.000000
# 3 -0.003580 -0.001804 0.017365 0.000000 0.000000 0.000000
# 4 0.000000 0.000000 0.000000 0.029148 0.000000 0.000000
# 5 0.000000 0.000000 0.000000 0.000000 0.033790 0.000000
# 6 0.000000 0.000000 0.000000 0.000000 0.000000 0.036031
#
#
# Mechanical properties :
#
#
# Convention : Reuss Voigt Hill
#
# Bulk Modulus (GPa) = 39.53970 41.31664 40.42817
# Shear Modulus (GPa) = 30.37526 31.08023 30.72775
#
# Velocity S-wave (km/s) = 3.70112 3.74383 3.72254
# Velocity P-wave (km/s) = 6.00797 6.10908 6.05873
#
# Compressibility (1/GPa) = 0.02529104
#
# Stress axis : x y z
#
# Youngs Moduli (GPa) = 76.01274 93.20937 57.58698
#
# Poissons Ratio (x) = 0.24196 0.20614
# Poissons Ratio (y) = 0.19732 0.10386
# Poissons Ratio (z) = 0.27210 0.16811
#
# Static dielectric constant tensor:
#      x y z
#    x 4.248070 0.000000 0.000000 
#    y 0.000000 4.008980 0.000000 
#    z 0.000000 0.000000 3.845260 
# 
# 
# High freq. dielectric constant tensor:
#      x y z
#    x 1.881060 0.000000 0.000000 
#    y 0.000000 1.875020 0.000000 
#    z 0.000000 0.000000 1.873100 
# 
# From -- ./inp_files/3959.got.cif
#   From: 2010.03.12/outbox.cif.g09.slc.cpg/sg33_2_cif.got.tgz:3959.got - 2010.04.14 01:49:19.
