data_PCOD8170634
_publ_section_title
;
Structure prediction by ZEFSAII (Michael W. Deem and Ramdas Pophale) SiO2 
 PCOD8170634
Probable space group: P B A 2
;
_chemical_formula_sum "Si O2"
_cell_formula_units_Z 18
_cell_length_a 4.897992
_cell_length_b 27.930963
_cell_length_c 4.944710
_cell_angle_alpha 90.000000
_cell_angle_beta 90.000000
_cell_angle_gamma 90.000000
_cell_volume 676.464183
_symmetry_space_group_name_H-M "P B A 2"
_symmetry_group_IT_number 32
_symmetry_cell_setting 'orthorhombic'
loop_
_space_group_symop_operation_xyz
x,y,z
-x,-y,z
1/2-x,1/2+y,z
1/2+x,1/2-y,z
loop_
_atom_site_type_symbol
_atom_site_label
_atom_site_fract_x
_atom_site_fract_y
_atom_site_fract_z
Si Si1 0.000000 0.000000 0.609941
Si Si2 0.592729 0.217971 0.039861
Si Si3 0.339161 0.924745 0.879693
Si Si4 0.500649 0.154720 0.538465
Si Si5 0.354808 0.586495 0.243371
O O1 0.767165 0.022535 0.802910
O O2 0.150944 0.039595 0.430469
O O3 0.901284 0.235664 0.002574
O O4 0.608265 0.195001 0.337388
O O5 0.477679 0.178718 0.832785
O O6 0.314904 0.892655 0.603264
O O7 0.645361 0.924321 0.996086
O O8 0.147488 0.902059 0.112058
O O9 0.217871 0.133894 0.417224
#
# Coordination Sequence:
#
# PCOD8170634 Si02
#       5
#     2   4   4   4   4
#     4  12  30  46  82 120 168 216 282 320 404 456
#     4  12  30  52  86 117 158 203 266 338 408 490
#     4  12  29  51  79 117 168 214 274 330 396 484
#     4  12  28  55  83 118 164 208 269 325 420 468
#     4  12  29  51  79 117 168 214 274 330 396 484
#
# _framework density 26.608946
#
# number of rings (size 3 to 8) (size 9 to 14) (size 15 to 20)
#    0.000    0.000    2.222    4.667    3.111   16.889 
#    0.000    0.000    0.000    0.000    0.000    0.000 
#    0.000    0.000    0.000    0.000    0.000    0.000 
#
# Total GULP energy -223222.857230 kJ/mol
# GULP energy per Si atom -12401.269846 kJ/mol
# Density = 2.654838 g / cm^3
# Si number density = 26.608946 Si / 1000 Ang^3
#
#
#
# Elastic Constant Matrix: (Units=GPa)
#
#
# Indices 1 2 3 4 5 6 
#
# 1 47.8722 -0.9292 5.2286 0.0000 0.0000 0.0000
# 2 -0.9292 90.1942 15.2190 0.0000 0.0000 0.0000
# 3 5.2286 15.2190 120.8525 0.0000 0.0000 0.0000
# 4 0.0000 0.0000 0.0000 72.9759 0.0000 0.0000
# 5 0.0000 0.0000 0.0000 0.0000 22.9125 0.0000
# 6 0.0000 0.0000 0.0000 0.0000 0.0000 43.5629
#
#
#
# Elastic Compliance Matrix: (Units=1/GPa)
#
#
# Indices 1 2 3 4 5 6 
#
# 1 0.021001 0.000378 -0.000956 0.000000 0.000000 0.000000
# 2 0.000378 0.011335 -0.001444 0.000000 0.000000 0.000000
# 3 -0.000956 -0.001444 0.008498 0.000000 0.000000 0.000000
# 4 0.000000 0.000000 0.000000 0.013703 0.000000 0.000000
# 5 0.000000 0.000000 0.000000 0.000000 0.043644 0.000000
# 6 0.000000 0.000000 0.000000 0.000000 0.000000 0.022955
#
#
# Mechanical properties :
#
#
# Convention : Reuss Voigt Hill
#
# Bulk Modulus (GPa) = 27.18223 33.10621 30.14422
# Shear Modulus (GPa) = 36.37864 43.85026 40.11445
#
# Velocity S-wave (km/s) = 3.70152 4.06390 3.88694
# Velocity P-wave (km/s) = 5.33910 5.87275 5.61227
#
# Compressibility (1/GPa) = 0.03678875
#
# Stress axis : x y z
#
# Youngs Moduli (GPa) = 47.61744 88.22472 117.67852
#
# Poissons Ratio (x) = -0.03332 0.11252
# Poissons Ratio (y) = -0.01798 0.16990
# Poissons Ratio (z) = 0.04553 0.12737
#
# Static dielectric constant tensor:
#      x y z
#    x 4.568850 0.000000 0.000000 
#    y 0.000000 4.980740 0.000000 
#    z 0.000000 0.000000 5.052940 
# 
# 
# High freq. dielectric constant tensor:
#      x y z
#    x 2.059150 0.000000 0.000000 
#    y 0.000000 2.080070 0.000000 
#    z 0.000000 0.000000 2.094560 
# 
# From -- ./inp_files/165.got.cif
#   From: 2010.03.12/outbox.cif.g09.slc.cpg/sg32_1_cif.got.tgz:165.got - 2010.04.14 01:46:39.
