data_PCOD8170737
_publ_section_title
;
Structure prediction by ZEFSAII (Michael W. Deem and Ramdas Pophale) SiO2 
 PCOD8170737
Probable space group: P N A 21
;
_chemical_formula_sum "Si O2"
_cell_formula_units_Z 28
_cell_length_a 18.865372
_cell_length_b 14.067774
_cell_length_c 4.946369
_cell_angle_alpha 90.000000
_cell_angle_beta 90.000000
_cell_angle_gamma 90.000000
_cell_volume 1312.735614
_symmetry_space_group_name_H-M "P N A 21"
_symmetry_group_IT_number 33
_symmetry_cell_setting 'orthorhombic'
loop_
_space_group_symop_operation_xyz
x,y,z
-x,-y,1/2+z
1/2-x,1/2+y,1/2+z
1/2+x,1/2-y,z
loop_
_atom_site_type_symbol
_atom_site_label
_atom_site_fract_x
_atom_site_fract_y
_atom_site_fract_z
Si Si1 0.239707 0.392063 0.751680
Si Si2 0.484276 0.884489 0.605847
Si Si3 0.813564 0.026065 0.252993
Si Si4 0.570758 0.298287 0.303824
Si Si5 0.974873 0.039761 0.156682
Si Si6 0.910834 0.539222 0.104476
Si Si7 0.167311 0.195201 0.797626
O O1 0.301246 0.425581 0.545488
O O2 0.171429 0.452166 0.662083
O O3 0.227406 0.277500 0.761432
O O4 0.258229 0.426482 0.050604
O O5 0.487733 0.776211 0.698665
O O6 0.456928 0.892428 0.299301
O O7 0.561755 0.930941 0.649515
O O8 0.424898 0.934419 0.793863
O O9 0.891488 0.057652 0.154835
O O10 0.803048 0.911331 0.244266
O O11 0.523659 0.391086 0.340744
O O12 0.604808 0.275157 0.592665
O O13 0.637108 0.304576 0.099939
O O14 0.991282 0.950041 0.356536
#
# Coordination Sequence:
#
# PCOD8170737 Si02
#       7
#     4   4   4   4   4   4   4
#     4  12  24  44  67  93 139 176 221 261 339 412
#     4  10  19  35  62  94 122 162 212 266 314 369
#     4  12  26  44  66  96 134 174 216 284 329 393
#     4  12  20  40  70  94 125 163 220 271 322 394
#     4  12  23  43  68  96 126 163 218 290 330 371
#     4  10  20  37  61  91 127 161 211 266 313 382
#     4  12  24  43  70  94 123 181 222 256 333 405
#
# _framework density 21.329502999999999
#
# number of rings (size 3 to 8) (size 9 to 14) (size 15 to 20)
#    0.000    0.571    5.714    3.429    0.000    0.000 
#    5.143    0.000    0.000    0.000    0.000    0.000 
#    0.000    0.000    0.000    0.000    0.000    0.000 
#
# Total GULP energy -347035.635121 kJ/mol
# GULP energy per Si atom -12394.129826 kJ/mol
# Density = 2.128096 g / cm^3
# Si number density = 21.329503 Si / 1000 Ang^3
#
#
#
# Elastic Constant Matrix: (Units=GPa)
#
#
# Indices 1 2 3 4 5 6 
#
# 1 78.9501 18.0104 8.5317 0.0000 0.0000 0.0000
# 2 18.0104 93.2816 12.8181 0.0000 0.0000 0.0000
# 3 8.5317 12.8181 83.0654 0.0000 0.0000 0.0000
# 4 0.0000 0.0000 0.0000 29.5565 0.0000 0.0000
# 5 0.0000 0.0000 0.0000 0.0000 32.7219 0.0000
# 6 0.0000 0.0000 0.0000 0.0000 0.0000 35.2862
#
#
#
# Elastic Compliance Matrix: (Units=1/GPa)
#
#
# Indices 1 2 3 4 5 6 
#
# 1 0.013330 -0.002437 -0.000993 0.000000 0.000000 0.000000
# 2 -0.002437 0.011398 -0.001509 0.000000 0.000000 0.000000
# 3 -0.000993 -0.001509 0.012373 0.000000 0.000000 0.000000
# 4 0.000000 0.000000 0.000000 0.033834 0.000000 0.000000
# 5 0.000000 0.000000 0.000000 0.000000 0.030561 0.000000
# 6 0.000000 0.000000 0.000000 0.000000 0.000000 0.028340
#
#
# Mechanical properties :
#
#
# Convention : Reuss Voigt Hill
#
# Bulk Modulus (GPa) = 36.73276 37.11307 36.92291
# Shear Modulus (GPa) = 33.60513 33.90871 33.75692
#
# Velocity S-wave (km/s) = 3.97359 3.99150 3.98256
# Velocity P-wave (km/s) = 6.18963 6.21936 6.20451
#
# Compressibility (1/GPa) = 0.02722366
#
# Stress axis : x y z
#
# Youngs Moduli (GPa) = 75.02151 87.73407 80.81799
#
# Poissons Ratio (x) = 0.21382 0.08025
# Poissons Ratio (y) = 0.18284 0.12192
# Poissons Ratio (z) = 0.07450 0.13235
#
# Static dielectric constant tensor:
#      x y z
#    x 3.559590 0.000000 0.000000 
#    y 0.000000 4.078810 0.000000 
#    z 0.000000 0.000000 4.026220 
# 
# 
# High freq. dielectric constant tensor:
#      x y z
#    x 1.813390 0.000000 0.000000 
#    y 0.000000 1.835160 0.000000 
#    z 0.000000 0.000000 1.863650 
# 
# From -- ./inp_files/1432.got.cif
#   From: 2010.03.12/outbox.cif.g09.slc.cpg/sg33_1_cif.got.tgz:1432.got - 2010.04.14 01:49:19.
