data_PCOD8170937
_publ_section_title
;
Structure prediction by ZEFSAII (Michael W. Deem and Ramdas Pophale) SiO2 
 PCOD8170937
Probable space group: P N A 21
;
_chemical_formula_sum "Si O2"
_cell_formula_units_Z 28
_cell_length_a 18.236052
_cell_length_b 5.507290
_cell_length_c 12.834879
_cell_angle_alpha 90.000000
_cell_angle_beta 90.000000
_cell_angle_gamma 90.000000
_cell_volume 1289.022644
_symmetry_space_group_name_H-M "P N A 21"
_symmetry_group_IT_number 33
_symmetry_cell_setting 'orthorhombic'
loop_
_space_group_symop_operation_xyz
x,y,z
-x,-y,1/2+z
1/2-x,1/2+y,1/2+z
1/2+x,1/2-y,z
loop_
_atom_site_type_symbol
_atom_site_label
_atom_site_fract_x
_atom_site_fract_y
_atom_site_fract_z
Si Si1 0.808666 0.491123 0.234050
Si Si2 0.067871 0.275691 0.606267
Si Si3 0.125102 0.267378 0.918841
Si Si4 0.650050 0.400856 0.143261
Si Si5 0.986480 0.557653 0.898834
Si Si6 0.927265 0.111082 0.258182
Si Si7 0.573624 0.902739 0.207423
O O1 0.851907 0.651391 0.148246
O O2 0.809751 0.613216 0.349747
O O3 0.727378 0.450911 0.196208
O O4 0.848789 0.235376 0.245147
O O5 0.063507 0.298675 0.481687
O O6 0.006366 0.452053 0.655468
O O7 0.050926 0.000986 0.645188
O O8 0.061911 0.462647 0.952714
O O9 0.079607 0.096009 0.843815
O O10 0.158357 0.130018 0.018233
O O11 0.603505 0.645033 0.163928
O O12 0.622706 0.140952 0.185844
O O13 0.936182 0.366086 0.833853
O O14 0.006507 0.729620 0.800983
#
# Coordination Sequence:
#
# PCOD8170937 Si02
#       7
#     4   4   4   4   4   4   4
#     4  10  25  45  66 101 143 184 236 293 364 440
#     4  11  22  42  72  99 138 188 242 291 363 429
#     4  10  22  43  74  94 141 195 233 287 377 427
#     4  12  28  46  71 105 148 186 238 301 367 429
#     4  11  22  41  69 110 134 186 241 311 355 425
#     4  10  20  42  70  97 139 183 237 293 361 431
#     4  12  25  45  70 106 141 180 245 302 343 429
#
# _framework density 21.721886000000001
#
# number of rings (size 3 to 8) (size 9 to 14) (size 15 to 20)
#    0.000    1.143    5.714    1.714    6.000    2.286 
#    2.571    0.000    0.000    0.000    0.000    0.000 
#    0.000    0.000    0.000    0.000    0.000    0.000 
#
# Total GULP energy -346906.570883 kJ/mol
# GULP energy per Si atom -12389.520389 kJ/mol
# Density = 2.167245 g / cm^3
# Si number density = 21.721886 Si / 1000 Ang^3
#
#
#
# Elastic Constant Matrix: (Units=GPa)
#
#
# Indices 1 2 3 4 5 6 
#
# 1 79.1618 21.2390 34.4296 0.0000 0.0000 0.0000
# 2 21.2390 102.7789 41.5520 0.0000 0.0000 0.0000
# 3 34.4296 41.5520 148.2923 0.0000 0.0000 0.0000
# 4 0.0000 0.0000 0.0000 38.6629 0.0000 0.0000
# 5 0.0000 0.0000 0.0000 0.0000 30.0661 0.0000
# 6 0.0000 0.0000 0.0000 0.0000 0.0000 24.6481
#
#
#
# Elastic Compliance Matrix: (Units=1/GPa)
#
#
# Indices 1 2 3 4 5 6 
#
# 1 0.014348 -0.001825 -0.002820 0.000000 0.000000 0.000000
# 2 -0.001825 0.011205 -0.002716 0.000000 0.000000 0.000000
# 3 -0.002820 -0.002716 0.008159 0.000000 0.000000 0.000000
# 4 0.000000 0.000000 0.000000 0.025865 0.000000 0.000000
# 5 0.000000 0.000000 0.000000 0.000000 0.033260 0.000000
# 6 0.000000 0.000000 0.000000 0.000000 0.000000 0.040571
#
#
# Mechanical properties :
#
#
# Convention : Reuss Voigt Hill
#
# Bulk Modulus (GPa) = 52.65745 58.29713 55.47729
# Shear Modulus (GPa) = 32.37081 34.20957 33.29019
#
# Velocity S-wave (km/s) = 3.86455 3.97279 3.91905
# Velocity P-wave (km/s) = 6.64886 6.92390 6.78777
#
# Compressibility (1/GPa) = 0.01899067
#
# Stress axis : x y z
#
# Youngs Moduli (GPa) = 69.69381 89.24784 122.56154
#
# Poissons Ratio (x) = 0.16288 0.34562
# Poissons Ratio (y) = 0.12719 0.33286
# Poissons Ratio (z) = 0.19653 0.24239
#
# Static dielectric constant tensor:
#      x y z
#    x 3.608780 0.000000 0.000000 
#    y 0.000000 4.249690 0.000000 
#    z 0.000000 0.000000 4.049280 
# 
# 
# High freq. dielectric constant tensor:
#      x y z
#    x 1.826910 0.000000 0.000000 
#    y 0.000000 1.864950 0.000000 
#    z 0.000000 0.000000 1.860470 
# 
# From -- ./inp_files/6971.got.cif
#   From: 2010.03.12/outbox.cif.g09.slc.cpg/sg33_4_cif.got.tgz:6971.got - 2010.04.14 01:49:19.
