data_PCOD8170627
_publ_section_title
;
Structure prediction by ZEFSAII (Michael W. Deem and Ramdas Pophale) SiO2 
 PCOD8170627
Probable space group: P B A 2
;
_chemical_formula_sum "Si O2"
_cell_formula_units_Z 18
_cell_length_a 4.961341
_cell_length_b 18.425340
_cell_length_c 8.387792
_cell_angle_alpha 90.000000
_cell_angle_beta 90.000000
_cell_angle_gamma 90.000000
_cell_volume 766.764929
_symmetry_space_group_name_H-M "P B A 2"
_symmetry_group_IT_number 32
_symmetry_cell_setting 'orthorhombic'
loop_
_space_group_symop_operation_xyz
x,y,z
-x,-y,z
1/2-x,1/2+y,z
1/2+x,1/2-y,z
loop_
_atom_site_type_symbol
_atom_site_label
_atom_site_fract_x
_atom_site_fract_y
_atom_site_fract_z
Si Si1 0.068263 0.200499 0.379180
Si Si2 0.658211 0.396536 0.665929
Si Si3 0.146484 0.925629 0.197870
Si Si4 0.370607 0.921204 0.866789
Si Si5 0.000000 0.500000 0.448705
O O1 0.298565 0.256782 0.341706
O O2 0.083252 0.173280 0.561113
O O3 0.075379 0.131661 0.259163
O O4 0.392171 0.423894 0.755587
O O5 0.894081 0.371364 0.789273
O O6 0.774596 0.461677 0.556570
O O7 0.357387 0.938757 0.341086
O O8 0.296692 0.893306 0.043072
O O9 0.000000 0.000000 0.147157
O O10 0.500000 0.000000 0.881095
#
# Coordination Sequence:
#
# PCOD8170627 Si02
#       5
#     4   4   4   4   2
#     4  12  28  51  73 106 149 201 252 302 362 443
#     4  12  26  45  72 107 147 193 239 304 367 434
#     4  12  26  46  75 114 146 191 246 310 372 442
#     4  12  26  43  70 114 155 181 235 314 381 431
#     4  12  24  42  74 114 140 186 244 304 366 422
#
# _framework density 23.475251
#
# number of rings (size 3 to 8) (size 9 to 14) (size 15 to 20)
#    0.000    0.000    4.444    6.000    3.111    0.000 
#    0.000    6.667    0.000    0.000    0.000    0.000 
#    0.000    0.000    0.000    0.000    0.000    0.000 
#
# Total GULP energy -223254.901027 kJ/mol
# GULP energy per Si atom -12403.050057 kJ/mol
# Density = 2.342182 g / cm^3
# Si number density = 23.475251 Si / 1000 Ang^3
#
#
#
# Elastic Constant Matrix: (Units=GPa)
#
#
# Indices 1 2 3 4 5 6 
#
# 1 172.7827 45.8449 38.3964 0.0000 0.0000 0.0000
# 2 45.8449 96.2305 30.5419 0.0000 0.0000 0.0000
# 3 38.3964 30.5419 128.8556 0.0000 0.0000 0.0000
# 4 0.0000 0.0000 0.0000 7.9633 0.0000 0.0000
# 5 0.0000 0.0000 0.0000 0.0000 49.5419 0.0000
# 6 0.0000 0.0000 0.0000 0.0000 0.0000 37.8347
#
#
#
# Elastic Compliance Matrix: (Units=1/GPa)
#
#
# Indices 1 2 3 4 5 6 
#
# 1 0.006841 -0.002825 -0.001369 0.000000 0.000000 0.000000
# 2 -0.002825 0.012403 -0.002098 0.000000 0.000000 0.000000
# 3 -0.001369 -0.002098 0.008666 0.000000 0.000000 0.000000
# 4 0.000000 0.000000 0.000000 0.125576 0.000000 0.000000
# 5 0.000000 0.000000 0.000000 0.000000 0.020185 0.000000
# 6 0.000000 0.000000 0.000000 0.000000 0.000000 0.026431
#
#
# Mechanical properties :
#
#
# Convention : Reuss Voigt Hill
#
# Bulk Modulus (GPa) = 65.24584 69.71502 67.48043
# Shear Modulus (GPa) = 22.95736 37.94035 30.44886
#
# Velocity S-wave (km/s) = 3.13059 4.02454 3.60538
# Velocity P-wave (km/s) = 6.39697 7.16642 6.79260
#
# Compressibility (1/GPa) = 0.01532665
#
# Stress axis : x y z
#
# Youngs Moduli (GPa) = 146.16992 80.62321 115.39491
#
# Poissons Ratio (x) = 0.22774 0.15798
# Poissons Ratio (y) = 0.41289 0.24212
# Poissons Ratio (z) = 0.20011 0.16916
#
# Static dielectric constant tensor:
#      x y z
#    x 4.590260 0.000000 0.000000 
#    y 0.000000 3.963900 0.000000 
#    z 0.000000 0.000000 4.675160 
# 
# 
# High freq. dielectric constant tensor:
#      x y z
#    x 1.954630 0.000000 0.000000 
#    y 0.000000 1.891130 0.000000 
#    z 0.000000 0.000000 1.941500 
# 
# From -- ./inp_files/1921.got.cif
#   From: 2010.03.12/outbox.cif.g09.slc.cpg/sg32_1_cif.got.tgz:1921.got - 2010.04.14 01:46:39.
