data_PCOD8170757
_publ_section_title
;
Structure prediction by ZEFSAII (Michael W. Deem and Ramdas Pophale) SiO2 
 PCOD8170757
Probable space group: P N A 21
;
_chemical_formula_sum "Si O2"
_cell_formula_units_Z 32
_cell_length_a 18.049666
_cell_length_b 7.887974
_cell_length_c 11.578529
_cell_angle_alpha 90.000000
_cell_angle_beta 90.000000
_cell_angle_gamma 90.000000
_cell_volume 1648.496495
_symmetry_space_group_name_H-M "P N A 21"
_symmetry_group_IT_number 33
_symmetry_cell_setting 'orthorhombic'
loop_
_space_group_symop_operation_xyz
x,y,z
-x,-y,1/2+z
1/2-x,1/2+y,1/2+z
1/2+x,1/2-y,z
loop_
_atom_site_type_symbol
_atom_site_label
_atom_site_fract_x
_atom_site_fract_y
_atom_site_fract_z
Si Si1 0.240345 0.072230 0.518650
Si Si2 0.845226 0.473127 0.110394
Si Si3 0.380854 0.705446 0.358179
Si Si4 0.567982 0.595611 0.002830
Si Si5 0.804242 0.171343 0.673954
Si Si6 0.280154 0.234578 0.920473
Si Si7 0.366819 0.108012 0.354942
Si Si8 0.088007 0.192292 0.598065
O O1 0.240945 0.869667 0.519583
O O2 0.283286 0.134873 0.402783
O O3 0.287316 0.138462 0.628263
O O4 0.155704 0.133092 0.516880
O O5 0.769735 0.565026 0.150040
O O6 0.867128 0.350654 0.217442
O O7 0.912870 0.603418 0.092306
O O8 0.835629 0.391047 0.985066
O O9 0.429481 0.589653 0.443636
O O10 0.295544 0.648524 0.377578
O O11 0.392110 0.909534 0.376130
O O12 0.400642 0.640987 0.230833
O O13 0.625627 0.593156 0.108951
O O14 0.486414 0.610205 0.052919
O O15 0.580341 0.754875 0.916553
O O16 0.821779 0.181241 0.810559
#
# Coordination Sequence:
#
# PCOD8170757 Si02
#       8
#     4   4   4   4   4   4   4   4
#     4   9  18  35  60  85 115 149 202 252 288 349
#     4  10  19  38  62  84 119 154 201 257 297 352
#     4  10  20  40  63  85 121 158 197 260 301 349
#     4  11  23  39  63  86 127 168 189 244 321 364
#     4  10  19  37  59  89 115 151 204 254 298 354
#     4  11  19  35  65  90 110 154 209 256 303 345
#     4   9  20  39  63  90 117 155 208 251 293 360
#     4  10  22  41  55  87 128 157 196 246 301 371
#
# _framework density 19.411628
#
# number of rings (size 3 to 8) (size 9 to 14) (size 15 to 20)
#    0.000    2.000    6.250    0.000    1.750    1.000 
#    6.750    0.000    2.750    0.000    0.000    0.000 
#    0.000    0.000    0.000    0.000    0.000    0.000 
#
# Total GULP energy -396506.898309 kJ/mol
# GULP energy per Si atom -12390.840572 kJ/mol
# Density = 1.936745 g / cm^3
# Si number density = 19.411628 Si / 1000 Ang^3
#
#
#
# Elastic Constant Matrix: (Units=GPa)
#
#
# Indices 1 2 3 4 5 6 
#
# 1 62.5020 16.6073 22.4400 0.0000 0.0000 0.0000
# 2 16.6073 65.1975 43.0872 0.0000 0.0000 0.0000
# 3 22.4400 43.0872 100.0592 0.0000 0.0000 0.0000
# 4 0.0000 0.0000 0.0000 28.1581 0.0000 0.0000
# 5 0.0000 0.0000 0.0000 0.0000 26.1545 0.0000
# 6 0.0000 0.0000 0.0000 0.0000 0.0000 19.5005
#
#
#
# Elastic Compliance Matrix: (Units=1/GPa)
#
#
# Indices 1 2 3 4 5 6 
#
# 1 0.017719 -0.002638 -0.002838 0.000000 0.000000 0.000000
# 2 -0.002638 0.021832 -0.008810 0.000000 0.000000 0.000000
# 3 -0.002838 -0.008810 0.014424 0.000000 0.000000 0.000000
# 4 0.000000 0.000000 0.000000 0.035514 0.000000 0.000000
# 5 0.000000 0.000000 0.000000 0.000000 0.038234 0.000000
# 6 0.000000 0.000000 0.000000 0.000000 0.000000 0.051281
#
#
# Mechanical properties :
#
#
# Convention : Reuss Voigt Hill
#
# Bulk Modulus (GPa) = 39.36330 43.55863 41.46096
# Shear Modulus (GPa) = 23.14351 24.47091 23.80721
#
# Velocity S-wave (km/s) = 3.45664 3.55439 3.50586
# Velocity P-wave (km/s) = 6.02108 6.27161 6.14762
#
# Compressibility (1/GPa) = 0.02540437
#
# Stress axis : x y z
#
# Youngs Moduli (GPa) = 56.43559 45.80435 69.32851
#
# Poissons Ratio (x) = 0.12083 0.19675
# Poissons Ratio (y) = 0.14888 0.61076
# Poissons Ratio (z) = 0.16016 0.40352
#
# Static dielectric constant tensor:
#      x y z
#    x 3.281310 0.000000 0.000000 
#    y 0.000000 3.639860 0.000000 
#    z 0.000000 0.000000 3.754220 
# 
# 
# High freq. dielectric constant tensor:
#      x y z
#    x 1.727080 0.000000 0.000000 
#    y 0.000000 1.747940 0.000000 
#    z 0.000000 0.000000 1.761340 
# 
# From -- ./inp_files/7280.got.cif
#   From: 2010.03.12/outbox.cif.g09.slc.cpg/sg33_4_cif.got.tgz:7280.got - 2010.04.14 01:49:19.
