data_PCOD8170097
_publ_section_title
;
Structure prediction by ZEFSAII (Michael W. Deem and Ramdas Pophale) SiO2 
 PCOD8170097
Probable space group: P M N 21
;
_chemical_formula_sum "Si O2"
_cell_formula_units_Z 24
_cell_length_a 8.959907
_cell_length_b 15.072839
_cell_length_c 9.154360
_cell_angle_alpha 90.000000
_cell_angle_beta 90.000000
_cell_angle_gamma 90.000000
_cell_volume 1236.307630
_symmetry_space_group_name_H-M "P M N 21"
_symmetry_group_IT_number 31
_symmetry_cell_setting 'orthorhombic'
loop_
_space_group_symop_operation_xyz
x,y,z
1/2-x,-y,1/2+z
-x,y,z
1/2+x,-y,1/2+z
loop_
_atom_site_type_symbol
_atom_site_label
_atom_site_fract_x
_atom_site_fract_y
_atom_site_fract_z
Si Si1 0.830082 0.714327 0.743710
Si Si2 0.176058 0.403552 0.739008
Si Si3 0.171858 0.072238 0.517128
Si Si4 0.669731 0.086815 0.223568
Si Si5 0.675087 0.562296 0.572053
Si Si6 0.825934 0.751568 0.078704
O O1 0.804903 0.811572 0.673954
O O2 0.717505 0.648351 0.665285
O O3 0.000000 0.681537 0.719774
O O4 0.792515 0.716656 0.915562
O O5 0.240272 0.476882 0.630745
O O6 0.242295 0.308496 0.696530
O O7 0.000000 0.400652 0.721117
O O8 0.223319 0.424694 0.904547
O O9 0.217301 0.060253 0.350157
O O10 0.267707 0.148183 0.596704
O O11 0.000000 0.100149 0.527782
O O12 0.202745 0.977024 0.588823
O O13 0.500000 0.076933 0.282455
O O14 0.500000 0.545363 0.586558
O O15 0.000000 0.750061 0.113964
#
# Coordination Sequence:
#
# PCOD8170097 Si02
#       6
#     4   4   4   4   4   4
#     4   9  19  37  58  80 109 145 184 227 274 326
#     4  11  24  40  58  83 113 144 182 226 272 328
#     4  10  20  35  57  84 113 148 189 231 278 329
#     4   9  20  37  55  80 114 148 186 232 277 326
#     4  11  24  39  57  84 113 143 182 227 275 327
#     4  10  21  38  59  83 112 146 185 229 278 330
#
# _framework density 19.412642999999999
#
# number of rings (size 3 to 8) (size 9 to 14) (size 15 to 20)
#    0.000    2.000    0.000    4.000    0.000   12.667 
#    0.000    3.333    0.000    0.000    0.000    0.000 
#    0.000    0.000    0.000    0.000    0.000    0.000 
#
# Total GULP energy -297698.872400 kJ/mol
# GULP energy per Si atom -12404.119683 kJ/mol
# Density = 1.936846 g / cm^3
# Si number density = 19.412643 Si / 1000 Ang^3
#
#
#
# Elastic Constant Matrix: (Units=GPa)
#
#
# Indices 1 2 3 4 5 6 
#
# 1 60.5370 14.4014 18.4699 0.0000 0.0000 0.0000
# 2 14.4014 57.8303 -0.2262 0.0000 0.0000 0.0000
# 3 18.4699 -0.2262 31.9654 0.0000 0.0000 0.0000
# 4 0.0000 0.0000 0.0000 37.6224 0.0000 0.0000
# 5 0.0000 0.0000 0.0000 0.0000 33.7321 0.0000
# 6 0.0000 0.0000 0.0000 0.0000 0.0000 35.2473
#
#
#
# Elastic Compliance Matrix: (Units=1/GPa)
#
#
# Indices 1 2 3 4 5 6 
#
# 1 0.021639 -0.005438 -0.012542 0.000000 0.000000 0.000000
# 2 -0.005438 0.018659 0.003274 0.000000 0.000000 0.000000
# 3 -0.012542 0.003274 0.038554 0.000000 0.000000 0.000000
# 4 0.000000 0.000000 0.000000 0.026580 0.000000 0.000000
# 5 0.000000 0.000000 0.000000 0.000000 0.029645 0.000000
# 6 0.000000 0.000000 0.000000 0.000000 0.000000 0.028371
#
#
# Mechanical properties :
#
#
# Convention : Reuss Voigt Hill
#
# Bulk Modulus (GPa) = 20.22620 23.95809 22.09215
# Shear Modulus (GPa) = 23.88471 29.16620 26.52546
#
# Velocity S-wave (km/s) = 3.51147 3.88033 3.70050
# Velocity P-wave (km/s) = 5.18481 5.69598 5.44640
#
# Compressibility (1/GPa) = 0.04944082
#
# Stress axis : x y z
#
# Youngs Moduli (GPa) = 46.21302 53.59368 25.93780
#
# Poissons Ratio (x) = 0.29143 0.32530
# Poissons Ratio (y) = 0.25130 -0.08492
# Poissons Ratio (z) = 0.57959 -0.17547
#
# Static dielectric constant tensor:
#      x y z
#    x 3.606300 0.000000 0.000000 
#    y 0.000000 3.673840 0.000000 
#    z 0.000000 0.000000 3.478900 
# 
# 
# High freq. dielectric constant tensor:
#      x y z
#    x 1.763870 0.000000 0.000000 
#    y 0.000000 1.768410 0.000000 
#    z 0.000000 0.000000 1.746930 
# 
# From -- ./inp_files/1679.got.cif
#   From: 2010.03.12/outbox.cif.g09.slc.cpg/sg31_1_cif.got.tgz:1679.got - 2010.04.14 01:42:59.
