data_PCOD8170089
_publ_section_title
;
Structure prediction by ZEFSAII (Michael W. Deem and Ramdas Pophale) SiO2 
 PCOD8170089
Probable space group: P M N 21
;
_chemical_formula_sum "Si O2"
_cell_formula_units_Z 32
_cell_length_a 8.929401
_cell_length_b 14.328610
_cell_length_c 12.763760
_cell_angle_alpha 90.000000
_cell_angle_beta 90.000000
_cell_angle_gamma 90.000000
_cell_volume 1633.070818
_symmetry_space_group_name_H-M "P M N 21"
_symmetry_group_IT_number 31
_symmetry_cell_setting 'orthorhombic'
loop_
_space_group_symop_operation_xyz
x,y,z
1/2-x,-y,1/2+z
-x,y,z
1/2+x,-y,1/2+z
loop_
_atom_site_type_symbol
_atom_site_label
_atom_site_fract_x
_atom_site_fract_y
_atom_site_fract_z
Si Si1 0.673800 0.701165 0.491060
Si Si2 0.174340 0.806697 0.305639
Si Si3 0.822140 0.155618 0.350760
Si Si4 0.323176 0.663041 0.177318
Si Si5 0.675452 0.033245 0.945525
Si Si6 0.176700 0.351696 0.443527
Si Si7 0.671286 0.529118 0.362686
Si Si8 0.178644 0.835896 0.630784
O O1 0.500000 0.731547 0.478911
O O2 0.780468 0.747250 0.406090
O O3 0.687524 0.589860 0.470102
O O4 0.741485 0.736116 0.601952
O O5 0.261680 0.766615 0.205022
O O6 0.218665 0.912945 0.336691
O O7 0.000000 0.795378 0.282844
O O8 0.766724 0.253114 0.398732
O O9 0.734183 0.134801 0.244484
O O10 0.000000 0.153924 0.329983
O O11 0.774007 0.074188 0.433022
O O12 0.500000 0.671482 0.180702
O O13 0.267312 0.586687 0.261933
O O14 0.264228 0.635614 0.062328
O O15 0.500000 0.039658 0.960346
O O16 0.740321 0.084785 0.049186
O O17 0.236756 0.434311 0.371214
O O18 0.000000 0.355369 0.441001
O O19 0.500000 0.501676 0.343225
O O20 0.000000 0.823923 0.628997
#
# Coordination Sequence:
#
# PCOD8170089 Si02
#       8
#     4   4   4   4   4   4   4   4
#     4   9  17  32  54  80 107 138 174 215 264 319
#     4   9  16  29  52  81 107 135 173 221 266 308
#     4  10  21  38  55  75 108 147 180 218 268 326
#     4   9  19  36  54  76 105 139 176 219 269 322
#     4   8  17  34  54  76 106 140 177 217 261 313
#     4  10  22  37  54  76 105 141 181 219 265 322
#     4   9  19  35  55  77 104 136 176 223 269 316
#     4  10  20  35  56  83 110 140 179 226 272 316
#
# _framework density 19.594985999999999
#
# number of rings (size 3 to 8) (size 9 to 14) (size 15 to 20)
#    0.000    2.750    0.000    2.625    0.000    5.500 
#    0.000    7.500    0.000    0.000    0.000    0.000 
#    0.000    0.000    0.000    0.000    0.000    0.000 
#
# Total GULP energy -396536.491775 kJ/mol
# GULP energy per Si atom -12391.765368 kJ/mol
# Density = 1.955039 g / cm^3
# Si number density = 19.594986 Si / 1000 Ang^3
#
#
#
# Elastic Constant Matrix: (Units=GPa)
#
#
# Indices 1 2 3 4 5 6 
#
# 1 22.4199 33.3070 28.7101 0.0000 0.0000 0.0000
# 2 33.3070 138.8991 57.8560 0.0000 0.0000 0.0000
# 3 28.7101 57.8560 107.1554 0.0000 0.0000 0.0000
# 4 0.0000 0.0000 0.0000 25.8953 0.0000 0.0000
# 5 0.0000 0.0000 0.0000 0.0000 25.1265 0.0000
# 6 0.0000 0.0000 0.0000 0.0000 0.0000 25.3204
#
#
#
# Elastic Compliance Matrix: (Units=1/GPa)
#
#
# Indices 1 2 3 4 5 6 
#
# 1 0.084870 -0.014036 -0.015161 0.000000 0.000000 0.000000
# 2 -0.014036 0.011610 -0.002508 0.000000 0.000000 0.000000
# 3 -0.015161 -0.002508 0.014748 0.000000 0.000000 0.000000
# 4 0.000000 0.000000 0.000000 0.038617 0.000000 0.000000
# 5 0.000000 0.000000 0.000000 0.000000 0.039799 0.000000
# 6 0.000000 0.000000 0.000000 0.000000 0.000000 0.039494
#
#
# Mechanical properties :
#
#
# Convention : Reuss Voigt Hill
#
# Bulk Modulus (GPa) = 20.91237 56.46896 38.69066
# Shear Modulus (GPa) = 16.20821 25.17518 20.69169
#
# Velocity S-wave (km/s) = 2.87916 3.58827 3.25309
# Velocity P-wave (km/s) = 4.66350 6.78588 5.82222
#
# Compressibility (1/GPa) = 0.04781859
#
# Stress axis : x y z
#
# Youngs Moduli (GPa) = 11.78278 86.13399 67.80502
#
# Poissons Ratio (x) = 1.20900 1.02796
# Poissons Ratio (y) = 0.16539 0.17004
# Poissons Ratio (z) = 0.17863 0.21600
#
# Static dielectric constant tensor:
#      x y z
#    x 3.397640 0.000000 0.000000 
#    y 0.000000 3.866080 0.000000 
#    z 0.000000 0.000000 3.689910 
# 
# 
# High freq. dielectric constant tensor:
#      x y z
#    x 1.747300 0.000000 0.000000 
#    y 0.000000 1.760940 0.000000 
#    z 0.000000 0.000000 1.751560 
# 
# From -- ./inp_files/3598.got.cif
#   From: 2010.03.12/outbox.cif.g09.slc.cpg/sg31_2_cif.got.tgz:3598.got - 2010.04.14 01:42:59.
