data_PCOD8170648
_publ_section_title
;
Structure prediction by ZEFSAII (Michael W. Deem and Ramdas Pophale) SiO2 
 PCOD8170648
Probable space group: P N A 21
;
_chemical_formula_sum "Si O2"
_cell_formula_units_Z 32
_cell_length_a 16.737385
_cell_length_b 18.687024
_cell_length_c 5.008306
_cell_angle_alpha 90.000000
_cell_angle_beta 90.000000
_cell_angle_gamma 90.000000
_cell_volume 1566.457459
_symmetry_space_group_name_H-M "P N A 21"
_symmetry_group_IT_number 33
_symmetry_cell_setting 'orthorhombic'
loop_
_space_group_symop_operation_xyz
x,y,z
-x,-y,1/2+z
1/2-x,1/2+y,1/2+z
1/2+x,1/2-y,z
loop_
_atom_site_type_symbol
_atom_site_label
_atom_site_fract_x
_atom_site_fract_y
_atom_site_fract_z
Si Si1 0.848597 0.249671 0.100880
Si Si2 0.502943 0.590519 0.974058
Si Si3 0.593463 0.542210 0.474513
Si Si4 0.122632 0.592836 0.528061
Si Si5 0.658401 0.060246 0.598463
Si Si6 0.744557 0.115138 0.091021
Si Si7 0.016738 0.606754 0.030088
Si Si8 0.545362 0.737690 0.104709
O O1 0.825937 0.333185 0.045586
O O2 0.772569 0.197613 0.062491
O O3 0.880064 0.239319 0.400774
O O4 0.918440 0.225887 0.898398
O O5 0.573472 0.564218 0.171951
O O6 0.423297 0.542917 0.012621
O O7 0.484173 0.673291 0.037937
O O8 0.536023 0.585538 0.674315
O O9 0.684685 0.558806 0.537483
O O10 0.179762 0.524807 0.590444
O O11 0.085484 0.581603 0.234190
O O12 0.049045 0.597575 0.732340
O O13 0.709136 0.103780 0.383369
O O14 0.563473 0.061454 0.553035
O O15 0.675511 0.096881 0.881227
O O16 0.994830 0.689651 0.087226
#
# Coordination Sequence:
#
# PCOD8170648 Si02
#       8
#     4   4   4   4   4   4   4   4
#     4  10  20  35  58  83 105 150 181 232 269 340
#     4  10  17  32  53  80 106 139 190 232 270 305
#     4  10  20  31  52  77 111 146 182 229 265 328
#     4  10  21  40  62  82 109 144 202 235 279 327
#     4  12  24  37  58  85 116 153 180 239 290 343
#     4  12  22  37  55  83 121 151 189 216 288 360
#     4  10  21  37  60  84 107 142 195 252 280 317
#     4  10  17  33  58  82 107 135 191 237 281 318
#
# _framework density 20.428262
#
# number of rings (size 3 to 8) (size 9 to 14) (size 15 to 20)
#    0.000    1.500    2.500    3.750    0.000    0.000 
#    0.000    2.500    0.000    0.000    0.000    0.000 
#    0.000    0.000    0.000    0.000    0.000    0.000 
#
# Total GULP energy -396820.178323 kJ/mol
# GULP energy per Si atom -12400.630573 kJ/mol
# Density = 2.038177 g / cm^3
# Si number density = 20.428262 Si / 1000 Ang^3
#
#
#
# Elastic Constant Matrix: (Units=GPa)
#
#
# Indices 1 2 3 4 5 6 
#
# 1 42.8127 23.3092 3.6921 0.0000 0.0000 0.0000
# 2 23.3092 143.5440 13.3436 0.0000 0.0000 0.0000
# 3 3.6921 13.3436 72.9055 0.0000 0.0000 0.0000
# 4 0.0000 0.0000 0.0000 24.6568 0.0000 0.0000
# 5 0.0000 0.0000 0.0000 0.0000 23.3617 0.0000
# 6 0.0000 0.0000 0.0000 0.0000 0.0000 30.4557
#
#
#
# Elastic Compliance Matrix: (Units=1/GPa)
#
#
# Indices 1 2 3 4 5 6 
#
# 1 0.025644 -0.004113 -0.000546 0.000000 0.000000 0.000000
# 2 -0.004113 0.007747 -0.001210 0.000000 0.000000 0.000000
# 3 -0.000546 -0.001210 0.013965 0.000000 0.000000 0.000000
# 4 0.000000 0.000000 0.000000 0.040557 0.000000 0.000000
# 5 0.000000 0.000000 0.000000 0.000000 0.042805 0.000000
# 6 0.000000 0.000000 0.000000 0.000000 0.000000 0.032835
#
#
# Mechanical properties :
#
#
# Convention : Reuss Voigt Hill
#
# Bulk Modulus (GPa) = 28.07505 37.77244 32.92375
# Shear Modulus (GPa) = 26.71460 30.28932 28.50196
#
# Velocity S-wave (km/s) = 3.62017 3.85478 3.73932
# Velocity P-wave (km/s) = 5.58993 6.19216 5.89874
#
# Compressibility (1/GPa) = 0.03561882
#
# Stress axis : x y z
#
# Youngs Moduli (GPa) = 38.99517 129.08383 71.60546
#
# Poissons Ratio (x) = 0.53098 0.03908
# Poissons Ratio (y) = 0.16040 0.08661
# Poissons Ratio (z) = 0.02128 0.15614
#
# Static dielectric constant tensor:
#      x y z
#    x 3.122170 0.000000 0.000000 
#    y 0.000000 4.152210 0.000000 
#    z 0.000000 0.000000 3.892770 
# 
# 
# High freq. dielectric constant tensor:
#      x y z
#    x 1.738770 0.000000 0.000000 
#    y 0.000000 1.816680 0.000000 
#    z 0.000000 0.000000 1.822030 
# 
# From -- ./inp_files/1530.got.cif
#   From: 2010.03.12/outbox.cif.g09.slc.cpg/sg33_1_cif.got.tgz:1530.got - 2010.04.14 01:49:19.
