data_PCOD8170130
_publ_section_title
;
Structure prediction by ZEFSAII (Michael W. Deem and Ramdas Pophale) SiO2 
 PCOD8170130
Probable space group: P M N 21
;
_chemical_formula_sum "Si O2"
_cell_formula_units_Z 32
_cell_length_a 9.302082
_cell_length_b 16.386059
_cell_length_c 10.740188
_cell_angle_alpha 90.000000
_cell_angle_beta 90.000000
_cell_angle_gamma 90.000000
_cell_volume 1637.067404
_symmetry_space_group_name_H-M "P M N 21"
_symmetry_group_IT_number 31
_symmetry_cell_setting 'orthorhombic'
loop_
_space_group_symop_operation_xyz
x,y,z
1/2-x,-y,1/2+z
-x,y,z
1/2+x,-y,1/2+z
loop_
_atom_site_type_symbol
_atom_site_label
_atom_site_fract_x
_atom_site_fract_y
_atom_site_fract_z
Si Si1 0.669706 0.454081 0.013140
Si Si2 0.329307 0.261719 0.665175
Si Si3 0.659231 0.845205 0.009117
Si Si4 0.158168 0.725494 0.591072
Si Si5 0.342269 0.147441 0.870819
Si Si6 0.660403 0.852380 0.719208
Si Si7 0.670347 0.444047 0.726691
Si Si8 0.827637 0.976153 0.561519
O O1 0.500000 0.468784 0.027915
O O2 0.713923 0.361805 0.044348
O O3 0.752101 0.508176 0.115032
O O4 0.714046 0.472764 0.867746
O O5 0.500000 0.258792 0.658636
O O6 0.260565 0.233404 0.534490
O O7 0.261359 0.191381 0.756349
O O8 0.279840 0.350492 0.709106
O O9 0.500000 0.826506 0.060950
O O10 0.719351 0.929768 0.068585
O O11 0.651622 0.861085 0.864714
O O12 0.145006 0.783156 0.473779
O O13 0.269580 0.764592 0.688075
O O14 0.000000 0.716558 0.653771
O O15 0.500000 0.122622 0.822702
O O16 0.269906 0.067205 0.932646
O O17 0.500000 0.855916 0.660814
O O18 0.754837 0.928897 0.675019
O O19 0.500000 0.453575 0.708892
O O20 0.000000 0.965095 0.568806
#
# Coordination Sequence:
#
# PCOD8170130 Si02
#       8
#     4   4   4   4   4   4   4   4
#     4  10  21  39  63  89 118 157 198 244 300 359
#     4  10  20  36  60  83 107 147 193 232 276 338
#     4  10  23  38  52  78 117 151 181 230 292 341
#     4   9  17  35  61  81 104 142 186 226 275 338
#     4   8  14  30  58  80  97 133 182 224 262 315
#     4  10  21  36  54  80 113 145 183 232 285 338
#     4  10  22  40  61  89 122 154 199 250 299 358
#     4   9  19  36  57  78 106 147 188 228 277 333
#
# _framework density 19.547148
#
# number of rings (size 3 to 8) (size 9 to 14) (size 15 to 20)
#    0.000    2.500    1.250    1.125    1.750    4.000 
#    0.000    7.500    0.000    0.000    0.000    0.000 
#    0.000    0.000    0.000    0.000    0.000    0.000 
#
# Total GULP energy -396437.097158 kJ/mol
# GULP energy per Si atom -12388.659286 kJ/mol
# Density = 1.950266 g / cm^3
# Si number density = 19.547148 Si / 1000 Ang^3
#
#
#
# Elastic Constant Matrix: (Units=GPa)
#
#
# Indices 1 2 3 4 5 6 
#
# 1 56.1635 41.2317 39.0851 0.0000 0.0000 0.0000
# 2 41.2317 98.2842 49.9115 0.0000 0.0000 0.0000
# 3 39.0851 49.9115 87.1409 0.0000 0.0000 0.0000
# 4 0.0000 0.0000 0.0000 25.0188 0.0000 0.0000
# 5 0.0000 0.0000 0.0000 0.0000 29.9164 0.0000
# 6 0.0000 0.0000 0.0000 0.0000 0.0000 26.0911
#
#
#
# Elastic Compliance Matrix: (Units=1/GPa)
#
#
# Indices 1 2 3 4 5 6 
#
# 1 0.029818 -0.008062 -0.008756 0.000000 0.000000 0.000000
# 2 -0.008062 0.016528 -0.005850 0.000000 0.000000 0.000000
# 3 -0.008756 -0.005850 0.018754 0.000000 0.000000 0.000000
# 4 0.000000 0.000000 0.000000 0.039970 0.000000 0.000000
# 5 0.000000 0.000000 0.000000 0.000000 0.033426 0.000000
# 6 0.000000 0.000000 0.000000 0.000000 0.000000 0.038327
#
#
# Mechanical properties :
#
#
# Convention : Reuss Voigt Hill
#
# Bulk Modulus (GPa) = 50.60327 55.78278 53.19303
# Shear Modulus (GPa) = 21.85810 23.62928 22.74369
#
# Velocity S-wave (km/s) = 3.34761 3.48060 3.41476
# Velocity P-wave (km/s) = 6.39422 6.68972 6.54364
#
# Compressibility (1/GPa) = 0.01976157
#
# Stress axis : x y z
#
# Youngs Moduli (GPa) = 33.53732 60.50389 53.32189
#
# Poissons Ratio (x) = 0.48780 0.46690
# Poissons Ratio (y) = 0.27039 0.31196
# Poissons Ratio (z) = 0.29366 0.35398
#
# Static dielectric constant tensor:
#      x y z
#    x 3.532980 0.000000 0.000000 
#    y 0.000000 3.722290 0.000000 
#    z 0.000000 0.000000 3.607450 
# 
# 
# High freq. dielectric constant tensor:
#      x y z
#    x 1.739680 0.000000 0.000000 
#    y 0.000000 1.765500 0.000000 
#    z 0.000000 0.000000 1.758730 
# 
# From -- ./inp_files/3720.got.cif
#   From: 2010.03.12/outbox.cif.g09.slc.cpg/sg31_2_cif.got.tgz:3720.got - 2010.04.14 01:42:59.
