data_PCOD8170709
_publ_section_title
;
Structure prediction by ZEFSAII (Michael W. Deem and Ramdas Pophale) SiO2 
 PCOD8170709
Probable space group: P N A 21
;
_chemical_formula_sum "Si O2"
_cell_formula_units_Z 32
_cell_length_a 17.229794
_cell_length_b 5.120997
_cell_length_c 17.913727
_cell_angle_alpha 90.000000
_cell_angle_beta 90.000000
_cell_angle_gamma 90.000000
_cell_volume 1580.594833
_symmetry_space_group_name_H-M "P N A 21"
_symmetry_group_IT_number 33
_symmetry_cell_setting 'orthorhombic'
loop_
_space_group_symop_operation_xyz
x,y,z
-x,-y,1/2+z
1/2-x,1/2+y,1/2+z
1/2+x,1/2-y,z
loop_
_atom_site_type_symbol
_atom_site_label
_atom_site_fract_x
_atom_site_fract_y
_atom_site_fract_z
Si Si1 0.071746 0.133096 0.727560
Si Si2 0.270206 0.391003 0.222798
Si Si3 0.623308 0.212753 0.879441
Si Si4 0.270206 0.391003 0.811203
Si Si5 0.571746 0.366904 0.306441
Si Si6 0.376692 0.787248 0.654560
Si Si7 0.537968 0.726141 0.101396
Si Si8 0.462032 0.273859 0.432605
O O1 0.104653 0.333269 0.790293
O O2 0.039058 0.265086 0.652072
O O3 0.138956 0.929086 0.702543
O O4 1.000000 0.000000 0.767000
O O5 0.235414 0.669587 0.248344
O O6 0.217717 0.302882 0.150978
O O7 0.264586 0.169587 0.285657
O O8 0.717717 0.197118 0.883023
O O9 0.593923 0.494624 0.905213
O O10 0.585862 0.993438 0.930646
O O11 0.361044 0.429086 0.831458
O O12 0.604653 0.166731 0.243708
O O13 0.539058 0.234914 0.381929
O O14 0.406077 0.505377 0.628788
O O15 0.414138 0.006562 0.603355
O O16 0.510894 0.673470 0.017001
#
# Coordination Sequence:
#
# PCOD8170709 Si02
#       8
#     4   4   4   4   4   4   4   4
#     4   9  19  35  59  83 107 139 182 228 272 320
#     4  10  19  33  56  85 108 136 181 231 272 319
#     4  10  20  37  57  80 109 145 183 226 273 325
#     4  10  19  33  56  85 108 136 181 231 272 319
#     4   9  19  35  59  83 107 139 182 228 272 320
#     4  10  20  37  57  80 109 145 183 226 273 325
#     4  11  22  37  55  80 112 148 184 225 275 328
#     4  11  22  37  55  80 112 148 184 225 275 328
#
# _framework density 20.245543000000001
#
# number of rings (size 3 to 8) (size 9 to 14) (size 15 to 20)
#    0.000    2.000    0.000    6.000    0.000    6.000 
#    0.000    2.500    0.000    0.000    0.000    0.000 
#    0.000    0.000    0.000    0.000    0.000    0.000 
#
# Total GULP energy -396463.646579 kJ/mol
# GULP energy per Si atom -12389.488956 kJ/mol
# Density = 2.019946 g / cm^3
# Si number density = 20.245543 Si / 1000 Ang^3
#
#
#
# Elastic Constant Matrix: (Units=GPa)
#
#
# Indices 1 2 3 4 5 6 
#
# 1 118.9199 19.4290 25.4770 0.0000 0.0000 0.0000
# 2 19.4290 83.1800 3.3917 0.0000 0.0000 0.0000
# 3 25.4770 3.3917 104.7026 0.0000 0.0000 0.0000
# 4 0.0000 0.0000 0.0000 21.0787 0.0000 0.0000
# 5 0.0000 0.0000 0.0000 0.0000 16.9236 0.0000
# 6 0.0000 0.0000 0.0000 0.0000 0.0000 26.3367
#
#
#
# Elastic Compliance Matrix: (Units=1/GPa)
#
#
# Indices 1 2 3 4 5 6 
#
# 1 0.009212 -0.002063 -0.002175 0.000000 0.000000 0.000000
# 2 -0.002063 0.012500 0.000097 0.000000 0.000000 0.000000
# 3 -0.002175 0.000097 0.010077 0.000000 0.000000 0.000000
# 4 0.000000 0.000000 0.000000 0.047441 0.000000 0.000000
# 5 0.000000 0.000000 0.000000 0.000000 0.059089 0.000000
# 6 0.000000 0.000000 0.000000 0.000000 0.000000 0.037970
#
#
# Mechanical properties :
#
#
# Convention : Reuss Voigt Hill
#
# Bulk Modulus (GPa) = 42.53948 44.82199 43.68073
# Shear Modulus (GPa) = 25.98666 30.10144 28.04405
#
# Velocity S-wave (km/s) = 3.58659 3.86011 3.72586
# Velocity P-wave (km/s) = 6.18133 6.48495 6.33496
#
# Compressibility (1/GPa) = 0.02350758
#
# Stress axis : x y z
#
# Youngs Moduli (GPa) = 108.55429 79.99969 99.23708
#
# Poissons Ratio (x) = 0.16504 0.21581
# Poissons Ratio (y) = 0.22395 -0.00963
# Poissons Ratio (z) = 0.23607 -0.00777
#
# Static dielectric constant tensor:
#      x y z
#    x 4.342270 0.000000 0.000000 
#    y 0.000000 3.614980 0.000000 
#    z 0.000000 0.000000 3.742210 
# 
# 
# High freq. dielectric constant tensor:
#      x y z
#    x 1.803480 0.000000 0.000000 
#    y 0.000000 1.791370 0.000000 
#    z 0.000000 0.000000 1.750030 
# 
# From -- ./inp_files/8857.got.cif
#   From: 2010.03.12/outbox.cif.g09.slc.cpg/sg33_5_cif.got.tgz:8857.got - 2010.04.14 01:49:19.
