data_PCOD8170021
_publ_section_title
;
Structure prediction by ZEFSAII (Michael W. Deem and Ramdas Pophale) SiO2 
 PCOD8170021
Probable space group: P M N 21
;
_chemical_formula_sum "Si O2"
_cell_formula_units_Z 32
_cell_length_a 8.800818
_cell_length_b 13.768277
_cell_length_c 13.947381
_cell_angle_alpha 90.000000
_cell_angle_beta 90.000000
_cell_angle_gamma 90.000000
_cell_volume 1690.033446
_symmetry_space_group_name_H-M "P M N 21"
_symmetry_group_IT_number 31
_symmetry_cell_setting 'orthorhombic'
loop_
_space_group_symop_operation_xyz
x,y,z
1/2-x,-y,1/2+z
-x,y,z
1/2+x,-y,1/2+z
loop_
_atom_site_type_symbol
_atom_site_label
_atom_site_fract_x
_atom_site_fract_y
_atom_site_fract_z
Si Si1 0.326168 0.347958 0.734890
Si Si2 0.823809 0.148539 0.750571
Si Si3 0.678169 0.533499 0.612725
Si Si4 0.820733 0.152928 0.282305
Si Si5 0.177844 0.517686 0.409905
Si Si6 0.179551 0.643035 0.786178
Si Si7 0.821292 0.970872 0.407075
Si Si8 0.678995 0.032610 0.123777
O O1 0.500000 0.315060 0.729756
O O2 0.223709 0.254695 0.715182
O O3 0.288727 0.425876 0.652422
O O4 0.288600 0.393054 0.838690
O O5 0.000000 0.147573 0.771343
O O6 0.743477 0.121429 0.850307
O O7 0.779171 0.071861 0.668353
O O8 0.500000 0.550946 0.597010
O O9 0.767377 0.549199 0.514375
O O10 0.738057 0.612125 0.688209
O O11 0.730283 0.248685 0.312066
O O12 0.769057 0.071414 0.358536
O O13 0.769858 0.117953 0.177020
O O14 0.000000 0.172666 0.284087
O O15 0.270491 0.423844 0.375055
O O16 0.000000 0.491616 0.409781
O O17 0.000000 0.636453 0.772288
O O18 0.000000 0.962173 0.404386
O O19 0.761037 0.968258 0.515287
O O20 0.500000 0.054040 0.131109
#
# Coordination Sequence:
#
# PCOD8170021 Si02
#       8
#     4   4   4   4   4   4   4   4
#     4   9  20  37  55  77 108 142 176 215 264 318
#     4  10  20  33  53  80 107 135 174 220 263 311
#     4  10  21  38  58  82 110 141 181 228 272 323
#     4  10  20  35  55  80 107 139 178 222 270 320
#     4  10  21  38  58  81 110 144 181 225 272 323
#     4  11  22  37  57  81 110 146 183 224 272 322
#     4   9  19  36  56  75 103 141 177 216 267 321
#     4   9  19  36  54  76 105 138 176 218 264 318
#
# _framework density 18.934536000000001
#
# number of rings (size 3 to 8) (size 9 to 14) (size 15 to 20)
#    0.000    2.250    0.000    3.375    0.000    6.500 
#    0.000    2.500    0.000    0.000    0.000    0.000 
#    0.000    0.000    0.000    0.000    0.000    0.000 
#
# Total GULP energy -396926.835078 kJ/mol
# GULP energy per Si atom -12403.963596 kJ/mol
# Density = 1.889144 g / cm^3
# Si number density = 18.934536 Si / 1000 Ang^3
#
#
#
# Elastic Constant Matrix: (Units=GPa)
#
#
# Indices 1 2 3 4 5 6 
#
# 1 41.9882 15.5178 7.8260 0.0000 0.0000 0.0000
# 2 15.5178 54.7644 -20.2081 0.0000 0.0000 0.0000
# 3 7.8260 -20.2081 64.7479 0.0000 0.0000 0.0000
# 4 0.0000 0.0000 0.0000 13.5314 0.0000 0.0000
# 5 0.0000 0.0000 0.0000 0.0000 32.4783 0.0000
# 6 0.0000 0.0000 0.0000 0.0000 0.0000 35.6517
#
#
#
# Elastic Compliance Matrix: (Units=1/GPa)
#
#
# Indices 1 2 3 4 5 6 
#
# 1 0.029082 -0.010779 -0.006879 0.000000 0.000000 0.000000
# 2 -0.010779 0.024632 0.008991 0.000000 0.000000 0.000000
# 3 -0.006879 0.008991 0.019082 0.000000 0.000000 0.000000
# 4 0.000000 0.000000 0.000000 0.073902 0.000000 0.000000
# 5 0.000000 0.000000 0.000000 0.000000 0.030790 0.000000
# 6 0.000000 0.000000 0.000000 0.000000 0.000000 0.028049
#
#
# Mechanical properties :
#
#
# Convention : Reuss Voigt Hill
#
# Bulk Modulus (GPa) = 18.03089 18.64133 18.33611
# Shear Modulus (GPa) = 20.71598 26.88993 23.80296
#
# Velocity S-wave (km/s) = 3.31128 3.77258 3.54943
# Velocity P-wave (km/s) = 4.91558 5.37057 5.14810
#
# Compressibility (1/GPa) = 0.05546038
#
# Stress axis : x y z
#
# Youngs Moduli (GPa) = 34.38541 40.59779 52.40541
#
# Poissons Ratio (x) = 0.43761 0.36051
# Poissons Ratio (y) = 0.37064 -0.47115
# Poissons Ratio (z) = 0.23655 -0.36500
#
# Static dielectric constant tensor:
#      x y z
#    x 3.438500 0.000000 0.000000 
#    y 0.000000 3.425360 0.000000 
#    z 0.000000 0.000000 3.537500 
# 
# 
# High freq. dielectric constant tensor:
#      x y z
#    x 1.741220 0.000000 0.000000 
#    y 0.000000 1.735040 0.000000 
#    z 0.000000 0.000000 1.735180 
# 
# From -- ./inp_files/5122.got.cif
#   From: 2010.03.12/outbox.cif.g09.slc.cpg/sg31_3_cif.got.tgz:5122.got - 2010.04.14 01:42:59.
