data_PCOD8170881
_publ_section_title
;
Structure prediction by ZEFSAII (Michael W. Deem and Ramdas Pophale) SiO2 
 PCOD8170881
Probable space group: P N A 21
;
_chemical_formula_sum "Si O2"
_cell_formula_units_Z 12
_cell_length_a 10.070507
_cell_length_b 7.717433
_cell_length_c 4.885434
_cell_angle_alpha 90.000000
_cell_angle_beta 90.000000
_cell_angle_gamma 90.000000
_cell_volume 379.688422
_symmetry_space_group_name_H-M "P N A 21"
_symmetry_group_IT_number 33
_symmetry_cell_setting 'orthorhombic'
loop_
_space_group_symop_operation_xyz
x,y,z
-x,-y,1/2+z
1/2-x,1/2+y,1/2+z
1/2+x,1/2-y,z
loop_
_atom_site_type_symbol
_atom_site_label
_atom_site_fract_x
_atom_site_fract_y
_atom_site_fract_z
Si Si1 0.114411 0.607579 0.817200
Si Si2 0.210762 0.427418 0.294339
Si Si3 0.452300 0.575083 0.967927
O O1 0.129296 0.539361 0.513520
O O2 0.249352 0.727733 0.873576
O O3 0.114488 0.447380 0.028088
O O4 0.979154 0.722510 0.875768
O O5 0.347606 0.518383 0.203096
O O6 0.575831 0.532649 0.184501
#
# Coordination Sequence:
#
# PCOD8170881 Si02
#       3
#     4   4   4
#     4  11  22  39  63  91 122 164 209 257 309 369
#     4  11  22  39  63  91 122 164 209 257 309 369
#     4  10  20  38  62  88 124 172 210 244 306 390
#
# _framework density 31.604858
#
# number of rings (size 3 to 8) (size 9 to 14) (size 15 to 20)
#    0.000    1.333    0.000   10.000    0.000    0.000 
#    0.000    6.667    0.000    4.000    0.000    0.000 
#    0.000    0.000    0.000    0.000    0.000    0.000 
#
# Total GULP energy -148681.389191 kJ/mol
# GULP energy per Si atom -12390.115766 kJ/mol
# Density = 3.153292 g / cm^3
# Si number density = 31.604858 Si / 1000 Ang^3
#
#
#
# Elastic Constant Matrix: (Units=GPa)
#
#
# Indices 1 2 3 4 5 6 
#
# 1 86.1640 11.6677 -3.8078 0.0000 0.0000 0.0000
# 2 11.6677 181.2038 83.7258 0.0000 0.0000 0.0000
# 3 -3.8078 83.7258 277.1995 0.0000 0.0000 0.0000
# 4 0.0000 0.0000 0.0000 47.4462 0.0000 0.0000
# 5 0.0000 0.0000 0.0000 0.0000 27.6501 0.0000
# 6 0.0000 0.0000 0.0000 0.0000 0.0000 43.8479
#
#
#
# Elastic Compliance Matrix: (Units=1/GPa)
#
#
# Indices 1 2 3 4 5 6 
#
# 1 0.011757 -0.000967 0.000453 0.000000 0.000000 0.000000
# 2 -0.000967 0.006493 -0.001974 0.000000 0.000000 0.000000
# 3 0.000453 -0.001974 0.004210 0.000000 0.000000 0.000000
# 4 0.000000 0.000000 0.000000 0.021076 0.000000 0.000000
# 5 0.000000 0.000000 0.000000 0.000000 0.036166 0.000000
# 6 0.000000 0.000000 0.000000 0.000000 0.000000 0.022806
#
#
# Mechanical properties :
#
#
# Convention : Reuss Voigt Hill
#
# Bulk Modulus (GPa) = 57.19240 80.85985 69.02612
# Shear Modulus (GPa) = 44.12583 53.98762 49.05672
#
# Velocity S-wave (km/s) = 3.74059 4.13753 3.94406
# Velocity P-wave (km/s) = 6.06559 6.96173 6.52905
#
# Compressibility (1/GPa) = 0.01748484
#
# Stress axis : x y z
#
# Youngs Moduli (GPa) = 85.05794 154.00714 237.52302
#
# Poissons Ratio (x) = 0.14885 -0.10770
# Poissons Ratio (y) = 0.08221 0.46899
# Poissons Ratio (z) = -0.03857 0.30409
#
# Static dielectric constant tensor:
#      x y z
#    x 8.700770 0.000000 0.000000 
#    y 0.000000 6.061170 0.000000 
#    z 0.000000 0.000000 6.014020 
# 
# 
# High freq. dielectric constant tensor:
#      x y z
#    x 2.405340 0.000000 0.000000 
#    y 0.000000 2.297000 0.000000 
#    z 0.000000 0.000000 2.329400 
# 
# From -- ./inp_files/48.got.cif
#   From: 2010.03.12/outbox.cif.g09.slc.cpg/sg33_1_cif.got.tgz:48.got - 2010.04.14 01:49:19.
