data_PCOD8170195
_publ_section_title
;
Structure prediction by ZEFSAII (Michael W. Deem and Ramdas Pophale) SiO2 
 PCOD8170195
Probable space group: P M N 21
;
_chemical_formula_sum "Si O2"
_cell_formula_units_Z 32
_cell_length_a 8.820796
_cell_length_b 13.489200
_cell_length_c 12.915922
_cell_angle_alpha 90.000000
_cell_angle_beta 90.000000
_cell_angle_gamma 90.000000
_cell_volume 1536.807197
_symmetry_space_group_name_H-M "P M N 21"
_symmetry_group_IT_number 31
_symmetry_cell_setting 'orthorhombic'
loop_
_space_group_symop_operation_xyz
x,y,z
1/2-x,-y,1/2+z
-x,y,z
1/2+x,-y,1/2+z
loop_
_atom_site_type_symbol
_atom_site_label
_atom_site_fract_x
_atom_site_fract_y
_atom_site_fract_z
Si Si1 0.320245 0.942259 0.080760
Si Si2 0.331534 0.107526 0.942084
Si Si3 0.820557 0.389706 0.098300
Si Si4 0.181362 0.680340 0.390767
Si Si5 0.823847 0.757660 0.759098
Si Si6 0.320399 0.396094 0.669758
Si Si7 0.169321 0.033822 0.255454
Si Si8 0.322725 0.248116 0.492508
O O1 0.500000 0.935260 0.090310
O O2 0.264056 0.854507 0.007985
O O3 0.237985 0.940529 0.191166
O O4 0.264468 0.053139 0.043145
O O5 0.500000 0.145362 0.966821
O O6 0.248721 0.207782 0.904674
O O7 0.336702 0.013309 0.867677
O O8 0.770404 0.301630 0.173717
O O9 0.765258 0.492234 0.149724
O O10 0.000000 0.386300 0.083698
O O11 0.744103 0.384379 0.985431
O O12 0.244625 0.639794 0.280855
O O13 0.000000 0.675582 0.389327
O O14 0.779120 0.872310 0.754569
O O15 0.000000 0.747744 0.731202
O O16 0.790425 0.715328 0.874891
O O17 0.500000 0.390259 0.670644
O O18 0.259540 0.327527 0.575584
O O19 0.000000 0.063544 0.219021
O O20 0.500000 0.228465 0.508949
#
# Coordination Sequence:
#
# PCOD8170195 Si02
#       8
#     4   4   4   4   4   4   4   4
#     4  11  21  35  56  89 127 161 199 248 301 361
#     4   9  19  35  57  82 115 155 193 235 292 355
#     4  11  24  41  63  91 123 161 206 261 317 372
#     4  10  20  40  65  88 118 160 207 252 307 377
#     4  11  23  39  62  93 127 164 207 255 308 373
#     4   9  21  41  65  90 119 160 208 258 318 375
#     4  11  21  37  60  87 121 164 205 247 300 359
#     4  10  21  40  64  90 122 165 209 254 309 372
#
# _framework density 20.822391
#
# number of rings (size 3 to 8) (size 9 to 14) (size 15 to 20)
#    0.000    1.750    1.250    3.000    1.750    3.500 
#    0.000    5.625    0.000    0.000    0.000    0.000 
#    0.000    0.000    0.000    0.000    0.000    0.000 
#
# Total GULP energy -396620.701998 kJ/mol
# GULP energy per Si atom -12394.396937 kJ/mol
# Density = 2.077500 g / cm^3
# Si number density = 20.822391 Si / 1000 Ang^3
#
#
#
# Elastic Constant Matrix: (Units=GPa)
#
#
# Indices 1 2 3 4 5 6 
#
# 1 51.5625 14.5826 26.0505 0.0000 0.0000 0.0000
# 2 14.5826 96.8647 28.6061 0.0000 0.0000 0.0000
# 3 26.0505 28.6061 112.6635 0.0000 0.0000 0.0000
# 4 0.0000 0.0000 0.0000 34.7366 0.0000 0.0000
# 5 0.0000 0.0000 0.0000 0.0000 26.0660 0.0000
# 6 0.0000 0.0000 0.0000 0.0000 0.0000 25.3998
#
#
#
# Elastic Compliance Matrix: (Units=1/GPa)
#
#
# Indices 1 2 3 4 5 6 
#
# 1 0.022306 -0.001984 -0.004654 0.000000 0.000000 0.000000
# 2 -0.001984 0.011337 -0.002420 0.000000 0.000000 0.000000
# 3 -0.004654 -0.002420 0.010567 0.000000 0.000000 0.000000
# 4 0.000000 0.000000 0.000000 0.028788 0.000000 0.000000
# 5 0.000000 0.000000 0.000000 0.000000 0.038364 0.000000
# 6 0.000000 0.000000 0.000000 0.000000 0.000000 0.039370
#
#
# Mechanical properties :
#
#
# Convention : Reuss Voigt Hill
#
# Bulk Modulus (GPa) = 38.32219 44.39657 41.35938
# Shear Modulus (GPa) = 28.16176 30.03059 29.09617
#
# Velocity S-wave (km/s) = 3.68159 3.80178 3.74217
# Velocity P-wave (km/s) = 6.04288 6.37489 6.21111
#
# Compressibility (1/GPa) = 0.02609454
#
# Stress axis : x y z
#
# Youngs Moduli (GPa) = 44.83041 88.20712 94.63838
#
# Poissons Ratio (x) = 0.17498 0.44045
# Poissons Ratio (y) = 0.08893 0.22901
# Poissons Ratio (z) = 0.20864 0.21345
#
# Static dielectric constant tensor:
#      x y z
#    x 3.503830 0.000000 0.000000 
#    y 0.000000 3.787300 0.000000 
#    z 0.000000 0.000000 4.026110 
# 
# 
# High freq. dielectric constant tensor:
#      x y z
#    x 1.787420 0.000000 0.000000 
#    y 0.000000 1.816380 0.000000 
#    z 0.000000 0.000000 1.836110 
# 
# From -- ./inp_files/3739.got.cif
#   From: 2010.03.12/outbox.cif.g09.slc.cpg/sg31_2_cif.got.tgz:3739.got - 2010.04.14 01:42:59.
