data_PCOD8170767
_publ_section_title
;
Structure prediction by ZEFSAII (Michael W. Deem and Ramdas Pophale) SiO2 
 PCOD8170767
Probable space group: P N A 21
;
_chemical_formula_sum "Si O2"
_cell_formula_units_Z 24
_cell_length_a 8.826296
_cell_length_b 13.691107
_cell_length_c 9.115180
_cell_angle_alpha 90.000000
_cell_angle_beta 90.000000
_cell_angle_gamma 90.000000
_cell_volume 1101.494421
_symmetry_space_group_name_H-M "P N A 21"
_symmetry_group_IT_number 33
_symmetry_cell_setting 'orthorhombic'
loop_
_space_group_symop_operation_xyz
x,y,z
-x,-y,1/2+z
1/2-x,1/2+y,1/2+z
1/2+x,1/2-y,z
loop_
_atom_site_type_symbol
_atom_site_label
_atom_site_fract_x
_atom_site_fract_y
_atom_site_fract_z
Si Si1 0.363650 0.796264 0.073760
Si Si2 0.545605 0.873785 0.658992
Si Si3 0.943344 0.122319 0.685748
Si Si4 0.584824 0.476035 0.428629
Si Si5 0.350841 0.705835 0.767280
Si Si6 0.940368 0.466022 0.459334
O O1 0.228009 0.841935 0.166207
O O2 0.434490 0.707788 0.167108
O O3 0.296708 0.760043 0.917139
O O4 0.496767 0.875201 0.053255
O O5 0.439493 0.779248 0.662845
O O6 0.714697 0.834229 0.669641
O O7 0.512164 0.949668 0.790795
O O8 0.516776 0.932178 0.508903
O O9 0.977247 0.035322 0.569621
O O10 0.954761 0.077856 0.849208
O O11 0.547117 0.386087 0.317941
O O12 0.759959 0.470631 0.478733
#
# Coordination Sequence:
#
# PCOD8170767 Si02
#       6
#     4   4   4   4   4   4
#     4  10  19  37  65  89 120 164 200 236 296 372
#     4  10  20  37  60  85 114 153 195 240 288 348
#     4  11  22  40  64  90 120 158 202 248 299 360
#     4  10  22  40  60  88 118 157 205 248 295 356
#     4   9  18  35  59  83 114 156 196 230 287 360
#     4  10  21  39  62  87 118 156 202 246 293 354
#
# _framework density 21.78858
#
# number of rings (size 3 to 8) (size 9 to 14) (size 15 to 20)
#    0.000    2.000    0.000    7.000    0.000    4.000 
#    0.000    8.333    0.000    0.000    0.000    0.000 
#    0.000    0.000    0.000    0.000    0.000    0.000 
#
# Total GULP energy -297604.597379 kJ/mol
# GULP energy per Si atom -12400.191557 kJ/mol
# Density = 2.173899 g / cm^3
# Si number density = 21.788580 Si / 1000 Ang^3
#
#
#
# Elastic Constant Matrix: (Units=GPa)
#
#
# Indices 1 2 3 4 5 6 
#
# 1 94.8164 35.2798 36.8498 0.0000 0.0000 0.0000
# 2 35.2798 67.6277 19.5848 0.0000 0.0000 0.0000
# 3 36.8498 19.5848 35.2599 0.0000 0.0000 0.0000
# 4 0.0000 0.0000 0.0000 44.1147 0.0000 0.0000
# 5 0.0000 0.0000 0.0000 0.0000 15.6135 0.0000
# 6 0.0000 0.0000 0.0000 0.0000 0.0000 28.3522
#
#
#
# Elastic Compliance Matrix: (Units=1/GPa)
#
#
# Indices 1 2 3 4 5 6 
#
# 1 0.019070 -0.004977 -0.017165 0.000000 0.000000 0.000000
# 2 -0.004977 0.018920 -0.005307 0.000000 0.000000 0.000000
# 3 -0.017165 -0.005307 0.049248 0.000000 0.000000 0.000000
# 4 0.000000 0.000000 0.000000 0.022668 0.000000 0.000000
# 5 0.000000 0.000000 0.000000 0.000000 0.064047 0.000000
# 6 0.000000 0.000000 0.000000 0.000000 0.000000 0.035271
#
#
# Mechanical properties :
#
#
# Convention : Reuss Voigt Hill
#
# Bulk Modulus (GPa) = 30.92297 42.34811 36.63554
# Shear Modulus (GPa) = 18.18823 24.68206 21.43515
#
# Velocity S-wave (km/s) = 2.89236 3.36936 3.13993
# Velocity P-wave (km/s) = 5.03760 5.88344 5.47687
#
# Compressibility (1/GPa) = 0.03233842
#
# Stress axis : x y z
#
# Youngs Moduli (GPa) = 52.43900 52.85306 20.30547
#
# Poissons Ratio (x) = 0.26307 0.34854
# Poissons Ratio (y) = 0.26100 0.10777
# Poissons Ratio (z) = 0.90012 0.28051
#
# Static dielectric constant tensor:
#      x y z
#    x 3.725150 0.000000 0.000000 
#    y 0.000000 4.138270 0.000000 
#    z 0.000000 0.000000 3.620180 
# 
# 
# High freq. dielectric constant tensor:
#      x y z
#    x 1.850960 0.000000 0.000000 
#    y 0.000000 1.868580 0.000000 
#    z 0.000000 0.000000 1.824370 
# 
# From -- ./inp_files/3146.got.cif
#   From: 2010.03.12/outbox.cif.g09.slc.cpg/sg33_2_cif.got.tgz:3146.got - 2010.04.14 01:49:19.
