data_PCOD8170209
_publ_section_title
;
Structure prediction by ZEFSAII (Michael W. Deem and Ramdas Pophale) SiO2 
 PCOD8170209
Probable space group: P M N 21
;
_chemical_formula_sum "Si O2"
_cell_formula_units_Z 32
_cell_length_a 9.372334
_cell_length_b 15.812093
_cell_length_c 10.780707
_cell_angle_alpha 90.000000
_cell_angle_beta 90.000000
_cell_angle_gamma 90.000000
_cell_volume 1597.659992
_symmetry_space_group_name_H-M "P M N 21"
_symmetry_group_IT_number 31
_symmetry_cell_setting 'orthorhombic'
loop_
_space_group_symop_operation_xyz
x,y,z
1/2-x,-y,1/2+z
-x,y,z
1/2+x,-y,1/2+z
loop_
_atom_site_type_symbol
_atom_site_label
_atom_site_fract_x
_atom_site_fract_y
_atom_site_fract_z
Si Si1 0.155918 0.721570 0.620250
Si Si2 0.156277 0.862390 0.417029
Si Si3 0.658875 0.152338 0.514265
Si Si4 0.670094 0.555944 0.269011
Si Si5 0.833311 0.165034 0.276378
Si Si6 0.164688 0.726906 0.228036
Si Si7 0.338424 0.969348 0.576970
Si Si8 0.667470 0.456200 0.016680
O O1 0.142510 0.802374 0.534749
O O2 0.264922 0.746661 0.728807
O O3 0.209193 0.641455 0.540875
O O4 0.000000 0.699363 0.678076
O O5 0.222708 0.805982 0.307768
O O6 0.252735 0.942413 0.452830
O O7 0.000000 0.896808 0.377382
O O8 0.500000 0.147752 0.454418
O O9 0.780920 0.148454 0.413656
O O10 0.673219 0.240376 0.587468
O O11 0.680351 0.069470 0.602085
O O12 0.500000 0.558218 0.289001
O O13 0.731321 0.649219 0.249050
O O14 0.710482 0.505566 0.142998
O O15 0.742891 0.515186 0.393580
O O16 0.786383 0.082996 0.196716
O O17 0.000000 0.179725 0.277245
O O18 0.000000 0.703832 0.265199
O O19 0.500000 0.944227 0.548361
O O20 0.500000 0.468605 0.987330
#
# Coordination Sequence:
#
# PCOD8170209 Si02
#       8
#     4   4   4   4   4   4   4   4
#     4   9  17  35  61  82 106 145 192 232 281 353
#     4   9  17  32  59  84 104 142 189 230 278 342
#     4  10  22  38  56  79 113 157 199 236 291 361
#     4  11  24  40  64  96 127 159 206 260 311 367
#     4  10  21  36  55  82 116 146 185 245 301 345
#     4  10  21  39  61  83 115 158 197 239 292 358
#     4   9  20  36  54  80 112 147 188 241 290 337
#     4  10  22  42  64  90 125 164 204 251 306 373
#
# _framework density 20.029295000000001
#
# number of rings (size 3 to 8) (size 9 to 14) (size 15 to 20)
#    0.000    2.250    1.250    0.750    1.750    4.500 
#    0.000    3.750    0.000    0.000    0.000    0.000 
#    0.000    0.000    0.000    0.000    0.000    0.000 
#
# Total GULP energy -396610.315220 kJ/mol
# GULP energy per Si atom -12394.072351 kJ/mol
# Density = 1.998371 g / cm^3
# Si number density = 20.029295 Si / 1000 Ang^3
#
#
#
# Elastic Constant Matrix: (Units=GPa)
#
#
# Indices 1 2 3 4 5 6 
#
# 1 82.7531 33.6840 53.9394 0.0000 0.0000 0.0000
# 2 33.6840 55.9703 31.0872 0.0000 0.0000 0.0000
# 3 53.9394 31.0872 107.1854 0.0000 0.0000 0.0000
# 4 0.0000 0.0000 0.0000 29.5067 0.0000 0.0000
# 5 0.0000 0.0000 0.0000 0.0000 31.7054 0.0000
# 6 0.0000 0.0000 0.0000 0.0000 0.0000 26.1081
#
#
#
# Elastic Compliance Matrix: (Units=1/GPa)
#
#
# Indices 1 2 3 4 5 6 
#
# 1 0.020543 -0.007893 -0.008049 0.000000 0.000000 0.000000
# 2 -0.007893 0.024330 -0.003085 0.000000 0.000000 0.000000
# 3 -0.008049 -0.003085 0.014275 0.000000 0.000000 0.000000
# 4 0.000000 0.000000 0.000000 0.033891 0.000000 0.000000
# 5 0.000000 0.000000 0.000000 0.000000 0.031540 0.000000
# 6 0.000000 0.000000 0.000000 0.000000 0.000000 0.038302
#
#
# Mechanical properties :
#
#
# Convention : Reuss Voigt Hill
#
# Bulk Modulus (GPa) = 47.40368 53.70334 50.55351
# Shear Modulus (GPa) = 24.04250 25.94392 24.99321
#
# Velocity S-wave (km/s) = 3.46839 3.60293 3.53630
# Velocity P-wave (km/s) = 6.30541 6.64671 6.47831
#
# Compressibility (1/GPa) = 0.02109541
#
# Stress axis : x y z
#
# Youngs Moduli (GPa) = 48.67802 41.10176 70.05391
#
# Poissons Ratio (x) = 0.32441 0.56385
# Poissons Ratio (y) = 0.38420 0.21608
# Poissons Ratio (z) = 0.39180 0.12678
#
# Static dielectric constant tensor:
#      x y z
#    x 3.737350 0.000000 0.000000 
#    y 0.000000 3.593150 0.000000 
#    z 0.000000 0.000000 3.650550 
# 
# 
# High freq. dielectric constant tensor:
#      x y z
#    x 1.773070 0.000000 0.000000 
#    y 0.000000 1.773890 0.000000 
#    z 0.000000 0.000000 1.779140 
# 
# From -- ./inp_files/3666.got.cif
#   From: 2010.03.12/outbox.cif.g09.slc.cpg/sg31_2_cif.got.tgz:3666.got - 2010.04.14 01:42:59.
