data_PCOD8170581
_publ_section_title
;
Structure prediction by ZEFSAII (Michael W. Deem and Ramdas Pophale) SiO2 
 PCOD8170581
Probable space group: P B A 2
;
_chemical_formula_sum "Si O2"
_cell_formula_units_Z 22
_cell_length_a 10.429764
_cell_length_b 15.896446
_cell_length_c 5.320929
_cell_angle_alpha 90.000000
_cell_angle_beta 90.000000
_cell_angle_gamma 90.000000
_cell_volume 882.189703
_symmetry_space_group_name_H-M "P B A 2"
_symmetry_group_IT_number 32
_symmetry_cell_setting 'orthorhombic'
loop_
_space_group_symop_operation_xyz
x,y,z
-x,-y,z
1/2-x,1/2+y,z
1/2+x,1/2-y,z
loop_
_atom_site_type_symbol
_atom_site_label
_atom_site_fract_x
_atom_site_fract_y
_atom_site_fract_z
Si Si1 0.221993 0.527072 0.850670
Si Si2 0.431760 0.347753 0.242260
Si Si3 0.817634 0.280239 0.866424
Si Si4 0.688483 0.067332 0.373532
Si Si5 0.573258 0.228978 0.553990
Si Si6 0.500000 0.500000 0.908977
O O1 0.198988 0.622194 0.931774
O O2 0.147881 0.497379 0.597681
O O3 0.368251 0.510215 0.758530
O O4 0.180282 0.472151 0.093937
O O5 0.332071 0.396340 0.423930
O O6 0.558469 0.310186 0.375414
O O7 0.347953 0.273684 0.113553
O O8 0.495841 0.414054 0.061321
O O9 0.688884 0.241394 0.747336
O O10 0.935339 0.273525 0.680507
O O11 0.589624 0.144902 0.388325
#
# Coordination Sequence:
#
# PCOD8170581 Si02
#       6
#     4   4   4   4   4   2
#     4  11  28  48  77 117 157 209 261 330 399 486
#     4  11  27  48  80 114 156 207 266 339 391 486
#     4  12  29  49  80 118 157 214 268 337 410 491
#     4  11  27  50  74 114 158 204 262 330 395 483
#     4  12  27  49  80 111 158 209 270 326 415 482
#     4  10  24  46  80 108 156 198 274 314 398 468
#
# _framework density 24.937947999999999
#
# number of rings (size 3 to 8) (size 9 to 14) (size 15 to 20)
#    0.000    0.727    1.818    3.273   17.818    1.455 
#    0.000    0.000    0.000    0.000    0.000    0.000 
#    0.000    0.000    0.000    0.000    0.000    0.000 
#
# Total GULP energy -272686.780600 kJ/mol
# GULP energy per Si atom -12394.853664 kJ/mol
# Density = 2.488119 g / cm^3
# Si number density = 24.937948 Si / 1000 Ang^3
#
#
#
# Elastic Constant Matrix: (Units=GPa)
#
#
# Indices 1 2 3 4 5 6 
#
# 1 62.8994 13.9996 12.1040 0.0000 0.0000 0.0000
# 2 13.9996 132.6441 45.0563 0.0000 0.0000 0.0000
# 3 12.1040 45.0563 105.6154 0.0000 0.0000 0.0000
# 4 0.0000 0.0000 0.0000 33.9737 0.0000 0.0000
# 5 0.0000 0.0000 0.0000 0.0000 5.3925 0.0000
# 6 0.0000 0.0000 0.0000 0.0000 0.0000 43.2883
#
#
#
# Elastic Compliance Matrix: (Units=1/GPa)
#
#
# Indices 1 2 3 4 5 6 
#
# 1 0.016441 -0.001281 -0.001338 0.000000 0.000000 0.000000
# 2 -0.001281 0.008916 -0.003657 0.000000 0.000000 0.000000
# 3 -0.001338 -0.003657 0.011182 0.000000 0.000000 0.000000
# 4 0.000000 0.000000 0.000000 0.029434 0.000000 0.000000
# 5 0.000000 0.000000 0.000000 0.000000 0.185443 0.000000
# 6 0.000000 0.000000 0.000000 0.000000 0.000000 0.023101
#
#
# Mechanical properties :
#
#
# Convention : Reuss Voigt Hill
#
# Bulk Modulus (GPa) = 41.68784 49.27540 45.48162
# Shear Modulus (GPa) = 16.94542 31.86417 24.40479
#
# Velocity S-wave (km/s) = 2.60956 3.57842 3.13169
# Velocity P-wave (km/s) = 5.08258 6.07253 5.59947
#
# Compressibility (1/GPa) = 0.02398781
#
# Stress axis : x y z
#
# Youngs Moduli (GPa) = 60.82391 112.15352 89.43152
#
# Poissons Ratio (x) = 0.14364 0.11964
# Poissons Ratio (y) = 0.07790 0.32705
# Poissons Ratio (z) = 0.08137 0.41015
#
# Static dielectric constant tensor:
#      x y z
#    x 4.574700 0.000000 0.000000 
#    y 0.000000 4.915650 0.000000 
#    z 0.000000 0.000000 4.305900 
# 
# 
# High freq. dielectric constant tensor:
#      x y z
#    x 1.997360 0.000000 0.000000 
#    y 0.000000 2.019190 0.000000 
#    z 0.000000 0.000000 1.981880 
# 
# From -- ./inp_files/831.got.cif
#   From: 2010.03.12/outbox.cif.g09.slc.cpg/sg32_1_cif.got.tgz:831.got - 2010.04.14 01:46:39.
