data_PCOD8170614
_publ_section_title
;
Structure prediction by ZEFSAII (Michael W. Deem and Ramdas Pophale) SiO2 
 PCOD8170614
Probable space group: P B A 2
;
_chemical_formula_sum "Si O2"
_cell_formula_units_Z 22
_cell_length_a 10.882677
_cell_length_b 14.086915
_cell_length_c 6.635223
_cell_angle_alpha 90.000000
_cell_angle_beta 90.000000
_cell_angle_gamma 90.000000
_cell_volume 1017.201887
_symmetry_space_group_name_H-M "P B A 2"
_symmetry_group_IT_number 32
_symmetry_cell_setting 'orthorhombic'
loop_
_space_group_symop_operation_xyz
x,y,z
-x,-y,z
1/2-x,1/2+y,z
1/2+x,1/2-y,z
loop_
_atom_site_type_symbol
_atom_site_label
_atom_site_fract_x
_atom_site_fract_y
_atom_site_fract_z
Si Si1 0.000000 0.261600 0.060860
Si Si2 0.833673 0.417274 0.224862
Si Si3 0.500000 0.000000 0.560860
Si Si4 0.833673 0.582726 0.896857
Si Si5 0.055099 0.905314 0.781771
Si Si6 0.055099 0.094686 0.339949
O O1 0.010827 0.193559 0.251217
O O2 0.878938 0.324867 0.101957
O O3 0.121063 0.324867 0.019762
O O4 0.989173 0.193558 0.870503
O O5 0.920597 0.433050 0.416444
O O6 0.701389 0.406352 0.324552
O O7 0.837771 0.500000 0.060860
O O8 0.579403 0.066950 0.705276
O O9 0.701389 0.593648 0.797167
O O10 1.000000 0.905946 0.560860
O O11 0.000000 0.000000 0.890976
O O12 0.000000 0.000000 0.230744
#
# Coordination Sequence:
#
# PCOD8170614 Si02
#       6
#     4   4   2   4   4   4
#     4  12  24  44  70 108 138 184 232 292 356 410
#     4  12  25  46  72 104 143 185 234 294 350 421
#     4  12  22  44  70  98 146 180 246 278 360 410
#     4  12  25  46  72 104 143 185 234 294 350 421
#     4  11  26  46  69 101 139 188 235 285 349 417
#     4  11  26  46  69 101 139 188 235 285 349 417
#
# _framework density 21.627958
#
# number of rings (size 3 to 8) (size 9 to 14) (size 15 to 20)
#    0.000    0.364    3.636    6.000    2.545    1.455 
#    0.000    0.000    0.000    0.000    0.000    0.000 
#    0.000    0.000    0.000    0.000    0.000    0.000 
#
# Total GULP energy -272675.179533 kJ/mol
# GULP energy per Si atom -12394.326342 kJ/mol
# Density = 2.157873 g / cm^3
# Si number density = 21.627958 Si / 1000 Ang^3
#
#
#
# Elastic Constant Matrix: (Units=GPa)
#
#
# Indices 1 2 3 4 5 6 
#
# 1 175.8918 77.8506 59.7682 0.0000 0.0000 0.0000
# 2 77.8506 182.2148 62.8386 0.0000 0.0000 0.0000
# 3 59.7682 62.8386 138.8416 0.0000 0.0000 0.0000
# 4 0.0000 0.0000 0.0000 35.8275 0.0000 0.0000
# 5 0.0000 0.0000 0.0000 0.0000 28.9893 0.0000
# 6 0.0000 0.0000 0.0000 0.0000 0.0000 19.9521
#
#
#
# Elastic Compliance Matrix: (Units=1/GPa)
#
#
# Indices 1 2 3 4 5 6 
#
# 1 0.007497 -0.002477 -0.002106 0.000000 0.000000 0.000000
# 2 -0.002477 0.007321 -0.002247 0.000000 0.000000 0.000000
# 3 -0.002106 -0.002247 0.009126 0.000000 0.000000 0.000000
# 4 0.000000 0.000000 0.000000 0.027911 0.000000 0.000000
# 5 0.000000 0.000000 0.000000 0.000000 0.034495 0.000000
# 6 0.000000 0.000000 0.000000 0.000000 0.000000 0.050120
#
#
# Mechanical properties :
#
#
# Convention : Reuss Voigt Hill
#
# Bulk Modulus (GPa) = 97.24049 99.76255 98.50152
# Shear Modulus (GPa) = 32.56038 36.71985 34.64011
#
# Velocity S-wave (km/s) = 3.88426 4.12490 4.00639
# Velocity P-wave (km/s) = 8.07309 8.30140 8.18804
#
# Compressibility (1/GPa) = 0.01028378
#
# Stress axis : x y z
#
# Youngs Moduli (GPa) = 133.38097 136.58890 109.57264
#
# Poissons Ratio (x) = 0.33830 0.23081
# Poissons Ratio (y) = 0.33035 0.24625
# Poissons Ratio (z) = 0.28096 0.30696
#
# Static dielectric constant tensor:
#      x y z
#    x 4.366810 0.000000 0.000000 
#    y 0.000000 4.268450 0.000000 
#    z 0.000000 0.000000 3.999620 
# 
# 
# High freq. dielectric constant tensor:
#      x y z
#    x 1.858610 0.000000 0.000000 
#    y 0.000000 1.864760 0.000000 
#    z 0.000000 0.000000 1.865870 
# 
# From -- ./inp_files/836.got.cif
#   From: 2010.03.12/outbox.cif.g09.slc.cpg/sg32_1_cif.got.tgz:836.got - 2010.04.14 01:46:39.
