data_PCOD8170211
_publ_section_title
;
Structure prediction by ZEFSAII (Michael W. Deem and Ramdas Pophale) SiO2 
 PCOD8170211
Probable space group: P M N 21
;
_chemical_formula_sum "Si O2"
_cell_formula_units_Z 32
_cell_length_a 9.266766
_cell_length_b 24.443667
_cell_length_c 7.563113
_cell_angle_alpha 90.000000
_cell_angle_beta 90.000000
_cell_angle_gamma 90.000000
_cell_volume 1713.149029
_symmetry_space_group_name_H-M "P M N 21"
_symmetry_group_IT_number 31
_symmetry_cell_setting 'orthorhombic'
loop_
_space_group_symop_operation_xyz
x,y,z
1/2-x,-y,1/2+z
-x,y,z
1/2+x,-y,1/2+z
loop_
_atom_site_type_symbol
_atom_site_label
_atom_site_fract_x
_atom_site_fract_y
_atom_site_fract_z
Si Si1 0.670529 0.563951 0.566100
Si Si2 0.671497 0.247169 0.719601
Si Si3 0.672387 0.173786 0.408682
Si Si4 0.832133 0.556492 0.929537
Si Si5 0.343544 0.047129 0.035146
Si Si6 0.670194 0.370822 0.766746
Si Si7 0.656560 0.056279 0.447524
Si Si8 0.172625 0.834211 0.515717
O O1 0.500000 0.574240 0.576844
O O2 0.736960 0.572067 0.760395
O O3 0.707265 0.503930 0.494560
O O4 0.742816 0.606689 0.433568
O O5 0.500000 0.245335 0.724304
O O6 0.728336 0.223000 0.532938
O O7 0.724886 0.308994 0.739888
O O8 0.734746 0.209976 0.878147
O O9 0.500000 0.172002 0.403626
O O10 0.725361 0.115707 0.494118
O O11 0.732538 0.182468 0.210029
O O12 0.000000 0.561649 0.878089
O O13 0.790735 0.597035 0.088297
O O14 0.500000 0.036087 0.947595
O O15 0.363568 0.057067 0.239964
O O16 0.276080 0.104080 0.959248
O O17 0.249212 0.994136 0.009656
O O18 0.500000 0.374997 0.807763
O O19 0.500000 0.049737 0.539195
O O20 0.000000 0.834240 0.517229
#
# Coordination Sequence:
#
# PCOD8170211 Si02
#       8
#     4   4   4   4   4   4   4   4
#     4  11  22  36  58  84 115 153 185 221 273 328
#     4   9  17  29  51  76 100 136 175 214 266 314
#     4   8  15  28  44  67  99 130 166 213 262 311
#     4  10  21  36  56  83 115 148 182 226 274 319
#     4   9  18  30  45  70 101 127 163 210 258 315
#     4  10  21  37  56  86 118 142 184 234 274 324
#     4   9  18  30  45  69  99 128 164 210 258 313
#     4   8  15  28  45  69  99 130 165 212 263 310
#
# _framework density 18.679054000000001
#
# number of rings (size 3 to 8) (size 9 to 14) (size 15 to 20)
#    0.000    2.750    1.250    1.875    1.750    2.500 
#    0.000    3.750    0.000    1.500    0.000    1.750 
#    0.000    0.000    0.000    0.000    0.000    0.000 
#
# Total GULP energy -396575.412579 kJ/mol
# GULP energy per Si atom -12392.981643 kJ/mol
# Density = 1.863654 g / cm^3
# Si number density = 18.679054 Si / 1000 Ang^3
#
#
#
# Elastic Constant Matrix: (Units=GPa)
#
#
# Indices 1 2 3 4 5 6 
#
# 1 39.2090 13.6889 17.4974 0.0000 0.0000 0.0000
# 2 13.6889 88.7500 8.8177 0.0000 0.0000 0.0000
# 3 17.4974 8.8177 65.9561 0.0000 0.0000 0.0000
# 4 0.0000 0.0000 0.0000 34.2062 0.0000 0.0000
# 5 0.0000 0.0000 0.0000 0.0000 22.3923 0.0000
# 6 0.0000 0.0000 0.0000 0.0000 0.0000 21.1711
#
#
#
# Elastic Compliance Matrix: (Units=1/GPa)
#
#
# Indices 1 2 3 4 5 6 
#
# 1 0.030215 -0.003916 -0.007492 0.000000 0.000000 0.000000
# 2 -0.003916 0.011927 -0.000556 0.000000 0.000000 0.000000
# 3 -0.007492 -0.000556 0.017223 0.000000 0.000000 0.000000
# 4 0.000000 0.000000 0.000000 0.029234 0.000000 0.000000
# 5 0.000000 0.000000 0.000000 0.000000 0.044658 0.000000
# 6 0.000000 0.000000 0.000000 0.000000 0.000000 0.047234
#
#
# Mechanical properties :
#
#
# Convention : Reuss Voigt Hill
#
# Bulk Modulus (GPa) = 28.21854 30.43588 29.32721
# Shear Modulus (GPa) = 23.12328 25.81467 24.46897
#
# Velocity S-wave (km/s) = 3.52223 3.72157 3.62328
# Velocity P-wave (km/s) = 5.62862 5.89884 5.76531
#
# Compressibility (1/GPa) = 0.03543769
#
# Stress axis : x y z
#
# Youngs Moduli (GPa) = 33.09614 83.84460 58.06033
#
# Poissons Ratio (x) = 0.32834 0.43500
# Poissons Ratio (y) = 0.12961 0.03226
# Poissons Ratio (z) = 0.24796 0.04659
#
# Static dielectric constant tensor:
#      x y z
#    x 2.984350 0.000000 0.000000 
#    y 0.000000 4.930680 0.000000 
#    z 0.000000 0.000000 3.594930 
# 
# 
# High freq. dielectric constant tensor:
#      x y z
#    x 1.671420 0.000000 0.000000 
#    y 0.000000 1.733570 0.000000 
#    z 0.000000 0.000000 1.734230 
# 
# From -- ./inp_files/1892.got.cif
#   From: 2010.03.12/outbox.cif.g09.slc.cpg/sg31_1_cif.got.tgz:1892.got - 2010.04.14 01:42:59.
