data_PCOD8170501
_publ_section_title
;
Structure prediction by ZEFSAII (Michael W. Deem and Ramdas Pophale) SiO2 
 PCOD8170501
Probable space group: P B A 2
;
_chemical_formula_sum "Si O2"
_cell_formula_units_Z 24
_cell_length_a 8.780195
_cell_length_b 15.172904
_cell_length_c 8.658153
_cell_angle_alpha 90.000000
_cell_angle_beta 90.000000
_cell_angle_gamma 90.000000
_cell_volume 1153.448284
_symmetry_space_group_name_H-M "P B A 2"
_symmetry_group_IT_number 32
_symmetry_cell_setting 'orthorhombic'
loop_
_space_group_symop_operation_xyz
x,y,z
-x,-y,z
1/2-x,1/2+y,z
1/2+x,1/2-y,z
loop_
_atom_site_type_symbol
_atom_site_label
_atom_site_fract_x
_atom_site_fract_y
_atom_site_fract_z
Si Si1 0.863821 0.303844 0.108960
Si Si2 0.827377 0.662432 0.258466
Si Si3 0.659739 0.808933 0.754547
Si Si4 0.320607 0.507902 0.756793
Si Si5 0.321399 0.003650 0.079536
Si Si6 0.837959 0.653371 0.612680
O O1 0.806523 0.231633 0.230242
O O2 0.783404 0.398241 0.141034
O O3 0.042454 0.309934 0.139087
O O4 0.835836 0.276938 0.931805
O O5 0.774555 0.563576 0.214554
O O6 0.883002 0.662404 0.433868
O O7 0.768613 0.892274 0.723765
O O8 0.714091 0.727751 0.651657
O O9 0.487834 0.834914 0.714558
O O10 0.500000 0.500000 0.730229
O O11 0.234633 0.442497 0.639815
O O12 0.278303 0.479705 0.930382
O O13 0.500000 0.000000 0.033385
#
# Coordination Sequence:
#
# PCOD8170501 Si02
#       6
#     4   4   4   4   4   4
#     4  10  21  39  61  86 117 160 207 246 295 362
#     4  11  23  38  61  90 123 156 197 252 310 363
#     4  11  23  41  65  89 123 166 208 253 300 366
#     4  11  23  40  63  91 120 160 211 256 301 364
#     4   9  20  40  62  85 116 161 205 246 300 363
#     4  12  24  40  62  93 127 161 200 255 316 364
#
# _framework density 20.807176999999999
#
# number of rings (size 3 to 8) (size 9 to 14) (size 15 to 20)
#    0.000    1.333    0.000    7.500    0.000    9.333 
#    0.000    0.833    0.000    0.000    0.000    0.000 
#    0.000    0.000    0.000    0.000    0.000    0.000 
#
# Total GULP energy -297695.794897 kJ/mol
# GULP energy per Si atom -12403.991454 kJ/mol
# Density = 2.075982 g / cm^3
# Si number density = 20.807177 Si / 1000 Ang^3
#
#
#
# Elastic Constant Matrix: (Units=GPa)
#
#
# Indices 1 2 3 4 5 6 
#
# 1 74.9140 7.5304 10.9992 0.0000 0.0000 0.0000
# 2 7.5304 76.1710 41.7896 0.0000 0.0000 0.0000
# 3 10.9992 41.7896 88.2627 0.0000 0.0000 0.0000
# 4 0.0000 0.0000 0.0000 25.9061 0.0000 0.0000
# 5 0.0000 0.0000 0.0000 0.0000 26.9383 0.0000
# 6 0.0000 0.0000 0.0000 0.0000 0.0000 33.4431
#
#
#
# Elastic Compliance Matrix: (Units=1/GPa)
#
#
# Indices 1 2 3 4 5 6 
#
# 1 0.013615 -0.000561 -0.001431 0.000000 0.000000 0.000000
# 2 -0.000561 0.017758 -0.008338 0.000000 0.000000 0.000000
# 3 -0.001431 -0.008338 0.015456 0.000000 0.000000 0.000000
# 4 0.000000 0.000000 0.000000 0.038601 0.000000 0.000000
# 5 0.000000 0.000000 0.000000 0.000000 0.037122 0.000000
# 6 0.000000 0.000000 0.000000 0.000000 0.000000 0.029901
#
#
# Mechanical properties :
#
#
# Convention : Reuss Voigt Hill
#
# Bulk Modulus (GPa) = 38.21284 39.99849 39.10566
# Shear Modulus (GPa) = 27.49712 29.19273 28.34493
#
# Velocity S-wave (km/s) = 3.63922 3.74974 3.69489
# Velocity P-wave (km/s) = 6.00530 6.16543 6.08589
#
# Compressibility (1/GPa) = 0.02616921
#
# Stress axis : x y z
#
# Youngs Moduli (GPa) = 73.44765 56.31159 64.69981
#
# Poissons Ratio (x) = 0.03158 0.09260
# Poissons Ratio (y) = 0.04119 0.53947
# Poissons Ratio (z) = 0.10512 0.46953
#
# Static dielectric constant tensor:
#      x y z
#    x 3.563010 0.000000 0.000000 
#    y 0.000000 4.101760 0.000000 
#    z 0.000000 0.000000 3.564710 
# 
# 
# High freq. dielectric constant tensor:
#      x y z
#    x 1.806620 0.000000 0.000000 
#    y 0.000000 1.832600 0.000000 
#    z 0.000000 0.000000 1.806800 
# 
# From -- ./inp_files/2308.got.cif
#   From: 2010.03.12/outbox.cif.g09.slc.cpg/sg32_2_cif.got.tgz:2308.got - 2010.04.14 01:46:39.
