data_PCOD8170666
_publ_section_title
;
Structure prediction by ZEFSAII (Michael W. Deem and Ramdas Pophale) SiO2 
 PCOD8170666
Probable space group: P N A 21
;
_chemical_formula_sum "Si O2"
_cell_formula_units_Z 24
_cell_length_a 9.359427
_cell_length_b 13.611901
_cell_length_c 7.268498
_cell_angle_alpha 90.000000
_cell_angle_beta 90.000000
_cell_angle_gamma 90.000000
_cell_volume 926.003692
_symmetry_space_group_name_H-M "P N A 21"
_symmetry_group_IT_number 33
_symmetry_cell_setting 'orthorhombic'
loop_
_space_group_symop_operation_xyz
x,y,z
-x,-y,1/2+z
1/2-x,1/2+y,1/2+z
1/2+x,1/2-y,z
loop_
_atom_site_type_symbol
_atom_site_label
_atom_site_fract_x
_atom_site_fract_y
_atom_site_fract_z
Si Si1 0.876762 0.041678 0.406780
Si Si2 0.079329 0.780489 0.689921
Si Si3 0.299677 0.520292 0.926543
Si Si4 0.709071 0.153009 0.710712
Si Si5 0.801051 0.856122 0.559395
Si Si6 0.607868 0.822784 0.086654
O O1 0.873971 0.102816 0.213530
O O2 0.765508 0.097905 0.532451
O O3 0.036807 0.037421 0.495661
O O4 0.823042 0.928039 0.381552
O O5 0.167729 0.716361 0.545321
O O6 0.074810 0.733124 0.893977
O O7 0.927228 0.778830 0.592603
O O8 0.257176 0.405752 0.895254
O O9 0.287068 0.570306 0.728399
O O10 0.183224 0.571715 0.057357
O O11 0.538125 0.161816 0.697983
O O12 0.781685 0.260589 0.713206
#
# Coordination Sequence:
#
# PCOD8170666 Si02
#       6
#     4   4   4   4   4   4
#     4   9  17  33  53  77 113 151 189 238 288 344
#     4   9  16  30  52  76 105 143 189 233 280 342
#     4   9  19  35  55  83 115 152 200 240 285 352
#     4  10  19  34  59  87 115 154 198 240 297 355
#     4   9  17  30  52  78 105 145 189 231 287 340
#     4  10  18  34  57  83 115 153 193 242 291 347
#
# _framework density 25.917822000000001
#
# number of rings (size 3 to 8) (size 9 to 14) (size 15 to 20)
#    0.000    2.667    0.000    5.000    0.000    0.000 
#    0.000   15.000    0.000    0.000    0.000    0.000 
#    0.000    0.000    0.000    0.000    0.000    0.000 
#
# Total GULP energy -297401.774502 kJ/mol
# GULP energy per Si atom -12391.740604 kJ/mol
# Density = 2.585883 g / cm^3
# Si number density = 25.917822 Si / 1000 Ang^3
#
#
#
# Elastic Constant Matrix: (Units=GPa)
#
#
# Indices 1 2 3 4 5 6 
#
# 1 150.1907 51.5097 13.9298 0.0000 0.0000 0.0000
# 2 51.5097 135.8719 14.0082 0.0000 0.0000 0.0000
# 3 13.9298 14.0082 43.4349 0.0000 0.0000 0.0000
# 4 0.0000 0.0000 0.0000 32.1007 0.0000 0.0000
# 5 0.0000 0.0000 0.0000 0.0000 -19.9009 0.0000
# 6 0.0000 0.0000 0.0000 0.0000 0.0000 18.9043
#
#
#
# Elastic Compliance Matrix: (Units=1/GPa)
#
#
# Indices 1 2 3 4 5 6 
#
# 1 0.007758 -0.002777 -0.001593 0.000000 0.000000 0.000000
# 2 -0.002777 0.008607 -0.001885 0.000000 0.000000 0.000000
# 3 -0.001593 -0.001885 0.024142 0.000000 0.000000 0.000000
# 4 0.000000 0.000000 0.000000 0.031152 0.000000 0.000000
# 5 0.000000 0.000000 0.000000 0.000000 -0.050249 0.000000
# 6 0.000000 0.000000 0.000000 0.000000 0.000000 0.052898
#
#
# Mechanical properties :
#
#
# Convention : Reuss Voigt Hill
#
# Bulk Modulus (GPa) = 35.71751 54.26588 44.99170
# Shear Modulus (GPa) = 52.00200 22.89081 37.44640
#
# Velocity S-wave (km/s) = 4.48417 2.97510 3.80519
# Velocity P-wave (km/s) = 6.37348 5.72580 6.05830
#
# Compressibility (1/GPa) = 0.02799747
#
# Stress axis : x y z
#
# Youngs Moduli (GPa) = 128.89390 116.18414 41.42211
#
# Poissons Ratio (x) = 0.32265 0.06597
# Poissons Ratio (y) = 0.35794 0.07809
# Poissons Ratio (z) = 0.20526 0.21904
#
# Static dielectric constant tensor:
#      x y z
#    x 4.643630 0.000000 0.000000 
#    y 0.000000 5.548830 0.000000 
#    z 0.000000 0.000000 4.520620 
# 
# 
# High freq. dielectric constant tensor:
#      x y z
#    x 2.026740 0.000000 0.000000 
#    y 0.000000 2.058830 0.000000 
#    z 0.000000 0.000000 2.031640 
# 
# From -- ./inp_files/3188.got.cif
#   From: 2010.03.12/outbox.cif.g09.slc.cpg/sg33_2_cif.got.tgz:3188.got - 2010.04.14 01:49:19.
