data_PCOD8170625
_publ_section_title
;
Structure prediction by ZEFSAII (Michael W. Deem and Ramdas Pophale) SiO2 
 PCOD8170625
Probable space group: P B A 2
;
_chemical_formula_sum "Si O2"
_cell_formula_units_Z 32
_cell_length_a 14.853967
_cell_length_b 8.509012
_cell_length_c 11.087101
_cell_angle_alpha 90.000000
_cell_angle_beta 90.000000
_cell_angle_gamma 90.000000
_cell_volume 1401.327338
_symmetry_space_group_name_H-M "P B A 2"
_symmetry_group_IT_number 32
_symmetry_cell_setting 'orthorhombic'
loop_
_space_group_symop_operation_xyz
x,y,z
-x,-y,z
1/2-x,1/2+y,z
1/2+x,1/2-y,z
loop_
_atom_site_type_symbol
_atom_site_label
_atom_site_fract_x
_atom_site_fract_y
_atom_site_fract_z
Si Si1 0.146005 0.324013 0.070420
Si Si2 0.807124 0.350247 0.454697
Si Si3 0.192876 0.649753 0.178253
Si Si4 0.146005 0.324013 0.562530
Si Si5 0.534991 0.667829 0.559400
Si Si6 0.199844 0.198294 0.816475
Si Si7 0.619245 0.646297 0.816475
Si Si8 0.965009 0.167829 0.073549
O O1 0.170580 0.504437 0.092090
O O2 0.207002 0.210392 0.152548
O O3 0.041586 0.296494 0.102148
O O4 0.159898 0.286094 0.931288
O O5 0.815309 0.403053 0.316475
O O6 0.829419 0.495563 0.540860
O O7 0.707002 0.289608 0.480402
O O8 0.876000 0.209544 0.484229
O O9 0.123999 0.790457 0.148721
O O10 0.159898 0.286093 0.701661
O O11 0.041586 0.296493 0.530802
O O12 0.500000 0.500000 0.513895
O O13 0.555182 0.660059 0.701533
O O14 0.308379 0.212387 0.816474
O O15 0.174269 0.016092 0.816476
O O16 0.555182 0.660060 0.931416
O O17 0.000000 0.000000 0.119053
#
# Coordination Sequence:
#
# PCOD8170625 Si02
#       8
#     4   4   4   4   4   4   4   4
#     4  12  25  46  74 106 144 190 237 303 369 429
#     4  12  28  49  72 104 145 194 251 299 353 433
#     4  12  28  49  72 104 145 194 251 299 353 433
#     4  12  25  46  74 106 144 190 237 303 369 429
#     4  12  25  45  74 105 147 188 237 300 368 430
#     4  12  23  44  77 106 148 185 230 298 374 434
#     4  12  24  45  72 114 149 183 237 302 370 448
#     4  12  25  45  74 105 147 188 237 300 368 430
#
# _framework density 22.835493
#
# number of rings (size 3 to 8) (size 9 to 14) (size 15 to 20)
#    0.000    0.000    5.000    5.625    0.000    3.500 
#    0.000    2.500    0.000    0.000    0.000    0.000 
#    0.000    0.000    0.000    0.000    0.000    0.000 
#
# Total GULP energy -397091.101735 kJ/mol
# GULP energy per Si atom -12409.096929 kJ/mol
# Density = 2.278352 g / cm^3
# Si number density = 22.835493 Si / 1000 Ang^3
#
#
#
# Elastic Constant Matrix: (Units=GPa)
#
#
# Indices 1 2 3 4 5 6 
#
# 1 119.3085 39.5892 30.3490 0.0000 0.0000 0.0000
# 2 39.5892 115.5851 22.1220 0.0000 0.0000 0.0000
# 3 30.3490 22.1220 102.3975 0.0000 0.0000 0.0000
# 4 0.0000 0.0000 0.0000 25.7459 0.0000 0.0000
# 5 0.0000 0.0000 0.0000 0.0000 14.2478 0.0000
# 6 0.0000 0.0000 0.0000 0.0000 0.0000 47.2488
#
#
#
# Elastic Compliance Matrix: (Units=1/GPa)
#
#
# Indices 1 2 3 4 5 6 
#
# 1 0.009954 -0.002967 -0.002309 0.000000 0.000000 0.000000
# 2 -0.002967 0.009909 -0.001261 0.000000 0.000000 0.000000
# 3 -0.002309 -0.001261 0.010723 0.000000 0.000000 0.000000
# 4 0.000000 0.000000 0.000000 0.038841 0.000000 0.000000
# 5 0.000000 0.000000 0.000000 0.000000 0.070186 0.000000
# 6 0.000000 0.000000 0.000000 0.000000 0.000000 0.021165
#
#
# Mechanical properties :
#
#
# Convention : Reuss Voigt Hill
#
# Bulk Modulus (GPa) = 57.10917 57.93462 57.52189
# Shear Modulus (GPa) = 27.82573 33.79724 30.81149
#
# Velocity S-wave (km/s) = 3.49453 3.85129 3.67724
# Velocity P-wave (km/s) = 6.43005 6.72325 6.57829
#
# Compressibility (1/GPa) = 0.01751032
#
# Stress axis : x y z
#
# Youngs Moduli (GPa) = 100.46612 100.91443 93.25985
#
# Poissons Ratio (x) = 0.29944 0.21534
# Poissons Ratio (y) = 0.29811 0.11763
# Poissons Ratio (z) = 0.23198 0.12729
#
# Static dielectric constant tensor:
#      x y z
#    x 4.405550 0.000000 0.000000 
#    y 0.000000 4.211890 0.000000 
#    z 0.000000 0.000000 4.044500 
# 
# 
# High freq. dielectric constant tensor:
#      x y z
#    x 1.919190 0.000000 0.000000 
#    y 0.000000 1.906610 0.000000 
#    z 0.000000 0.000000 1.897110 
# 
# From -- ./inp_files/3945.got.cif
#   From: 2010.03.12/outbox.cif.g09.slc.cpg/sg32_2_cif.got.tgz:3945.got - 2010.04.14 01:46:39.
