data_PCOD8170365
_publ_section_title
;
Structure prediction by ZEFSAII (Michael W. Deem and Ramdas Pophale) SiO2 
 PCOD8170365
Probable space group: P M N 21
;
_chemical_formula_sum "Si O2"
_cell_formula_units_Z 32
_cell_length_a 33.310342
_cell_length_b 9.884583
_cell_length_c 4.916935
_cell_angle_alpha 90.000000
_cell_angle_beta 90.000000
_cell_angle_gamma 90.000000
_cell_volume 1618.944316
_symmetry_space_group_name_H-M "P M N 21"
_symmetry_group_IT_number 31
_symmetry_cell_setting 'orthorhombic'
loop_
_space_group_symop_operation_xyz
x,y,z
1/2-x,-y,1/2+z
-x,y,z
1/2+x,-y,1/2+z
loop_
_atom_site_type_symbol
_atom_site_label
_atom_site_fract_x
_atom_site_fract_y
_atom_site_fract_z
Si Si1 0.623622 0.840475 0.161140
Si Si2 0.329396 0.768253 0.671330
Si Si3 0.724713 0.010579 0.601916
Si Si4 0.330829 0.250359 0.561731
Si Si5 0.456526 0.916102 0.324884
Si Si6 0.877094 0.838083 0.573761
Si Si7 0.222146 0.492323 0.119128
Si Si8 0.956329 0.899317 0.325169
O O1 0.656462 0.778722 0.361860
O O2 0.579494 0.807067 0.290854
O O3 0.626980 0.002094 0.126415
O O4 0.631982 0.767131 0.873684
O O5 0.301737 0.639026 0.717818
O O6 0.304279 0.901811 0.744103
O O7 0.701944 0.139197 0.475175
O O8 0.746334 0.940259 0.344866
O O9 0.368832 0.241445 0.355245
O O10 0.310978 0.396729 0.541709
O O11 0.343937 0.216311 0.866520
O O12 0.500000 0.852334 0.412650
O O13 0.443834 0.036296 0.533857
O O14 0.461701 0.975972 0.026415
O O15 0.921082 0.802935 0.444384
O O16 0.250547 0.544357 0.360775
O O17 0.000000 0.823647 0.300377
#
# Coordination Sequence:
#
# PCOD8170365 Si02
#       8
#     4   4   4   4   4   4   4   4
#     4  11  19  35  56  87 117 145 184 235 280 334
#     4  12  23  38  59  83 109 149 186 237 287 335
#     4  12  22  36  54  80 103 134 179 230 288 340
#     4  12  23  38  59  83 109 149 186 237 287 335
#     4   9  17  29  49  81 121 156 181 218 278 337
#     4  11  19  35  56  87 117 145 184 235 280 334
#     4  12  26  46  60  78 111 150 195 242 284 346
#     4   9  17  29  49  81 121 156 181 218 278 337
#
# _framework density 19.765968000000001
#
# number of rings (size 3 to 8) (size 9 to 14) (size 15 to 20)
#    0.000    1.000    2.500    7.500    0.000    0.000 
#    0.000    0.000    0.000    0.000    0.000    5.250 
#    0.000    0.000    0.000    0.000    0.000    0.000 
#
# Total GULP energy -396665.354629 kJ/mol
# GULP energy per Si atom -12395.792332 kJ/mol
# Density = 1.972098 g / cm^3
# Si number density = 19.765968 Si / 1000 Ang^3
#
#
#
# Elastic Constant Matrix: (Units=GPa)
#
#
# Indices 1 2 3 4 5 6 
#
# 1 103.0107 14.5391 31.7054 0.0000 0.0000 0.0000
# 2 14.5391 38.4398 14.2084 0.0000 0.0000 0.0000
# 3 31.7054 14.2084 97.2841 0.0000 0.0000 0.0000
# 4 0.0000 0.0000 0.0000 21.0118 0.0000 0.0000
# 5 0.0000 0.0000 0.0000 0.0000 30.4197 0.0000
# 6 0.0000 0.0000 0.0000 0.0000 0.0000 13.7845
#
#
#
# Elastic Compliance Matrix: (Units=1/GPa)
#
#
# Indices 1 2 3 4 5 6 
#
# 1 0.011114 -0.003028 -0.003180 0.000000 0.000000 0.000000
# 2 -0.003028 0.028324 -0.003150 0.000000 0.000000 0.000000
# 3 -0.003180 -0.003150 0.011776 0.000000 0.000000 0.000000
# 4 0.000000 0.000000 0.000000 0.047592 0.000000 0.000000
# 5 0.000000 0.000000 0.000000 0.000000 0.032873 0.000000
# 6 0.000000 0.000000 0.000000 0.000000 0.000000 0.072545
#
#
# Mechanical properties :
#
#
# Convention : Reuss Voigt Hill
#
# Bulk Modulus (GPa) = 30.77122 39.96005 35.36563
# Shear Modulus (GPa) = 21.38827 24.92865 23.15846
#
# Velocity S-wave (km/s) = 3.29306 3.55518 3.42663
# Velocity P-wave (km/s) = 5.48275 6.09203 5.79540
#
# Compressibility (1/GPa) = 0.03249790
#
# Stress axis : x y z
#
# Youngs Moduli (GPa) = 89.97790 35.30529 84.92197
#
# Poissons Ratio (x) = 0.10691 0.27003
# Poissons Ratio (y) = 0.27248 0.26749
# Poissons Ratio (z) = 0.28611 0.11121
#
# Static dielectric constant tensor:
#      x y z
#    x 4.604920 0.000000 0.000000 
#    y 0.000000 3.021760 0.000000 
#    z 0.000000 0.000000 3.735690 
# 
# 
# High freq. dielectric constant tensor:
#      x y z
#    x 1.787660 0.000000 0.000000 
#    y 0.000000 1.695940 0.000000 
#    z 0.000000 0.000000 1.796680 
# 
# From -- ./inp_files/1355.got.cif
#   From: 2010.03.12/outbox.cif.g09.slc.cpg/sg31_1_cif.got.tgz:1355.got - 2010.04.14 01:42:59.
