data_PCOD8170807
_publ_section_title
;
Structure prediction by ZEFSAII (Michael W. Deem and Ramdas Pophale) SiO2 
 PCOD8170807
Probable space group: P N A 21
;
_chemical_formula_sum "Si O2"
_cell_formula_units_Z 32
_cell_length_a 17.869721
_cell_length_b 17.485749
_cell_length_c 5.077546
_cell_angle_alpha 90.000000
_cell_angle_beta 90.000000
_cell_angle_gamma 90.000000
_cell_volume 1586.557727
_symmetry_space_group_name_H-M "P N A 21"
_symmetry_group_IT_number 33
_symmetry_cell_setting 'orthorhombic'
loop_
_space_group_symop_operation_xyz
x,y,z
-x,-y,1/2+z
1/2-x,1/2+y,1/2+z
1/2+x,1/2-y,z
loop_
_atom_site_type_symbol
_atom_site_label
_atom_site_fract_x
_atom_site_fract_y
_atom_site_fract_z
Si Si1 0.383774 0.322791 0.049230
Si Si2 0.099635 0.725386 0.060749
Si Si3 0.240912 0.922874 0.402834
Si Si4 0.398270 0.964201 0.510860
Si Si5 0.044607 0.983231 0.705240
Si Si6 0.663521 0.900886 0.347962
Si Si7 0.302512 0.514274 0.408214
Si Si8 0.464974 0.104015 0.241556
O O1 0.375581 0.278015 0.320642
O O2 0.429021 0.399975 0.110038
O O3 0.424858 0.276035 0.814667
O O4 0.299007 0.340964 0.947408
O O5 0.168080 0.667023 0.131656
O O6 0.031929 0.667164 0.976755
O O7 0.330603 0.921231 0.352935
O O8 0.233324 0.970389 0.666718
O O9 0.195876 0.961967 0.165906
O O10 0.452781 0.897010 0.613692
O O11 0.367588 0.018534 0.741700
O O12 0.446892 0.016508 0.316552
O O13 0.112395 0.034724 0.826892
O O14 0.013935 0.026285 0.445749
O O15 0.604134 0.868352 0.559344
O O16 0.747718 0.912975 0.462546
#
# Coordination Sequence:
#
# PCOD8170807 Si02
#       8
#     4   4   4   4   4   4   4   4
#     4  11  22  41  63  84 121 162 218 253 301 384
#     4  11  23  38  60  85 123 174 208 238 303 390
#     4  10  20  36  60  89 116 154 200 255 298 346
#     4  10  20  32  60  94 129 153 201 261 303 345
#     4  11  22  40  67  96 116 153 209 279 328 350
#     4  10  20  36  59  90 123 158 203 246 307 363
#     4  10  20  36  61  94 116 143 198 263 308 357
#     4  11  19  35  58  96 128 165 201 247 306 375
#
# _framework density 20.169453000000001
#
# number of rings (size 3 to 8) (size 9 to 14) (size 15 to 20)
#    0.000    1.500    3.750    3.750    0.000    0.000 
#    0.000    0.000    8.250    0.000    0.000    0.000 
#    0.000    0.000    0.000    0.000    0.000    0.000 
#
# Total GULP energy -396445.011940 kJ/mol
# GULP energy per Si atom -12388.906623 kJ/mol
# Density = 2.012355 g / cm^3
# Si number density = 20.169453 Si / 1000 Ang^3
#
#
#
# Elastic Constant Matrix: (Units=GPa)
#
#
# Indices 1 2 3 4 5 6 
#
# 1 120.1028 46.6341 39.8571 0.0000 0.0000 0.0000
# 2 46.6341 87.8311 40.8537 0.0000 0.0000 0.0000
# 3 39.8571 40.8537 121.6712 0.0000 0.0000 0.0000
# 4 0.0000 0.0000 0.0000 42.6184 0.0000 0.0000
# 5 0.0000 0.0000 0.0000 0.0000 26.9003 0.0000
# 6 0.0000 0.0000 0.0000 0.0000 0.0000 13.9436
#
#
#
# Elastic Compliance Matrix: (Units=1/GPa)
#
#
# Indices 1 2 3 4 5 6 
#
# 1 0.010854 -0.004870 -0.001921 0.000000 0.000000 0.000000
# 2 -0.004870 0.015678 -0.003669 0.000000 0.000000 0.000000
# 3 -0.001921 -0.003669 0.010080 0.000000 0.000000 0.000000
# 4 0.000000 0.000000 0.000000 0.023464 0.000000 0.000000
# 5 0.000000 0.000000 0.000000 0.000000 0.037174 0.000000
# 6 0.000000 0.000000 0.000000 0.000000 0.000000 0.071717
#
#
# Mechanical properties :
#
#
# Convention : Reuss Voigt Hill
#
# Bulk Modulus (GPa) = 63.72058 64.92164 64.32111
# Shear Modulus (GPa) = 25.62559 30.17647 27.90103
#
# Velocity S-wave (km/s) = 3.56830 3.87220 3.72335
# Velocity P-wave (km/s) = 6.97411 7.22841 7.10240
#
# Compressibility (1/GPa) = 0.01569352
#
# Stress axis : x y z
#
# Youngs Moduli (GPa) = 92.12821 63.78503 99.20746
#
# Poissons Ratio (x) = 0.31062 0.19053
# Poissons Ratio (y) = 0.44865 0.36398
# Poissons Ratio (z) = 0.17694 0.23402
#
# Static dielectric constant tensor:
#      x y z
#    x 3.903510 0.000000 0.000000 
#    y 0.000000 3.606580 0.000000 
#    z 0.000000 0.000000 3.885030 
# 
# 
# High freq. dielectric constant tensor:
#      x y z
#    x 1.770220 0.000000 0.000000 
#    y 0.000000 1.756950 0.000000 
#    z 0.000000 0.000000 1.808980 
# 
# From -- ./inp_files/1893.got.cif
#   From: 2010.03.12/outbox.cif.g09.slc.cpg/sg33_1_cif.got.tgz:1893.got - 2010.04.14 01:49:19.
