data_PCOD8170503
_publ_section_title
;
Structure prediction by ZEFSAII (Michael W. Deem and Ramdas Pophale) SiO2 
 PCOD8170503
Probable space group: P B A 2
;
_chemical_formula_sum "Si O2"
_cell_formula_units_Z 32
_cell_length_a 14.408018
_cell_length_b 9.737111
_cell_length_c 10.685946
_cell_angle_alpha 90.000000
_cell_angle_beta 90.000000
_cell_angle_gamma 90.000000
_cell_volume 1499.157765
_symmetry_space_group_name_H-M "P B A 2"
_symmetry_group_IT_number 32
_symmetry_cell_setting 'orthorhombic'
loop_
_space_group_symop_operation_xyz
x,y,z
-x,-y,z
1/2-x,1/2+y,z
1/2+x,1/2-y,z
loop_
_atom_site_type_symbol
_atom_site_label
_atom_site_fract_x
_atom_site_fract_y
_atom_site_fract_z
Si Si1 0.818670 0.897931 0.344020
Si Si2 0.816020 0.190583 0.257151
Si Si3 0.255090 0.277641 0.979546
Si Si4 0.544358 0.142343 0.980451
Si Si5 0.909191 0.905480 0.607850
Si Si6 0.260227 0.511284 0.811193
Si Si7 0.509651 0.344168 0.187255
Si Si8 0.569420 0.111010 0.705562
O O1 0.732736 0.793184 0.355312
O O2 0.862261 0.938453 0.475808
O O3 0.893327 0.819107 0.256744
O O4 0.780166 0.035861 0.279214
O O5 0.926623 0.194369 0.283108
O O6 0.800381 0.238592 0.114793
O O7 0.306690 0.387648 0.890496
O O8 0.261140 0.132641 0.909138
O O9 0.154066 0.345021 0.999423
O O10 0.496602 0.260696 0.060154
O O11 0.500000 0.000000 0.029108
O O12 0.520967 0.162132 0.834292
O O13 0.836798 0.939242 0.715269
O O14 0.927398 0.741762 0.613667
O O15 0.000000 0.000000 0.622306
O O16 0.169187 0.458642 0.735503
O O17 0.500000 0.500000 0.144627
O O18 0.500000 0.000000 0.642436
#
# Coordination Sequence:
#
# PCOD8170503 Si02
#       8
#     4   4   4   4   4   4   4   4
#     4  11  26  48  64 102 133 180 248 283 344 427
#     4  11  24  41  73  93 138 183 223 293 356 410
#     4  11  23  41  68 104 137 180 223 293 357 429
#     4  10  21  39  63  95 142 166 220 283 348 415
#     4  12  27  47  73  97 140 193 235 293 350 416
#     4  11  24  44  66 103 143 175 237 282 352 423
#     4  10  23  41  63  96 130 175 225 285 345 422
#     4  10  25  45  67 104 138 180 229 291 350 425
#
# _framework density 21.345317999999999
#
# number of rings (size 3 to 8) (size 9 to 14) (size 15 to 20)
#    0.000    1.250    3.750    1.875   12.250    0.500 
#    2.250    0.625    0.000    0.000    0.000    0.000 
#    0.000    0.000    0.000    0.000    0.000    0.000 
#
# Total GULP energy -396716.014341 kJ/mol
# GULP energy per Si atom -12397.375448 kJ/mol
# Density = 2.129673 g / cm^3
# Si number density = 21.345318 Si / 1000 Ang^3
#
#
#
# Elastic Constant Matrix: (Units=GPa)
#
#
# Indices 1 2 3 4 5 6 
#
# 1 81.6130 56.2362 12.0911 0.0000 0.0000 0.0000
# 2 56.2362 127.8771 42.1962 0.0000 0.0000 0.0000
# 3 12.0911 42.1962 75.4276 0.0000 0.0000 0.0000
# 4 0.0000 0.0000 0.0000 29.7773 0.0000 0.0000
# 5 0.0000 0.0000 0.0000 0.0000 22.4576 0.0000
# 6 0.0000 0.0000 0.0000 0.0000 0.0000 40.8405
#
#
#
# Elastic Compliance Matrix: (Units=1/GPa)
#
#
# Indices 1 2 3 4 5 6 
#
# 1 0.017793 -0.008442 0.001870 0.000000 0.000000 0.000000
# 2 -0.008442 0.013596 -0.006253 0.000000 0.000000 0.000000
# 3 0.001870 -0.006253 0.016456 0.000000 0.000000 0.000000
# 4 0.000000 0.000000 0.000000 0.033583 0.000000 0.000000
# 5 0.000000 0.000000 0.000000 0.000000 0.044528 0.000000
# 6 0.000000 0.000000 0.000000 0.000000 0.000000 0.024485
#
#
# Mechanical properties :
#
#
# Convention : Reuss Voigt Hill
#
# Bulk Modulus (GPa) = 45.05274 56.21830 50.63552
# Shear Modulus (GPa) = 27.24982 30.24137 28.74559
#
# Velocity S-wave (km/s) = 3.57686 3.76808 3.67371
# Velocity P-wave (km/s) = 6.18150 6.73246 6.46285
#
# Compressibility (1/GPa) = 0.02219621
#
# Stress axis : x y z
#
# Youngs Moduli (GPa) = 56.20247 73.55293 60.76903
#
# Poissons Ratio (x) = 0.62093 -0.11366
# Poissons Ratio (y) = 0.47446 0.37996
# Poissons Ratio (z) = -0.10512 0.45989
#
# Static dielectric constant tensor:
#      x y z
#    x 4.060080 0.000000 0.000000 
#    y 0.000000 4.135000 0.000000 
#    z 0.000000 0.000000 3.764190 
# 
# 
# High freq. dielectric constant tensor:
#      x y z
#    x 1.841740 0.000000 0.000000 
#    y 0.000000 1.848880 0.000000 
#    z 0.000000 0.000000 1.821880 
# 
# From -- ./inp_files/3964.got.cif
#   From: 2010.03.12/outbox.cif.g09.slc.cpg/sg32_2_cif.got.tgz:3964.got - 2010.04.14 01:46:39.
