data_PCOD8170989
_publ_section_title
;
Structure prediction by ZEFSAII (Michael W. Deem and Ramdas Pophale) SiO2 
 PCOD8170989
Probable space group: P N A 21
;
_chemical_formula_sum "Si O2"
_cell_formula_units_Z 32
_cell_length_a 16.406103
_cell_length_b 10.737013
_cell_length_c 8.613086
_cell_angle_alpha 90.000000
_cell_angle_beta 90.000000
_cell_angle_gamma 90.000000
_cell_volume 1517.216986
_symmetry_space_group_name_H-M "P N A 21"
_symmetry_group_IT_number 33
_symmetry_cell_setting 'orthorhombic'
loop_
_space_group_symop_operation_xyz
x,y,z
-x,-y,1/2+z
1/2-x,1/2+y,1/2+z
1/2+x,1/2-y,z
loop_
_atom_site_type_symbol
_atom_site_label
_atom_site_fract_x
_atom_site_fract_y
_atom_site_fract_z
Si Si1 0.291611 0.867431 0.304590
Si Si2 0.643738 0.526532 0.458605
Si Si3 0.909507 0.582728 0.912139
Si Si4 0.136382 0.182271 0.219351
Si Si5 0.746157 0.975961 0.532032
Si Si6 0.647497 0.408556 0.778875
Si Si7 0.008038 0.187892 0.949058
Si Si8 0.967385 0.579816 0.252419
O O1 0.230682 0.905737 0.441097
O O2 0.309150 0.722703 0.312878
O O3 0.376341 0.944808 0.319753
O O4 0.248874 0.903067 0.142128
O O5 0.615450 0.443397 0.313456
O O6 0.655685 0.434526 0.600334
O O7 0.577371 0.630331 0.499941
O O8 0.859670 0.700068 0.838052
O O9 0.974331 0.538817 0.781126
O O10 0.846183 0.471976 0.961950
O O11 0.959593 0.618164 0.070022
O O12 0.221751 0.149058 0.126615
O O13 0.064283 0.211084 0.099003
O O14 0.805736 0.006583 0.388069
O O15 0.553474 0.405867 0.830427
O O16 0.990086 0.312956 0.853988
#
# Coordination Sequence:
#
# PCOD8170989 Si02
#       8
#     4   4   4   4   4   4   4   4
#     4   9  21  41  58  88 124 160 208 260 312 379
#     4  11  21  37  66  87 124 165 212 259 319 385
#     4  11  22  41  67  90 129 170 214 263 328 381
#     4  10  21  39  63  91 126 169 207 272 322 378
#     4   9  21  38  61  88 124 163 209 254 316 383
#     4  10  21  38  61  90 124 163 202 265 318 366
#     4  10  21  38  60  90 125 162 213 264 319 383
#     4  10  22  40  62  90 126 162 211 267 316 389
#
# _framework density 21.091248
#
# number of rings (size 3 to 8) (size 9 to 14) (size 15 to 20)
#    0.000    2.000    0.000    3.750    1.750    4.000 
#    0.000    1.250   16.500    0.000    0.000    0.000 
#    0.000    0.000    0.000    0.000    0.000    0.000 
#
# Total GULP energy -396468.693294 kJ/mol
# GULP energy per Si atom -12389.646665 kJ/mol
# Density = 2.104324 g / cm^3
# Si number density = 21.091248 Si / 1000 Ang^3
#
#
#
# Elastic Constant Matrix: (Units=GPa)
#
#
# Indices 1 2 3 4 5 6 
#
# 1 102.7105 44.3568 35.1020 0.0000 0.0000 0.0000
# 2 44.3568 65.6904 29.8599 0.0000 0.0000 0.0000
# 3 35.1020 29.8599 108.2336 0.0000 0.0000 0.0000
# 4 0.0000 0.0000 0.0000 32.8680 0.0000 0.0000
# 5 0.0000 0.0000 0.0000 0.0000 31.7607 0.0000
# 6 0.0000 0.0000 0.0000 0.0000 0.0000 31.8063
#
#
#
# Elastic Compliance Matrix: (Units=1/GPa)
#
#
# Indices 1 2 3 4 5 6 
#
# 1 0.014204 -0.008572 -0.002242 0.000000 0.000000 0.000000
# 2 -0.008572 0.022579 -0.003449 0.000000 0.000000 0.000000
# 3 -0.002242 -0.003449 0.010918 0.000000 0.000000 0.000000
# 4 0.000000 0.000000 0.000000 0.030425 0.000000 0.000000
# 5 0.000000 0.000000 0.000000 0.000000 0.031485 0.000000
# 6 0.000000 0.000000 0.000000 0.000000 0.000000 0.031440
#
#
# Mechanical properties :
#
#
# Convention : Reuss Voigt Hill
#
# Bulk Modulus (GPa) = 52.15122 55.03021 53.59072
# Shear Modulus (GPa) = 28.41400 30.44139 29.42769
#
# Velocity S-wave (km/s) = 3.67440 3.80322 3.73937
# Velocity P-wave (km/s) = 6.54077 6.74049 6.64138
#
# Compressibility (1/GPa) = 0.01917501
#
# Stress axis : x y z
#
# Youngs Moduli (GPa) = 70.40125 44.28877 91.59313
#
# Poissons Ratio (x) = 0.37966 0.20533
# Poissons Ratio (y) = 0.60350 0.31591
# Poissons Ratio (z) = 0.15782 0.15275
#
# Static dielectric constant tensor:
#      x y z
#    x 3.899320 0.000000 0.000000 
#    y 0.000000 3.569280 0.000000 
#    z 0.000000 0.000000 3.969800 
# 
# 
# High freq. dielectric constant tensor:
#      x y z
#    x 1.821340 0.000000 0.000000 
#    y 0.000000 1.801600 0.000000 
#    z 0.000000 0.000000 1.842530 
# 
# From -- ./inp_files/4452.got.cif
#   From: 2010.03.12/outbox.cif.g09.slc.cpg/sg33_3_cif.got.tgz:4452.got - 2010.04.14 01:49:19.
