data_PCOD8170127
_publ_section_title
;
Structure prediction by ZEFSAII (Michael W. Deem and Ramdas Pophale) SiO2 
 PCOD8170127
Probable space group: P M N 21
;
_chemical_formula_sum "Si O2"
_cell_formula_units_Z 32
_cell_length_a 15.317051
_cell_length_b 11.482946
_cell_length_c 8.937135
_cell_angle_alpha 90.000000
_cell_angle_beta 90.000000
_cell_angle_gamma 90.000000
_cell_volume 1571.906823
_symmetry_space_group_name_H-M "P M N 21"
_symmetry_group_IT_number 31
_symmetry_cell_setting 'orthorhombic'
loop_
_space_group_symop_operation_xyz
x,y,z
1/2-x,-y,1/2+z
-x,y,z
1/2+x,-y,1/2+z
loop_
_atom_site_type_symbol
_atom_site_label
_atom_site_fract_x
_atom_site_fract_y
_atom_site_fract_z
Si Si1 0.603681 0.717894 0.134290
Si Si2 0.341563 0.499851 0.959298
Si Si3 0.399839 0.296852 0.146329
Si Si4 0.603493 0.241416 0.486391
Si Si5 0.755525 0.905428 0.138643
Si Si6 0.283664 0.138213 0.976116
Si Si7 0.404503 0.465089 0.647077
Si Si8 0.676413 0.635150 0.434803
O O1 0.500000 0.746042 0.107638
O O2 0.642867 0.632922 0.006758
O O3 0.664559 0.832886 0.125629
O O4 0.612263 0.654218 0.294582
O O5 0.353754 0.417954 0.103539
O O6 0.408007 0.470047 0.825891
O O7 0.247301 0.464735 0.889642
O O8 0.500000 0.321250 0.127526
O O9 0.374705 0.265465 0.314507
O O10 0.374614 0.193373 0.032239
O O11 0.500000 0.213431 0.511145
O O12 0.664311 0.134933 0.534878
O O13 0.642645 0.348748 0.585378
O O14 0.791286 0.907655 0.307691
O O15 0.738856 0.036855 0.091093
O O16 0.212712 0.240538 0.985925
O O17 0.500000 0.448587 0.580577
O O18 0.370550 0.586338 0.581599
#
# Coordination Sequence:
#
# PCOD8170127 Si02
#       8
#     4   4   4   4   4   4   4   4
#     4  11  23  39  60  87 122 161 200 242 298 366
#     4  11  21  35  56  87 119 151 190 238 292 348
#     4  10  20  36  59  86 116 150 193 242 296 359
#     4  10  21  37  60  88 117 155 197 243 301 362
#     4  11  23  42  61  84 116 154 201 254 303 359
#     4  10  23  39  60  83 111 152 199 248 300 356
#     4  11  21  34  55  85 118 146 181 231 287 347
#     4  10  21  38  58  82 113 155 195 236 291 353
#
# _framework density 20.357441000000001
#
# number of rings (size 3 to 8) (size 9 to 14) (size 15 to 20)
#    0.000    1.500    0.000    6.750    0.000    7.000 
#    0.000    4.375    0.000    0.000    0.000    0.000 
#    0.000    0.000    0.000    0.000    0.000    0.000 
#
# Total GULP energy -396632.332385 kJ/mol
# GULP energy per Si atom -12394.760387 kJ/mol
# Density = 2.031111 g / cm^3
# Si number density = 20.357441 Si / 1000 Ang^3
#
#
#
# Elastic Constant Matrix: (Units=GPa)
#
#
# Indices 1 2 3 4 5 6 
#
# 1 64.9575 9.0283 14.9799 0.0000 0.0000 0.0000
# 2 9.0283 72.6312 15.5339 0.0000 0.0000 0.0000
# 3 14.9799 15.5339 81.1170 0.0000 0.0000 0.0000
# 4 0.0000 0.0000 0.0000 36.9958 0.0000 0.0000
# 5 0.0000 0.0000 0.0000 0.0000 32.1537 0.0000
# 6 0.0000 0.0000 0.0000 0.0000 0.0000 14.3659
#
#
#
# Elastic Compliance Matrix: (Units=1/GPa)
#
#
# Indices 1 2 3 4 5 6 
#
# 1 0.016222 -0.001434 -0.002721 0.000000 0.000000 0.000000
# 2 -0.001434 0.014483 -0.002509 0.000000 0.000000 0.000000
# 3 -0.002721 -0.002509 0.013311 0.000000 0.000000 0.000000
# 4 0.000000 0.000000 0.000000 0.027030 0.000000 0.000000
# 5 0.000000 0.000000 0.000000 0.000000 0.031101 0.000000
# 6 0.000000 0.000000 0.000000 0.000000 0.000000 0.069609
#
#
# Mechanical properties :
#
#
# Convention : Reuss Voigt Hill
#
# Bulk Modulus (GPa) = 32.58676 33.08778 32.83727
# Shear Modulus (GPa) = 25.60003 28.64732 27.12367
#
# Velocity S-wave (km/s) = 3.55001 3.75536 3.65413
# Velocity P-wave (km/s) = 5.73110 5.92388 5.82828
#
# Compressibility (1/GPa) = 0.03068731
#
# Stress axis : x y z
#
# Youngs Moduli (GPa) = 61.64642 69.04638 75.12725
#
# Poissons Ratio (x) = 0.09904 0.20442
# Poissons Ratio (y) = 0.08843 0.18846
# Poissons Ratio (z) = 0.16774 0.17321
#
# Static dielectric constant tensor:
#      x y z
#    x 3.768720 0.000000 0.000000 
#    y 0.000000 3.583180 0.000000 
#    z 0.000000 0.000000 3.802890 
# 
# 
# High freq. dielectric constant tensor:
#      x y z
#    x 1.794210 0.000000 0.000000 
#    y 0.000000 1.786100 0.000000 
#    z 0.000000 0.000000 1.806090 
# 
# From -- ./inp_files/2585.got.cif
#   From: 2010.03.12/outbox.cif.g09.slc.cpg/sg31_2_cif.got.tgz:2585.got - 2010.04.14 01:42:59.
