data_PCOD8170393
_publ_section_title
;
Structure prediction by ZEFSAII (Michael W. Deem and Ramdas Pophale) SiO2 
 PCOD8170393
Probable space group: P M N 21
;
_chemical_formula_sum "Si O2"
_cell_formula_units_Z 24
_cell_length_a 18.515589
_cell_length_b 4.850152
_cell_length_c 12.042689
_cell_angle_alpha 90.000000
_cell_angle_beta 90.000000
_cell_angle_gamma 90.000000
_cell_volume 1081.474670
_symmetry_space_group_name_H-M "P M N 21"
_symmetry_group_IT_number 31
_symmetry_cell_setting 'orthorhombic'
loop_
_space_group_symop_operation_xyz
x,y,z
1/2-x,-y,1/2+z
-x,y,z
1/2+x,-y,1/2+z
loop_
_atom_site_type_symbol
_atom_site_label
_atom_site_fract_x
_atom_site_fract_y
_atom_site_fract_z
Si Si1 0.797788 0.394323 0.892000
Si Si2 0.081937 0.506328 0.055071
Si Si3 0.841194 0.656840 0.528284
Si Si4 0.715201 0.112663 0.245659
Si Si5 0.126731 0.009862 0.189382
Si Si6 0.582409 0.852872 0.932348
O O1 0.738632 0.286975 0.979626
O O2 0.759347 0.636016 0.822891
O O3 0.822185 0.137113 0.814205
O O4 0.866084 0.545665 0.949169
O O5 0.096251 0.192954 0.089956
O O6 0.000000 0.547981 0.015660
O O7 0.099567 0.702721 0.160338
O O8 0.839667 0.751548 0.656641
O O9 0.865487 0.342021 0.506764
O O10 0.901546 0.835194 0.466988
O O11 0.786776 0.990365 0.188936
O O12 0.096232 0.147093 0.301030
O O13 0.500000 0.773511 0.957004
#
# Coordination Sequence:
#
# PCOD8170393 Si02
#       6
#     4   4   4   4   4   4
#     4  12  24  44  69  98 137 177 227 281 334 407
#     4  12  26  43  67 102 138 178 220 280 351 403
#     4  12  24  43  69  98 134 177 225 275 333 408
#     4  12  25  43  69 103 128 174 236 281 329 399
#     4  12  23  42  70 100 137 167 223 289 342 401
#     4  12  25  43  66 101 139 175 217 278 348 402
#
# _framework density 22.19192
#
# number of rings (size 3 to 8) (size 9 to 14) (size 15 to 20)
#    0.000    0.000    5.000    6.000    2.333    0.000 
#    0.000    5.000    0.000    0.000    0.000    0.000 
#    0.000    0.000    0.000    0.000    0.000    0.000 
#
# Total GULP energy -297650.191001 kJ/mol
# GULP energy per Si atom -12402.091292 kJ/mol
# Density = 2.214141 g / cm^3
# Si number density = 22.191920 Si / 1000 Ang^3
#
#
#
# Elastic Constant Matrix: (Units=GPa)
#
#
# Indices 1 2 3 4 5 6 
#
# 1 125.4969 22.2752 48.4795 0.0000 0.0000 0.0000
# 2 22.2752 105.4686 30.2481 0.0000 0.0000 0.0000
# 3 48.4795 30.2481 75.4632 0.0000 0.0000 0.0000
# 4 0.0000 0.0000 0.0000 48.9966 0.0000 0.0000
# 5 0.0000 0.0000 0.0000 0.0000 24.0284 0.0000
# 6 0.0000 0.0000 0.0000 0.0000 0.0000 -76.8782
#
#
#
# Elastic Compliance Matrix: (Units=1/GPa)
#
#
# Indices 1 2 3 4 5 6 
#
# 1 0.010608 -0.000323 -0.006686 0.000000 0.000000 0.000000
# 2 -0.000323 0.010723 -0.004091 0.000000 0.000000 0.000000
# 3 -0.006686 -0.004091 0.019186 0.000000 0.000000 0.000000
# 4 0.000000 0.000000 0.000000 0.020410 0.000000 0.000000
# 5 0.000000 0.000000 0.000000 0.000000 0.041618 0.000000
# 6 0.000000 0.000000 0.000000 0.000000 0.000000 -0.013008
#
#
# Mechanical properties :
#
#
# Convention : Reuss Voigt Hill
#
# Bulk Modulus (GPa) = 54.58830 56.49271 55.54050
# Shear Modulus (GPa) = 42.42992 12.92440 27.67716
#
# Velocity S-wave (km/s) = 4.37733 2.41590 3.53536
# Velocity P-wave (km/s) = 7.08518 5.77008 6.46117
#
# Compressibility (1/GPa) = 0.01831895
#
# Stress axis : x y z
#
# Youngs Moduli (GPa) = 94.26578 93.25849 52.12115
#
# Poissons Ratio (x) = 0.03013 0.34846
# Poissons Ratio (y) = 0.03046 0.21320
# Poissons Ratio (z) = 0.63022 0.38147
#
# Static dielectric constant tensor:
#      x y z
#    x 3.764740 0.000000 0.000000 
#    y 0.000000 3.996380 0.000000 
#    z 0.000000 0.000000 4.034260 
# 
# 
# High freq. dielectric constant tensor:
#      x y z
#    x 1.855840 0.000000 0.000000 
#    y 0.000000 1.891230 0.000000 
#    z 0.000000 0.000000 1.868290 
# 
# From -- ./inp_files/4336.got.cif
#   From: 2010.03.12/outbox.cif.g09.slc.cpg/sg31_3_cif.got.tgz:4336.got - 2010.04.14 01:42:59.
