data_PCOD8170629
_publ_section_title
;
Structure prediction by ZEFSAII (Michael W. Deem and Ramdas Pophale) SiO2 
 PCOD8170629
Probable space group: P B A 2
;
_chemical_formula_sum "Si O2"
_cell_formula_units_Z 14
_cell_length_a 9.474270
_cell_length_b 9.474283
_cell_length_c 5.841869
_cell_angle_alpha 90.000000
_cell_angle_beta 90.000000
_cell_angle_gamma 90.000000
_cell_volume 524.377350
_symmetry_space_group_name_H-M "P B A 2"
_symmetry_group_IT_number 32
_symmetry_cell_setting 'orthorhombic'
loop_
_space_group_symop_operation_xyz
x,y,z
-x,-y,z
1/2-x,1/2+y,z
1/2+x,1/2-y,z
loop_
_atom_site_type_symbol
_atom_site_label
_atom_site_fract_x
_atom_site_fract_y
_atom_site_fract_z
Si Si1 0.761566 0.099467 0.017520
Si Si2 0.850911 0.850909 0.730403
Si Si3 0.000000 0.500000 0.230405
Si Si4 0.599469 0.738435 0.443285
O O1 0.641762 0.986403 0.084054
O O2 0.865644 0.134358 0.230402
O O3 0.681564 0.239831 0.932322
O O4 0.840829 0.013098 0.817532
O O5 0.739834 0.818437 0.528479
O O6 0.013102 0.840827 0.643276
O O7 0.986404 0.641761 0.376756
#
# Coordination Sequence:
#
# PCOD8170629 Si02
#       4
#     4   4   2   4
#     4  12  27  53  84 122 170 220 284 351 426 514
#     4  12  28  52  82 124 164 222 280 347 437 510
#     4  12  24  58  80 112 174 220 264 362 424 488
#     4  12  27  53  84 122 170 220 284 351 426 514
#
# _framework density 26.698329000000001
#
# number of rings (size 3 to 8) (size 9 to 14) (size 15 to 20)
#    0.000    0.000    5.714    3.429    0.000    1.143 
#   10.286    0.000    0.000    0.000    0.000    0.000 
#    0.000    0.000    0.000    0.000    0.000    0.000 
#
# Total GULP energy -173604.812551 kJ/mol
# GULP energy per Si atom -12400.343754 kJ/mol
# Density = 2.663756 g / cm^3
# Si number density = 26.698329 Si / 1000 Ang^3
#
#
#
# Elastic Constant Matrix: (Units=GPa)
#
#
# Indices 1 2 3 4 5 6 
#
# 1 126.9688 65.9504 58.5029 0.0000 0.0000 0.0000
# 2 65.9504 126.9715 58.5062 0.0000 0.0000 0.0000
# 3 58.5029 58.5062 126.5962 0.0000 0.0000 0.0000
# 4 0.0000 0.0000 0.0000 60.1761 0.0000 0.0000
# 5 0.0000 0.0000 0.0000 0.0000 60.1761 0.0000
# 6 0.0000 0.0000 0.0000 0.0000 0.0000 51.6917
#
#
#
# Elastic Compliance Matrix: (Units=1/GPa)
#
#
# Indices 1 2 3 4 5 6 
#
# 1 0.011795 -0.004593 -0.003328 0.000000 0.000000 0.000000
# 2 -0.004593 0.011795 -0.003329 0.000000 0.000000 0.000000
# 3 -0.003328 -0.003329 0.010975 0.000000 0.000000 0.000000
# 4 0.000000 0.000000 0.000000 0.016618 0.000000 0.000000
# 5 0.000000 0.000000 0.000000 0.000000 0.016618 0.000000
# 6 0.000000 0.000000 0.000000 0.000000 0.000000 0.019345
#
#
# Mechanical properties :
#
#
# Convention : Reuss Voigt Hill
#
# Bulk Modulus (GPa) = 82.87543 82.93950 82.90747
# Shear Modulus (GPa) = 43.98751 47.58058 45.78405
#
# Velocity S-wave (km/s) = 4.06344 4.22614 4.14559
# Velocity P-wave (km/s) = 7.28863 7.41259 7.35087
#
# Compressibility (1/GPa) = 0.01206630
#
# Stress axis : x y z
#
# Youngs Moduli (GPa) = 84.78063 84.78037 91.11243
#
# Poissons Ratio (x) = 0.38939 0.30324
# Poissons Ratio (y) = 0.38940 0.30328
# Poissons Ratio (z) = 0.28216 0.28220
#
# Static dielectric constant tensor:
#      x y z
#    x 4.709690 0.000000 0.000000 
#    y 0.000000 4.709640 0.000000 
#    z 0.000000 0.000000 4.824180 
# 
# 
# High freq. dielectric constant tensor:
#      x y z
#    x 2.089010 0.000000 0.000000 
#    y 0.000000 2.089010 0.000000 
#    z 0.000000 0.000000 2.069580 
# 
# From -- ./inp_files/285.got.cif
#   From: 2010.03.12/outbox.cif.g09.slc.cpg/sg32_1_cif.got.tgz:285.got - 2010.04.14 01:46:39.
