data_PCOD8170398
_publ_section_title
;
Structure prediction by ZEFSAII (Michael W. Deem and Ramdas Pophale) SiO2 
 PCOD8170398
Probable space group: P B A 2
;
_chemical_formula_sum "Si O2"
_cell_formula_units_Z 26
_cell_length_a 17.067882
_cell_length_b 17.539784
_cell_length_c 5.057486
_cell_angle_alpha 90.000000
_cell_angle_beta 90.000000
_cell_angle_gamma 90.000000
_cell_volume 1514.044227
_symmetry_space_group_name_H-M "P B A 2"
_symmetry_group_IT_number 32
_symmetry_cell_setting 'orthorhombic'
loop_
_space_group_symop_operation_xyz
x,y,z
-x,-y,z
1/2-x,1/2+y,z
1/2+x,1/2-y,z
loop_
_atom_site_type_symbol
_atom_site_label
_atom_site_fract_x
_atom_site_fract_y
_atom_site_fract_z
Si Si1 0.076495 0.299497 0.692890
Si Si2 0.808712 0.327637 0.080018
Si Si3 0.326626 0.000010 0.976898
Si Si4 0.000000 0.500000 0.094631
Si Si5 0.762673 0.754091 0.577455
Si Si6 0.801939 0.591304 0.502819
Si Si7 0.014528 0.668177 0.217929
O O1 0.146017 0.236387 0.669708
O O2 0.112428 0.380669 0.600369
O O3 0.006663 0.284946 0.483507
O O4 0.044137 0.303960 0.988189
O O5 0.794512 0.417222 0.047874
O O6 0.750461 0.300633 0.309416
O O7 0.897541 0.308372 0.152965
O O8 0.792938 0.284328 0.807223
O O9 0.420418 0.000658 0.920498
O O10 0.305156 0.940954 0.208501
O O11 0.279699 0.974535 0.713289
O O12 0.005509 0.577136 0.268958
O O13 0.743528 0.664389 0.517141
#
# Coordination Sequence:
#
# PCOD8170398 Si02
#       7
#     4   4   4   2   4   4   4
#     4  10  19  33  51  64  95 139 184 183 226 306
#     4  11  22  32  48  78 114 124 160 225 258 270
#     4  11  20  30  47  76  99 135 167 200 234 303
#     4  10  16  28  40  66 104 132 144 184 236 278
#     4  10  20  36  50  66 102 148 164 206 252 286
#     4  10  19  33  51  64  95 139 184 183 226 306
#     4  11  20  30  47  76  99 135 167 200 234 303
#
# _framework density 17.172550999999999
#
# number of rings (size 3 to 8) (size 9 to 14) (size 15 to 20)
#    0.923    0.615    3.077    3.692    0.000    4.923 
#    0.000    0.000    0.000    0.000    0.000    0.000 
#    0.000   86.154    0.000    0.000    0.000    0.000 
#
# Total GULP energy -322164.383713 kJ/mol
# GULP energy per Si atom -12390.937835 kJ/mol
# Density = 1.713347 g / cm^3
# Si number density = 17.172551 Si / 1000 Ang^3
#
#
#
# Elastic Constant Matrix: (Units=GPa)
#
#
# Indices 1 2 3 4 5 6 
#
# 1 25.2449 36.6943 7.9984 0.0000 0.0000 0.0000
# 2 36.6943 79.8202 25.9896 0.0000 0.0000 0.0000
# 3 7.9984 25.9896 80.9773 0.0000 0.0000 0.0000
# 4 0.0000 0.0000 0.0000 27.9371 0.0000 0.0000
# 5 0.0000 0.0000 0.0000 0.0000 25.0578 0.0000
# 6 0.0000 0.0000 0.0000 0.0000 0.0000 23.6087
#
#
#
# Elastic Compliance Matrix: (Units=1/GPa)
#
#
# Indices 1 2 3 4 5 6 
#
# 1 0.122534 -0.058503 0.006673 0.000000 0.000000 0.000000
# 2 -0.058503 0.041922 -0.007676 0.000000 0.000000 0.000000
# 3 0.006673 -0.007676 0.014154 0.000000 0.000000 0.000000
# 4 0.000000 0.000000 0.000000 0.035795 0.000000 0.000000
# 5 0.000000 0.000000 0.000000 0.000000 0.039908 0.000000
# 6 0.000000 0.000000 0.000000 0.000000 0.000000 0.042357
#
#
# Mechanical properties :
#
#
# Convention : Reuss Voigt Hill
#
# Bulk Modulus (GPa) = 16.77920 36.37855 26.57888
# Shear Modulus (GPa) = 11.47982 23.01138 17.24560
#
# Velocity S-wave (km/s) = 2.58834 3.66458 3.17243
# Velocity P-wave (km/s) = 4.32722 6.25585 5.37869
#
# Compressibility (1/GPa) = 0.05959758
#
# Stress axis : x y z
#
# Youngs Moduli (GPa) = 8.16103 23.85380 70.65295
#
# Poissons Ratio (x) = 1.39552 -0.47149
# Poissons Ratio (y) = 0.47744 0.54235
# Poissons Ratio (z) = -0.05446 0.18311
#
# Static dielectric constant tensor:
#      x y z
#    x 3.028170 0.000000 0.000000 
#    y 0.000000 3.101450 0.000000 
#    z 0.000000 0.000000 3.252350 
# 
# 
# High freq. dielectric constant tensor:
#      x y z
#    x 1.632060 0.000000 0.000000 
#    y 0.000000 1.640000 0.000000 
#    z 0.000000 0.000000 1.676870 
# 
# From -- ./inp_files/1499.got.cif
#   From: 2010.03.12/outbox.cif.g09.slc.cpg/sg32_1_cif.got.tgz:1499.got - 2010.04.14 01:46:39.
