data_PCOD8170060
_publ_section_title
;
Structure prediction by ZEFSAII (Michael W. Deem and Ramdas Pophale) SiO2 
 PCOD8170060
Probable space group: P M N 21
;
_chemical_formula_sum "Si O2"
_cell_formula_units_Z 32
_cell_length_a 9.448025
_cell_length_b 14.201611
_cell_length_c 12.588452
_cell_angle_alpha 90.000000
_cell_angle_beta 90.000000
_cell_angle_gamma 90.000000
_cell_volume 1689.082937
_symmetry_space_group_name_H-M "P M N 21"
_symmetry_group_IT_number 31
_symmetry_cell_setting 'orthorhombic'
loop_
_space_group_symop_operation_xyz
x,y,z
1/2-x,-y,1/2+z
-x,y,z
1/2+x,-y,1/2+z
loop_
_atom_site_type_symbol
_atom_site_label
_atom_site_fract_x
_atom_site_fract_y
_atom_site_fract_z
Si Si1 0.168342 0.840719 0.317360
Si Si2 0.167339 0.337092 0.364265
Si Si3 0.337504 0.344777 0.154748
Si Si4 0.156216 0.805518 0.984230
Si Si5 0.666857 0.027678 0.629927
Si Si6 0.166579 0.854341 0.555897
Si Si7 0.661099 0.539600 0.062683
Si Si8 0.343696 0.327445 0.686580
O O1 0.222082 0.921482 0.237179
O O2 0.222727 0.862016 0.435229
O O3 0.221937 0.736670 0.281171
O O4 0.000000 0.836476 0.311595
O O5 0.236896 0.366633 0.253806
O O6 0.230633 0.235866 0.400880
O O7 0.209054 0.418904 0.448706
O O8 0.000000 0.325854 0.350460
O O9 0.500000 0.341990 0.194100
O O10 0.293306 0.247933 0.099659
O O11 0.316884 0.427134 0.066865
O O12 0.000000 0.811124 0.930207
O O13 0.203267 0.908559 0.026275
O O14 0.145514 0.738872 0.085014
O O15 0.500000 0.007384 0.635443
O O16 0.751082 0.930458 0.625356
O O17 0.000000 0.873944 0.562874
O O18 0.500000 0.568850 0.081812
O O19 0.745815 0.583791 0.161611
O O20 0.500000 0.365736 0.716797
#
# Coordination Sequence:
#
# PCOD8170060 Si02
#       8
#     4   4   4   4   4   4   4   4
#     4   8  16  33  55  76 100 133 170 208 253 303
#     4  10  20  34  55  81 105 133 174 220 259 300
#     4  10  22  38  52  71 106 144 172 206 260 319
#     4   8  15  30  52  77 105 135 165 203 257 312
#     4   9  18  34  55  78 104 134 172 216 258 303
#     4  10  21  36  53  74 102 138 176 210 251 306
#     4   9  19  35  53  76 105 135 170 214 260 306
#     4   8  14  28  53  79  99 126 167 209 248 299
#
# _framework density 18.945191000000001
#
# number of rings (size 3 to 8) (size 9 to 14) (size 15 to 20)
#    0.000    3.000    0.000    1.875    0.000    4.000 
#    0.000    8.125    0.000    0.000    0.000    0.000 
#    0.000    0.000    0.000    0.000    0.000    0.000 
#
# Total GULP energy -396680.984267 kJ/mol
# GULP energy per Si atom -12396.280758 kJ/mol
# Density = 1.890207 g / cm^3
# Si number density = 18.945191 Si / 1000 Ang^3
#
#
#
# Elastic Constant Matrix: (Units=GPa)
#
#
# Indices 1 2 3 4 5 6 
#
# 1 65.4441 48.8474 40.9745 0.0000 0.0000 0.0000
# 2 48.8474 131.9478 50.1654 0.0000 0.0000 0.0000
# 3 40.9745 50.1654 99.3273 0.0000 0.0000 0.0000
# 4 0.0000 0.0000 0.0000 24.9027 0.0000 0.0000
# 5 0.0000 0.0000 0.0000 0.0000 21.4185 0.0000
# 6 0.0000 0.0000 0.0000 0.0000 0.0000 28.5528
#
#
#
# Elastic Compliance Matrix: (Units=1/GPa)
#
#
# Indices 1 2 3 4 5 6 
#
# 1 0.024327 -0.006424 -0.006791 0.000000 0.000000 0.000000
# 2 -0.006424 0.011076 -0.002944 0.000000 0.000000 0.000000
# 3 -0.006791 -0.002944 0.014356 0.000000 0.000000 0.000000
# 4 0.000000 0.000000 0.000000 0.040156 0.000000 0.000000
# 5 0.000000 0.000000 0.000000 0.000000 0.046689 0.000000
# 6 0.000000 0.000000 0.000000 0.000000 0.000000 0.035023
#
#
# Mechanical properties :
#
#
# Convention : Reuss Voigt Hill
#
# Bulk Modulus (GPa) = 57.33537 64.07711 60.70624
# Shear Modulus (GPa) = 23.83694 25.42359 24.63027
#
# Velocity S-wave (km/s) = 3.55097 3.66724 3.60957
# Velocity P-wave (km/s) = 6.86600 7.19912 7.03454
#
# Compressibility (1/GPa) = 0.01744124
#
# Stress axis : x y z
#
# Youngs Moduli (GPa) = 41.10680 90.28323 69.65742
#
# Poissons Ratio (x) = 0.57998 0.47303
# Poissons Ratio (y) = 0.26407 0.20507
# Poissons Ratio (z) = 0.27915 0.26580
#
# Static dielectric constant tensor:
#      x y z
#    x 3.360050 0.000000 0.000000 
#    y 0.000000 3.503020 0.000000 
#    z 0.000000 0.000000 3.475870 
# 
# 
# High freq. dielectric constant tensor:
#      x y z
#    x 1.715760 0.000000 0.000000 
#    y 0.000000 1.735370 0.000000 
#    z 0.000000 0.000000 1.724930 
# 
# From -- ./inp_files/3641.got.cif
#   From: 2010.03.12/outbox.cif.g09.slc.cpg/sg31_2_cif.got.tgz:3641.got - 2010.04.14 01:42:59.
