data_PCOD8170135
_publ_section_title
;
Structure prediction by ZEFSAII (Michael W. Deem and Ramdas Pophale) SiO2 
 PCOD8170135
Probable space group: P M N 21
;
_chemical_formula_sum "Si O2"
_cell_formula_units_Z 32
_cell_length_a 8.645082
_cell_length_b 14.518456
_cell_length_c 12.415310
_cell_angle_alpha 90.000000
_cell_angle_beta 90.000000
_cell_angle_gamma 90.000000
_cell_volume 1558.285816
_symmetry_space_group_name_H-M "P M N 21"
_symmetry_group_IT_number 31
_symmetry_cell_setting 'orthorhombic'
loop_
_space_group_symop_operation_xyz
x,y,z
1/2-x,-y,1/2+z
-x,y,z
1/2+x,-y,1/2+z
loop_
_atom_site_type_symbol
_atom_site_label
_atom_site_fract_x
_atom_site_fract_y
_atom_site_fract_z
Si Si1 0.183732 0.758475 0.262020
Si Si2 0.683657 0.133617 0.213767
Si Si3 0.681334 0.556087 0.859573
Si Si4 0.671700 0.145426 0.444618
Si Si5 0.183598 0.664948 0.656387
Si Si6 0.682679 0.628147 0.427522
Si Si7 0.828132 0.661720 0.043934
Si Si8 0.683858 0.057119 0.654020
O O1 0.267142 0.723999 0.370434
O O2 0.237191 0.695698 0.159611
O O3 0.230422 0.866510 0.244381
O O4 0.000000 0.750614 0.274461
O O5 0.500000 0.134703 0.220129
O O6 0.760066 0.129139 0.332775
O O7 0.738172 0.227965 0.157291
O O8 0.741915 0.042607 0.157043
O O9 0.500000 0.559543 0.839430
O O10 0.761780 0.613661 0.764488
O O11 0.741443 0.451594 0.854474
O O12 0.718394 0.590211 0.981666
O O13 0.500000 0.103505 0.435887
O O14 0.660573 0.253471 0.463120
O O15 0.755994 0.094902 0.542617
O O16 0.258193 0.621180 0.549993
O O17 0.000000 0.655691 0.649077
O O18 0.500000 0.618051 0.426961
O O19 0.000000 0.618187 0.058249
O O20 0.500000 0.049304 0.651919
#
# Coordination Sequence:
#
# PCOD8170135 Si02
#       8
#     4   4   4   4   4   4   4   4
#     4   9  20  40  64  90 125 166 210 261 315 370
#     4  10  20  36  61  88 120 160 204 258 317 374
#     4  12  25  41  64  94 126 161 206 258 317 380
#     4   8  15  33  56  80 110 154 201 247 306 363
#     4  11  24  45  68  92 126 164 212 266 320 379
#     4  12  27  44  64  91 129 172 212 259 318 381
#     4   9  17  36  64  87 114 155 205 257 308 364
#     4   9  19  35  59  88 122 162 208 258 311 373
#
# _framework density 20.535385000000002
#
# number of rings (size 3 to 8) (size 9 to 14) (size 15 to 20)
#    0.000    2.000    1.250    4.125    1.750    3.000 
#    0.000    5.000    0.000    0.000    0.000    0.000 
#    0.000    0.000    0.000    0.000    0.000    0.000 
#
# Total GULP energy -396566.233112 kJ/mol
# GULP energy per Si atom -12392.694785 kJ/mol
# Density = 2.048865 g / cm^3
# Si number density = 20.535385 Si / 1000 Ang^3
#
#
#
# Elastic Constant Matrix: (Units=GPa)
#
#
# Indices 1 2 3 4 5 6 
#
# 1 44.5457 19.2740 18.8423 0.0000 0.0000 0.0000
# 2 19.2740 108.8481 28.0637 0.0000 0.0000 0.0000
# 3 18.8423 28.0637 78.8189 0.0000 0.0000 0.0000
# 4 0.0000 0.0000 0.0000 29.8145 0.0000 0.0000
# 5 0.0000 0.0000 0.0000 0.0000 -21.3123 0.0000
# 6 0.0000 0.0000 0.0000 0.0000 0.0000 28.9868
#
#
#
# Elastic Compliance Matrix: (Units=1/GPa)
#
#
# Indices 1 2 3 4 5 6 
#
# 1 0.026012 -0.003306 -0.005041 0.000000 0.000000 0.000000
# 2 -0.003306 0.010536 -0.002961 0.000000 0.000000 0.000000
# 3 -0.005041 -0.002961 0.014947 0.000000 0.000000 0.000000
# 4 0.000000 0.000000 0.000000 0.033541 0.000000 0.000000
# 5 0.000000 0.000000 0.000000 0.000000 -0.046921 0.000000
# 6 0.000000 0.000000 0.000000 0.000000 0.000000 0.034498
#
#
# Mechanical properties :
#
#
# Convention : Reuss Voigt Hill
#
# Bulk Modulus (GPa) = 34.62877 40.50808 37.56843
# Shear Modulus (GPa) = 47.68491 18.56664 33.12578
#
# Velocity S-wave (km/s) = 4.82403 3.01014 4.02071
# Velocity P-wave (km/s) = 6.92300 5.64358 6.31577
#
# Compressibility (1/GPa) = 0.02887772
#
# Stress axis : x y z
#
# Youngs Moduli (GPa) = 38.44412 94.91291 66.90440
#
# Poissons Ratio (x) = 0.31381 0.33727
# Poissons Ratio (y) = 0.12711 0.19810
# Poissons Ratio (z) = 0.19380 0.28103
#
# Static dielectric constant tensor:
#      x y z
#    x 3.438530 0.000000 0.000000 
#    y 0.000000 3.864430 0.000000 
#    z 0.000000 0.000000 3.920270 
# 
# 
# High freq. dielectric constant tensor:
#      x y z
#    x 1.777620 0.000000 0.000000 
#    y 0.000000 1.805650 0.000000 
#    z 0.000000 0.000000 1.808870 
# 
# From -- ./inp_files/3617.got.cif
#   From: 2010.03.12/outbox.cif.g09.slc.cpg/sg31_2_cif.got.tgz:3617.got - 2010.04.14 01:42:59.
