data_PCOD8170995
_publ_section_title
;
Structure prediction by ZEFSAII (Michael W. Deem and Ramdas Pophale) SiO2 
 PCOD8170995
Probable space group: P N A 21
;
_chemical_formula_sum "Si O2"
_cell_formula_units_Z 28
_cell_length_a 9.958585
_cell_length_b 19.292111
_cell_length_c 6.862522
_cell_angle_alpha 90.000000
_cell_angle_beta 90.000000
_cell_angle_gamma 90.000000
_cell_volume 1318.442325
_symmetry_space_group_name_H-M "P N A 21"
_symmetry_group_IT_number 33
_symmetry_cell_setting 'orthorhombic'
loop_
_space_group_symop_operation_xyz
x,y,z
-x,-y,1/2+z
1/2-x,1/2+y,1/2+z
1/2+x,1/2-y,z
loop_
_atom_site_type_symbol
_atom_site_label
_atom_site_fract_x
_atom_site_fract_y
_atom_site_fract_z
Si Si1 0.997810 0.559805 0.064140
Si Si2 0.371078 0.576772 0.611878
Si Si3 0.488259 0.820593 0.786435
Si Si4 0.083276 0.415557 0.974512
Si Si5 0.713289 0.404687 0.700763
Si Si6 0.636899 0.522680 0.463478
Si Si7 0.294899 0.698237 0.888088
O O1 0.154595 0.571552 0.088962
O O2 0.914112 0.590681 0.241962
O O3 0.954129 0.603941 0.877221
O O4 0.977641 0.477600 0.029503
O O5 0.266051 0.590364 0.434007
O O6 0.509805 0.573161 0.489598
O O7 0.342619 0.508429 0.743205
O O8 0.367433 0.643606 0.747187
O O9 0.467114 0.841183 0.559247
O O10 0.374105 0.769304 0.862930
O O11 0.637228 0.792059 0.832866
O O12 0.236183 0.432159 0.032842
O O13 0.606129 0.460572 0.618235
O O14 0.685446 0.327363 0.613416
#
# Coordination Sequence:
#
# PCOD8170995 Si02
#       7
#     4   4   4   4   4   4   4
#     4  10  21  38  64  94 125 163 211 272 327 379
#     4  11  20  40  62  92 134 169 213 275 320 401
#     4  11  24  46  65  95 134 169 223 269 321 404
#     4  11  22  37  64  99 123 167 217 273 330 383
#     4   9  20  39  61  88 129 168 208 263 325 383
#     4  10  22  34  60  99 126 166 217 262 336 379
#     4  10  25  42  66  91 129 182 215 262 335 391
#
# _framework density 21.237182000000001
#
# number of rings (size 3 to 8) (size 9 to 14) (size 15 to 20)
#    0.000    1.714    2.857    1.714    4.000    1.143 
#    2.571    0.000    0.000    0.000    0.000    0.000 
#    0.000    0.000    0.000    0.000    0.000    0.000 
#
# Total GULP energy -346951.919086 kJ/mol
# GULP energy per Si atom -12391.139967 kJ/mol
# Density = 2.118885 g / cm^3
# Si number density = 21.237182 Si / 1000 Ang^3
#
#
#
# Elastic Constant Matrix: (Units=GPa)
#
#
# Indices 1 2 3 4 5 6 
#
# 1 78.8580 40.7913 18.1475 0.0000 0.0000 0.0000
# 2 40.7913 77.7271 14.6606 0.0000 0.0000 0.0000
# 3 18.1475 14.6606 95.7478 0.0000 0.0000 0.0000
# 4 0.0000 0.0000 0.0000 27.4654 0.0000 0.0000
# 5 0.0000 0.0000 0.0000 0.0000 26.1635 0.0000
# 6 0.0000 0.0000 0.0000 0.0000 0.0000 26.0166
#
#
#
# Elastic Compliance Matrix: (Units=1/GPa)
#
#
# Indices 1 2 3 4 5 6 
#
# 1 0.017770 -0.008949 -0.001998 0.000000 0.000000 0.000000
# 2 -0.008949 0.017755 -0.001022 0.000000 0.000000 0.000000
# 3 -0.001998 -0.001022 0.010979 0.000000 0.000000 0.000000
# 4 0.000000 0.000000 0.000000 0.036409 0.000000 0.000000
# 5 0.000000 0.000000 0.000000 0.000000 0.038221 0.000000
# 6 0.000000 0.000000 0.000000 0.000000 0.000000 0.038437
#
#
# Mechanical properties :
#
#
# Convention : Reuss Voigt Hill
#
# Bulk Modulus (GPa) = 44.31489 44.39241 44.35365
# Shear Modulus (GPa) = 26.17370 27.84465 27.00918
#
# Velocity S-wave (km/s) = 3.51443 3.62488 3.57008
# Velocity P-wave (km/s) = 6.11394 6.20227 6.15826
#
# Compressibility (1/GPa) = 0.02256578
#
# Stress axis : x y z
#
# Youngs Moduli (GPa) = 56.27536 56.32305 91.08043
#
# Poissons Ratio (x) = 0.50402 0.18196
# Poissons Ratio (y) = 0.50360 0.09312
# Poissons Ratio (z) = 0.11243 0.05759
#
# Static dielectric constant tensor:
#      x y z
#    x 3.690220 0.000000 0.000000 
#    y 0.000000 3.635720 0.000000 
#    z 0.000000 0.000000 3.896920 
# 
# 
# High freq. dielectric constant tensor:
#      x y z
#    x 1.827940 0.000000 0.000000 
#    y 0.000000 1.801740 0.000000 
#    z 0.000000 0.000000 1.842160 
# 
# From -- ./inp_files/994.got.cif
#   From: 2010.03.12/outbox.cif.g09.slc.cpg/sg33_1_cif.got.tgz:994.got - 2010.04.14 01:49:19.
