data_PCOD8170259
_publ_section_title
;
Structure prediction by ZEFSAII (Michael W. Deem and Ramdas Pophale) SiO2 
 PCOD8170259
Probable space group: P M N 21
;
_chemical_formula_sum "Si O2"
_cell_formula_units_Z 32
_cell_length_a 14.005136
_cell_length_b 11.811058
_cell_length_c 8.960803
_cell_angle_alpha 90.000000
_cell_angle_beta 90.000000
_cell_angle_gamma 90.000000
_cell_volume 1482.255472
_symmetry_space_group_name_H-M "P M N 21"
_symmetry_group_IT_number 31
_symmetry_cell_setting 'orthorhombic'
loop_
_space_group_symop_operation_xyz
x,y,z
1/2-x,-y,1/2+z
-x,y,z
1/2+x,-y,1/2+z
loop_
_atom_site_type_symbol
_atom_site_label
_atom_site_fract_x
_atom_site_fract_y
_atom_site_fract_z
Si Si1 0.107494 0.320488 0.689640
Si Si2 0.110070 0.429308 0.375493
Si Si3 0.890546 0.827062 0.181121
Si Si4 0.389946 0.153621 0.331468
Si Si5 0.388147 0.933616 0.155702
Si Si6 0.886245 0.060407 0.320591
Si Si7 0.275762 0.734571 0.683910
Si Si8 0.276960 0.348984 0.869021
O O1 0.117755 0.343314 0.513803
O O2 0.135097 0.189473 0.723545
O O3 0.180405 0.394958 0.788048
O O4 0.000000 0.348399 0.742026
O O5 0.168756 0.377783 0.237444
O O6 0.156890 0.548119 0.422320
O O7 0.000000 0.447888 0.328950
O O8 0.832189 0.722003 0.243672
O O9 0.000000 0.805079 0.222520
O O10 0.852428 0.941184 0.255363
O O11 0.875055 0.843813 0.006757
O O12 0.500000 0.174523 0.287261
O O13 0.327087 0.254853 0.263867
O O14 0.350672 0.034197 0.263273
O O15 0.500000 0.949469 0.138495
O O16 0.344750 0.937848 0.988876
O O17 0.841573 0.157936 0.218775
O O18 0.000000 0.076707 0.313645
O O19 0.254245 0.726447 0.508991
#
# Coordination Sequence:
#
# PCOD8170259 Si02
#       8
#     4   4   4   4   4   4   4   4
#     4  10  22  41  66  94 129 170 221 279 333 394
#     4  11  24  48  72  93 127 177 233 288 340 396
#     4  10  23  41  62  94 135 179 223 274 334 399
#     4  10  23  40  63  96 136 177 220 269 329 402
#     4   9  18  37  63  90 126 175 218 267 329 390
#     4  10  21  38  62  94 132 170 218 274 336 401
#     4  12  25  39  67  99 131 172 225 272 346 405
#     4  12  26  42  66  98 136 178 227 277 338 407
#
# _framework density 21.588722000000001
#
# number of rings (size 3 to 8) (size 9 to 14) (size 15 to 20)
#    0.000    1.500    1.250    3.000    3.500    3.000 
#    0.000    0.625    0.000    0.000    0.000    0.000 
#    0.000    0.000    0.000    0.000    0.000    0.000 
#
# Total GULP energy -396861.836174 kJ/mol
# GULP energy per Si atom -12401.932380 kJ/mol
# Density = 2.153959 g / cm^3
# Si number density = 21.588722 Si / 1000 Ang^3
#
#
#
# Elastic Constant Matrix: (Units=GPa)
#
#
# Indices 1 2 3 4 5 6 
#
# 1 97.5631 47.4554 47.0259 0.0000 0.0000 0.0000
# 2 47.4554 92.1357 34.8436 0.0000 0.0000 0.0000
# 3 47.0259 34.8436 87.1614 0.0000 0.0000 0.0000
# 4 0.0000 0.0000 0.0000 27.6803 0.0000 0.0000
# 5 0.0000 0.0000 0.0000 0.0000 29.6541 0.0000
# 6 0.0000 0.0000 0.0000 0.0000 0.0000 38.8024
#
#
#
# Elastic Compliance Matrix: (Units=1/GPa)
#
#
# Indices 1 2 3 4 5 6 
#
# 1 0.016210 -0.005940 -0.006371 0.000000 0.000000 0.000000
# 2 -0.005940 0.014963 -0.002777 0.000000 0.000000 0.000000
# 3 -0.006371 -0.002777 0.016021 0.000000 0.000000 0.000000
# 4 0.000000 0.000000 0.000000 0.036127 0.000000 0.000000
# 5 0.000000 0.000000 0.000000 0.000000 0.033722 0.000000
# 6 0.000000 0.000000 0.000000 0.000000 0.000000 0.025772
#
#
# Mechanical properties :
#
#
# Convention : Reuss Voigt Hill
#
# Bulk Modulus (GPa) = 58.76234 59.50109 59.13172
# Shear Modulus (GPa) = 27.98579 29.06304 28.52442
#
# Velocity S-wave (km/s) = 3.60434 3.67306 3.63886
# Velocity P-wave (km/s) = 6.67831 6.75348 6.71600
#
# Compressibility (1/GPa) = 0.01701770
#
# Stress axis : x y z
#
# Youngs Moduli (GPa) = 61.69119 66.83149 62.41980
#
# Poissons Ratio (x) = 0.39695 0.39769
# Poissons Ratio (y) = 0.36642 0.17334
# Poissons Ratio (z) = 0.39305 0.18559
#
# Static dielectric constant tensor:
#      x y z
#    x 4.144820 0.000000 0.000000 
#    y 0.000000 3.839860 0.000000 
#    z 0.000000 0.000000 3.807440 
# 
# 
# High freq. dielectric constant tensor:
#      x y z
#    x 1.867880 0.000000 0.000000 
#    y 0.000000 1.835340 0.000000 
#    z 0.000000 0.000000 1.844930 
# 
# From -- ./inp_files/2590.got.cif
#   From: 2010.03.12/outbox.cif.g09.slc.cpg/sg31_2_cif.got.tgz:2590.got - 2010.04.14 01:42:59.
