data_PCOD8170673
_publ_section_title
;
Structure prediction by ZEFSAII (Michael W. Deem and Ramdas Pophale) SiO2 
 PCOD8170673
Probable space group: P N A 21
;
_chemical_formula_sum "Si O2"
_cell_formula_units_Z 28
_cell_length_a 10.282123
_cell_length_b 9.296886
_cell_length_c 17.008593
_cell_angle_alpha 90.000000
_cell_angle_beta 90.000000
_cell_angle_gamma 90.000000
_cell_volume 1625.880751
_symmetry_space_group_name_H-M "P N A 21"
_symmetry_group_IT_number 33
_symmetry_cell_setting 'orthorhombic'
loop_
_space_group_symop_operation_xyz
x,y,z
-x,-y,1/2+z
1/2-x,1/2+y,1/2+z
1/2+x,1/2-y,z
loop_
_atom_site_type_symbol
_atom_site_label
_atom_site_fract_x
_atom_site_fract_y
_atom_site_fract_z
Si Si1 0.142993 0.888267 0.897800
Si Si2 0.075771 0.443007 0.202260
Si Si3 0.567541 0.205767 0.640354
Si Si4 0.667354 0.614906 0.073855
Si Si5 0.850606 0.958950 0.237629
Si Si6 0.581144 0.368285 0.181946
Si Si7 0.106696 0.249829 0.338579
O O1 0.261810 0.777715 0.885953
O O2 0.006330 0.804377 0.895703
O O3 0.147842 0.014065 0.831910
O O4 0.157209 0.948518 0.985690
O O5 0.208928 0.532244 0.199489
O O6 0.081220 0.296461 0.148796
O O7 0.053211 0.393083 0.293053
O O8 0.963632 0.545619 0.170102
O O9 0.450648 0.274816 0.590038
O O10 0.696415 0.197235 0.586729
O O11 0.592491 0.301630 0.718498
O O12 0.664160 0.474565 0.128669
O O13 0.932242 0.080280 0.191372
O O14 0.642069 0.367657 0.270543
#
# Coordination Sequence:
#
# PCOD8170673 Si02
#       7
#     4   4   4   4   4   4   4
#     4  10  18  35  55  80 112 143 178 231 277 324
#     4   9  18  33  58  79 101 137 193 227 250 328
#     4  11  21  35  55  86 110 145 183 230 274 326
#     4  11  22  33  57  83 116 142 180 230 291 315
#     4   9  18  36  54  78 107 142 189 228 258 328
#     4   8  19  32  57  80 101 144 188 220 268 330
#     4   8  18  32  58  78 101 143 189 218 258 335
#
# _framework density 17.221435
#
# number of rings (size 3 to 8) (size 9 to 14) (size 15 to 20)
#    0.857    1.714    1.429    0.857    4.000    0.000 
#    0.000    0.000    9.429    0.000    0.000    0.000 
#    0.000    0.000    0.000    0.000    0.000    0.000 
#
# Total GULP energy -346894.149674 kJ/mol
# GULP energy per Si atom -12389.076774 kJ/mol
# Density = 1.718224 g / cm^3
# Si number density = 17.221435 Si / 1000 Ang^3
#
#
#
# Elastic Constant Matrix: (Units=GPa)
#
#
# Indices 1 2 3 4 5 6 
#
# 1 90.7507 28.3876 38.9876 0.0000 0.0000 0.0000
# 2 28.3876 84.4746 29.5006 0.0000 0.0000 0.0000
# 3 38.9876 29.5006 90.5594 0.0000 0.0000 0.0000
# 4 0.0000 0.0000 0.0000 18.2121 0.0000 0.0000
# 5 0.0000 0.0000 0.0000 0.0000 17.3381 0.0000
# 6 0.0000 0.0000 0.0000 0.0000 0.0000 25.7244
#
#
#
# Elastic Compliance Matrix: (Units=1/GPa)
#
#
# Indices 1 2 3 4 5 6 
#
# 1 0.014149 -0.002965 -0.005125 0.000000 0.000000 0.000000
# 2 -0.002965 0.013979 -0.003277 0.000000 0.000000 0.000000
# 3 -0.005125 -0.003277 0.014317 0.000000 0.000000 0.000000
# 4 0.000000 0.000000 0.000000 0.054908 0.000000 0.000000
# 5 0.000000 0.000000 0.000000 0.000000 0.057676 0.000000
# 6 0.000000 0.000000 0.000000 0.000000 0.000000 0.038874
#
#
# Mechanical properties :
#
#
# Convention : Reuss Voigt Hill
#
# Bulk Modulus (GPa) = 50.73827 51.05961 50.89894
# Shear Modulus (GPa) = 22.40074 23.51552 22.95813
#
# Velocity S-wave (km/s) = 3.61050 3.69925 3.65514
# Velocity P-wave (km/s) = 6.84888 6.92526 6.88717
#
# Compressibility (1/GPa) = 0.01970899
#
# Stress axis : x y z
#
# Youngs Moduli (GPa) = 70.67874 71.53746 69.84842
#
# Poissons Ratio (x) = 0.21209 0.35800
# Poissons Ratio (y) = 0.20954 0.22892
# Poissons Ratio (z) = 0.36226 0.23445
#
# Static dielectric constant tensor:
#      x y z
#    x 3.218800 0.000000 0.000000 
#    y 0.000000 3.045590 0.000000 
#    z 0.000000 0.000000 2.965730 
# 
# 
# High freq. dielectric constant tensor:
#      x y z
#    x 1.676680 0.000000 0.000000 
#    y 0.000000 1.646680 0.000000 
#    z 0.000000 0.000000 1.639240 
# 
# From -- ./inp_files/7896.got.cif
#   From: 2010.03.12/outbox.cif.g09.slc.cpg/sg33_4_cif.got.tgz:7896.got - 2010.04.14 01:49:19.
