data_PCOD8170910
_publ_section_title
;
Structure prediction by ZEFSAII (Michael W. Deem and Ramdas Pophale) SiO2 
 PCOD8170910
Probable space group: P N A 21
;
_chemical_formula_sum "Si O2"
_cell_formula_units_Z 32
_cell_length_a 9.013733
_cell_length_b 13.270667
_cell_length_c 12.304748
_cell_angle_alpha 90.000000
_cell_angle_beta 90.000000
_cell_angle_gamma 90.000000
_cell_volume 1471.872411
_symmetry_space_group_name_H-M "P N A 21"
_symmetry_group_IT_number 33
_symmetry_cell_setting 'orthorhombic'
loop_
_space_group_symop_operation_xyz
x,y,z
-x,-y,1/2+z
1/2-x,1/2+y,1/2+z
1/2+x,1/2-y,z
loop_
_atom_site_type_symbol
_atom_site_label
_atom_site_fract_x
_atom_site_fract_y
_atom_site_fract_z
Si Si1 0.073808 0.650218 0.063000
Si Si2 0.525861 0.986265 0.421856
Si Si3 0.466997 0.700843 0.235450
Si Si4 0.862503 0.647239 0.769447
Si Si5 0.806031 0.287887 0.882225
Si Si6 0.227956 0.378941 0.030593
Si Si7 0.102174 0.063010 0.554868
Si Si8 0.447186 0.309953 0.380381
O O1 0.234160 0.603767 0.084775
O O2 0.995861 0.695926 0.168895
O O3 0.106450 0.734173 0.972795
O O4 0.955526 0.566520 0.020625
O O5 0.644557 0.897196 0.423596
O O6 0.362548 0.937913 0.435546
O O7 0.543911 0.051009 0.312024
O O8 0.301269 0.698536 0.280187
O O9 0.570237 0.708262 0.340858
O O10 0.496635 0.603900 0.156876
O O11 0.864318 0.632181 0.640853
O O12 0.695447 0.645917 0.817821
O O13 0.943813 0.752517 0.796801
O O14 0.747116 0.234826 0.990477
O O15 0.381814 0.441334 0.051085
O O16 0.036983 0.099556 0.439397
#
# Coordination Sequence:
#
# PCOD8170910 Si02
#       8
#     4   4   4   4   4   4   4   4
#     4   9  19  39  66  99 123 173 224 277 324 406
#     4  10  24  43  66  92 134 175 222 275 337 405
#     4  11  22  38  70  93 132 166 227 277 339 394
#     4  11  24  43  70  99 134 183 222 277 349 402
#     4  12  24  43  61  97 133 176 216 281 336 407
#     4  11  26  42  66  96 139 175 226 276 341 412
#     4  10  20  40  65  98 127 170 225 279 321 402
#     4  10  21  40  68 100 134 168 224 282 331 402
#
# _framework density 21.741015000000001
#
# number of rings (size 3 to 8) (size 9 to 14) (size 15 to 20)
#    0.000    1.500    3.750    0.750    3.500    2.000 
#    0.000    1.250    0.000    0.000    0.000    0.000 
#    0.000    0.000    0.000    0.000    0.000    0.000 
#
# Total GULP energy -396582.750905 kJ/mol
# GULP energy per Si atom -12393.210966 kJ/mol
# Density = 2.169153 g / cm^3
# Si number density = 21.741015 Si / 1000 Ang^3
#
#
#
# Elastic Constant Matrix: (Units=GPa)
#
#
# Indices 1 2 3 4 5 6 
#
# 1 65.2656 7.3686 24.7589 0.0000 0.0000 0.0000
# 2 7.3686 62.1473 29.5004 0.0000 0.0000 0.0000
# 3 24.7589 29.5004 98.2032 0.0000 0.0000 0.0000
# 4 0.0000 0.0000 0.0000 24.5894 0.0000 0.0000
# 5 0.0000 0.0000 0.0000 0.0000 31.4435 0.0000
# 6 0.0000 0.0000 0.0000 0.0000 0.0000 34.5265
#
#
#
# Elastic Compliance Matrix: (Units=1/GPa)
#
#
# Indices 1 2 3 4 5 6 
#
# 1 0.016942 0.000022 -0.004278 0.000000 0.000000 0.000000
# 2 0.000022 0.018767 -0.005643 0.000000 0.000000 0.000000
# 3 -0.004278 -0.005643 0.012957 0.000000 0.000000 0.000000
# 4 0.000000 0.000000 0.000000 0.040668 0.000000 0.000000
# 5 0.000000 0.000000 0.000000 0.000000 0.031803 0.000000
# 6 0.000000 0.000000 0.000000 0.000000 0.000000 0.028963
#
#
# Mechanical properties :
#
#
# Convention : Reuss Voigt Hill
#
# Bulk Modulus (GPa) = 34.64098 38.76353 36.70226
# Shear Modulus (GPa) = 27.85183 29.04445 28.44814
#
# Velocity S-wave (km/s) = 3.58309 3.65900 3.62125
# Velocity P-wave (km/s) = 5.75205 5.97657 5.86539
#
# Compressibility (1/GPa) = 0.02886754
#
# Stress axis : x y z
#
# Youngs Moduli (GPa) = 59.02333 53.28524 77.17978
#
# Poissons Ratio (x) = -0.00117 0.33018
# Poissons Ratio (y) = -0.00130 0.43554
# Poissons Ratio (z) = 0.25251 0.30070
#
# Static dielectric constant tensor:
#      x y z
#    x 3.848080 0.000000 0.000000 
#    y 0.000000 4.065920 0.000000 
#    z 0.000000 0.000000 3.908130 
# 
# 
# High freq. dielectric constant tensor:
#      x y z
#    x 1.834710 0.000000 0.000000 
#    y 0.000000 1.855350 0.000000 
#    z 0.000000 0.000000 1.855280 
# 
# From -- ./inp_files/5996.got.cif
#   From: 2010.03.12/outbox.cif.g09.slc.cpg/sg33_3_cif.got.tgz:5996.got - 2010.04.14 01:49:19.
