data_PCOD8170804
_publ_section_title
;
Structure prediction by ZEFSAII (Michael W. Deem and Ramdas Pophale) SiO2 
 PCOD8170804
Probable space group: P N A 21
;
_chemical_formula_sum "Si O2"
_cell_formula_units_Z 32
_cell_length_a 15.273232
_cell_length_b 24.929731
_cell_length_c 4.946655
_cell_angle_alpha 90.000000
_cell_angle_beta 90.000000
_cell_angle_gamma 90.000000
_cell_volume 1883.476314
_symmetry_space_group_name_H-M "P N A 21"
_symmetry_group_IT_number 33
_symmetry_cell_setting 'orthorhombic'
loop_
_space_group_symop_operation_xyz
x,y,z
-x,-y,1/2+z
1/2-x,1/2+y,1/2+z
1/2+x,1/2-y,z
loop_
_atom_site_type_symbol
_atom_site_label
_atom_site_fract_x
_atom_site_fract_y
_atom_site_fract_z
Si Si1 0.445968 0.062528 0.010480
Si Si2 0.768199 0.805108 0.200414
Si Si3 0.548338 0.746712 0.515996
Si Si4 0.673661 0.843121 0.669246
Si Si5 0.306295 0.848684 0.940213
Si Si6 0.211626 0.811322 0.408946
Si Si7 0.937677 0.560050 0.001314
Si Si8 0.069143 0.249023 0.513325
O O1 0.366417 0.098490 0.118011
O O2 0.527542 0.071475 0.204357
O O3 0.410781 0.001858 0.035924
O O4 0.485764 0.076524 0.715051
O O5 0.757383 0.841448 0.467000
O O6 0.738017 0.747329 0.305266
O O7 0.867546 0.800674 0.094715
O O8 0.705684 0.830807 0.971517
O O9 0.598723 0.800425 0.597593
O O10 0.612330 0.694452 0.516703
O O11 0.511346 0.754721 0.216592
O O12 0.468246 0.735906 0.717850
O O13 0.274119 0.836728 0.637546
O O14 0.222571 0.847646 0.142151
O O15 0.348869 0.905942 0.004183
O O16 0.378115 0.804310 0.016347
#
# Coordination Sequence:
#
# PCOD8170804 Si02
#       8
#     4   4   4   4   4   4   4   4
#     4  10  20  33  49  72  99 126 161 200 232 274
#     4  10  20  32  45  66  94 124 158 196 230 276
#     4  11  19  29  45  66  92 122 156 188 226 276
#     4  11  19  32  48  66  95 130 158 186 236 282
#     4  11  19  32  48  66  95 130 158 186 236 282
#     4  10  20  32  45  66  94 124 158 196 230 276
#     4  10  20  33  49  72  99 126 161 200 232 274
#     4  11  19  29  45  66  92 122 156 188 226 276
#
# _framework density 16.98986
#
# number of rings (size 3 to 8) (size 9 to 14) (size 15 to 20)
#    0.000    1.500    0.000   10.500    0.000    0.000 
#    0.000    0.000    0.000    0.000    0.000    0.000 
#    0.000   20.000    0.000    0.000    0.000    0.000 
#
# Total GULP energy -396562.636639 kJ/mol
# GULP energy per Si atom -12392.582395 kJ/mol
# Density = 1.695119 g / cm^3
# Si number density = 16.989860 Si / 1000 Ang^3
#
#
#
# Elastic Constant Matrix: (Units=GPa)
#
#
# Indices 1 2 3 4 5 6 
#
# 1 56.2233 25.3154 13.0182 0.0000 0.0000 0.0000
# 2 25.3154 54.1787 24.7923 0.0000 0.0000 0.0000
# 3 13.0182 24.7923 87.9116 0.0000 0.0000 0.0000
# 4 0.0000 0.0000 0.0000 20.2372 0.0000 0.0000
# 5 0.0000 0.0000 0.0000 0.0000 28.3386 0.0000
# 6 0.0000 0.0000 0.0000 0.0000 0.0000 29.6416
#
#
#
# Elastic Compliance Matrix: (Units=1/GPa)
#
#
# Indices 1 2 3 4 5 6 
#
# 1 0.022539 -0.010338 -0.000422 0.000000 0.000000 0.000000
# 2 -0.010338 0.025934 -0.005783 0.000000 0.000000 0.000000
# 3 -0.000422 -0.005783 0.013068 0.000000 0.000000 0.000000
# 4 0.000000 0.000000 0.000000 0.049414 0.000000 0.000000
# 5 0.000000 0.000000 0.000000 0.000000 0.035288 0.000000
# 6 0.000000 0.000000 0.000000 0.000000 0.000000 0.033736
#
#
# Mechanical properties :
#
#
# Convention : Reuss Voigt Hill
#
# Bulk Modulus (GPa) = 35.14312 36.06282 35.60297
# Shear Modulus (GPa) = 22.46673 24.65600 23.56137
#
# Velocity S-wave (km/s) = 3.64037 3.81362 3.72800
# Velocity P-wave (km/s) = 6.19673 6.37681 6.28742
#
# Compressibility (1/GPa) = 0.02845507
#
# Stress axis : x y z
#
# Youngs Moduli (GPa) = 44.36769 38.55881 76.52019
#
# Poissons Ratio (x) = 0.39863 0.03230
# Poissons Ratio (y) = 0.45869 0.44251
# Poissons Ratio (z) = 0.01873 0.22298
#
# Static dielectric constant tensor:
#      x y z
#    x 3.462600 0.000000 0.000000 
#    y 0.000000 3.266740 0.000000 
#    z 0.000000 0.000000 3.584460 
# 
# 
# High freq. dielectric constant tensor:
#      x y z
#    x 1.640570 0.000000 0.000000 
#    y 0.000000 1.614540 0.000000 
#    z 0.000000 0.000000 1.685660 
# 
# From -- ./inp_files/1154.got.cif
#   From: 2010.03.12/outbox.cif.g09.slc.cpg/sg33_1_cif.got.tgz:1154.got - 2010.04.14 01:49:19.
