data_PCOD8170512
_publ_section_title
;
Structure prediction by ZEFSAII (Michael W. Deem and Ramdas Pophale) SiO2 
 PCOD8170512
Probable space group: P B A 2
;
_chemical_formula_sum "Si O2"
_cell_formula_units_Z 28
_cell_length_a 19.041677
_cell_length_b 8.470753
_cell_length_c 8.440562
_cell_angle_alpha 90.000000
_cell_angle_beta 90.000000
_cell_angle_gamma 90.000000
_cell_volume 1361.440220
_symmetry_space_group_name_H-M "P B A 2"
_symmetry_group_IT_number 32
_symmetry_cell_setting 'orthorhombic'
loop_
_space_group_symop_operation_xyz
x,y,z
-x,-y,z
1/2-x,1/2+y,z
1/2+x,1/2-y,z
loop_
_atom_site_type_symbol
_atom_site_label
_atom_site_fract_x
_atom_site_fract_y
_atom_site_fract_z
Si Si1 0.797432 0.102499 0.267900
Si Si2 0.678680 0.278910 0.433888
Si Si3 0.481804 0.680449 0.987751
Si Si4 0.264970 0.989247 0.947290
Si Si5 0.657255 0.298643 0.798536
Si Si6 0.880806 0.322111 0.057977
Si Si7 0.064923 0.398897 0.254684
O O1 0.754827 0.198245 0.403656
O O2 0.863997 0.201164 0.201968
O O3 0.827015 0.937519 0.330834
O O4 0.742797 0.075527 0.125133
O O5 0.665939 0.327500 0.613376
O O6 0.617263 0.154908 0.392250
O O7 0.500000 0.500000 0.003635
O O8 0.423934 0.713903 0.852386
O O9 0.555226 0.767380 0.945673
O O10 0.459664 0.743226 0.160708
O O11 0.189354 0.045696 0.883008
O O12 0.301600 0.861217 0.836967
O O13 0.312252 0.150192 0.948673
O O14 0.896101 0.494529 0.126477
O O15 0.000000 0.500000 0.328272
#
# Coordination Sequence:
#
# PCOD8170512 Si02
#       7
#     4   4   4   4   4   4   4
#     4  12  21  40  72  93 125 171 228 277 323 403
#     4  12  23  41  61  99 137 172 209 279 354 405
#     4  11  23  42  65  94 128 174 227 276 326 399
#     4  12  21  40  66  97 121 168 229 272 322 387
#     4  12  26  40  64 100 140 170 213 284 346 404
#     4  11  21  38  71  96 118 165 234 277 318 381
#     4  10  21  41  64  92 122 168 225 270 319 401
#
# _framework density 20.566455000000001
#
# number of rings (size 3 to 8) (size 9 to 14) (size 15 to 20)
#    0.000    0.571    5.714    3.429    0.000    0.000 
#    2.571    3.571    0.000    0.000    0.000    0.000 
#    0.000    0.000    0.000    0.000    0.000    0.000 
#
# Total GULP energy -347201.591650 kJ/mol
# GULP energy per Si atom -12400.056845 kJ/mol
# Density = 2.051965 g / cm^3
# Si number density = 20.566455 Si / 1000 Ang^3
#
#
#
# Elastic Constant Matrix: (Units=GPa)
#
#
# Indices 1 2 3 4 5 6 
#
# 1 122.4194 33.6423 32.3851 0.0000 0.0000 0.0000
# 2 33.6423 103.5310 26.3136 0.0000 0.0000 0.0000
# 3 32.3851 26.3136 67.6966 0.0000 0.0000 0.0000
# 4 0.0000 0.0000 0.0000 20.1243 0.0000 0.0000
# 5 0.0000 0.0000 0.0000 0.0000 27.5843 0.0000
# 6 0.0000 0.0000 0.0000 0.0000 0.0000 40.6377
#
#
#
# Elastic Compliance Matrix: (Units=1/GPa)
#
#
# Indices 1 2 3 4 5 6 
#
# 1 0.009787 -0.002208 -0.003824 0.000000 0.000000 0.000000
# 2 -0.002208 0.011216 -0.003303 0.000000 0.000000 0.000000
# 3 -0.003824 -0.003303 0.017885 0.000000 0.000000 0.000000
# 4 0.000000 0.000000 0.000000 0.049691 0.000000 0.000000
# 5 0.000000 0.000000 0.000000 0.000000 0.036253 0.000000
# 6 0.000000 0.000000 0.000000 0.000000 0.000000 0.024608
#
#
# Mechanical properties :
#
#
# Convention : Reuss Voigt Hill
#
# Bulk Modulus (GPa) = 49.46187 53.14766 51.30477
# Shear Modulus (GPa) = 28.59609 31.08966 29.84287
#
# Velocity S-wave (km/s) = 3.73288 3.89224 3.81339
# Velocity P-wave (km/s) = 6.53309 6.78950 6.66253
#
# Compressibility (1/GPa) = 0.02021760
#
# Stress axis : x y z
#
# Youngs Moduli (GPa) = 102.17578 89.15730 55.91319
#
# Poissons Ratio (x) = 0.19690 0.21379
# Poissons Ratio (y) = 0.22565 0.18469
# Poissons Ratio (z) = 0.39067 0.29450
#
# Static dielectric constant tensor:
#      x y z
#    x 4.172260 0.000000 0.000000 
#    y 0.000000 3.900190 0.000000 
#    z 0.000000 0.000000 3.305020 
# 
# 
# High freq. dielectric constant tensor:
#      x y z
#    x 1.820200 0.000000 0.000000 
#    y 0.000000 1.826110 0.000000 
#    z 0.000000 0.000000 1.760320 
# 
# From -- ./inp_files/2514.got.cif
#   From: 2010.03.12/outbox.cif.g09.slc.cpg/sg32_2_cif.got.tgz:2514.got - 2010.04.14 01:46:39.
