data_PCOD8170321
_publ_section_title
;
Structure prediction by ZEFSAII (Michael W. Deem and Ramdas Pophale) SiO2 
 PCOD8170321
Probable space group: P M N 21
;
_chemical_formula_sum "Si O2"
_cell_formula_units_Z 32
_cell_length_a 13.315076
_cell_length_b 9.663467
_cell_length_c 11.994657
_cell_angle_alpha 90.000000
_cell_angle_beta 90.000000
_cell_angle_gamma 90.000000
_cell_volume 1543.350088
_symmetry_space_group_name_H-M "P M N 21"
_symmetry_group_IT_number 31
_symmetry_cell_setting 'orthorhombic'
loop_
_space_group_symop_operation_xyz
x,y,z
1/2-x,-y,1/2+z
-x,y,z
1/2+x,-y,1/2+z
loop_
_atom_site_type_symbol
_atom_site_label
_atom_site_fract_x
_atom_site_fract_y
_atom_site_fract_z
Si Si1 0.720422 0.352009 0.194140
Si Si2 0.118401 0.848290 0.852316
Si Si3 0.271592 0.340022 0.754747
Si Si4 0.881278 0.865801 0.101499
Si Si5 0.118846 0.726088 0.469973
Si Si6 0.881593 0.139599 0.232106
Si Si7 0.118302 0.117855 0.713985
Si Si8 0.619396 0.959027 0.971065
O O1 0.662397 0.292045 0.301167
O O2 0.740738 0.511875 0.210266
O O3 0.825595 0.270400 0.178055
O O4 0.650158 0.338418 0.086958
O O5 0.000000 0.832147 0.858360
O O6 0.149842 0.975916 0.774014
O O7 0.163298 0.873778 0.976009
O O8 0.344122 0.270359 0.664210
O O9 0.328794 0.359502 0.871379
O O10 0.171907 0.247193 0.772463
O O11 0.000000 0.857920 0.096862
O O12 0.846911 0.001378 0.168641
O O13 0.000000 0.713498 0.456396
O O14 0.157035 0.883738 0.461566
O O15 0.846489 0.126145 0.361650
O O16 0.000000 0.164772 0.221045
O O17 0.158547 0.110498 0.585837
O O18 0.000000 0.142606 0.722086
O O19 0.500000 0.962616 0.977203
#
# Coordination Sequence:
#
# PCOD8170321 Si02
#       8
#     4   4   4   4   4   4   4   4
#     4  12  27  40  64  95 133 171 213 255 323 389
#     4  10  22  41  66  93 125 165 214 272 328 376
#     4  12  27  40  64  95 133 171 213 255 323 389
#     4  10  22  41  66  93 125 165 214 272 328 376
#     4  11  24  45  70  94 125 169 219 266 314 380
#     4  10  22  40  64  96 128 166 217 273 321 375
#     4  10  22  40  64  96 128 166 217 273 321 375
#     4   9  18  37  67  96 119 161 222 270 315 362
#
# _framework density 20.734116
#
# number of rings (size 3 to 8) (size 9 to 14) (size 15 to 20)
#    0.000    1.500    2.500    1.500    5.250    2.000 
#    0.000    1.250    0.000    0.000    0.000    0.000 
#    0.000    0.000    0.000    0.000    0.000    0.000 
#
# Total GULP energy -396976.549634 kJ/mol
# GULP energy per Si atom -12405.517176 kJ/mol
# Density = 2.068692 g / cm^3
# Si number density = 20.734116 Si / 1000 Ang^3
#
#
#
# Elastic Constant Matrix: (Units=GPa)
#
#
# Indices 1 2 3 4 5 6 
#
# 1 45.2271 21.6328 32.3054 0.0000 0.0000 0.0000
# 2 21.6328 93.7467 4.1505 0.0000 0.0000 0.0000
# 3 32.3054 4.1505 112.2918 0.0000 0.0000 0.0000
# 4 0.0000 0.0000 0.0000 17.9058 0.0000 0.0000
# 5 0.0000 0.0000 0.0000 0.0000 41.9783 0.0000
# 6 0.0000 0.0000 0.0000 0.0000 0.0000 20.8669
#
#
#
# Elastic Compliance Matrix: (Units=1/GPa)
#
#
# Indices 1 2 3 4 5 6 
#
# 1 0.031777 -0.006939 -0.008885 0.000000 0.000000 0.000000
# 2 -0.006939 0.012200 0.001545 0.000000 0.000000 0.000000
# 3 -0.008885 0.001545 0.011404 0.000000 0.000000 0.000000
# 4 0.000000 0.000000 0.000000 0.055848 0.000000 0.000000
# 5 0.000000 0.000000 0.000000 0.000000 0.023822 0.000000
# 6 0.000000 0.000000 0.000000 0.000000 0.000000 0.047923
#
#
# Mechanical properties :
#
#
# Convention : Reuss Voigt Hill
#
# Bulk Modulus (GPa) = 37.28212 40.82703 39.05457
# Shear Modulus (GPa) = 22.67854 29.02866 25.85360
#
# Velocity S-wave (km/s) = 3.31082 3.74577 3.53499
# Velocity P-wave (km/s) = 5.71275 6.20010 5.96141
#
# Compressibility (1/GPa) = 0.02682251
#
# Stress axis : x y z
#
# Youngs Moduli (GPa) = 31.46974 81.96775 87.68474
#
# Poissons Ratio (x) = 0.56880 0.77911
# Poissons Ratio (y) = 0.21838 -0.13551
# Poissons Ratio (z) = 0.27962 -0.12668
#
# Static dielectric constant tensor:
#      x y z
#    x 3.845930 0.000000 0.000000 
#    y 0.000000 3.447060 0.000000 
#    z 0.000000 0.000000 4.089580 
# 
# 
# High freq. dielectric constant tensor:
#      x y z
#    x 1.837870 0.000000 0.000000 
#    y 0.000000 1.781560 0.000000 
#    z 0.000000 0.000000 1.825260 
# 
# From -- ./inp_files/4278.got.cif
#   From: 2010.03.12/outbox.cif.g09.slc.cpg/sg31_3_cif.got.tgz:4278.got - 2010.04.14 01:42:59.
