data_PCOD8170615
_publ_section_title
;
Structure prediction by ZEFSAII (Michael W. Deem and Ramdas Pophale) SiO2 
 PCOD8170615
Probable space group: P B A 2
;
_chemical_formula_sum "Si O2"
_cell_formula_units_Z 20
_cell_length_a 9.527726
_cell_length_b 9.361764
_cell_length_c 10.146690
_cell_angle_alpha 90.000000
_cell_angle_beta 90.000000
_cell_angle_gamma 90.000000
_cell_volume 905.047431
_symmetry_space_group_name_H-M "P B A 2"
_symmetry_group_IT_number 32
_symmetry_cell_setting 'orthorhombic'
loop_
_space_group_symop_operation_xyz
x,y,z
-x,-y,z
1/2-x,1/2+y,z
1/2+x,1/2-y,z
loop_
_atom_site_type_symbol
_atom_site_label
_atom_site_fract_x
_atom_site_fract_y
_atom_site_fract_z
Si Si1 0.298972 0.423623 0.625000
Si Si2 0.577580 0.296370 0.721439
Si Si3 0.243889 0.226248 0.160670
Si Si4 0.659410 0.531841 0.334242
Si Si5 0.998415 0.334628 0.991458
O O1 0.437158 0.321970 0.634112
O O2 0.323417 0.563095 0.716413
O O3 0.160004 0.341678 0.669989
O O4 0.266695 0.476274 0.476552
O O5 0.535646 0.269737 0.871874
O O6 0.320196 0.311516 0.276522
O O7 0.218223 0.072926 0.223798
O O8 0.102377 0.304469 0.113580
O O9 0.342207 0.208349 0.033885
O O10 0.500000 0.500000 0.363811
O O11 0.000000 0.500000 0.949396
#
# Coordination Sequence:
#
# PCOD8170615 Si02
#       5
#     4   4   4   4   4
#     4  11  26  48  72 108 142 192 238 299 364 426
#     4  11  26  46  72 102 147 186 242 295 359 428
#     4  12  26  45  74 103 141 189 231 300 357 426
#     4  12  24  46  73 104 147 181 241 297 362 425
#     4  12  27  46  70 106 141 187 241 290 361 432
#
# _framework density 22.098291
#
# number of rings (size 3 to 8) (size 9 to 14) (size 15 to 20)
#    0.000    0.400    6.000    2.400    5.600    3.200 
#    0.000    0.000    0.000    0.000    0.000    0.000 
#    0.000    0.000    0.000    0.000    0.000    0.000 
#
# Total GULP energy -248107.091118 kJ/mol
# GULP energy per Si atom -12405.354556 kJ/mol
# Density = 2.204799 g / cm^3
# Si number density = 22.098291 Si / 1000 Ang^3
#
#
#
# Elastic Constant Matrix: (Units=GPa)
#
#
# Indices 1 2 3 4 5 6 
#
# 1 64.8691 23.9219 33.3168 0.0000 0.0000 0.0000
# 2 23.9219 99.4685 50.7891 0.0000 0.0000 0.0000
# 3 33.3168 50.7891 133.1841 0.0000 0.0000 0.0000
# 4 0.0000 0.0000 0.0000 38.6707 0.0000 0.0000
# 5 0.0000 0.0000 0.0000 0.0000 154.5133 0.0000
# 6 0.0000 0.0000 0.0000 0.0000 0.0000 42.2145
#
#
#
# Elastic Compliance Matrix: (Units=1/GPa)
#
#
# Indices 1 2 3 4 5 6 
#
# 1 0.018194 -0.002548 -0.003580 0.000000 0.000000 0.000000
# 2 -0.002548 0.012841 -0.004260 0.000000 0.000000 0.000000
# 3 -0.003580 -0.004260 0.010028 0.000000 0.000000 0.000000
# 4 0.000000 0.000000 0.000000 0.025859 0.000000 0.000000
# 5 0.000000 0.000000 0.000000 0.000000 0.006472 0.000000
# 6 0.000000 0.000000 0.000000 0.000000 0.000000 0.023689
#
#
# Mechanical properties :
#
#
# Convention : Reuss Voigt Hill
#
# Bulk Modulus (GPa) = 49.28755 57.06413 53.17584
# Shear Modulus (GPa) = 40.12200 59.71263 49.91731
#
# Velocity S-wave (km/s) = 4.26563 5.20385 4.75792
# Velocity P-wave (km/s) = 6.82737 7.87310 7.36881
#
# Compressibility (1/GPa) = 0.02028910
#
# Stress axis : x y z
#
# Youngs Moduli (GPa) = 54.96399 77.87490 99.71837
#
# Poissons Ratio (x) = 0.19840 0.35696
# Poissons Ratio (y) = 0.14003 0.42476
# Poissons Ratio (z) = 0.19675 0.33171
#
# Static dielectric constant tensor:
#      x y z
#    x 3.867510 0.000000 0.000000 
#    y 0.000000 4.000450 0.000000 
#    z 0.000000 0.000000 3.850710 
# 
# 
# High freq. dielectric constant tensor:
#      x y z
#    x 1.872380 0.000000 0.000000 
#    y 0.000000 1.878210 0.000000 
#    z 0.000000 0.000000 1.874690 
# 
# From -- ./inp_files/2185.got.cif
#   From: 2010.03.12/outbox.cif.g09.slc.cpg/sg32_2_cif.got.tgz:2185.got - 2010.04.14 01:46:39.
