data_PCOD8170772
_publ_section_title
;
Structure prediction by ZEFSAII (Michael W. Deem and Ramdas Pophale) SiO2 
 PCOD8170772
Probable space group: P N A 21
;
_chemical_formula_sum "Si O2"
_cell_formula_units_Z 28
_cell_length_a 15.097540
_cell_length_b 10.653064
_cell_length_c 7.954967
_cell_angle_alpha 90.000000
_cell_angle_beta 90.000000
_cell_angle_gamma 90.000000
_cell_volume 1279.437594
_symmetry_space_group_name_H-M "P N A 21"
_symmetry_group_IT_number 33
_symmetry_cell_setting 'orthorhombic'
loop_
_space_group_symop_operation_xyz
x,y,z
-x,-y,1/2+z
1/2-x,1/2+y,1/2+z
1/2+x,1/2-y,z
loop_
_atom_site_type_symbol
_atom_site_label
_atom_site_fract_x
_atom_site_fract_y
_atom_site_fract_z
Si Si1 0.815451 0.218148 0.789460
Si Si2 0.505843 0.678148 0.455183
Si Si3 0.234756 0.140956 0.510566
Si Si4 0.661074 0.206417 0.057936
Si Si5 0.265845 0.539771 0.672343
Si Si6 0.596237 0.508682 0.712396
Si Si7 0.727901 0.091336 0.369506
O O1 0.906366 0.243245 0.884002
O O2 0.798992 0.341186 0.672277
O O3 0.822711 0.088958 0.682411
O O4 0.733274 0.196151 0.913043
O O5 0.438919 0.794548 0.488982
O O6 0.530282 0.607838 0.627774
O O7 0.461355 0.585069 0.322664
O O8 0.282901 0.069671 0.352041
O O9 0.147404 0.064312 0.562929
O O10 0.203840 0.279299 0.459569
O O11 0.669705 0.342982 0.145242
O O12 0.675589 0.091595 0.190602
O O13 0.202805 0.520211 0.505160
O O14 0.667244 0.580499 0.829192
#
# Coordination Sequence:
#
# PCOD8170772 Si02
#       7
#     4   4   4   4   4   4   4
#     4  11  21  39  61  97 132 171 210 275 336 389
#     4  12  24  36  66 100 134 162 230 278 326 400
#     4  10  21  37  62  95 128 174 210 269 344 394
#     4  11  21  39  61  97 132 171 210 275 336 389
#     4  10  19  38  62  89 128 174 217 262 332 395
#     4  12  23  40  64 101 128 164 213 294 328 387
#     4  10  21  37  62  95 128 174 210 269 344 394
#
# _framework density 21.884613999999999
#
# number of rings (size 3 to 8) (size 9 to 14) (size 15 to 20)
#    0.000    1.143    5.714    0.857    4.000    0.000 
#    0.000    0.000    0.000    5.143    0.000    0.000 
#    0.000    0.000    0.000    0.000    0.000    0.000 
#
# Total GULP energy -346929.809669 kJ/mol
# GULP energy per Si atom -12390.350345 kJ/mol
# Density = 2.183480 g / cm^3
# Si number density = 21.884614 Si / 1000 Ang^3
#
#
#
# Elastic Constant Matrix: (Units=GPa)
#
#
# Indices 1 2 3 4 5 6 
#
# 1 57.9020 7.3951 16.9376 0.0000 0.0000 0.0000
# 2 7.3951 41.2172 15.0476 0.0000 0.0000 0.0000
# 3 16.9376 15.0476 146.8071 0.0000 0.0000 0.0000
# 4 0.0000 0.0000 0.0000 59.9880 0.0000 0.0000
# 5 0.0000 0.0000 0.0000 0.0000 23.9630 0.0000
# 6 0.0000 0.0000 0.0000 0.0000 0.0000 32.1239
#
#
#
# Elastic Compliance Matrix: (Units=1/GPa)
#
#
# Indices 1 2 3 4 5 6 
#
# 1 0.018135 -0.002587 -0.001827 0.000000 0.000000 0.000000
# 2 -0.002587 0.025574 -0.002323 0.000000 0.000000 0.000000
# 3 -0.001827 -0.002323 0.007261 0.000000 0.000000 0.000000
# 4 0.000000 0.000000 0.000000 0.016670 0.000000 0.000000
# 5 0.000000 0.000000 0.000000 0.000000 0.041731 0.000000
# 6 0.000000 0.000000 0.000000 0.000000 0.000000 0.031130
#
#
# Mechanical properties :
#
#
# Convention : Reuss Voigt Hill
#
# Bulk Modulus (GPa) = 26.66934 36.07633 31.37284
# Shear Modulus (GPa) = 30.03495 36.98469 33.50982
#
# Velocity S-wave (km/s) = 3.70864 4.11540 3.91731
# Velocity P-wave (km/s) = 5.52734 6.25321 5.90145
#
# Compressibility (1/GPa) = 0.03749624
#
# Stress axis : x y z
#
# Youngs Moduli (GPa) = 55.14072 39.10246 137.73042
#
# Poissons Ratio (x) = 0.10115 0.25166
# Poissons Ratio (y) = 0.14263 0.31993
# Poissons Ratio (z) = 0.10075 0.09083
#
# Static dielectric constant tensor:
#      x y z
#    x 3.655120 0.000000 0.000000 
#    y 0.000000 4.129160 0.000000 
#    z 0.000000 0.000000 4.741280 
# 
# 
# High freq. dielectric constant tensor:
#      x y z
#    x 1.803240 0.000000 0.000000 
#    y 0.000000 1.862100 0.000000 
#    z 0.000000 0.000000 1.897350 
# 
# From -- ./inp_files/4349.got.cif
#   From: 2010.03.12/outbox.cif.g09.slc.cpg/sg33_3_cif.got.tgz:4349.got - 2010.04.14 01:49:19.
