data_PCOD8170427
_publ_section_title
;
Structure prediction by ZEFSAII (Michael W. Deem and Ramdas Pophale) SiO2 
 PCOD8170427
Probable space group: P B A 2
;
_chemical_formula_sum "Si O2"
_cell_formula_units_Z 32
_cell_length_a 12.011368
_cell_length_b 12.406397
_cell_length_c 9.194591
_cell_angle_alpha 90.000000
_cell_angle_beta 90.000000
_cell_angle_gamma 90.000000
_cell_volume 1370.157722
_symmetry_space_group_name_H-M "P B A 2"
_symmetry_group_IT_number 32
_symmetry_cell_setting 'orthorhombic'
loop_
_space_group_symop_operation_xyz
x,y,z
-x,-y,z
1/2-x,1/2+y,z
1/2+x,1/2-y,z
loop_
_atom_site_type_symbol
_atom_site_label
_atom_site_fract_x
_atom_site_fract_y
_atom_site_fract_z
Si Si1 0.404034 0.920725 0.369270
Si Si2 0.069369 0.181226 0.707273
Si Si3 0.635696 0.338076 0.131753
Si Si4 0.264983 0.089458 0.877979
Si Si5 0.607094 0.067746 0.696979
Si Si6 0.570143 0.718264 0.959593
Si Si7 0.794332 0.157304 0.215412
Si Si8 0.993713 0.821704 0.389440
O O1 0.359005 0.954140 0.529101
O O2 0.300448 0.930589 0.256142
O O3 0.454061 0.801206 0.372430
O O4 0.500000 0.000000 0.313039
O O5 0.189805 0.136646 0.747942
O O6 0.080792 0.308914 0.720449
O O7 0.032766 0.136506 0.550404
O O8 0.967427 0.151122 0.816210
O O9 0.737498 0.272692 0.197952
O O10 0.574357 0.394126 0.270198
O O11 0.686910 0.426350 0.020765
O O12 0.545502 0.259319 0.049468
O O13 0.366105 0.171869 0.915169
O O14 0.303227 0.973846 0.815831
O O15 0.500000 0.000000 0.735436
O O16 0.643802 0.637628 0.060943
O O17 0.876118 0.167840 0.354122
#
# Coordination Sequence:
#
# PCOD8170427 Si02
#       8
#     4   4   4   4   4   4   4   4
#     4   9  19  35  54  90 129 156 209 279 318 381
#     4  10  20  33  59  99 122 164 221 268 329 399
#     4   8  17  33  55  86 116 158 211 254 314 403
#     4  10  19  34  62  84 124 173 204 273 333 387
#     4  10  19  36  56  92 129 156 215 281 320 378
#     4   9  17  32  58  85 119 158 211 259 318 393
#     4   9  17  34  62  83 119 169 202 259 327 386
#     4   9  18  34  59  91 120 159 216 263 316 396
#
# _framework density 23.354977000000002
#
# number of rings (size 3 to 8) (size 9 to 14) (size 15 to 20)
#    0.000    2.750    1.250    0.000    0.000    3.000 
#    0.000    0.000   66.000    6.750    3.250    0.000 
#    0.000    0.000    0.000    0.000    0.000    0.000 
#
# Total GULP energy -396424.797925 kJ/mol
# GULP energy per Si atom -12388.274935 kJ/mol
# Density = 2.330182 g / cm^3
# Si number density = 23.354977 Si / 1000 Ang^3
#
#
#
# Elastic Constant Matrix: (Units=GPa)
#
#
# Indices 1 2 3 4 5 6 
#
# 1 132.0556 23.6888 83.2044 0.0000 0.0000 0.0000
# 2 23.6888 33.4370 22.8064 0.0000 0.0000 0.0000
# 3 83.2044 22.8064 178.3118 0.0000 0.0000 0.0000
# 4 0.0000 0.0000 0.0000 1.2886 0.0000 0.0000
# 5 0.0000 0.0000 0.0000 0.0000 48.1520 0.0000
# 6 0.0000 0.0000 0.0000 0.0000 0.0000 30.2733
#
#
#
# Elastic Compliance Matrix: (Units=1/GPa)
#
#
# Indices 1 2 3 4 5 6 
#
# 1 0.011409 -0.004877 -0.004700 0.000000 0.000000 0.000000
# 2 -0.004877 0.034850 -0.002182 0.000000 0.000000 0.000000
# 3 -0.004700 -0.002182 0.008080 0.000000 0.000000 0.000000
# 4 0.000000 0.000000 0.000000 0.776063 0.000000 0.000000
# 5 0.000000 0.000000 0.000000 0.000000 0.020768 0.000000
# 6 0.000000 0.000000 0.000000 0.000000 0.000000 0.033032
#
#
# Mechanical properties :
#
#
# Convention : Reuss Voigt Hill
#
# Bulk Modulus (GPa) = 32.44419 67.02262 49.73341
# Shear Modulus (GPa) = 5.44667 30.21642 17.83154
#
# Velocity S-wave (km/s) = 1.52879 3.60083 2.76615
# Velocity P-wave (km/s) = 4.12773 6.78584 5.61631
#
# Compressibility (1/GPa) = 0.03082216
#
# Stress axis : x y z
#
# Youngs Moduli (GPa) = 87.65318 28.69427 123.75926
#
# Poissons Ratio (x) = 0.13994 0.58164
# Poissons Ratio (y) = 0.42748 0.27000
# Poissons Ratio (z) = 0.41195 0.06260
#
# Static dielectric constant tensor:
#      x y z
#    x 4.469980 0.000000 0.000000 
#    y 0.000000 4.836410 0.000000 
#    z 0.000000 0.000000 4.796600 
# 
# 
# High freq. dielectric constant tensor:
#      x y z
#    x 1.936470 0.000000 0.000000 
#    y 0.000000 1.877050 0.000000 
#    z 0.000000 0.000000 1.940310 
# 
# From -- ./inp_files/2882.got.cif
#   From: 2010.03.12/outbox.cif.g09.slc.cpg/sg32_2_cif.got.tgz:2882.got - 2010.04.14 01:46:39.
