data_PCOD8170257
_publ_section_title
;
Structure prediction by ZEFSAII (Michael W. Deem and Ramdas Pophale) SiO2 
 PCOD8170257
Probable space group: P M N 21
;
_chemical_formula_sum "Si O2"
_cell_formula_units_Z 32
_cell_length_a 8.616232
_cell_length_b 11.987971
_cell_length_c 15.219658
_cell_angle_alpha 90.000000
_cell_angle_beta 90.000000
_cell_angle_gamma 90.000000
_cell_volume 1572.055815
_symmetry_space_group_name_H-M "P M N 21"
_symmetry_group_IT_number 31
_symmetry_cell_setting 'orthorhombic'
loop_
_space_group_symop_operation_xyz
x,y,z
1/2-x,-y,1/2+z
-x,y,z
1/2+x,-y,1/2+z
loop_
_atom_site_type_symbol
_atom_site_label
_atom_site_fract_x
_atom_site_fract_y
_atom_site_fract_z
Si Si1 0.324868 0.533344 0.605040
Si Si2 0.178629 0.474711 0.781909
Si Si3 0.824440 0.242821 0.010708
Si Si4 0.181999 0.400821 0.444584
Si Si5 0.815490 0.989386 0.287345
Si Si6 0.320362 0.256235 0.833116
Si Si7 0.683508 0.856182 0.944432
Si Si8 0.316302 0.989585 0.590130
O O1 0.500000 0.497985 0.631222
O O2 0.207580 0.520536 0.685127
O O3 0.319720 0.664535 0.585599
O O4 0.275128 0.459625 0.522251
O O5 0.282437 0.540036 0.852355
O O6 0.223914 0.344607 0.776562
O O7 0.000000 0.489147 0.808274
O O8 0.762147 0.126463 0.048191
O O9 0.000000 0.230458 0.973868
O O10 0.708070 0.282964 0.935165
O O11 0.236026 0.272159 0.438557
O O12 0.000000 0.410004 0.463979
O O13 0.756284 0.866951 0.313991
O O14 0.000000 0.994902 0.288073
O O15 0.750007 0.078385 0.358508
O O16 0.750711 0.011812 0.189644
O O17 0.500000 0.268444 0.809139
O O18 0.500000 0.867355 0.946864
O O19 0.748294 0.908191 0.034473
O O20 0.500000 0.002074 0.591692
#
# Coordination Sequence:
#
# PCOD8170257 Si02
#       8
#     4   4   4   4   4   4   4   4
#     4  11  24  42  65  92 125 166 209 255 313 371
#     4  12  26  43  63  91 127 163 208 260 312 371
#     4  10  21  38  63  91 121 158 204 260 312 362
#     4  11  24  42  65  92 125 166 209 257 314 371
#     4   9  20  38  61  89 119 158 199 245 302 362
#     4  11  21  38  65  90 120 159 206 255 309 370
#     4  10  22  41  62  87 123 161 202 252 304 363
#     4  10  21  38  62  90 122 161 205 248 302 366
#
# _framework density 20.355511
#
# number of rings (size 3 to 8) (size 9 to 14) (size 15 to 20)
#    0.000    1.500    2.500    2.250    3.500    1.500 
#    0.000    1.250    0.000    0.000    0.000    0.000 
#    0.000    0.000    0.000    0.000    0.000    0.000 
#
# Total GULP energy -396899.558379 kJ/mol
# GULP energy per Si atom -12403.111199 kJ/mol
# Density = 2.030918 g / cm^3
# Si number density = 20.355511 Si / 1000 Ang^3
#
#
#
# Elastic Constant Matrix: (Units=GPa)
#
#
# Indices 1 2 3 4 5 6 
#
# 1 46.1217 23.2125 6.2519 0.0000 0.0000 0.0000
# 2 23.2125 115.6768 21.3493 0.0000 0.0000 0.0000
# 3 6.2519 21.3493 100.3390 0.0000 0.0000 0.0000
# 4 0.0000 0.0000 0.0000 31.2381 0.0000 0.0000
# 5 0.0000 0.0000 0.0000 0.0000 32.0037 0.0000
# 6 0.0000 0.0000 0.0000 0.0000 0.0000 24.3922
#
#
#
# Elastic Compliance Matrix: (Units=1/GPa)
#
#
# Indices 1 2 3 4 5 6 
#
# 1 0.024141 -0.004753 -0.000493 0.000000 0.000000 0.000000
# 2 -0.004753 0.009934 -0.001818 0.000000 0.000000 0.000000
# 3 -0.000493 -0.001818 0.010384 0.000000 0.000000 0.000000
# 4 0.000000 0.000000 0.000000 0.032012 0.000000 0.000000
# 5 0.000000 0.000000 0.000000 0.000000 0.031246 0.000000
# 6 0.000000 0.000000 0.000000 0.000000 0.000000 0.040997
#
#
# Mechanical properties :
#
#
# Convention : Reuss Voigt Hill
#
# Bulk Modulus (GPa) = 32.96925 40.41831 36.69378
# Shear Modulus (GPa) = 28.90984 31.61505 30.26245
#
# Velocity S-wave (km/s) = 3.77270 3.94527 3.85995
# Velocity P-wave (km/s) = 5.93377 6.37596 6.15883
#
# Compressibility (1/GPa) = 0.03033129
#
# Stress axis : x y z
#
# Youngs Moduli (GPa) = 41.42357 100.66383 96.30535
#
# Poissons Ratio (x) = 0.47849 0.04746
# Poissons Ratio (y) = 0.19690 0.17504
# Poissons Ratio (z) = 0.02041 0.18296
#
# Static dielectric constant tensor:
#      x y z
#    x 3.489420 0.000000 0.000000 
#    y 0.000000 3.934630 0.000000 
#    z 0.000000 0.000000 3.773860 
# 
# 
# High freq. dielectric constant tensor:
#      x y z
#    x 1.778980 0.000000 0.000000 
#    y 0.000000 1.809970 0.000000 
#    z 0.000000 0.000000 1.799710 
# 
# From -- ./inp_files/4952.got.cif
#   From: 2010.03.12/outbox.cif.g09.slc.cpg/sg31_3_cif.got.tgz:4952.got - 2010.04.14 01:42:59.
