data_PCOD8170975
_publ_section_title
;
Structure prediction by ZEFSAII (Michael W. Deem and Ramdas Pophale) SiO2 
 PCOD8170975
Probable space group: P N A 21
;
_chemical_formula_sum "Si O2"
_cell_formula_units_Z 28
_cell_length_a 9.201698
_cell_length_b 18.780718
_cell_length_c 8.628358
_cell_angle_alpha 90.000000
_cell_angle_beta 90.000000
_cell_angle_gamma 90.000000
_cell_volume 1491.105333
_symmetry_space_group_name_H-M "P N A 21"
_symmetry_group_IT_number 33
_symmetry_cell_setting 'orthorhombic'
loop_
_space_group_symop_operation_xyz
x,y,z
-x,-y,1/2+z
1/2-x,1/2+y,1/2+z
1/2+x,1/2-y,z
loop_
_atom_site_type_symbol
_atom_site_label
_atom_site_fract_x
_atom_site_fract_y
_atom_site_fract_z
Si Si1 0.917025 0.727612 0.956260
Si Si2 0.756975 0.807612 0.491821
Si Si3 0.551745 0.700329 0.657917
Si Si4 0.706728 0.108180 0.254364
Si Si5 0.472364 0.081117 0.025450
Si Si6 0.688455 0.816113 0.137316
Si Si7 0.412229 0.037770 0.706958
O O1 0.840336 0.653453 0.905832
O O2 0.994738 0.760659 0.808860
O O3 0.800769 0.785067 0.014061
O O4 0.028599 0.713124 0.095750
O O5 0.684199 0.744319 0.586155
O O6 0.683899 0.881805 0.546895
O O7 0.734012 0.793240 0.309869
O O8 0.926997 0.812913 0.531406
O O9 0.627345 0.625868 0.707667
O O10 0.694408 0.022804 0.282361
O O11 0.596793 0.127875 0.110468
O O12 0.504761 0.076600 0.841856
O O13 0.472642 0.000363 0.092704
O O14 0.684393 0.902445 0.119907
#
# Coordination Sequence:
#
# PCOD8170975 Si02
#       7
#     4   4   4   4   4   4   4
#     4  12  21  38  63  92 118 164 212 264 312 378
#     4  11  21  37  59  90 124 164 203 268 318 374
#     4  12  20  38  61  88 124 160 216 250 318 380
#     4  10  21  37  63  91 118 162 210 256 313 382
#     4   9  19  37  63  84 118 165 204 258 314 383
#     4  11  24  38  61  92 125 158 208 271 317 372
#     4   9  20  39  62  87 123 159 211 251 322 381
#
# _framework density 18.778016999999998
#
# number of rings (size 3 to 8) (size 9 to 14) (size 15 to 20)
#    0.857    0.571    4.286    1.714    0.000    1.143 
#    0.000    2.857    0.000    0.000    0.000    0.000 
#    0.000    0.000    0.000    0.000    0.000    0.000 
#
# Total GULP energy -346995.084994 kJ/mol
# GULP energy per Si atom -12392.681607 kJ/mol
# Density = 1.873528 g / cm^3
# Si number density = 18.778017 Si / 1000 Ang^3
#
#
#
# Elastic Constant Matrix: (Units=GPa)
#
#
# Indices 1 2 3 4 5 6 
#
# 1 103.3899 32.1203 36.7427 0.0000 0.0000 0.0000
# 2 32.1203 95.6142 28.9283 0.0000 0.0000 0.0000
# 3 36.7427 28.9283 80.1445 0.0000 0.0000 0.0000
# 4 0.0000 0.0000 0.0000 35.5169 0.0000 0.0000
# 5 0.0000 0.0000 0.0000 0.0000 29.7793 0.0000
# 6 0.0000 0.0000 0.0000 0.0000 0.0000 23.2971
#
#
#
# Elastic Compliance Matrix: (Units=1/GPa)
#
#
# Indices 1 2 3 4 5 6 
#
# 1 0.012140 -0.002688 -0.004596 0.000000 0.000000 0.000000
# 2 -0.002688 0.012336 -0.003220 0.000000 0.000000 0.000000
# 3 -0.004596 -0.003220 0.015747 0.000000 0.000000 0.000000
# 4 0.000000 0.000000 0.000000 0.028156 0.000000 0.000000
# 5 0.000000 0.000000 0.000000 0.000000 0.033580 0.000000
# 6 0.000000 0.000000 0.000000 0.000000 0.000000 0.042924
#
#
# Mechanical properties :
#
#
# Convention : Reuss Voigt Hill
#
# Bulk Modulus (GPa) = 52.04210 52.74791 52.39500
# Shear Modulus (GPa) = 29.01983 29.80914 29.41449
#
# Velocity S-wave (km/s) = 3.93544 3.98860 3.96211
# Velocity P-wave (km/s) = 6.95879 7.02589 6.99242
#
# Compressibility (1/GPa) = 0.01921521
#
# Stress axis : x y z
#
# Youngs Moduli (GPa) = 82.36968 81.06341 63.50520
#
# Poissons Ratio (x) = 0.21790 0.29184
# Poissons Ratio (y) = 0.22141 0.20451
# Poissons Ratio (z) = 0.37854 0.26106
#
# Static dielectric constant tensor:
#      x y z
#    x 3.350760 0.000000 0.000000 
#    y 0.000000 3.493540 0.000000 
#    z 0.000000 0.000000 3.467790 
# 
# 
# High freq. dielectric constant tensor:
#      x y z
#    x 1.709870 0.000000 0.000000 
#    y 0.000000 1.728760 0.000000 
#    z 0.000000 0.000000 1.734650 
# 
# From -- ./inp_files/3395.got.cif
#   From: 2010.03.12/outbox.cif.g09.slc.cpg/sg33_2_cif.got.tgz:3395.got - 2010.04.14 01:49:19.
