data_PCOD8170149
_publ_section_title
;
Structure prediction by ZEFSAII (Michael W. Deem and Ramdas Pophale) SiO2 
 PCOD8170149
Probable space group: P M N 21
;
_chemical_formula_sum "Si O2"
_cell_formula_units_Z 32
_cell_length_a 8.870450
_cell_length_b 14.472662
_cell_length_c 12.363218
_cell_angle_alpha 90.000000
_cell_angle_beta 90.000000
_cell_angle_gamma 90.000000
_cell_volume 1587.177868
_symmetry_space_group_name_H-M "P M N 21"
_symmetry_group_IT_number 31
_symmetry_cell_setting 'orthorhombic'
loop_
_space_group_symop_operation_xyz
x,y,z
1/2-x,-y,1/2+z
-x,y,z
1/2+x,-y,1/2+z
loop_
_atom_site_type_symbol
_atom_site_label
_atom_site_fract_x
_atom_site_fract_y
_atom_site_fract_z
Si Si1 0.677914 0.672395 0.031270
Si Si2 0.669349 0.129746 0.815625
Si Si3 0.321264 0.223340 0.117442
Si Si4 0.325020 0.358576 0.304217
Si Si5 0.675087 0.558424 0.235060
Si Si6 0.677774 0.877455 0.094578
Si Si7 0.332480 0.324143 0.904054
Si Si8 0.823102 0.053562 0.018648
O O1 0.500000 0.663177 0.028560
O O2 0.745098 0.608062 0.128266
O O3 0.727994 0.778241 0.048891
O O4 0.736901 0.638487 0.916138
O O5 0.500000 0.090224 0.835628
O O6 0.730698 0.097128 0.701651
O O7 0.665035 0.240368 0.818861
O O8 0.789784 0.096460 0.902729
O O9 0.500000 0.206280 0.104543
O O10 0.278419 0.270345 0.231407
O O11 0.266403 0.290161 0.019528
O O12 0.237806 0.124434 0.110819
O O13 0.500000 0.354257 0.333235
O O14 0.288675 0.449498 0.232794
O O15 0.500000 0.579948 0.234830
O O16 0.734872 0.596017 0.349724
O O17 0.500000 0.880517 0.116146
O O18 0.731325 0.957575 0.014367
O O19 0.500000 0.364026 0.922797
O O20 0.000000 0.036652 0.035303
#
# Coordination Sequence:
#
# PCOD8170149 Si02
#       8
#     4   4   4   4   4   4   4   4
#     4  10  23  41  62  88 123 158 198 250 304 362
#     4  10  20  37  59  86 117 152 199 252 302 362
#     4   9  20  40  60  84 119 160 204 253 304 357
#     4  10  23  40  61  87 123 164 203 249 305 364
#     4  10  21  38  59  87 119 154 197 247 299 358
#     4  11  22  39  62  88 120 161 202 253 309 362
#     4   9  18  33  59  86 111 148 194 247 299 353
#     4  11  23  38  60  90 122 161 205 253 306 368
#
# _framework density 20.161573000000001
#
# number of rings (size 3 to 8) (size 9 to 14) (size 15 to 20)
#    0.000    2.000    1.250    2.625    1.750    5.500 
#    0.000    2.500    0.000    0.000    0.000    0.000 
#    0.000    0.000    0.000    0.000    0.000    0.000 
#
# Total GULP energy -396758.424739 kJ/mol
# GULP energy per Si atom -12398.700773 kJ/mol
# Density = 2.011568 g / cm^3
# Si number density = 20.161573 Si / 1000 Ang^3
#
#
#
# Elastic Constant Matrix: (Units=GPa)
#
#
# Indices 1 2 3 4 5 6 
#
# 1 57.1909 37.5314 25.8276 0.0000 0.0000 0.0000
# 2 37.5314 100.1584 34.3629 0.0000 0.0000 0.0000
# 3 25.8276 34.3629 89.4572 0.0000 0.0000 0.0000
# 4 0.0000 0.0000 0.0000 23.6624 0.0000 0.0000
# 5 0.0000 0.0000 0.0000 0.0000 33.6323 0.0000
# 6 0.0000 0.0000 0.0000 0.0000 0.0000 28.5962
#
#
#
# Elastic Compliance Matrix: (Units=1/GPa)
#
#
# Indices 1 2 3 4 5 6 
#
# 1 0.024410 -0.007750 -0.004070 0.000000 0.000000 0.000000
# 2 -0.007750 0.013961 -0.003125 0.000000 0.000000 0.000000
# 3 -0.004070 -0.003125 0.013554 0.000000 0.000000 0.000000
# 4 0.000000 0.000000 0.000000 0.042261 0.000000 0.000000
# 5 0.000000 0.000000 0.000000 0.000000 0.029733 0.000000
# 6 0.000000 0.000000 0.000000 0.000000 0.000000 0.034970
#
#
# Mechanical properties :
#
#
# Convention : Reuss Voigt Hill
#
# Bulk Modulus (GPa) = 45.38651 49.13895 47.26273
# Shear Modulus (GPa) = 25.49409 27.11714 26.30562
#
# Velocity S-wave (km/s) = 3.55982 3.67139 3.61604
# Velocity P-wave (km/s) = 6.28146 6.51135 6.39744
#
# Compressibility (1/GPa) = 0.02203298
#
# Stress axis : x y z
#
# Youngs Moduli (GPa) = 40.96753 71.63060 73.77849
#
# Poissons Ratio (x) = 0.55516 0.30030
# Poissons Ratio (y) = 0.31751 0.23056
# Poissons Ratio (z) = 0.16675 0.22384
#
# Static dielectric constant tensor:
#      x y z
#    x 3.497310 0.000000 0.000000 
#    y 0.000000 3.772650 0.000000 
#    z 0.000000 0.000000 3.550300 
# 
# 
# High freq. dielectric constant tensor:
#      x y z
#    x 1.775780 0.000000 0.000000 
#    y 0.000000 1.788270 0.000000 
#    z 0.000000 0.000000 1.784520 
# 
# From -- ./inp_files/3680.got.cif
#   From: 2010.03.12/outbox.cif.g09.slc.cpg/sg31_2_cif.got.tgz:3680.got - 2010.04.14 01:42:59.
