data_PCOD8170743
_publ_section_title
;
Structure prediction by ZEFSAII (Michael W. Deem and Ramdas Pophale) SiO2 
 PCOD8170743
Probable space group: P N A 21
;
_chemical_formula_sum "Si O2"
_cell_formula_units_Z 28
_cell_length_a 10.094982
_cell_length_b 25.317966
_cell_length_c 5.060203
_cell_angle_alpha 90.000000
_cell_angle_beta 90.000000
_cell_angle_gamma 90.000000
_cell_volume 1293.309004
_symmetry_space_group_name_H-M "P N A 21"
_symmetry_group_IT_number 33
_symmetry_cell_setting 'orthorhombic'
loop_
_space_group_symop_operation_xyz
x,y,z
-x,-y,1/2+z
1/2-x,1/2+y,1/2+z
1/2+x,1/2-y,z
loop_
_atom_site_type_symbol
_atom_site_label
_atom_site_fract_x
_atom_site_fract_y
_atom_site_fract_z
Si Si1 0.765156 0.642168 0.322000
Si Si2 0.042482 0.685218 0.272385
Si Si3 0.562124 0.370096 0.221558
Si Si4 0.141969 0.632271 0.776127
Si Si5 0.984896 0.194939 0.720871
Si Si6 0.200238 0.916504 0.823326
Si Si7 0.040510 0.469267 0.229920
O O1 0.675075 0.692631 0.251210
O O2 0.752724 0.630790 0.634135
O O3 0.916439 0.647763 0.248316
O O4 0.712088 0.594657 0.135401
O O5 0.119579 0.673800 0.541354
O O6 0.982395 0.743900 0.260235
O O7 0.138392 0.669141 0.034310
O O8 0.710647 0.392679 0.256219
O O9 0.529998 0.324405 0.433347
O O10 0.457871 0.419735 0.252715
O O11 0.552911 0.343184 0.935132
O O12 0.033392 0.585960 0.784248
O O13 0.298364 0.965392 0.757390
O O14 0.989767 0.513423 0.431887
#
# Coordination Sequence:
#
# PCOD8170743 Si02
#       7
#     4   4   4   4   4   4   4
#     4  10  19  36  60  83 121 162 205 231 290 355
#     4  12  22  38  60  90 129 159 210 248 292 345
#     4  10  23  42  62  87 131 163 205 241 303 359
#     4  12  25  41  62  92 122 161 196 261 307 350
#     4  10  23  37  59  90 124 172 205 242 283 354
#     4  10  20  42  61  87 117 162 191 246 304 359
#     4  12  24  42  66  93 116 149 204 255 313 378
#
# _framework density 21.649891
#
# number of rings (size 3 to 8) (size 9 to 14) (size 15 to 20)
#    0.000    1.143    2.857    3.429    4.000    0.000 
#    0.000    1.429    0.000    0.000    0.000    0.000 
#    0.000    0.000    0.000    0.000    0.000    0.000 
#
# Total GULP energy -347027.143065 kJ/mol
# GULP energy per Si atom -12393.826538 kJ/mol
# Density = 2.160061 g / cm^3
# Si number density = 21.649891 Si / 1000 Ang^3
#
#
#
# Elastic Constant Matrix: (Units=GPa)
#
#
# Indices 1 2 3 4 5 6 
#
# 1 113.0111 -4.6994 5.2406 0.0000 0.0000 0.0000
# 2 -4.6994 38.6384 7.1870 0.0000 0.0000 0.0000
# 3 5.2406 7.1870 104.7749 0.0000 0.0000 0.0000
# 4 0.0000 0.0000 0.0000 25.1461 0.0000 0.0000
# 5 0.0000 0.0000 0.0000 0.0000 21.1118 0.0000
# 6 0.0000 0.0000 0.0000 0.0000 0.0000 17.2728
#
#
#
# Elastic Compliance Matrix: (Units=1/GPa)
#
#
# Indices 1 2 3 4 5 6 
#
# 1 0.008922 0.001183 -0.000527 0.000000 0.000000 0.000000
# 2 0.001183 0.026372 -0.001868 0.000000 0.000000 0.000000
# 3 -0.000527 -0.001868 0.009699 0.000000 0.000000 0.000000
# 4 0.000000 0.000000 0.000000 0.039768 0.000000 0.000000
# 5 0.000000 0.000000 0.000000 0.000000 0.047367 0.000000
# 6 0.000000 0.000000 0.000000 0.000000 0.000000 0.057894
#
#
# Mechanical properties :
#
#
# Convention : Reuss Voigt Hill
#
# Bulk Modulus (GPa) = 23.49133 30.20895 26.85014
# Shear Modulus (GPa) = 24.19705 29.28589 26.74147
#
# Velocity S-wave (km/s) = 3.34676 3.68190 3.51832
# Velocity P-wave (km/s) = 5.08021 5.66206 5.37900
#
# Compressibility (1/GPa) = 0.04256889
#
# Stress axis : x y z
#
# Youngs Moduli (GPa) = 112.07802 37.91845 103.10553
#
# Poissons Ratio (x) = -0.04487 0.05438
# Poissons Ratio (y) = -0.13262 0.19262
# Poissons Ratio (z) = 0.05911 0.07084
#
# Static dielectric constant tensor:
#      x y z
#    x 4.244680 0.000000 0.000000 
#    y 0.000000 3.415130 0.000000 
#    z 0.000000 0.000000 4.053650 
# 
# 
# High freq. dielectric constant tensor:
#      x y z
#    x 1.864810 0.000000 0.000000 
#    y 0.000000 1.798970 0.000000 
#    z 0.000000 0.000000 1.873560 
# 
# From -- ./inp_files/474.got.cif
#   From: 2010.03.12/outbox.cif.g09.slc.cpg/sg33_1_cif.got.tgz:474.got - 2010.04.14 01:49:19.
