data_PCOD8170746
_publ_section_title
;
Structure prediction by ZEFSAII (Michael W. Deem and Ramdas Pophale) SiO2 
 PCOD8170746
Probable space group: P N A 21
;
_chemical_formula_sum "Si O2"
_cell_formula_units_Z 32
_cell_length_a 16.990446
_cell_length_b 7.838330
_cell_length_c 12.175136
_cell_angle_alpha 90.000000
_cell_angle_beta 90.000000
_cell_angle_gamma 90.000000
_cell_volume 1621.444710
_symmetry_space_group_name_H-M "P N A 21"
_symmetry_group_IT_number 33
_symmetry_cell_setting 'orthorhombic'
loop_
_space_group_symop_operation_xyz
x,y,z
-x,-y,1/2+z
1/2-x,1/2+y,1/2+z
1/2+x,1/2-y,z
loop_
_atom_site_type_symbol
_atom_site_label
_atom_site_fract_x
_atom_site_fract_y
_atom_site_fract_z
Si Si1 0.669503 0.304252 0.645880
Si Si2 0.590822 0.163202 0.430412
Si Si3 0.092510 0.669798 0.907487
Si Si4 0.697887 0.114355 0.853964
Si Si5 0.697547 0.878016 0.476715
Si Si6 0.680561 0.617416 0.074711
Si Si7 0.181750 0.139524 0.254226
Si Si8 0.825408 0.192060 0.190860
O O1 0.613193 0.222193 0.553512
O O2 0.649797 0.227539 0.765953
O O3 0.761716 0.260248 0.626503
O O4 0.653206 0.504300 0.649082
O O5 0.499742 0.139107 0.409639
O O6 0.618996 0.308104 0.344942
O O7 0.631191 0.978683 0.406623
O O8 0.133056 0.483921 0.928073
O O9 0.119539 0.758364 0.793866
O O10 0.110512 0.792063 0.010371
O O11 0.765816 0.214424 0.918147
O O12 0.742882 0.960074 0.798153
O O13 0.657541 0.825259 0.592013
O O14 0.768941 0.010199 0.488108
O O15 0.642273 0.484187 0.162667
O O16 0.229660 0.305078 0.209257
#
# Coordination Sequence:
#
# PCOD8170746 Si02
#       8
#     4   4   4   4   4   4   4   4
#     4  10  19  36  61  83 108 149 197 243 286 342
#     4  11  22  36  54  84 123 152 183 238 300 353
#     4  11  22  36  54  84 123 152 183 238 300 353
#     4  10  19  37  61  82 105 145 196 238 280 339
#     4  10  19  37  61  82 105 145 196 238 280 339
#     4   9  19  35  56  81 108 146 196 235 273 336
#     4   9  19  35  56  81 108 146 196 235 273 336
#     4  10  19  36  61  83 108 149 197 243 286 342
#
# _framework density 19.735486999999999
#
# number of rings (size 3 to 8) (size 9 to 14) (size 15 to 20)
#    0.000    2.000    0.000    8.250    0.000    1.000 
#    0.000   17.500    0.000    0.000    0.000    0.000 
#    0.000    0.000    0.000    0.000    0.000    0.000 
#
# Total GULP energy -396547.113446 kJ/mol
# GULP energy per Si atom -12392.097295 kJ/mol
# Density = 1.969057 g / cm^3
# Si number density = 19.735487 Si / 1000 Ang^3
#
#
#
# Elastic Constant Matrix: (Units=GPa)
#
#
# Indices 1 2 3 4 5 6 
#
# 1 87.3754 42.2706 45.5478 0.0000 0.0000 0.0000
# 2 42.2706 94.9518 33.2162 0.0000 0.0000 0.0000
# 3 45.5478 33.2162 98.6429 0.0000 0.0000 0.0000
# 4 0.0000 0.0000 0.0000 29.9921 0.0000 0.0000
# 5 0.0000 0.0000 0.0000 0.0000 17.9585 0.0000
# 6 0.0000 0.0000 0.0000 0.0000 0.0000 20.6000
#
#
#
# Elastic Compliance Matrix: (Units=1/GPa)
#
#
# Indices 1 2 3 4 5 6 
#
# 1 0.017336 -0.005574 -0.006128 0.000000 0.000000 0.000000
# 2 -0.005574 0.013730 -0.002050 0.000000 0.000000 0.000000
# 3 -0.006128 -0.002050 0.013657 0.000000 0.000000 0.000000
# 4 0.000000 0.000000 0.000000 0.033342 0.000000 0.000000
# 5 0.000000 0.000000 0.000000 0.000000 0.055684 0.000000
# 6 0.000000 0.000000 0.000000 0.000000 0.000000 0.048544
#
#
# Mechanical properties :
#
#
# Convention : Reuss Voigt Hill
#
# Bulk Modulus (GPa) = 58.07063 58.11550 58.09306
# Shear Modulus (GPa) = 23.19803 24.37249 23.78526
#
# Velocity S-wave (km/s) = 3.43220 3.51801 3.47537
# Velocity P-wave (km/s) = 6.72272 6.78329 6.75307
#
# Compressibility (1/GPa) = 0.01722041
#
# Stress axis : x y z
#
# Youngs Moduli (GPa) = 57.68427 72.83294 73.22131
#
# Poissons Ratio (x) = 0.40596 0.44868
# Poissons Ratio (y) = 0.32153 0.15008
# Poissons Ratio (z) = 0.35348 0.14928
#
# Static dielectric constant tensor:
#      x y z
#    x 3.179060 0.000000 0.000000 
#    y 0.000000 3.812440 0.000000 
#    z 0.000000 0.000000 3.758050 
# 
# 
# High freq. dielectric constant tensor:
#      x y z
#    x 1.724250 0.000000 0.000000 
#    y 0.000000 1.783910 0.000000 
#    z 0.000000 0.000000 1.772340 
# 
# From -- ./inp_files/7073.got.cif
#   From: 2010.03.12/outbox.cif.g09.slc.cpg/sg33_4_cif.got.tgz:7073.got - 2010.04.14 01:49:19.
