data_PCOD8170725
_publ_section_title
;
Structure prediction by ZEFSAII (Michael W. Deem and Ramdas Pophale) SiO2 
 PCOD8170725
Probable space group: P N A 21
;
_chemical_formula_sum "Si O2"
_cell_formula_units_Z 32
_cell_length_a 9.159150
_cell_length_b 10.644364
_cell_length_c 15.774878
_cell_angle_alpha 90.000000
_cell_angle_beta 90.000000
_cell_angle_gamma 90.000000
_cell_volume 1537.945332
_symmetry_space_group_name_H-M "P N A 21"
_symmetry_group_IT_number 33
_symmetry_cell_setting 'orthorhombic'
loop_
_space_group_symop_operation_xyz
x,y,z
-x,-y,1/2+z
1/2-x,1/2+y,1/2+z
1/2+x,1/2-y,z
loop_
_atom_site_type_symbol
_atom_site_label
_atom_site_fract_x
_atom_site_fract_y
_atom_site_fract_z
Si Si1 0.611959 0.012394 0.597300
Si Si2 0.879317 0.350678 0.697716
Si Si3 0.321987 0.423639 0.735947
Si Si4 0.661063 0.277758 0.987708
Si Si5 0.433215 0.902534 0.351981
Si Si6 0.634268 0.545464 0.752913
Si Si7 0.912672 0.221616 0.099373
Si Si8 0.200904 0.483080 0.415282
O O1 0.476960 0.104359 0.618252
O O2 0.735374 0.992850 0.668536
O O3 0.551630 0.870466 0.593028
O O4 0.688027 0.068344 0.511437
O O5 0.815138 0.211686 0.688469
O O6 0.751230 0.450555 0.712849
O O7 0.989293 0.332137 0.775270
O O8 0.232834 0.433070 0.824905
O O9 0.481120 0.473989 0.757817
O O10 0.562254 0.186371 0.932646
O O11 0.739485 0.374384 0.923922
O O12 0.773321 0.193132 0.041227
O O13 0.552966 0.346570 0.055766
O O14 0.536385 0.021212 0.376001
O O15 0.615361 0.669027 0.694314
O O16 0.690064 0.586666 0.848085
#
# Coordination Sequence:
#
# PCOD8170725 Si02
#       8
#     4   4   4   4   4   4   4   4
#     4  10  21  42  62  85 126 171 205 252 317 378
#     4  10  21  37  61  84 120 162 205 252 314 368
#     4  11  22  37  63  91 122 156 208 257 314 368
#     4  11  19  35  59  92 122 154 212 264 308 353
#     4  10  19  35  58  89 117 149 194 264 315 346
#     4  11  22  36  59  95 123 156 207 264 316 365
#     4  11  23  36  62  91 126 163 204 262 316 375
#     4  10  21  36  58  87 124 163 203 251 306 375
#
# _framework density 20.806982000000001
#
# number of rings (size 3 to 8) (size 9 to 14) (size 15 to 20)
#    0.000    1.500    2.500    6.000    1.750    0.000 
#    0.000    0.000   13.750    0.000    0.000    0.000 
#    0.000    0.000    0.000    0.000    0.000    0.000 
#
# Total GULP energy -396433.068482 kJ/mol
# GULP energy per Si atom -12388.533390 kJ/mol
# Density = 2.075962 g / cm^3
# Si number density = 20.806982 Si / 1000 Ang^3
#
#
#
# Elastic Constant Matrix: (Units=GPa)
#
#
# Indices 1 2 3 4 5 6 
#
# 1 128.9989 15.4762 45.7021 0.0000 0.0000 0.0000
# 2 15.4762 39.6684 27.0666 0.0000 0.0000 0.0000
# 3 45.7021 27.0666 125.9859 0.0000 0.0000 0.0000
# 4 0.0000 0.0000 0.0000 32.7067 0.0000 0.0000
# 5 0.0000 0.0000 0.0000 0.0000 45.3574 0.0000
# 6 0.0000 0.0000 0.0000 0.0000 0.0000 17.4417
#
#
#
# Elastic Compliance Matrix: (Units=1/GPa)
#
#
# Indices 1 2 3 4 5 6 
#
# 1 0.008971 -0.001499 -0.002932 0.000000 0.000000 0.000000
# 2 -0.001499 0.029790 -0.005856 0.000000 0.000000 0.000000
# 3 -0.002932 -0.005856 0.010259 0.000000 0.000000 0.000000
# 4 0.000000 0.000000 0.000000 0.030575 0.000000 0.000000
# 5 0.000000 0.000000 0.000000 0.000000 0.022047 0.000000
# 6 0.000000 0.000000 0.000000 0.000000 0.000000 0.057334
#
#
# Mechanical properties :
#
#
# Convention : Reuss Voigt Hill
#
# Bulk Modulus (GPa) = 35.15598 52.34923 43.75261
# Shear Modulus (GPa) = 26.45063 32.86171 29.65617
#
# Velocity S-wave (km/s) = 3.56931 3.97843 3.77941
# Velocity P-wave (km/s) = 5.82405 6.80573 6.33394
#
# Compressibility (1/GPa) = 0.02844466
#
# Stress axis : x y z
#
# Youngs Moduli (GPa) = 111.47469 33.56873 97.47407
#
# Poissons Ratio (x) = 0.05033 0.28580
# Poissons Ratio (y) = 0.16712 0.57082
# Poissons Ratio (z) = 0.32685 0.19658
#
# Static dielectric constant tensor:
#      x y z
#    x 4.116200 0.000000 0.000000 
#    y 0.000000 3.270840 0.000000 
#    z 0.000000 0.000000 3.970340 
# 
# 
# High freq. dielectric constant tensor:
#      x y z
#    x 1.840450 0.000000 0.000000 
#    y 0.000000 1.759300 0.000000 
#    z 0.000000 0.000000 1.823100 
# 
# From -- ./inp_files/7705.got.cif
#   From: 2010.03.12/outbox.cif.g09.slc.cpg/sg33_4_cif.got.tgz:7705.got - 2010.04.14 01:49:19.
