data_PCOD8170170
_publ_section_title
;
Structure prediction by ZEFSAII (Michael W. Deem and Ramdas Pophale) SiO2 
 PCOD8170170
Probable space group: P M N 21
;
_chemical_formula_sum "Si O2"
_cell_formula_units_Z 20
_cell_length_a 13.010977
_cell_length_b 15.509722
_cell_length_c 5.169452
_cell_angle_alpha 90.000000
_cell_angle_beta 90.000000
_cell_angle_gamma 90.000000
_cell_volume 1043.178025
_symmetry_space_group_name_H-M "P M N 21"
_symmetry_group_IT_number 31
_symmetry_cell_setting 'orthorhombic'
loop_
_space_group_symop_operation_xyz
x,y,z
1/2-x,-y,1/2+z
-x,y,z
1/2+x,-y,1/2+z
loop_
_atom_site_type_symbol
_atom_site_label
_atom_site_fract_x
_atom_site_fract_y
_atom_site_fract_z
Si Si1 0.690411 0.099189 0.344960
Si Si2 0.115190 0.069289 0.626642
Si Si3 0.618931 0.468009 0.331570
Si Si4 0.268984 0.190525 0.834967
Si Si5 0.212165 0.608943 0.331540
O O1 0.807443 0.060999 0.379740
O O2 0.658385 0.150331 0.606838
O O3 0.615809 0.019141 0.291475
O O4 0.683548 0.166982 0.111142
O O5 0.155026 0.148711 0.804930
O O6 0.000000 0.088394 0.530870
O O7 0.500000 0.491991 0.306262
O O8 0.681211 0.557146 0.320697
O O9 0.638030 0.418656 0.598943
O O10 0.652738 0.406110 0.098553
O O11 0.258778 0.291932 0.803941
#
# Coordination Sequence:
#
# PCOD8170170 Si02
#       5
#     4   4   4   4   4
#     4  10  20  39  55  83 120 149 189 246 277 347
#     4  10  21  38  61  82 115 158 191 236 293 337
#     4  10  21  39  61  88 117 158 194 231 298 362
#     4  10  20  38  58  81 119 148 191 246 284 328
#     4  10  21  38  64  84 121 155 188 251 291 338
#
# _framework density 19.172183
#
# number of rings (size 3 to 8) (size 9 to 14) (size 15 to 20)
#    1.200    0.800    2.000    1.800    0.000    1.600 
#    0.000    6.000    0.000    0.000    0.000    0.000 
#    0.000    0.000    0.000    0.000    0.000    0.000 
#
# Total GULP energy -247897.454632 kJ/mol
# GULP energy per Si atom -12394.872732 kJ/mol
# Density = 1.912855 g / cm^3
# Si number density = 19.172183 Si / 1000 Ang^3
#
#
#
# Elastic Constant Matrix: (Units=GPa)
#
#
# Indices 1 2 3 4 5 6 
#
# 1 85.8281 17.0654 6.6325 0.0000 0.0000 0.0000
# 2 17.0654 136.9076 24.8642 0.0000 0.0000 0.0000
# 3 6.6325 24.8642 98.4391 0.0000 0.0000 0.0000
# 4 0.0000 0.0000 0.0000 21.7761 0.0000 0.0000
# 5 0.0000 0.0000 0.0000 0.0000 16.4742 0.0000
# 6 0.0000 0.0000 0.0000 0.0000 0.0000 8.9004
#
#
#
# Elastic Compliance Matrix: (Units=1/GPa)
#
#
# Indices 1 2 3 4 5 6 
#
# 1 0.011966 -0.001410 -0.000450 0.000000 0.000000 0.000000
# 2 -0.001410 0.007821 -0.001881 0.000000 0.000000 0.000000
# 3 -0.000450 -0.001881 0.010664 0.000000 0.000000 0.000000
# 4 0.000000 0.000000 0.000000 0.045922 0.000000 0.000000
# 5 0.000000 0.000000 0.000000 0.000000 0.060701 0.000000
# 6 0.000000 0.000000 0.000000 0.000000 0.000000 0.112354
#
#
# Mechanical properties :
#
#
# Convention : Reuss Voigt Hill
#
# Bulk Modulus (GPa) = 43.53405 46.47766 45.00585
# Shear Modulus (GPa) = 18.89883 27.60432 23.25157
#
# Velocity S-wave (km/s) = 3.14306 3.79860 3.48627
# Velocity P-wave (km/s) = 5.99399 6.59803 6.30325
#
# Compressibility (1/GPa) = 0.02297053
#
# Stress axis : x y z
#
# Youngs Moduli (GPa) = 83.56797 127.85319 93.77426
#
# Poissons Ratio (x) = 0.18025 0.04221
# Poissons Ratio (y) = 0.11782 0.17635
# Poissons Ratio (z) = 0.03762 0.24044
#
# Static dielectric constant tensor:
#      x y z
#    x 3.118530 0.000000 0.000000 
#    y 0.000000 3.329910 0.000000 
#    z 0.000000 0.000000 3.627520 
# 
# 
# High freq. dielectric constant tensor:
#      x y z
#    x 1.714220 0.000000 0.000000 
#    y 0.000000 1.743800 0.000000 
#    z 0.000000 0.000000 1.758410 
# 
# From -- ./inp_files/338.got.cif
#   From: 2010.03.12/outbox.cif.g09.slc.cpg/sg31_1_cif.got.tgz:338.got - 2010.04.14 01:42:59.
