data_PCOD8170322
_publ_section_title
;
Structure prediction by ZEFSAII (Michael W. Deem and Ramdas Pophale) SiO2 
 PCOD8170322
Probable space group: P M N 21
;
_chemical_formula_sum "Si O2"
_cell_formula_units_Z 24
_cell_length_a 16.838190
_cell_length_b 9.583929
_cell_length_c 7.412149
_cell_angle_alpha 90.000000
_cell_angle_beta 90.000000
_cell_angle_gamma 90.000000
_cell_volume 1196.143086
_symmetry_space_group_name_H-M "P M N 21"
_symmetry_group_IT_number 31
_symmetry_cell_setting 'orthorhombic'
loop_
_space_group_symop_operation_xyz
x,y,z
1/2-x,-y,1/2+z
-x,y,z
1/2+x,-y,1/2+z
loop_
_atom_site_type_symbol
_atom_site_label
_atom_site_fract_x
_atom_site_fract_y
_atom_site_fract_z
Si Si1 0.093117 0.341383 0.321830
Si Si2 0.406883 0.341381 0.833618
Si Si3 0.408097 0.153474 0.500398
Si Si4 0.659799 0.864449 0.537894
Si Si5 0.159799 0.864451 0.617555
Si Si6 0.408097 0.846523 0.155052
O O1 0.123155 0.500001 0.327724
O O2 0.136319 0.266925 0.157318
O O3 0.116026 0.269430 0.510104
O O4 0.000000 0.332386 0.285202
O O5 0.500000 0.332383 0.870242
O O6 0.383972 0.269427 0.645345
O O7 0.363683 0.266924 0.998133
O O8 0.500000 0.166831 0.443529
O O9 0.352552 0.176877 0.326667
O O10 0.393393 0.999998 0.584790
O O11 0.750000 0.905197 0.577724
O O12 0.647449 0.823120 0.328782
O O13 0.106607 0.000001 0.570659
O O14 0.500000 0.833167 0.211921
#
# Coordination Sequence:
#
# PCOD8170322 Si02
#       6
#     4   4   4   4   4   4
#     4  10  22  41  63  88 121 162 203 244 296 362
#     4  10  22  41  63  88 121 162 203 244 296 362
#     4  10  22  40  65  90 120 159 205 251 296 357
#     4  11  23  37  60  92 123 159 200 254 301 353
#     4  11  23  37  60  92 123 159 200 254 301 353
#     4  10  22  40  65  90 120 159 205 251 296 357
#
# _framework density 20.064489999999999
#
# number of rings (size 3 to 8) (size 9 to 14) (size 15 to 20)
#    0.000    1.667    0.000    5.000    9.333    4.000 
#    6.000    5.000    0.000    0.000    0.000    0.000 
#    0.000    0.000    0.000    0.000    0.000    0.000 
#
# Total GULP energy -297714.093340 kJ/mol
# GULP energy per Si atom -12404.753889 kJ/mol
# Density = 2.001882 g / cm^3
# Si number density = 20.064490 Si / 1000 Ang^3
#
#
#
# Elastic Constant Matrix: (Units=GPa)
#
#
# Indices 1 2 3 4 5 6 
#
# 1 52.2112 29.4808 48.4655 0.0000 0.0000 0.0000
# 2 29.4808 152.7586 81.1804 0.0000 0.0000 0.0000
# 3 48.4655 81.1804 117.2499 0.0000 0.0000 0.0000
# 4 0.0000 0.0000 0.0000 27.0704 0.0000 0.0000
# 5 0.0000 0.0000 0.0000 0.0000 27.7989 0.0000
# 6 0.0000 0.0000 0.0000 0.0000 0.0000 6.3110
#
#
#
# Elastic Compliance Matrix: (Units=1/GPa)
#
#
# Indices 1 2 3 4 5 6 
#
# 1 0.031244 0.001319 -0.013828 0.000000 0.000000 0.000000
# 2 0.001319 0.010413 -0.007755 0.000000 0.000000 0.000000
# 3 -0.013828 -0.007755 0.019614 0.000000 0.000000 0.000000
# 4 0.000000 0.000000 0.000000 0.036941 0.000000 0.000000
# 5 0.000000 0.000000 0.000000 0.000000 0.035973 0.000000
# 6 0.000000 0.000000 0.000000 0.000000 0.000000 0.158453
#
#
# Mechanical properties :
#
#
# Convention : Reuss Voigt Hill
#
# Bulk Modulus (GPa) = 48.20885 71.16369 59.68627
# Shear Modulus (GPa) = 14.70249 23.10895 18.90572
#
# Velocity S-wave (km/s) = 2.70989 3.39740 3.07294
# Velocity P-wave (km/s) = 5.81983 7.13682 6.51171
#
# Compressibility (1/GPa) = 0.02074308
#
# Stress axis : x y z
#
# Youngs Moduli (GPa) = 32.00596 96.03562 50.98491
#
# Poissons Ratio (x) = -0.12665 0.70501
# Poissons Ratio (y) = -0.04221 0.39537
# Poissons Ratio (z) = 0.44258 0.74472
#
# Static dielectric constant tensor:
#      x y z
#    x 3.549940 0.000000 0.000000 
#    y 0.000000 3.726240 0.000000 
#    z 0.000000 0.000000 3.643350 
# 
# 
# High freq. dielectric constant tensor:
#      x y z
#    x 1.778540 0.000000 0.000000 
#    y 0.000000 1.780880 0.000000 
#    z 0.000000 0.000000 1.791360 
# 
# From -- ./inp_files/2783.got.cif
#   From: 2010.03.12/outbox.cif.g09.slc.cpg/sg31_2_cif.got.tgz:2783.got - 2010.04.14 01:42:59.
