data_PCOD8170176
_publ_section_title
;
Structure prediction by ZEFSAII (Michael W. Deem and Ramdas Pophale) SiO2 
 PCOD8170176
Probable space group: P M N 21
;
_chemical_formula_sum "Si O2"
_cell_formula_units_Z 32
_cell_length_a 8.983683
_cell_length_b 11.967132
_cell_length_c 15.203567
_cell_angle_alpha 90.000000
_cell_angle_beta 90.000000
_cell_angle_gamma 90.000000
_cell_volume 1634.519073
_symmetry_space_group_name_H-M "P M N 21"
_symmetry_group_IT_number 31
_symmetry_cell_setting 'orthorhombic'
loop_
_space_group_symop_operation_xyz
x,y,z
1/2-x,-y,1/2+z
-x,y,z
1/2+x,-y,1/2+z
loop_
_atom_site_type_symbol
_atom_site_label
_atom_site_fract_x
_atom_site_fract_y
_atom_site_fract_z
Si Si1 0.675663 0.992289 0.840560
Si Si2 0.176561 0.989023 0.539645
Si Si3 0.326393 0.534445 0.527549
Si Si4 0.322632 0.855035 0.198137
Si Si5 0.674623 0.384719 0.691224
Si Si6 0.325503 0.254657 0.088691
Si Si7 0.332794 0.756076 0.762030
Si Si8 0.833063 0.466505 0.359500
O O1 0.500000 0.016311 0.837248
O O2 0.719660 0.873830 0.800017
O O3 0.758037 0.088971 0.786420
O O4 0.733763 0.986947 0.941099
O O5 0.238427 0.867394 0.565722
O O6 0.000000 0.990404 0.542141
O O7 0.235609 0.079250 0.610913
O O8 0.500000 0.555534 0.536163
O O9 0.271319 0.456229 0.607291
O O10 0.246271 0.654022 0.525330
O O11 0.286973 0.477779 0.435808
O O12 0.500000 0.857057 0.203914
O O13 0.267026 0.728827 0.192818
O O14 0.500000 0.356889 0.685135
O O15 0.712506 0.456608 0.777345
O O16 0.500000 0.259804 0.075738
O O17 0.281290 0.283308 0.187991
O O18 0.500000 0.763896 0.722692
O O19 0.328257 0.664138 0.837549
O O20 0.000000 0.498568 0.391099
#
# Coordination Sequence:
#
# PCOD8170176 Si02
#       8
#     4   4   4   4   4   4   4   4
#     4  10  21  39  63  87 118 161 201 237 297 363
#     4   9  21  39  59  86 119 156 193 240 295 352
#     4  11  24  42  62  90 123 154 200 252 299 353
#     4  11  23  40  61  89 122 153 199 253 292 346
#     4  10  23  43  61  82 122 165 195 239 301 362
#     4  11  21  38  63  87 119 158 200 247 302 357
#     4  10  20  38  64  89 117 156 203 252 299 354
#     4  10  22  41  63  88 120 159 201 244 301 361
#
# _framework density 19.577622999999999
#
# number of rings (size 3 to 8) (size 9 to 14) (size 15 to 20)
#    0.000    1.750    2.500    1.125    3.500    2.000 
#    0.000    1.875    0.000    0.000    0.000    0.000 
#    0.000    0.000    0.000    0.000    0.000    0.000 
#
# Total GULP energy -396867.509085 kJ/mol
# GULP energy per Si atom -12402.109659 kJ/mol
# Density = 1.953306 g / cm^3
# Si number density = 19.577623 Si / 1000 Ang^3
#
#
#
# Elastic Constant Matrix: (Units=GPa)
#
#
# Indices 1 2 3 4 5 6 
#
# 1 50.8753 35.9621 27.0918 0.0000 0.0000 0.0000
# 2 35.9621 115.9876 26.5340 0.0000 0.0000 0.0000
# 3 27.0918 26.5340 107.3354 0.0000 0.0000 0.0000
# 4 0.0000 0.0000 0.0000 27.0463 0.0000 0.0000
# 5 0.0000 0.0000 0.0000 0.0000 31.2564 0.0000
# 6 0.0000 0.0000 0.0000 0.0000 0.0000 30.4368
#
#
#
# Elastic Compliance Matrix: (Units=1/GPa)
#
#
# Indices 1 2 3 4 5 6 
#
# 1 0.027616 -0.007385 -0.005145 0.000000 0.000000 0.000000
# 2 -0.007385 0.011114 -0.000883 0.000000 0.000000 0.000000
# 3 -0.005145 -0.000883 0.010833 0.000000 0.000000 0.000000
# 4 0.000000 0.000000 0.000000 0.036974 0.000000 0.000000
# 5 0.000000 0.000000 0.000000 0.000000 0.031993 0.000000
# 6 0.000000 0.000000 0.000000 0.000000 0.000000 0.032855
#
#
# Mechanical properties :
#
#
# Convention : Reuss Voigt Hill
#
# Bulk Modulus (GPa) = 43.98237 50.37487 47.17862
# Shear Modulus (GPa) = 26.91203 30.05526 28.48365
#
# Velocity S-wave (km/s) = 3.71163 3.92239 3.81846
# Velocity P-wave (km/s) = 6.39395 6.80443 6.60238
#
# Compressibility (1/GPa) = 0.02273638
#
# Stress axis : x y z
#
# Youngs Moduli (GPa) = 36.21082 89.98034 92.30672
#
# Poissons Ratio (x) = 0.66455 0.47488
# Poissons Ratio (y) = 0.26743 0.08153
# Poissons Ratio (z) = 0.18629 0.07947
#
# Static dielectric constant tensor:
#      x y z
#    x 3.397350 0.000000 0.000000 
#    y 0.000000 3.692640 0.000000 
#    z 0.000000 0.000000 3.654890 
# 
# 
# High freq. dielectric constant tensor:
#      x y z
#    x 1.746090 0.000000 0.000000 
#    y 0.000000 1.777250 0.000000 
#    z 0.000000 0.000000 1.767770 
# 
# From -- ./inp_files/4938.got.cif
#   From: 2010.03.12/outbox.cif.g09.slc.cpg/sg31_3_cif.got.tgz:4938.got - 2010.04.14 01:42:59.
