data_PCOD8170443
_publ_section_title
;
Structure prediction by ZEFSAII (Michael W. Deem and Ramdas Pophale) SiO2 
 PCOD8170443
Probable space group: P B A 2
;
_chemical_formula_sum "Si O2"
_cell_formula_units_Z 32
_cell_length_a 15.961186
_cell_length_b 5.181629
_cell_length_c 18.503281
_cell_angle_alpha 90.000000
_cell_angle_beta 90.000000
_cell_angle_gamma 90.000000
_cell_volume 1530.312824
_symmetry_space_group_name_H-M "P B A 2"
_symmetry_group_IT_number 32
_symmetry_cell_setting 'orthorhombic'
loop_
_space_group_symop_operation_xyz
x,y,z
-x,-y,z
1/2-x,1/2+y,z
1/2+x,1/2-y,z
loop_
_atom_site_type_symbol
_atom_site_label
_atom_site_fract_x
_atom_site_fract_y
_atom_site_fract_z
Si Si1 0.086505 0.773965 0.082060
Si Si2 0.901186 0.723142 0.020445
Si Si3 0.599897 0.019885 0.731685
Si Si4 0.901732 0.019409 0.649617
Si Si5 0.800612 0.156995 0.352694
Si Si6 0.197762 0.822237 0.515801
Si Si7 0.193486 0.395508 0.879234
Si Si8 0.051150 0.761312 0.248321
O O1 0.136257 0.506995 0.070648
O O2 0.071360 0.825618 0.165620
O O3 0.000621 0.749567 0.035503
O O4 0.140404 0.008865 0.047691
O O5 0.878790 0.655684 0.938368
O O6 0.630227 0.237069 0.673826
O O7 0.644145 0.107769 0.804588
O O8 0.500000 0.000000 0.742596
O O9 0.632377 0.740864 0.704452
O O10 0.877069 0.100856 0.568937
O O11 0.000000 0.000000 0.652102
O O12 0.724470 0.358849 0.341157
O O13 0.837013 0.172377 0.434003
O O14 0.865922 0.258339 0.294687
O O15 0.228993 0.531360 0.529925
O O16 0.237161 0.672917 0.887089
O O17 0.000000 0.500000 0.255678
O O18 0.000000 0.000000 0.280999
#
# Coordination Sequence:
#
# PCOD8170443 Si02
#       8
#     4   4   4   4   4   4   4   4
#     4  10  19  38  64  86 110 151 203 248 289 373
#     4  10  20  38  60  85 115 153 192 253 298 355
#     4  10  23  41  61  88 119 164 202 248 309 372
#     4  10  21  39  61  91 123 150 207 263 300 347
#     4  10  23  42  59  91 134 169 205 253 315 381
#     4  10  21  38  62  87 121 169 207 236 301 376
#     4  12  26  42  59  91 127 157 202 260 308 366
#     4  12  21  39  67  95 122 157 216 261 304 367
#
# _framework density 20.910758999999999
#
# number of rings (size 3 to 8) (size 9 to 14) (size 15 to 20)
#    0.000    1.500    2.500    3.000    1.750    3.500 
#    4.500    5.625    0.000    0.000    0.000    0.000 
#    0.000    0.000    0.000    0.000    0.000    0.000 
#
# Total GULP energy -396586.884192 kJ/mol
# GULP energy per Si atom -12393.340131 kJ/mol
# Density = 2.086316 g / cm^3
# Si number density = 20.910759 Si / 1000 Ang^3
#
#
#
# Elastic Constant Matrix: (Units=GPa)
#
#
# Indices 1 2 3 4 5 6 
#
# 1 29.8282 17.5336 51.7683 0.0000 0.0000 0.0000
# 2 17.5336 162.6076 40.2217 0.0000 0.0000 0.0000
# 3 51.7683 40.2217 133.1808 0.0000 0.0000 0.0000
# 4 0.0000 0.0000 0.0000 35.9341 0.0000 0.0000
# 5 0.0000 0.0000 0.0000 0.0000 20.6516 0.0000
# 6 0.0000 0.0000 0.0000 0.0000 0.0000 27.1901
#
#
#
# Elastic Compliance Matrix: (Units=1/GPa)
#
#
# Indices 1 2 3 4 5 6 
#
# 1 0.103289 -0.001304 -0.039755 0.000000 0.000000 0.000000
# 2 -0.001304 0.006663 -0.001505 0.000000 0.000000 0.000000
# 3 -0.039755 -0.001505 0.023416 0.000000 0.000000 0.000000
# 4 0.000000 0.000000 0.000000 0.027829 0.000000 0.000000
# 5 0.000000 0.000000 0.000000 0.000000 0.048422 0.000000
# 6 0.000000 0.000000 0.000000 0.000000 0.000000 0.036778
#
#
# Mechanical properties :
#
#
# Convention : Reuss Voigt Hill
#
# Bulk Modulus (GPa) = 20.73011 60.51821 40.62416
# Shear Modulus (GPa) = 14.38410 31.16138 22.77274
#
# Velocity S-wave (km/s) = 2.62559 3.86451 3.30365
# Velocity P-wave (km/s) = 4.37342 6.99404 5.83281
#
# Compressibility (1/GPa) = 0.04823902
#
# Stress axis : x y z
#
# Youngs Moduli (GPa) = 9.68157 150.08872 42.70504
#
# Poissons Ratio (x) = 0.19568 1.69776
# Poissons Ratio (y) = 0.01262 0.06429
# Poissons Ratio (z) = 0.38489 0.22595
#
# Static dielectric constant tensor:
#      x y z
#    x 3.494980 0.000000 0.000000 
#    y 0.000000 6.389450 0.000000 
#    z 0.000000 0.000000 3.801550 
# 
# 
# High freq. dielectric constant tensor:
#      x y z
#    x 1.782420 0.000000 0.000000 
#    y 0.000000 1.856910 0.000000 
#    z 0.000000 0.000000 1.821260 
# 
# From -- ./inp_files/4249.got.cif
#   From: 2010.03.12/outbox.cif.g09.slc.cpg/sg32_3_cif.got.tgz:4249.got - 2010.04.14 01:46:39.
