data_PCOD8170014
_publ_section_title
;
Structure prediction by ZEFSAII (Michael W. Deem and Ramdas Pophale) SiO2 
 PCOD8170014
Probable space group: P M N 21
;
_chemical_formula_sum "Si O2"
_cell_formula_units_Z 24
_cell_length_a 9.261156
_cell_length_b 15.527662
_cell_length_c 9.676539
_cell_angle_alpha 90.000000
_cell_angle_beta 90.000000
_cell_angle_gamma 90.000000
_cell_volume 1391.525983
_symmetry_space_group_name_H-M "P M N 21"
_symmetry_group_IT_number 31
_symmetry_cell_setting 'orthorhombic'
loop_
_space_group_symop_operation_xyz
x,y,z
1/2-x,-y,1/2+z
-x,y,z
1/2+x,-y,1/2+z
loop_
_atom_site_type_symbol
_atom_site_label
_atom_site_fract_x
_atom_site_fract_y
_atom_site_fract_z
Si Si1 0.831836 0.068149 0.300240
Si Si2 0.665293 0.560978 0.524952
Si Si3 0.662887 0.933484 0.475168
Si Si4 0.161990 0.250783 0.027751
Si Si5 0.833331 0.767123 0.797035
Si Si6 0.831332 0.576741 0.808734
O O1 0.759166 0.155030 0.362785
O O2 0.000000 0.074336 0.329825
O O3 0.771761 0.986453 0.381673
O O4 0.797459 0.058066 0.137615
O O5 0.500000 0.538354 0.558185
O O6 0.677835 0.656340 0.453341
O O7 0.749945 0.558346 0.667331
O O8 0.730036 0.490311 0.421054
O O9 0.500000 0.966555 0.449515
O O10 0.678286 0.832652 0.428576
O O11 0.000000 0.244903 0.096663
O O12 0.288106 0.244766 0.138941
O O13 0.804268 0.673805 0.867525
O O14 0.000000 0.793489 0.806031
O O15 0.000000 0.561772 0.780024
#
# Coordination Sequence:
#
# PCOD8170014 Si02
#       6
#     4   4   4   4   4   4
#     4  10  20  33  50  72  95 122 158 195 233 280
#     4   9  17  31  50  70  95 126 157 192 233 276
#     4   9  18  32  49  70  95 122 154 193 234 276
#     4   8  15  29  48  68  92 123 158 192 228 276
#     4   9  16  28  47  68  93 125 158 192 230 274
#     4   9  18  31  48  72  98 124 157 194 232 276
#
# _framework density 17.247254000000002
#
# number of rings (size 3 to 8) (size 9 to 14) (size 15 to 20)
#    0.000    3.000    0.000    2.000    0.000    4.667 
#    0.000    1.667    0.000    4.000    0.000    0.000 
#    0.000    0.000    0.000    0.000    0.000    0.000 
#
# Total GULP energy -297350.404024 kJ/mol
# GULP energy per Si atom -12389.600168 kJ/mol
# Density = 1.720800 g / cm^3
# Si number density = 17.247254 Si / 1000 Ang^3
#
#
#
# Elastic Constant Matrix: (Units=GPa)
#
#
# Indices 1 2 3 4 5 6 
#
# 1 60.7852 25.0890 16.5802 0.0000 0.0000 0.0000
# 2 25.0890 80.9686 16.1444 0.0000 0.0000 0.0000
# 3 16.5802 16.1444 31.6791 0.0000 0.0000 0.0000
# 4 0.0000 0.0000 0.0000 29.6997 0.0000 0.0000
# 5 0.0000 0.0000 0.0000 0.0000 23.4359 0.0000
# 6 0.0000 0.0000 0.0000 0.0000 0.0000 28.2276
#
#
#
# Elastic Compliance Matrix: (Units=1/GPa)
#
#
# Indices 1 2 3 4 5 6 
#
# 1 0.020703 -0.004736 -0.008422 0.000000 0.000000 0.000000
# 2 -0.004736 0.014831 -0.005079 0.000000 0.000000 0.000000
# 3 -0.008422 -0.005079 0.038563 0.000000 0.000000 0.000000
# 4 0.000000 0.000000 0.000000 0.033670 0.000000 0.000000
# 5 0.000000 0.000000 0.000000 0.000000 0.042670 0.000000
# 6 0.000000 0.000000 0.000000 0.000000 0.000000 0.035426
#
#
# Mechanical properties :
#
#
# Convention : Reuss Voigt Hill
#
# Bulk Modulus (GPa) = 26.58002 32.11780 29.34891
# Shear Modulus (GPa) = 21.28755 23.98061 22.63408
#
# Velocity S-wave (km/s) = 3.51701 3.73285 3.62654
# Velocity P-wave (km/s) = 5.65129 6.10257 5.88126
#
# Compressibility (1/GPa) = 0.03762225
#
# Stress axis : x y z
#
# Youngs Moduli (GPa) = 48.30130 67.42766 25.93152
#
# Poissons Ratio (x) = 0.31933 0.21840
# Poissons Ratio (y) = 0.22875 0.13172
# Poissons Ratio (z) = 0.40680 0.34249
#
# Static dielectric constant tensor:
#      x y z
#    x 3.243640 0.000000 0.000000 
#    y 0.000000 3.755180 0.000000 
#    z 0.000000 0.000000 2.750500 
# 
# 
# High freq. dielectric constant tensor:
#      x y z
#    x 1.672650 0.000000 0.000000 
#    y 0.000000 1.691040 0.000000 
#    z 0.000000 0.000000 1.606940 
# 
# From -- ./inp_files/1672.got.cif
#   From: 2010.03.12/outbox.cif.g09.slc.cpg/sg31_1_cif.got.tgz:1672.got - 2010.04.14 01:42:59.
