data_PCOD8170473
_publ_section_title
;
Structure prediction by ZEFSAII (Michael W. Deem and Ramdas Pophale) SiO2 
 PCOD8170473
Probable space group: P B A 2
;
_chemical_formula_sum "Si O2"
_cell_formula_units_Z 32
_cell_length_a 9.043696
_cell_length_b 15.284038
_cell_length_c 11.408284
_cell_angle_alpha 90.000000
_cell_angle_beta 90.000000
_cell_angle_gamma 90.000000
_cell_volume 1576.900853
_symmetry_space_group_name_H-M "P B A 2"
_symmetry_group_IT_number 32
_symmetry_cell_setting 'orthorhombic'
loop_
_space_group_symop_operation_xyz
x,y,z
-x,-y,z
1/2-x,1/2+y,z
1/2+x,1/2-y,z
loop_
_atom_site_type_symbol
_atom_site_label
_atom_site_fract_x
_atom_site_fract_y
_atom_site_fract_z
Si Si1 0.332470 0.667747 0.897440
Si Si2 0.062370 0.861608 0.258169
Si Si3 0.329177 0.007001 0.003645
Si Si4 0.328081 0.672924 0.623124
Si Si5 0.893926 0.425327 0.491394
Si Si6 0.846072 0.172747 0.004526
Si Si7 0.907244 0.234159 0.494746
Si Si8 0.229428 0.042499 0.256502
O O1 0.322577 0.686869 0.760458
O O2 0.248748 0.744321 0.965775
O O3 0.504072 0.663645 0.930904
O O4 0.254656 0.575317 0.920591
O O5 0.114302 0.801897 0.364827
O O6 0.884938 0.875930 0.258074
O O7 0.140166 0.953913 0.269463
O O8 0.110950 0.812893 0.139870
O O9 0.320296 0.042789 0.135964
O O10 0.500000 0.000000 0.965774
O O11 0.251145 0.913853 0.987019
O O12 0.250181 0.756585 0.560152
O O13 0.494276 0.669793 0.574158
O O14 0.254282 0.083630 0.580929
O O15 0.978445 0.331990 0.485434
O O16 0.844037 0.450411 0.361335
O O17 0.000000 0.500000 0.542446
#
# Coordination Sequence:
#
# PCOD8170473 Si02
#       8
#     4   4   4   4   4   4   4   4
#     4  12  24  45  68  93 135 177 230 270 330 402
#     4  10  20  38  68  94 130 170 212 271 336 396
#     4  11  24  44  67  99 133 173 221 281 340 403
#     4  10  24  42  62  92 126 169 223 265 311 385
#     4  10  23  39  61  92 129 165 213 271 329 382
#     4  11  25  43  69 100 133 175 219 279 340 395
#     4  10  22  41  65  89 129 167 217 264 327 381
#     4  10  20  40  61  97 134 160 213 274 333 400
#
# _framework density 20.292968999999999
#
# number of rings (size 3 to 8) (size 9 to 14) (size 15 to 20)
#    0.750    0.750    2.500    2.250    3.500    1.500 
#    4.500    2.500    0.000    0.000    0.000    0.000 
#    0.000    0.000    0.000    0.000    0.000    0.000 
#
# Total GULP energy -396732.868106 kJ/mol
# GULP energy per Si atom -12397.902128 kJ/mol
# Density = 2.024678 g / cm^3
# Si number density = 20.292969 Si / 1000 Ang^3
#
#
#
# Elastic Constant Matrix: (Units=GPa)
#
#
# Indices 1 2 3 4 5 6 
#
# 1 94.2798 11.3309 24.0259 0.0000 0.0000 0.0000
# 2 11.3309 38.5291 35.4188 0.0000 0.0000 0.0000
# 3 24.0259 35.4188 125.9291 0.0000 0.0000 0.0000
# 4 0.0000 0.0000 0.0000 11.0840 0.0000 0.0000
# 5 0.0000 0.0000 0.0000 0.0000 19.2876 0.0000
# 6 0.0000 0.0000 0.0000 0.0000 0.0000 24.2220
#
#
#
# Elastic Compliance Matrix: (Units=1/GPa)
#
#
# Indices 1 2 3 4 5 6 
#
# 1 0.011241 -0.001800 -0.001638 0.000000 0.000000 0.000000
# 2 -0.001800 0.035293 -0.009583 0.000000 0.000000 0.000000
# 3 -0.001638 -0.009583 0.010949 0.000000 0.000000 0.000000
# 4 0.000000 0.000000 0.000000 0.090220 0.000000 0.000000
# 5 0.000000 0.000000 0.000000 0.000000 0.051847 0.000000
# 6 0.000000 0.000000 0.000000 0.000000 0.000000 0.041285
#
#
# Mechanical properties :
#
#
# Convention : Reuss Voigt Hill
#
# Bulk Modulus (GPa) = 31.80629 44.47659 38.14144
# Shear Modulus (GPa) = 18.02733 23.44956 20.73844
#
# Velocity S-wave (km/s) = 2.98376 3.40303 3.20027
# Velocity P-wave (km/s) = 5.25148 6.11601 5.70016
#
# Compressibility (1/GPa) = 0.03144032
#
# Stress axis : x y z
#
# Youngs Moduli (GPa) = 88.96370 28.33403 91.33291
#
# Poissons Ratio (x) = 0.05099 0.14964
# Poissons Ratio (y) = 0.16009 0.87527
# Poissons Ratio (z) = 0.14576 0.27153
#
# Static dielectric constant tensor:
#      x y z
#    x 4.609180 0.000000 0.000000 
#    y 0.000000 3.594500 0.000000 
#    z 0.000000 0.000000 3.609720 
# 
# 
# High freq. dielectric constant tensor:
#      x y z
#    x 1.797900 0.000000 0.000000 
#    y 0.000000 1.786890 0.000000 
#    z 0.000000 0.000000 1.793930 
# 
# From -- ./inp_files/3755.got.cif
#   From: 2010.03.12/outbox.cif.g09.slc.cpg/sg32_2_cif.got.tgz:3755.got - 2010.04.14 01:46:39.
