data_PCOD8170662
_publ_section_title
;
Structure prediction by ZEFSAII (Michael W. Deem and Ramdas Pophale) SiO2 
 PCOD8170662
Probable space group: P N A 21
;
_chemical_formula_sum "Si O2"
_cell_formula_units_Z 32
_cell_length_a 9.618370
_cell_length_b 9.346344
_cell_length_c 16.889564
_cell_angle_alpha 90.000000
_cell_angle_beta 90.000000
_cell_angle_gamma 90.000000
_cell_volume 1518.314290
_symmetry_space_group_name_H-M "P N A 21"
_symmetry_group_IT_number 33
_symmetry_cell_setting 'orthorhombic'
loop_
_space_group_symop_operation_xyz
x,y,z
-x,-y,1/2+z
1/2-x,1/2+y,1/2+z
1/2+x,1/2-y,z
loop_
_atom_site_type_symbol
_atom_site_label
_atom_site_fract_x
_atom_site_fract_y
_atom_site_fract_z
Si Si1 0.722219 0.032553 0.634560
Si Si2 0.578573 0.968877 0.186750
Si Si3 0.371877 0.321977 0.758938
Si Si4 0.273613 0.171038 0.560328
Si Si5 0.490591 0.693721 0.960990
Si Si6 0.067783 0.449253 0.357160
Si Si7 0.808123 0.942292 0.468810
Si Si8 0.605342 0.226936 0.855754
O O1 0.571753 0.970568 0.659241
O O2 0.832602 0.034494 0.708695
O O3 0.709209 0.198097 0.609918
O O4 0.783169 0.937970 0.563038
O O5 0.559221 0.799981 0.203812
O O6 0.695755 0.969240 0.116420
O O7 0.626845 0.053235 0.266543
O O8 0.487052 0.341452 0.827272
O O9 0.233184 0.256617 0.796661
O O10 0.422986 0.211585 0.523481
O O11 0.159525 0.140659 0.492979
O O12 0.475628 0.788660 0.881092
O O13 0.571933 0.550067 0.941798
O O14 0.172282 0.505015 0.423360
O O15 0.939429 0.561176 0.359026
O O16 0.849259 0.781898 0.442783
#
# Coordination Sequence:
#
# PCOD8170662 Si02
#       8
#     4   4   4   4   4   4   4   4
#     4  10  18  34  59  91 123 158 211 275 307 371
#     4  10  18  32  62  89 122 160 217 264 319 369
#     4  10  19  33  60  95 120 160 218 263 312 371
#     4  10  19  34  59  92 117 161 212 269 306 378
#     4  11  21  39  64  90 131 165 215 269 329 377
#     4  11  21  39  61  95 133 165 209 275 328 381
#     4  11  23  40  60  98 132 165 212 277 321 396
#     4  11  21  39  63  96 128 168 210 274 324 387
#
# _framework density 21.076004999999999
#
# number of rings (size 3 to 8) (size 9 to 14) (size 15 to 20)
#    0.000    1.500    8.750    0.000    0.000    1.000 
#    0.000    0.000    0.000    6.000    0.000    0.000 
#    0.000    0.000    0.000    0.000    0.000    0.000 
#
# Total GULP energy -396442.899114 kJ/mol
# GULP energy per Si atom -12388.840597 kJ/mol
# Density = 2.102803 g / cm^3
# Si number density = 21.076005 Si / 1000 Ang^3
#
#
#
# Elastic Constant Matrix: (Units=GPa)
#
#
# Indices 1 2 3 4 5 6 
#
# 1 100.9710 12.1529 44.6729 0.0000 0.0000 0.0000
# 2 12.1529 36.0416 34.2001 0.0000 0.0000 0.0000
# 3 44.6729 34.2001 120.8164 0.0000 0.0000 0.0000
# 4 0.0000 0.0000 0.0000 38.2927 0.0000 0.0000
# 5 0.0000 0.0000 0.0000 0.0000 31.8853 0.0000
# 6 0.0000 0.0000 0.0000 0.0000 0.0000 14.0059
#
#
#
# Elastic Compliance Matrix: (Units=1/GPa)
#
#
# Indices 1 2 3 4 5 6 
#
# 1 0.011842 0.000221 -0.004441 0.000000 0.000000 0.000000
# 2 0.000221 0.037940 -0.010822 0.000000 0.000000 0.000000
# 3 -0.004441 -0.010822 0.012983 0.000000 0.000000 0.000000
# 4 0.000000 0.000000 0.000000 0.026115 0.000000 0.000000
# 5 0.000000 0.000000 0.000000 0.000000 0.031362 0.000000
# 6 0.000000 0.000000 0.000000 0.000000 0.000000 0.071398
#
#
# Mechanical properties :
#
#
# Convention : Reuss Voigt Hill
#
# Bulk Modulus (GPa) = 30.59854 48.87564 39.73709
# Shear Modulus (GPa) = 21.49451 27.95697 24.72574
#
# Velocity S-wave (km/s) = 3.19698 3.64604 3.42887
# Velocity P-wave (km/s) = 5.30823 6.40042 5.87974
#
# Compressibility (1/GPa) = 0.03268130
#
# Stress axis : x y z
#
# Youngs Moduli (GPa) = 84.44363 26.35746 77.02588
#
# Poissons Ratio (x) = -0.00584 0.34211
# Poissons Ratio (y) = -0.01870 0.83355
# Poissons Ratio (z) = 0.37505 0.28523
#
# Static dielectric constant tensor:
#      x y z
#    x 3.975640 0.000000 0.000000 
#    y 0.000000 3.289870 0.000000 
#    z 0.000000 0.000000 4.239230 
# 
# 
# High freq. dielectric constant tensor:
#      x y z
#    x 1.833590 0.000000 0.000000 
#    y 0.000000 1.756920 0.000000 
#    z 0.000000 0.000000 1.836690 
# 
# From -- ./inp_files/7683.got.cif
#   From: 2010.03.12/outbox.cif.g09.slc.cpg/sg33_4_cif.got.tgz:7683.got - 2010.04.14 01:49:19.
