data_PCOD8170261
_publ_section_title
;
Structure prediction by ZEFSAII (Michael W. Deem and Ramdas Pophale) SiO2 
 PCOD8170261
Probable space group: P M N 21
;
_chemical_formula_sum "Si O2"
_cell_formula_units_Z 32
_cell_length_a 8.574026
_cell_length_b 11.973271
_cell_length_c 15.347726
_cell_angle_alpha 90.000000
_cell_angle_beta 90.000000
_cell_angle_gamma 90.000000
_cell_volume 1575.584304
_symmetry_space_group_name_H-M "P M N 21"
_symmetry_group_IT_number 31
_symmetry_cell_setting 'orthorhombic'
loop_
_space_group_symop_operation_xyz
x,y,z
1/2-x,-y,1/2+z
-x,y,z
1/2+x,-y,1/2+z
loop_
_atom_site_type_symbol
_atom_site_label
_atom_site_fract_x
_atom_site_fract_y
_atom_site_fract_z
Si Si1 0.677783 0.274088 0.156550
Si Si2 0.684058 0.712935 0.342095
Si Si3 0.319000 0.501880 0.913033
Si Si4 0.819681 0.727780 0.853479
Si Si5 0.318323 0.503726 0.600132
Si Si6 0.185089 0.891277 0.003581
Si Si7 0.182976 0.139894 0.002236
Si Si8 0.184679 0.740636 0.161743
O O1 0.500000 0.261266 0.126443
O O2 0.701984 0.229956 0.254734
O O3 0.724144 0.404062 0.154106
O O4 0.782671 0.200638 0.092894
O O5 0.500000 0.694443 0.348646
O O6 0.772284 0.594293 0.344739
O O7 0.748832 0.789688 0.420837
O O8 0.729342 0.771951 0.251425
O O9 0.500000 0.493261 0.937422
O O10 0.285777 0.620018 0.868987
O O11 0.215021 0.483105 0.998165
O O12 0.000000 0.696723 0.872968
O O13 0.760814 0.826185 0.916829
O O14 0.500000 0.523424 0.616631
O O15 0.263577 0.382512 0.631551
O O16 0.246427 0.827006 0.089145
O O17 0.000000 0.896025 0.006924
O O18 0.257591 0.015753 0.001899
O O19 0.000000 0.128696 0.991186
O O20 0.000000 0.748395 0.174119
#
# Coordination Sequence:
#
# PCOD8170261 Si02
#       8
#     4   4   4   4   4   4   4   4
#     4  11  23  37  60  91 121 154 194 246 296 345
#     4  11  23  38  59  88 122 159 197 238 291 353
#     4  12  23  36  60  91 122 153 193 242 296 353
#     4  10  21  40  63  88 120 156 196 240 295 356
#     4  11  21  37  61  87 119 157 194 235 296 362
#     4   9  19  40  64  85 113 157 205 244 293 352
#     4  10  22  40  62  83 114 162 205 243 292 350
#     4  10  21  38  63  89 117 154 194 244 297 349
#
# _framework density 20.309923999999999
#
# number of rings (size 3 to 8) (size 9 to 14) (size 15 to 20)
#    0.000    1.500    2.500    3.000    0.000    5.500 
#    0.000    2.500    0.000    0.000    0.000    0.000 
#    0.000    0.000    0.000    0.000    0.000    0.000 
#
# Total GULP energy -396957.260558 kJ/mol
# GULP energy per Si atom -12404.914392 kJ/mol
# Density = 2.026370 g / cm^3
# Si number density = 20.309924 Si / 1000 Ang^3
#
#
#
# Elastic Constant Matrix: (Units=GPa)
#
#
# Indices 1 2 3 4 5 6 
#
# 1 27.9783 21.5971 23.9950 0.0000 0.0000 0.0000
# 2 21.5971 141.0544 48.5803 0.0000 0.0000 0.0000
# 3 23.9950 48.5803 120.9197 0.0000 0.0000 0.0000
# 4 0.0000 0.0000 0.0000 16.0683 0.0000 0.0000
# 5 0.0000 0.0000 0.0000 0.0000 27.0985 0.0000
# 6 0.0000 0.0000 0.0000 0.0000 0.0000 12.1090
#
#
#
# Elastic Compliance Matrix: (Units=1/GPa)
#
#
# Indices 1 2 3 4 5 6 
#
# 1 0.045371 -0.004464 -0.007210 0.000000 0.000000 0.000000
# 2 -0.004464 0.008667 -0.002596 0.000000 0.000000 0.000000
# 3 -0.007210 -0.002596 0.010744 0.000000 0.000000 0.000000
# 4 0.000000 0.000000 0.000000 0.062234 0.000000 0.000000
# 5 0.000000 0.000000 0.000000 0.000000 0.036902 0.000000
# 6 0.000000 0.000000 0.000000 0.000000 0.000000 0.082583
#
#
# Mechanical properties :
#
#
# Convention : Reuss Voigt Hill
#
# Bulk Modulus (GPa) = 27.59231 53.14416 40.36823
# Shear Modulus (GPa) = 17.41416 24.10716 20.76066
#
# Velocity S-wave (km/s) = 2.93135 3.44897 3.20064
# Velocity P-wave (km/s) = 5.00722 6.48721 5.79466
#
# Compressibility (1/GPa) = 0.03624199
#
# Stress axis : x y z
#
# Youngs Moduli (GPa) = 22.04044 115.37899 93.07716
#
# Poissons Ratio (x) = 0.51501 0.67109
# Poissons Ratio (y) = 0.09838 0.24166
# Poissons Ratio (z) = 0.15891 0.29956
#
# Static dielectric constant tensor:
#      x y z
#    x 3.407330 0.000000 0.000000 
#    y 0.000000 3.864980 0.000000 
#    z 0.000000 0.000000 3.787330 
# 
# 
# High freq. dielectric constant tensor:
#      x y z
#    x 1.774070 0.000000 0.000000 
#    y 0.000000 1.790040 0.000000 
#    z 0.000000 0.000000 1.806480 
# 
# From -- ./inp_files/4987.got.cif
#   From: 2010.03.12/outbox.cif.g09.slc.cpg/sg31_3_cif.got.tgz:4987.got - 2010.04.14 01:42:59.
