data_PCOD8170425
_publ_section_title
;
Structure prediction by ZEFSAII (Michael W. Deem and Ramdas Pophale) SiO2 
 PCOD8170425
Probable space group: P B A 2
;
_chemical_formula_sum "Si O2"
_cell_formula_units_Z 26
_cell_length_a 8.553417
_cell_length_b 12.754826
_cell_length_c 11.520671
_cell_angle_alpha 90.000000
_cell_angle_beta 90.000000
_cell_angle_gamma 90.000000
_cell_volume 1256.874625
_symmetry_space_group_name_H-M "P B A 2"
_symmetry_group_IT_number 32
_symmetry_cell_setting 'orthorhombic'
loop_
_space_group_symop_operation_xyz
x,y,z
-x,-y,z
1/2-x,1/2+y,z
1/2+x,1/2-y,z
loop_
_atom_site_type_symbol
_atom_site_label
_atom_site_fract_x
_atom_site_fract_y
_atom_site_fract_z
Si Si1 0.500000 0.000000 0.465801
Si Si2 0.059312 0.390024 0.244691
Si Si3 0.856477 0.723872 0.773715
Si Si4 0.146298 0.618984 0.665120
Si Si5 0.376065 0.644548 0.986906
Si Si6 0.819658 0.518553 0.878120
Si Si7 0.650396 0.718970 0.132803
O O1 0.578876 0.088788 0.383300
O O2 0.367296 0.060318 0.541583
O O3 0.228107 0.357331 0.196664
O O4 0.000000 0.500000 0.185869
O O5 0.931846 0.298921 0.223026
O O6 0.751762 0.776298 0.672117
O O7 0.929057 0.810211 0.860677
O O8 0.772654 0.640122 0.860706
O O9 0.975138 0.652960 0.703225
O O10 0.214252 0.537794 0.756590
O O11 0.303729 0.527880 0.971607
O O12 0.518469 0.644348 0.076521
O O13 0.233805 0.715479 0.032736
O O14 0.000000 0.500000 0.919606
#
# Coordination Sequence:
#
# PCOD8170425 Si02
#       7
#     2   4   4   4   4   4   4
#     4  10  20  42  66  84 114 178 204 270 326 344
#     4   9  23  41  64  88 122 161 228 267 318 370
#     4  10  19  34  57  92 125 156 197 244 299 408
#     4  10  19  36  60  86 123 158 203 242 318 371
#     4  10  20  33  61  89 125 164 198 243 325 378
#     4   9  17  33  55  90 128 163 197 244 300 404
#     4  10  20  41  60  92 124 167 212 265 315 385
#
# _framework density 20.686232
#
# number of rings (size 3 to 8) (size 9 to 14) (size 15 to 20)
#    0.462    1.846    2.308    2.769    0.000    4.308 
#    0.000   14.615    0.000    3.692    0.000    0.000 
#    0.000    0.000    0.000    0.000    0.000    0.000 
#
# Total GULP energy -322090.926285 kJ/mol
# GULP energy per Si atom -12388.112549 kJ/mol
# Density = 2.063915 g / cm^3
# Si number density = 20.686232 Si / 1000 Ang^3
#
#
#
# Elastic Constant Matrix: (Units=GPa)
#
#
# Indices 1 2 3 4 5 6 
#
# 1 96.2771 55.6681 45.3138 0.0000 0.0000 0.0000
# 2 55.6681 107.2841 46.4449 0.0000 0.0000 0.0000
# 3 45.3138 46.4449 97.0449 0.0000 0.0000 0.0000
# 4 0.0000 0.0000 0.0000 47.5207 0.0000 0.0000
# 5 0.0000 0.0000 0.0000 0.0000 19.0355 0.0000
# 6 0.0000 0.0000 0.0000 0.0000 0.0000 34.1990
#
#
#
# Elastic Compliance Matrix: (Units=1/GPa)
#
#
# Indices 1 2 3 4 5 6 
#
# 1 0.016249 -0.006492 -0.004480 0.000000 0.000000 0.000000
# 2 -0.006492 0.014351 -0.003837 0.000000 0.000000 0.000000
# 3 -0.004480 -0.003837 0.014233 0.000000 0.000000 0.000000
# 4 0.000000 0.000000 0.000000 0.021043 0.000000 0.000000
# 5 0.000000 0.000000 0.000000 0.000000 0.052533 0.000000
# 6 0.000000 0.000000 0.000000 0.000000 0.000000 0.029241
#
#
# Mechanical properties :
#
#
# Convention : Reuss Voigt Hill
#
# Bulk Modulus (GPa) = 65.72669 66.16217 65.94443
# Shear Modulus (GPa) = 27.42143 30.36300 28.89221
#
# Velocity S-wave (km/s) = 3.64481 3.83533 3.74128
# Velocity P-wave (km/s) = 7.03953 7.18791 7.11411
#
# Compressibility (1/GPa) = 0.01521452
#
# Stress axis : x y z
#
# Youngs Moduli (GPa) = 61.54235 69.68381 70.26020
#
# Poissons Ratio (x) = 0.45237 0.31479
# Poissons Ratio (y) = 0.39952 0.26958
# Poissons Ratio (z) = 0.27573 0.26736
#
# Static dielectric constant tensor:
#      x y z
#    x 3.675480 0.000000 0.000000 
#    y 0.000000 4.185760 0.000000 
#    z 0.000000 0.000000 3.519610 
# 
# 
# High freq. dielectric constant tensor:
#      x y z
#    x 1.794280 0.000000 0.000000 
#    y 0.000000 1.824980 0.000000 
#    z 0.000000 0.000000 1.781740 
# 
# From -- ./inp_files/3717.got.cif
#   From: 2010.03.12/outbox.cif.g09.slc.cpg/sg32_2_cif.got.tgz:3717.got - 2010.04.14 01:46:39.
