data_PCOD8170494
_publ_section_title
;
Structure prediction by ZEFSAII (Michael W. Deem and Ramdas Pophale) SiO2 
 PCOD8170494
Probable space group: P B A 2
;
_chemical_formula_sum "Si O2"
_cell_formula_units_Z 28
_cell_length_a 5.052779
_cell_length_b 23.791238
_cell_length_c 12.371141
_cell_angle_alpha 90.000000
_cell_angle_beta 90.000000
_cell_angle_gamma 90.000000
_cell_volume 1487.157966
_symmetry_space_group_name_H-M "P B A 2"
_symmetry_group_IT_number 32
_symmetry_cell_setting 'orthorhombic'
loop_
_space_group_symop_operation_xyz
x,y,z
-x,-y,z
1/2-x,1/2+y,z
1/2+x,1/2-y,z
loop_
_atom_site_type_symbol
_atom_site_label
_atom_site_fract_x
_atom_site_fract_y
_atom_site_fract_z
Si Si1 0.544785 0.435535 0.523980
Si Si2 0.959266 0.286597 0.022133
Si Si3 0.955314 0.629450 0.589173
Si Si4 0.044787 0.064465 0.269721
Si Si5 0.544690 0.129448 0.204524
Si Si6 0.928504 0.713890 0.396848
Si Si7 0.540738 0.786597 0.771569
O O1 0.500000 0.500000 0.554108
O O2 0.836626 0.419668 0.563581
O O3 0.509084 0.424818 0.396850
O O4 0.335450 0.397059 0.586727
O O5 0.680437 0.259077 0.053198
O O6 0.996284 0.344452 0.086722
O O7 0.977135 0.303184 0.896851
O O8 0.990285 0.678651 0.502981
O O9 0.003711 0.655550 0.706977
O O10 0.835454 0.102940 0.206968
O O11 0.336631 0.080331 0.230121
O O12 0.000000 0.000000 0.239590
O O13 0.509725 0.178651 0.290716
O O14 0.123375 0.767281 0.396849
O O15 0.319575 0.740920 0.740506
#
# Coordination Sequence:
#
# PCOD8170494 Si02
#       7
#     4   4   4   4   4   4   4
#     4  11  22  38  57  81 111 147 191 229 274 334
#     4  10  21  38  59  83 112 150 189 222 266 333
#     4  12  21  37  57  82 113 146 183 230 278 327
#     4  11  22  38  57  81 111 147 191 229 274 334
#     4  12  21  37  57  82 113 146 183 230 278 327
#     4  12  22  32  49  80 115 140 168 216 278 328
#     4  10  21  38  59  83 112 150 189 222 266 333
#
# _framework density 18.827856000000001
#
# number of rings (size 3 to 8) (size 9 to 14) (size 15 to 20)
#    0.000    0.857    2.857    6.000    0.000    2.286 
#    0.000    0.000    0.000    5.143    0.000    0.000 
#    0.000    0.000    0.000    0.000    0.000    0.000 
#
# Total GULP energy -347445.326786 kJ/mol
# GULP energy per Si atom -12408.761671 kJ/mol
# Density = 1.878500 g / cm^3
# Si number density = 18.827856 Si / 1000 Ang^3
#
#
#
# Elastic Constant Matrix: (Units=GPa)
#
#
# Indices 1 2 3 4 5 6 
#
# 1 65.4485 5.6712 5.4970 0.0000 0.0000 0.0000
# 2 5.6712 79.8367 38.7244 0.0000 0.0000 0.0000
# 3 5.4970 38.7244 67.0018 0.0000 0.0000 0.0000
# 4 0.0000 0.0000 0.0000 25.2383 0.0000 0.0000
# 5 0.0000 0.0000 0.0000 0.0000 21.6245 0.0000
# 6 0.0000 0.0000 0.0000 0.0000 0.0000 41.5429
#
#
#
# Elastic Compliance Matrix: (Units=1/GPa)
#
#
# Indices 1 2 3 4 5 6 
#
# 1 0.015411 -0.000669 -0.000878 0.000000 0.000000 0.000000
# 2 -0.000669 0.017434 -0.010021 0.000000 0.000000 0.000000
# 3 -0.000878 -0.010021 0.020789 0.000000 0.000000 0.000000
# 4 0.000000 0.000000 0.000000 0.039622 0.000000 0.000000
# 5 0.000000 0.000000 0.000000 0.000000 0.046244 0.000000
# 6 0.000000 0.000000 0.000000 0.000000 0.000000 0.024072
#
#
# Mechanical properties :
#
#
# Convention : Reuss Voigt Hill
#
# Bulk Modulus (GPa) = 32.78924 34.67467 33.73196
# Shear Modulus (GPa) = 25.39709 28.50742 26.95226
#
# Velocity S-wave (km/s) = 3.67674 3.89538 3.78763
# Velocity P-wave (km/s) = 5.95631 6.22002 6.08959
#
# Compressibility (1/GPa) = 0.03049781
#
# Stress axis : x y z
#
# Youngs Moduli (GPa) = 64.88919 57.35978 48.10277
#
# Poissons Ratio (x) = 0.03837 0.04222
# Poissons Ratio (y) = 0.04341 0.48205
# Poissons Ratio (z) = 0.05695 0.57481
#
# Static dielectric constant tensor:
#      x y z
#    x 3.634110 0.000000 0.000000 
#    y 0.000000 3.364740 0.000000 
#    z 0.000000 0.000000 3.396660 
# 
# 
# High freq. dielectric constant tensor:
#      x y z
#    x 1.753760 0.000000 0.000000 
#    y 0.000000 1.728030 0.000000 
#    z 0.000000 0.000000 1.715400 
# 
# From -- ./inp_files/3564.got.cif
#   From: 2010.03.12/outbox.cif.g09.slc.cpg/sg32_2_cif.got.tgz:3564.got - 2010.04.14 01:46:39.
