data_PCOD8170036
_publ_section_title
;
Structure prediction by ZEFSAII (Michael W. Deem and Ramdas Pophale) SiO2 
 PCOD8170036
Probable space group: P M N 21
;
_chemical_formula_sum "Si O2"
_cell_formula_units_Z 24
_cell_length_a 9.219832
_cell_length_b 9.216065
_cell_length_c 15.437688
_cell_angle_alpha 90.000000
_cell_angle_beta 90.000000
_cell_angle_gamma 90.000000
_cell_volume 1311.749164
_symmetry_space_group_name_H-M "P M N 21"
_symmetry_group_IT_number 31
_symmetry_cell_setting 'orthorhombic'
loop_
_space_group_symop_operation_xyz
x,y,z
1/2-x,-y,1/2+z
-x,y,z
1/2+x,-y,1/2+z
loop_
_atom_site_type_symbol
_atom_site_label
_atom_site_fract_x
_atom_site_fract_y
_atom_site_fract_z
Si Si1 0.670366 0.939922 0.190530
Si Si2 0.830274 0.917186 0.511213
Si Si3 0.161494 0.347684 0.955819
Si Si4 0.169760 0.095745 0.342984
Si Si5 0.329624 0.570592 0.860906
Si Si6 0.160564 0.354417 0.764232
O O1 0.500000 0.952162 0.208411
O O2 0.719624 0.771137 0.200348
O O3 0.712156 0.987757 0.094200
O O4 0.750142 0.043135 0.257672
O O5 0.744551 0.765342 0.517325
O O6 0.000000 0.881187 0.508738
O O7 0.781097 0.006340 0.427033
O O8 0.000000 0.378436 0.993326
O O9 0.252067 0.498726 0.945673
O O10 0.150505 0.279013 0.859325
O O11 0.212407 0.262119 0.358947
O O12 0.000000 0.078342 0.326527
O O13 0.500000 0.543672 0.867636
O O14 0.269363 0.492425 0.772390
O O15 0.000000 0.408860 0.735311
#
# Coordination Sequence:
#
# PCOD8170036 Si02
#       6
#     4   4   4   4   4   4
#     4  10  20  34  54  78 102 132 173 214 256 307
#     4  10  20  34  54  78 102 133 172 214 258 306
#     4   9  17  31  51  73  99 133 169 206 252 300
#     4  10  20  34  52  77 107 135 168 213 258 303
#     4   9  17  30  51  74 100 137 172 205 252 305
#     4   8  16  31  50  72  98 132 170 206 250 299
#
# _framework density 18.296182000000002
#
# number of rings (size 3 to 8) (size 9 to 14) (size 15 to 20)
#    1.000    1.667    1.667    0.500    0.000    2.667 
#    0.000    1.667    0.000    4.000    0.000    0.000 
#    0.000    0.000    0.000    0.000    0.000    0.000 
#
# Total GULP energy -297383.033542 kJ/mol
# GULP energy per Si atom -12390.959731 kJ/mol
# Density = 1.825454 g / cm^3
# Si number density = 18.296182 Si / 1000 Ang^3
#
#
#
# Elastic Constant Matrix: (Units=GPa)
#
#
# Indices 1 2 3 4 5 6 
#
# 1 74.9084 48.9454 20.8051 0.0000 0.0000 0.0000
# 2 48.9454 95.7941 17.3147 0.0000 0.0000 0.0000
# 3 20.8051 17.3147 56.6134 0.0000 0.0000 0.0000
# 4 0.0000 0.0000 0.0000 10.2264 0.0000 0.0000
# 5 0.0000 0.0000 0.0000 0.0000 20.6504 0.0000
# 6 0.0000 0.0000 0.0000 0.0000 0.0000 27.8639
#
#
#
# Elastic Compliance Matrix: (Units=1/GPa)
#
#
# Indices 1 2 3 4 5 6 
#
# 1 0.021175 -0.009963 -0.004734 0.000000 0.000000 0.000000
# 2 -0.009963 0.015738 -0.001152 0.000000 0.000000 0.000000
# 3 -0.004734 -0.001152 0.019756 0.000000 0.000000 0.000000
# 4 0.000000 0.000000 0.000000 0.097786 0.000000 0.000000
# 5 0.000000 0.000000 0.000000 0.000000 0.048425 0.000000
# 6 0.000000 0.000000 0.000000 0.000000 0.000000 0.035889
#
#
# Mechanical properties :
#
#
# Convention : Reuss Voigt Hill
#
# Bulk Modulus (GPa) = 40.04912 44.60511 42.32712
# Shear Modulus (GPa) = 17.93464 21.09820 19.51642
#
# Velocity S-wave (km/s) = 3.13427 3.39949 3.26957
# Velocity P-wave (km/s) = 5.91904 6.31198 6.11867
#
# Compressibility (1/GPa) = 0.02496934
#
# Stress axis : x y z
#
# Youngs Moduli (GPa) = 47.22635 63.54070 50.61805
#
# Poissons Ratio (x) = 0.63308 0.23964
# Poissons Ratio (y) = 0.47053 0.05830
# Poissons Ratio (z) = 0.22359 0.07319
#
# Static dielectric constant tensor:
#      x y z
#    x 3.331900 0.000000 0.000000 
#    y 0.000000 3.267890 0.000000 
#    z 0.000000 0.000000 3.118650 
# 
# 
# High freq. dielectric constant tensor:
#      x y z
#    x 1.709370 0.000000 0.000000 
#    y 0.000000 1.707180 0.000000 
#    z 0.000000 0.000000 1.676110 
# 
# From -- ./inp_files/5715.got.cif
#   From: 2010.03.12/outbox.cif.g09.slc.cpg/sg31_3_cif.got.tgz:5715.got - 2010.04.14 01:42:59.
