data_PCOD8170528
_publ_section_title
;
Structure prediction by ZEFSAII (Michael W. Deem and Ramdas Pophale) SiO2 
 PCOD8170528
Probable space group: P B A 2
;
_chemical_formula_sum "Si O2"
_cell_formula_units_Z 30
_cell_length_a 8.721584
_cell_length_b 10.777831
_cell_length_c 14.514908
_cell_angle_alpha 90.000000
_cell_angle_beta 90.000000
_cell_angle_gamma 90.000000
_cell_volume 1364.397845
_symmetry_space_group_name_H-M "P B A 2"
_symmetry_group_IT_number 32
_symmetry_cell_setting 'orthorhombic'
loop_
_space_group_symop_operation_xyz
x,y,z
-x,-y,z
1/2-x,1/2+y,z
1/2+x,1/2-y,z
loop_
_atom_site_type_symbol
_atom_site_label
_atom_site_fract_x
_atom_site_fract_y
_atom_site_fract_z
Si Si1 0.411917 0.867448 0.635750
Si Si2 0.566610 0.133650 0.845478
Si Si3 0.101562 0.169378 0.089567
Si Si4 0.839173 0.212539 0.963248
Si Si5 0.587832 0.633846 0.546038
Si Si6 0.000000 0.000000 0.228359
Si Si7 0.985739 0.639708 0.242103
Si Si8 0.814144 0.191801 0.342155
O O1 0.401101 0.824613 0.741562
O O2 0.485113 0.748476 0.583393
O O3 0.236491 0.889391 0.607731
O O4 0.500000 0.000000 0.620250
O O5 0.717350 0.128194 0.909551
O O6 0.438349 0.222443 0.885526
O O7 0.500000 0.000000 0.843751
O O8 0.056947 0.292049 0.147345
O O9 0.251676 0.188528 0.028323
O O10 0.131315 0.058679 0.161899
O O11 0.954002 0.132787 0.026531
O O12 0.500000 0.500000 0.539423
O O13 0.650867 0.682871 0.449083
O O14 0.068727 0.896825 0.291212
O O15 0.860694 0.659325 0.323009
O O16 0.000000 0.500000 0.211019
O O17 0.145272 0.676844 0.293443
#
# Coordination Sequence:
#
# PCOD8170528 Si02
#       8
#     4   4   4   4   4   2   4   4
#     4  11  25  46  71 105 141 182 230 292 359 426
#     4  10  23  44  68  94 134 171 216 280 344 404
#     4  10  22  38  61  94 127 174 222 267 333 383
#     4  10  22  40  62  97 125 167 223 269 323 408
#     4  12  25  44  73 104 139 182 233 290 351 425
#     4  10  22  38  62  86 138 162 218 272 318 390
#     4  11  26  42  65  90 135 181 226 283 335 396
#     4  11  25  43  64  96 129 178 228 273 336 394
#
# _framework density 21.987722999999999
#
# number of rings (size 3 to 8) (size 9 to 14) (size 15 to 20)
#    0.000    1.333    0.667    4.000    7.467    6.400 
#    0.000    0.000    0.000    0.000    0.000    0.000 
#    0.000    0.000    0.000    0.000    0.000    0.000 
#
# Total GULP energy -371803.036512 kJ/mol
# GULP energy per Si atom -12393.434550 kJ/mol
# Density = 2.193768 g / cm^3
# Si number density = 21.987723 Si / 1000 Ang^3
#
#
#
# Elastic Constant Matrix: (Units=GPa)
#
#
# Indices 1 2 3 4 5 6 
#
# 1 86.8998 -12.2338 24.3109 0.0000 0.0000 0.0000
# 2 -12.2338 63.1951 18.9319 0.0000 0.0000 0.0000
# 3 24.3109 18.9319 128.6806 0.0000 0.0000 0.0000
# 4 0.0000 0.0000 0.0000 54.6509 0.0000 0.0000
# 5 0.0000 0.0000 0.0000 0.0000 44.4107 0.0000
# 6 0.0000 0.0000 0.0000 0.0000 0.0000 13.9026
#
#
#
# Elastic Compliance Matrix: (Units=1/GPa)
#
#
# Indices 1 2 3 4 5 6 
#
# 1 0.012793 0.003348 -0.002909 0.000000 0.000000 0.000000
# 2 0.003348 0.017430 -0.003197 0.000000 0.000000 0.000000
# 3 -0.002909 -0.003197 0.008791 0.000000 0.000000 0.000000
# 4 0.000000 0.000000 0.000000 0.018298 0.000000 0.000000
# 5 0.000000 0.000000 0.000000 0.000000 0.022517 0.000000
# 6 0.000000 0.000000 0.000000 0.000000 0.000000 0.071929
#
#
# Mechanical properties :
#
#
# Convention : Reuss Voigt Hill
#
# Bulk Modulus (GPa) = 29.85301 37.86595 33.85948
# Shear Modulus (GPa) = 29.68416 39.11061 34.39738
#
# Velocity S-wave (km/s) = 3.67827 4.22210 3.95953
# Velocity P-wave (km/s) = 5.62549 6.40523 6.02798
#
# Compressibility (1/GPa) = 0.03349746
#
# Stress axis : x y z
#
# Youngs Moduli (GPa) = 78.16897 57.37275 113.75037
#
# Poissons Ratio (x) = -0.19209 0.33095
# Poissons Ratio (y) = -0.26172 0.36365
# Poissons Ratio (z) = 0.22743 0.18341
#
# Static dielectric constant tensor:
#      x y z
#    x 4.060500 0.000000 0.000000 
#    y 0.000000 2.456680 0.000000 
#    z 0.000000 0.000000 4.560610 
# 
# 
# High freq. dielectric constant tensor:
#      x y z
#    x 1.875560 0.000000 0.000000 
#    y 0.000000 1.863260 0.000000 
#    z 0.000000 0.000000 1.882440 
# 
# From -- ./inp_files/4132.got.cif
#   From: 2010.03.12/outbox.cif.g09.slc.cpg/sg32_3_cif.got.tgz:4132.got - 2010.04.14 01:46:39.
