data_PCOD8170689
_publ_section_title
;
Structure prediction by ZEFSAII (Michael W. Deem and Ramdas Pophale) SiO2 
 PCOD8170689
Probable space group: P N A 21
;
_chemical_formula_sum "Si O2"
_cell_formula_units_Z 24
_cell_length_a 15.576018
_cell_length_b 7.972148
_cell_length_c 8.921701
_cell_angle_alpha 90.000000
_cell_angle_beta 90.000000
_cell_angle_gamma 90.000000
_cell_volume 1107.846162
_symmetry_space_group_name_H-M "P N A 21"
_symmetry_group_IT_number 33
_symmetry_cell_setting 'orthorhombic'
loop_
_space_group_symop_operation_xyz
x,y,z
-x,-y,1/2+z
1/2-x,1/2+y,1/2+z
1/2+x,1/2-y,z
loop_
_atom_site_type_symbol
_atom_site_label
_atom_site_fract_x
_atom_site_fract_y
_atom_site_fract_z
Si Si1 0.429936 0.408858 0.825830
Si Si2 0.509962 0.241036 0.395554
Si Si3 0.099248 0.741028 0.623938
Si Si4 0.661882 0.106064 0.570801
Si Si5 0.884977 0.909744 0.256916
Si Si6 0.349355 0.395277 0.525395
O O1 0.439072 0.583308 0.916071
O O2 0.514423 0.376169 0.723985
O O3 0.352721 0.418546 0.705560
O O4 0.418521 0.261308 0.946563
O O5 0.488976 0.207816 0.219262
O O6 0.576269 0.108196 0.465723
O O7 0.415515 0.247188 0.475128
O O8 0.161561 0.579947 0.643715
O O9 0.145020 0.912072 0.683570
O O10 0.664714 0.248291 0.699086
O O11 0.750101 0.140255 0.481010
O O12 0.874278 0.932877 0.436843
#
# Coordination Sequence:
#
# PCOD8170689 Si02
#       6
#     4   4   4   4   4   4
#     4  10  18  42  70  88 126 178 211 277 335 404
#     4  10  21  45  65  93 132 179 217 278 349 402
#     4  10  23  39  66  97 126 170 236 268 338 413
#     4  12  24  39  70  99 132 179 224 289 337 403
#     4  10  21  46  61  92 132 176 213 279 346 402
#     4  10  23  39  70  97 130 176 231 273 345 414
#
# _framework density 21.663654999999999
#
# number of rings (size 3 to 8) (size 9 to 14) (size 15 to 20)
#    0.000    2.000    3.333    3.000    4.667    2.667 
#    0.000    0.000    0.000    0.000    0.000    0.000 
#    0.000    0.000    0.000    0.000    0.000    0.000 
#
# Total GULP energy -297357.826785 kJ/mol
# GULP energy per Si atom -12389.909449 kJ/mol
# Density = 2.161435 g / cm^3
# Si number density = 21.663655 Si / 1000 Ang^3
#
#
#
# Elastic Constant Matrix: (Units=GPa)
#
#
# Indices 1 2 3 4 5 6 
#
# 1 118.0680 39.1458 38.5552 0.0000 0.0000 0.0000
# 2 39.1458 117.1843 42.4162 0.0000 0.0000 0.0000
# 3 38.5552 42.4162 124.5499 0.0000 0.0000 0.0000
# 4 0.0000 0.0000 0.0000 27.6786 0.0000 0.0000
# 5 0.0000 0.0000 0.0000 0.0000 24.7785 0.0000
# 6 0.0000 0.0000 0.0000 0.0000 0.0000 18.5597
#
#
#
# Elastic Compliance Matrix: (Units=1/GPa)
#
#
# Indices 1 2 3 4 5 6 
#
# 1 0.010046 -0.002544 -0.002243 0.000000 0.000000 0.000000
# 2 -0.002544 0.010378 -0.002747 0.000000 0.000000 0.000000
# 3 -0.002243 -0.002747 0.009659 0.000000 0.000000 0.000000
# 4 0.000000 0.000000 0.000000 0.036129 0.000000 0.000000
# 5 0.000000 0.000000 0.000000 0.000000 0.040358 0.000000
# 6 0.000000 0.000000 0.000000 0.000000 0.000000 0.053880
#
#
# Mechanical properties :
#
#
# Convention : Reuss Voigt Hill
#
# Bulk Modulus (GPa) = 66.60340 66.67072 66.63706
# Shear Modulus (GPa) = 27.69761 30.18237 28.93999
#
# Velocity S-wave (km/s) = 3.57953 3.73664 3.65893
# Velocity P-wave (km/s) = 6.92063 7.03270 6.97689
#
# Compressibility (1/GPa) = 0.01501425
#
# Stress axis : x y z
#
# Youngs Moduli (GPa) = 99.54536 96.36221 103.53278
#
# Poissons Ratio (x) = 0.24512 0.23227
# Poissons Ratio (y) = 0.25322 0.28437
# Poissons Ratio (z) = 0.22332 0.26468
#
# Static dielectric constant tensor:
#      x y z
#    x 3.697690 0.000000 0.000000 
#    y 0.000000 3.659310 0.000000 
#    z 0.000000 0.000000 3.929260 
# 
# 
# High freq. dielectric constant tensor:
#      x y z
#    x 1.827420 0.000000 0.000000 
#    y 0.000000 1.825480 0.000000 
#    z 0.000000 0.000000 1.857950 
# 
# From -- ./inp_files/4284.got.cif
#   From: 2010.03.12/outbox.cif.g09.slc.cpg/sg33_3_cif.got.tgz:4284.got - 2010.04.14 01:49:19.
