data_PCOD8170138
_publ_section_title
;
Structure prediction by ZEFSAII (Michael W. Deem and Ramdas Pophale) SiO2 
 PCOD8170138
Probable space group: P M N 21
;
_chemical_formula_sum "Si O2"
_cell_formula_units_Z 32
_cell_length_a 8.745977
_cell_length_b 16.884768
_cell_length_c 10.867403
_cell_angle_alpha 90.000000
_cell_angle_beta 90.000000
_cell_angle_gamma 90.000000
_cell_volume 1604.830616
_symmetry_space_group_name_H-M "P M N 21"
_symmetry_group_IT_number 31
_symmetry_cell_setting 'orthorhombic'
loop_
_space_group_symop_operation_xyz
x,y,z
1/2-x,-y,1/2+z
-x,y,z
1/2+x,-y,1/2+z
loop_
_atom_site_type_symbol
_atom_site_label
_atom_site_fract_x
_atom_site_fract_y
_atom_site_fract_z
Si Si1 0.327343 0.865700 0.089180
Si Si2 0.178053 0.168790 0.120126
Si Si3 0.328021 0.310883 0.011286
Si Si4 0.325545 0.026584 0.990290
Si Si5 0.829417 0.739645 0.241205
Si Si6 0.818469 0.564035 0.186632
Si Si7 0.676999 0.102953 0.354732
Si Si8 0.679392 0.528951 0.443644
O O1 0.500000 0.840511 0.056664
O O2 0.320777 0.962381 0.104875
O O3 0.273242 0.815076 0.205452
O O4 0.214016 0.843963 0.975517
O O5 0.257607 0.254575 0.115119
O O6 0.209482 0.135401 0.253384
O O7 0.000000 0.177146 0.093424
O O8 0.251092 0.109573 0.021694
O O9 0.500000 0.337716 0.047048
O O10 0.219361 0.385597 0.996841
O O11 0.329761 0.259940 0.887488
O O12 0.500000 0.041075 0.948113
O O13 0.226676 0.988321 0.879240
O O14 0.762940 0.655541 0.191825
O O15 0.000000 0.751673 0.189205
O O16 0.754060 0.516229 0.307500
O O17 0.764055 0.530514 0.053349
O O18 0.000000 0.559050 0.201142
O O19 0.500000 0.108928 0.315133
O O20 0.500000 0.519874 0.425024
#
# Coordination Sequence:
#
# PCOD8170138 Si02
#       8
#     4   4   4   4   4   4   4   4
#     4   9  19  35  55  81 112 144 185 235 283 332
#     4  12  23  37  58  84 113 148 193 238 290 346
#     4  10  22  39  58  83 117 154 191 236 289 345
#     4   9  20  37  54  78 110 145 188 235 284 336
#     4   9  18  35  59  82 111 149 191 234 283 341
#     4   9  20  38  59  87 122 157 197 245 295 357
#     4  10  20  37  57  78 109 147 186 234 288 338
#     4  10  20  38  62  89 120 156 199 247 298 355
#
# _framework density 19.939798
#
# number of rings (size 3 to 8) (size 9 to 14) (size 15 to 20)
#    0.750    1.500    0.000    4.125    0.000    4.500 
#    2.250    2.500    0.000    0.000    0.000    0.000 
#    0.000    0.000    0.000    0.000    0.000    0.000 
#
# Total GULP energy -396460.301534 kJ/mol
# GULP energy per Si atom -12389.384423 kJ/mol
# Density = 1.989441 g / cm^3
# Si number density = 19.939798 Si / 1000 Ang^3
#
#
#
# Elastic Constant Matrix: (Units=GPa)
#
#
# Indices 1 2 3 4 5 6 
#
# 1 77.9646 9.3456 11.4536 0.0000 0.0000 0.0000
# 2 9.3456 34.3506 -3.1255 0.0000 0.0000 0.0000
# 3 11.4536 -3.1255 32.9589 0.0000 0.0000 0.0000
# 4 0.0000 0.0000 0.0000 32.7310 0.0000 0.0000
# 5 0.0000 0.0000 0.0000 0.0000 32.2505 0.0000
# 6 0.0000 0.0000 0.0000 0.0000 0.0000 25.9885
#
#
#
# Elastic Compliance Matrix: (Units=1/GPa)
#
#
# Indices 1 2 3 4 5 6 
#
# 1 0.014127 -0.004327 -0.005319 0.000000 0.000000 0.000000
# 2 -0.004327 0.030691 0.004414 0.000000 0.000000 0.000000
# 3 -0.005319 0.004414 0.032608 0.000000 0.000000 0.000000
# 4 0.000000 0.000000 0.000000 0.030552 0.000000 0.000000
# 5 0.000000 0.000000 0.000000 0.000000 0.031007 0.000000
# 6 0.000000 0.000000 0.000000 0.000000 0.000000 0.038479
#
#
# Mechanical properties :
#
#
# Convention : Reuss Voigt Hill
#
# Bulk Modulus (GPa) = 14.93436 20.06906 17.50171
# Shear Modulus (GPa) = 23.78141 26.70068 25.24105
#
# Velocity S-wave (km/s) = 3.45724 3.66329 3.56176
# Velocity P-wave (km/s) = 4.84176 5.28958 5.07062
#
# Compressibility (1/GPa) = 0.06695966
#
# Stress axis : x y z
#
# Youngs Moduli (GPa) = 70.78878 32.58335 30.66736
#
# Poissons Ratio (x) = 0.14100 0.16313
# Poissons Ratio (y) = 0.30633 -0.13537
# Poissons Ratio (z) = 0.37656 -0.14383
#
# Static dielectric constant tensor:
#      x y z
#    x 3.580590 0.000000 0.000000 
#    y 0.000000 3.533270 0.000000 
#    z 0.000000 0.000000 3.520970 
# 
# 
# High freq. dielectric constant tensor:
#      x y z
#    x 1.782790 0.000000 0.000000 
#    y 0.000000 1.763990 0.000000 
#    z 0.000000 0.000000 1.764810 
# 
# From -- ./inp_files/3765.got.cif
#   From: 2010.03.12/outbox.cif.g09.slc.cpg/sg31_2_cif.got.tgz:3765.got - 2010.04.14 01:42:59.
