data_PCOD8170222
_publ_section_title
;
Structure prediction by ZEFSAII (Michael W. Deem and Ramdas Pophale) SiO2 
 PCOD8170222
Probable space group: P M N 21
;
_chemical_formula_sum "Si O2"
_cell_formula_units_Z 32
_cell_length_a 14.084630
_cell_length_b 12.106657
_cell_length_c 9.586207
_cell_angle_alpha 90.000000
_cell_angle_beta 90.000000
_cell_angle_gamma 90.000000
_cell_volume 1634.618778
_symmetry_space_group_name_H-M "P M N 21"
_symmetry_group_IT_number 31
_symmetry_cell_setting 'orthorhombic'
loop_
_space_group_symop_operation_xyz
x,y,z
1/2-x,-y,1/2+z
-x,y,z
1/2+x,-y,1/2+z
loop_
_atom_site_type_symbol
_atom_site_label
_atom_site_fract_x
_atom_site_fract_y
_atom_site_fract_z
Si Si1 0.605226 0.854973 0.819360
Si Si2 0.611076 0.090305 0.873810
Si Si3 0.893465 0.670098 0.298142
Si Si4 0.716551 0.270826 0.306205
Si Si5 0.889908 0.570101 0.598976
Si Si6 0.604627 0.832655 0.151056
Si Si7 0.766342 0.357268 0.604196
Si Si8 0.111662 0.923770 0.683442
O O1 0.500000 0.835060 0.754914
O O2 0.676287 0.762322 0.756679
O O3 0.645333 0.979873 0.790421
O O4 0.601357 0.844395 0.985250
O O5 0.500000 0.071235 0.899039
O O6 0.630333 0.199414 0.782582
O O7 0.654994 0.102874 0.029546
O O8 0.883556 0.639486 0.458776
O O9 0.819648 0.601595 0.203381
O O10 0.000000 0.643949 0.245680
O O11 0.670555 0.366904 0.215053
O O12 0.718255 0.312931 0.463988
O O13 0.655958 0.158209 0.297810
O O14 0.841985 0.452274 0.571790
O O15 0.000000 0.555522 0.645290
O O16 0.500000 0.798947 0.205610
O O17 0.679220 0.738116 0.191039
O O18 0.635195 0.948720 0.221949
O O19 0.000000 0.902093 0.686000
#
# Coordination Sequence:
#
# PCOD8170222 Si02
#       8
#     4   4   4   4   4   4   4   4
#     4   8  16  30  52  83 116 148 184 228 279 338
#     4   8  14  30  54  78 108 149 188 220 265 333
#     4  10  21  37  57  82 113 150 190 233 282 343
#     4  11  21  34  59  90 115 143 195 241 297 333
#     4  11  23  42  63  81 108 154 203 240 279 344
#     4   8  16  32  54  80 112 151 190 230 280 340
#     4  11  23  37  56  87 120 146 191 244 297 332
#     4   9  16  30  54  83 110 143 190 234 274 333
#
# _framework density 19.576430999999999
#
# number of rings (size 3 to 8) (size 9 to 14) (size 15 to 20)
#    0.000    2.500    1.250    3.000    1.750    1.500 
#    0.000    0.625    0.000    1.500    0.000    0.000 
#    0.000    0.000    0.000    0.000    0.000    0.000 
#
# Total GULP energy -396588.505857 kJ/mol
# GULP energy per Si atom -12393.390808 kJ/mol
# Density = 1.953187 g / cm^3
# Si number density = 19.576431 Si / 1000 Ang^3
#
#
#
# Elastic Constant Matrix: (Units=GPa)
#
#
# Indices 1 2 3 4 5 6 
#
# 1 103.0563 46.9768 36.1515 0.0000 0.0000 0.0000
# 2 46.9768 82.9174 23.8591 0.0000 0.0000 0.0000
# 3 36.1515 23.8591 45.5054 0.0000 0.0000 0.0000
# 4 0.0000 0.0000 0.0000 20.5791 0.0000 0.0000
# 5 0.0000 0.0000 0.0000 0.0000 24.4800 0.0000
# 6 0.0000 0.0000 0.0000 0.0000 0.0000 39.0797
#
#
#
# Elastic Compliance Matrix: (Units=1/GPa)
#
#
# Indices 1 2 3 4 5 6 
#
# 1 0.015827 -0.006299 -0.009271 0.000000 0.000000 0.000000
# 2 -0.006299 0.016710 -0.003757 0.000000 0.000000 0.000000
# 3 -0.009271 -0.003757 0.031311 0.000000 0.000000 0.000000
# 4 0.000000 0.000000 0.000000 0.048593 0.000000 0.000000
# 5 0.000000 0.000000 0.000000 0.000000 0.040850 0.000000
# 6 0.000000 0.000000 0.000000 0.000000 0.000000 0.025589
#
#
# Mechanical properties :
#
#
# Convention : Reuss Voigt Hill
#
# Bulk Modulus (GPa) = 39.69292 49.49489 44.59391
# Shear Modulus (GPa) = 22.13066 25.12721 23.62893
#
# Velocity S-wave (km/s) = 3.36590 3.58654 3.47797
# Velocity P-wave (km/s) = 5.95194 6.51835 6.24157
#
# Compressibility (1/GPa) = 0.02519341
#
# Stress axis : x y z
#
# Youngs Moduli (GPa) = 63.18319 59.84438 31.93809
#
# Poissons Ratio (x) = 0.37697 0.29610
# Poissons Ratio (y) = 0.39800 0.11999
# Poissons Ratio (z) = 0.58577 0.22484
#
# Static dielectric constant tensor:
#      x y z
#    x 3.775940 0.000000 0.000000 
#    y 0.000000 3.778220 0.000000 
#    z 0.000000 0.000000 3.075590 
# 
# 
# High freq. dielectric constant tensor:
#      x y z
#    x 1.767680 0.000000 0.000000 
#    y 0.000000 1.768780 0.000000 
#    z 0.000000 0.000000 1.713750 
# 
# From -- ./inp_files/2606.got.cif
#   From: 2010.03.12/outbox.cif.g09.slc.cpg/sg31_2_cif.got.tgz:2606.got - 2010.04.14 01:42:59.
