data_PCOD8170278
_publ_section_title
;
Structure prediction by ZEFSAII (Michael W. Deem and Ramdas Pophale) SiO2 
 PCOD8170278
Probable space group: P M N 21
;
_chemical_formula_sum "Si O2"
_cell_formula_units_Z 24
_cell_length_a 8.637140
_cell_length_b 9.844482
_cell_length_c 13.849573
_cell_angle_alpha 90.000000
_cell_angle_beta 90.000000
_cell_angle_gamma 90.000000
_cell_volume 1177.603837
_symmetry_space_group_name_H-M "P M N 21"
_symmetry_group_IT_number 31
_symmetry_cell_setting 'orthorhombic'
loop_
_space_group_symop_operation_xyz
x,y,z
1/2-x,-y,1/2+z
-x,y,z
1/2+x,-y,1/2+z
loop_
_atom_site_type_symbol
_atom_site_label
_atom_site_fract_x
_atom_site_fract_y
_atom_site_fract_z
Si Si1 0.324073 0.337732 0.108990
Si Si2 0.680016 0.490351 0.920211
Si Si3 0.680759 0.855404 0.115702
Si Si4 0.179995 0.104910 0.221778
Si Si5 0.173919 0.403578 0.736471
Si Si6 0.181458 0.786328 0.916745
O O1 0.500000 0.286162 0.095263
O O2 0.217207 0.211485 0.136832
O O3 0.314321 0.446850 0.193527
O O4 0.260268 0.403730 0.010859
O O5 0.500000 0.527325 0.932163
O O6 0.709192 0.396773 0.826521
O O7 0.774453 0.628764 0.911419
O O8 0.500000 0.890493 0.121083
O O9 0.719622 0.705066 0.155053
O O10 0.774596 0.957465 0.183320
O O11 0.734082 0.862323 0.004904
O O12 0.274710 0.138076 0.318180
O O13 0.000000 0.110174 0.247089
O O14 0.000000 0.374543 0.773472
O O15 0.000000 0.799203 0.932963
#
# Coordination Sequence:
#
# PCOD8170278 Si02
#       6
#     4   4   4   4   4   4
#     4  10  21  40  63  92 127 166 210 261 317 373
#     4  11  22  38  64  96 129 166 213 265 319 376
#     4  11  24  45  68  93 130 171 212 267 325 381
#     4  12  26  43  65  96 131 171 216 261 318 385
#     4  10  21  39  64  93 126 163 209 260 316 376
#     4  12  24  41  66  94 127 169 214 262 321 385
#
# _framework density 20.380368000000001
#
# number of rings (size 3 to 8) (size 9 to 14) (size 15 to 20)
#    0.000    1.000    3.333    4.000    0.000    4.000 
#    0.000    3.333    0.000    0.000    0.000    0.000 
#    0.000    0.000    0.000    0.000    0.000    0.000 
#
# Total GULP energy -297743.634370 kJ/mol
# GULP energy per Si atom -12405.984765 kJ/mol
# Density = 2.033398 g / cm^3
# Si number density = 20.380368 Si / 1000 Ang^3
#
#
#
# Elastic Constant Matrix: (Units=GPa)
#
#
# Indices 1 2 3 4 5 6 
#
# 1 71.1529 22.1094 18.6301 0.0000 0.0000 0.0000
# 2 22.1094 62.6842 7.3661 0.0000 0.0000 0.0000
# 3 18.6301 7.3661 110.3538 0.0000 0.0000 0.0000
# 4 0.0000 0.0000 0.0000 35.3882 0.0000 0.0000
# 5 0.0000 0.0000 0.0000 0.0000 32.4721 0.0000
# 6 0.0000 0.0000 0.0000 0.0000 0.0000 30.8459
#
#
#
# Elastic Compliance Matrix: (Units=1/GPa)
#
#
# Indices 1 2 3 4 5 6 
#
# 1 0.016392 -0.005499 -0.002400 0.000000 0.000000 0.000000
# 2 -0.005499 0.017924 -0.000268 0.000000 0.000000 0.000000
# 3 -0.002400 -0.000268 0.009485 0.000000 0.000000 0.000000
# 4 0.000000 0.000000 0.000000 0.028258 0.000000 0.000000
# 5 0.000000 0.000000 0.000000 0.000000 0.030796 0.000000
# 6 0.000000 0.000000 0.000000 0.000000 0.000000 0.032419
#
#
# Mechanical properties :
#
#
# Convention : Reuss Voigt Hill
#
# Bulk Modulus (GPa) = 36.40950 37.82248 37.11599
# Shear Modulus (GPa) = 31.10152 32.81358 31.95755
#
# Velocity S-wave (km/s) = 3.91071 4.01691 3.96416
# Velocity P-wave (km/s) = 6.18832 6.33345 6.26131
#
# Compressibility (1/GPa) = 0.02746536
#
# Stress axis : x y z
#
# Youngs Moduli (GPa) = 61.00715 55.79049 105.43131
#
# Poissons Ratio (x) = 0.30682 0.25305
# Poissons Ratio (y) = 0.33550 0.02826
# Poissons Ratio (z) = 0.14643 0.01495
#
# Static dielectric constant tensor:
#      x y z
#    x 3.683030 0.000000 0.000000 
#    y 0.000000 3.606670 0.000000 
#    z 0.000000 0.000000 3.842480 
# 
# 
# High freq. dielectric constant tensor:
#      x y z
#    x 1.796700 0.000000 0.000000 
#    y 0.000000 1.790050 0.000000 
#    z 0.000000 0.000000 1.810610 
# 
# From -- ./inp_files/4744.got.cif
#   From: 2010.03.12/outbox.cif.g09.slc.cpg/sg31_3_cif.got.tgz:4744.got - 2010.04.14 01:42:59.
