data_PCOD8170079
_publ_section_title
;
Structure prediction by ZEFSAII (Michael W. Deem and Ramdas Pophale) SiO2 
 PCOD8170079
Probable space group: P M N 21
;
_chemical_formula_sum "Si O2"
_cell_formula_units_Z 32
_cell_length_a 9.227540
_cell_length_b 11.292606
_cell_length_c 16.564551
_cell_angle_alpha 90.000000
_cell_angle_beta 90.000000
_cell_angle_gamma 90.000000
_cell_volume 1726.075470
_symmetry_space_group_name_H-M "P M N 21"
_symmetry_group_IT_number 31
_symmetry_cell_setting 'orthorhombic'
loop_
_space_group_symop_operation_xyz
x,y,z
1/2-x,-y,1/2+z
-x,y,z
1/2+x,-y,1/2+z
loop_
_atom_site_type_symbol
_atom_site_label
_atom_site_fract_x
_atom_site_fract_y
_atom_site_fract_z
Si Si1 0.160293 0.379238 0.101280
Si Si2 0.668972 0.291010 0.786750
Si Si3 0.331780 0.312313 0.374213
Si Si4 0.665688 0.810838 0.728785
Si Si5 0.831810 0.935833 0.186959
Si Si6 0.335200 0.582160 0.414606
Si Si7 0.830713 0.410982 0.647663
Si Si8 0.169210 0.771585 0.045925
O O1 0.175078 0.250393 0.141227
O O2 0.293296 0.452010 0.138144
O O3 0.000000 0.431872 0.122977
O O4 0.177031 0.376934 0.006101
O O5 0.500000 0.321102 0.779879
O O6 0.699324 0.156412 0.759223
O O7 0.728552 0.320694 0.874988
O O8 0.762908 0.377368 0.732307
O O9 0.500000 0.312405 0.351555
O O10 0.245617 0.264384 0.297578
O O11 0.283512 0.446162 0.398773
O O12 0.303908 0.221222 0.449691
O O13 0.500000 0.823204 0.758268
O O14 0.740376 0.939906 0.713821
O O15 0.775549 0.884186 0.099776
O O16 0.000000 0.961402 0.175751
O O17 0.500000 0.596372 0.383381
O O18 0.756053 0.343089 0.574112
O O19 0.000000 0.387067 0.647265
O O20 0.000000 0.749092 0.065048
#
# Coordination Sequence:
#
# PCOD8170079 Si02
#       8
#     4   4   4   4   4   4   4   4
#     4  10  20  36  55  77 110 148 179 221 277 330
#     4  10  20  35  56  78 106 146 183 217 273 330
#     4  10  20  35  56  82 113 143 175 227 283 330
#     4  10  21  37  57  80 108 145 189 229 269 324
#     4   8  17  36  58  77 102 141 188 227 261 322
#     4  10  20  35  54  82 115 138 176 231 279 325
#     4  11  20  31  53  83 111 138 177 224 272 322
#     4   9  17  35  59  79 105 145 185 220 272 329
#
# _framework density 18.539166000000002
#
# number of rings (size 3 to 8) (size 9 to 14) (size 15 to 20)
#    0.000    2.250    1.250    3.000    0.000    4.000 
#    2.250    3.125    0.000    0.000    0.000    0.000 
#    0.000    0.000    0.000    0.000    0.000    0.000 
#
# Total GULP energy -396536.562298 kJ/mol
# GULP energy per Si atom -12391.767572 kJ/mol
# Density = 1.849697 g / cm^3
# Si number density = 18.539166 Si / 1000 Ang^3
#
#
#
# Elastic Constant Matrix: (Units=GPa)
#
#
# Indices 1 2 3 4 5 6 
#
# 1 72.7873 37.9913 42.0802 0.0000 0.0000 0.0000
# 2 37.9913 105.4804 67.5873 0.0000 0.0000 0.0000
# 3 42.0802 67.5873 102.8818 0.0000 0.0000 0.0000
# 4 0.0000 0.0000 0.0000 24.4863 0.0000 0.0000
# 5 0.0000 0.0000 0.0000 0.0000 28.1887 0.0000
# 6 0.0000 0.0000 0.0000 0.0000 0.0000 10.5262
#
#
#
# Elastic Compliance Matrix: (Units=1/GPa)
#
#
# Indices 1 2 3 4 5 6 
#
# 1 0.018579 -0.003147 -0.005532 0.000000 0.000000 0.000000
# 2 -0.003147 0.016905 -0.009818 0.000000 0.000000 0.000000
# 3 -0.005532 -0.009818 0.018433 0.000000 0.000000 0.000000
# 4 0.000000 0.000000 0.000000 0.040839 0.000000 0.000000
# 5 0.000000 0.000000 0.000000 0.000000 0.035475 0.000000
# 6 0.000000 0.000000 0.000000 0.000000 0.000000 0.095001
#
#
# Mechanical properties :
#
#
# Convention : Reuss Voigt Hill
#
# Bulk Modulus (GPa) = 59.09353 64.05193 61.57273
# Shear Modulus (GPa) = 18.66587 21.53960 20.10274
#
# Velocity S-wave (km/s) = 3.17651 3.41228 3.29650
# Velocity P-wave (km/s) = 6.73779 7.08162 6.91184
#
# Compressibility (1/GPa) = 0.01692233
#
# Stress axis : x y z
#
# Youngs Moduli (GPa) = 53.82305 59.15309 54.25186
#
# Poissons Ratio (x) = 0.18618 0.30010
# Poissons Ratio (y) = 0.16940 0.53267
# Poissons Ratio (z) = 0.29773 0.58079
#
# Static dielectric constant tensor:
#      x y z
#    x 3.302700 0.000000 0.000000 
#    y 0.000000 3.470080 0.000000 
#    z 0.000000 0.000000 3.512350 
# 
# 
# High freq. dielectric constant tensor:
#      x y z
#    x 1.701910 0.000000 0.000000 
#    y 0.000000 1.706080 0.000000 
#    z 0.000000 0.000000 1.724320 
# 
# From -- ./inp_files/5901.got.cif
#   From: 2010.03.12/outbox.cif.g09.slc.cpg/sg31_3_cif.got.tgz:5901.got - 2010.04.14 01:42:59.
