data_PCOD8170885
_publ_section_title
;
Structure prediction by ZEFSAII (Michael W. Deem and Ramdas Pophale) SiO2 
 PCOD8170885
Probable space group: P N A 21
;
_chemical_formula_sum "Si O2"
_cell_formula_units_Z 32
_cell_length_a 14.513640
_cell_length_b 11.913616
_cell_length_c 9.125201
_cell_angle_alpha 90.000000
_cell_angle_beta 90.000000
_cell_angle_gamma 90.000000
_cell_volume 1577.837900
_symmetry_space_group_name_H-M "P N A 21"
_symmetry_group_IT_number 33
_symmetry_cell_setting 'orthorhombic'
loop_
_space_group_symop_operation_xyz
x,y,z
-x,-y,1/2+z
1/2-x,1/2+y,1/2+z
1/2+x,1/2-y,z
loop_
_atom_site_type_symbol
_atom_site_label
_atom_site_fract_x
_atom_site_fract_y
_atom_site_fract_z
Si Si1 0.916236 0.152493 0.146690
Si Si2 0.849396 0.068839 0.436427
Si Si3 0.857461 0.584395 0.994083
Si Si4 0.605546 0.277806 0.274933
Si Si5 0.669882 0.317819 0.966362
Si Si6 0.455519 0.589696 0.035910
Si Si7 0.628847 0.832556 0.413932
Si Si8 0.451189 0.783112 0.246499
O O1 0.842790 0.116551 0.270911
O O2 0.004662 0.216046 0.207543
O O3 0.944839 0.041776 0.057983
O O4 0.871064 0.241261 0.041095
O O5 0.753190 0.092528 0.519953
O O6 0.938112 0.127468 0.509399
O O7 0.876230 0.938428 0.442357
O O8 0.911812 0.622440 0.138768
O O9 0.882512 0.657170 0.851303
O O10 0.891525 0.458041 0.969008
O O11 0.611010 0.375076 0.399725
O O12 0.679499 0.295760 0.142846
O O13 0.763963 0.323001 0.870535
O O14 0.604439 0.219803 0.900202
O O15 0.429946 0.660922 0.178749
O O16 0.559134 0.804906 0.281110
#
# Coordination Sequence:
#
# PCOD8170885 Si02
#       8
#     4   4   4   4   4   4   4   4
#     4  11  20  38  65  94 123 160 208 266 321 367
#     4  10  20  38  64  90 127 153 211 263 309 381
#     4  10  25  42  59  87 129 172 209 251 308 385
#     4  10  21  39  63  85 129 162 201 260 316 377
#     4  11  21  40  64  96 123 162 206 259 314 369
#     4  10  21  37  66  96 118 159 203 265 333 356
#     4  11  25  38  66  90 125 168 212 249 315 376
#     4  11  23  42  63  90 128 160 208 261 308 377
#
# _framework density 20.280916999999999
#
# number of rings (size 3 to 8) (size 9 to 14) (size 15 to 20)
#    0.000    1.500    3.750    0.750    5.250    0.000 
#    2.250    0.000    0.000    0.000    0.000    0.000 
#    0.000    0.000    0.000    0.000    0.000    0.000 
#
# Total GULP energy -396564.533587 kJ/mol
# GULP energy per Si atom -12392.641675 kJ/mol
# Density = 2.023476 g / cm^3
# Si number density = 20.280917 Si / 1000 Ang^3
#
#
#
# Elastic Constant Matrix: (Units=GPa)
#
#
# Indices 1 2 3 4 5 6 
#
# 1 82.7799 20.3107 37.7797 0.0000 0.0000 0.0000
# 2 20.3107 109.8217 33.5229 0.0000 0.0000 0.0000
# 3 37.7797 33.5229 101.3079 0.0000 0.0000 0.0000
# 4 0.0000 0.0000 0.0000 24.8786 0.0000 0.0000
# 5 0.0000 0.0000 0.0000 0.0000 38.4739 0.0000
# 6 0.0000 0.0000 0.0000 0.0000 0.0000 16.8860
#
#
#
# Elastic Compliance Matrix: (Units=1/GPa)
#
#
# Indices 1 2 3 4 5 6 
#
# 1 0.014690 -0.001162 -0.005094 0.000000 0.000000 0.000000
# 2 -0.001162 0.010221 -0.002949 0.000000 0.000000 0.000000
# 3 -0.005094 -0.002949 0.012746 0.000000 0.000000 0.000000
# 4 0.000000 0.000000 0.000000 0.040195 0.000000 0.000000
# 5 0.000000 0.000000 0.000000 0.000000 0.025992 0.000000
# 6 0.000000 0.000000 0.000000 0.000000 0.000000 0.059221
#
#
# Mechanical properties :
#
#
# Convention : Reuss Voigt Hill
#
# Bulk Modulus (GPa) = 51.95317 53.01512 52.48414
# Shear Modulus (GPa) = 26.61143 29.53411 28.07277
#
# Velocity S-wave (km/s) = 3.62628 3.82023 3.72452
# Velocity P-wave (km/s) = 6.57310 6.75692 6.66564
#
# Compressibility (1/GPa) = 0.01924810
#
# Stress axis : x y z
#
# Youngs Moduli (GPa) = 68.07340 97.84111 78.45496
#
# Poissons Ratio (x) = 0.11369 0.39963
# Poissons Ratio (y) = 0.07910 0.23134
# Poissons Ratio (z) = 0.34675 0.28850
#
# Static dielectric constant tensor:
#      x y z
#    x 3.625720 0.000000 0.000000 
#    y 0.000000 3.574860 0.000000 
#    z 0.000000 0.000000 3.743440 
# 
# 
# High freq. dielectric constant tensor:
#      x y z
#    x 1.790320 0.000000 0.000000 
#    y 0.000000 1.788150 0.000000 
#    z 0.000000 0.000000 1.791130 
# 
# From -- ./inp_files/4412.got.cif
#   From: 2010.03.12/outbox.cif.g09.slc.cpg/sg33_3_cif.got.tgz:4412.got - 2010.04.14 01:49:19.
