data_PCOD8170524
_publ_section_title
;
Structure prediction by ZEFSAII (Michael W. Deem and Ramdas Pophale) SiO2 
 PCOD8170524
Probable space group: P B A 2
;
_chemical_formula_sum "Si O2"
_cell_formula_units_Z 30
_cell_length_a 10.877253
_cell_length_b 19.554680
_cell_length_c 6.324952
_cell_angle_alpha 90.000000
_cell_angle_beta 90.000000
_cell_angle_gamma 90.000000
_cell_volume 1345.324891
_symmetry_space_group_name_H-M "P B A 2"
_symmetry_group_IT_number 32
_symmetry_cell_setting 'orthorhombic'
loop_
_space_group_symop_operation_xyz
x,y,z
-x,-y,z
1/2-x,1/2+y,z
1/2+x,1/2-y,z
loop_
_atom_site_type_symbol
_atom_site_label
_atom_site_fract_x
_atom_site_fract_y
_atom_site_fract_z
Si Si1 0.468976 0.187757 0.974930
Si Si2 0.816332 0.622291 0.739834
Si Si3 0.363871 0.411211 0.088826
Si Si4 0.774907 0.002358 0.476049
Si Si5 0.500000 0.500000 0.773883
Si Si6 0.289759 0.137953 0.310706
Si Si7 0.136614 0.761989 0.607069
Si Si8 0.966958 0.802600 0.266581
O O1 0.546235 0.146569 0.797462
O O2 0.382185 0.239795 0.847830
O O3 0.381670 0.137771 0.110734
O O4 0.553846 0.232667 0.133480
O O5 0.817758 0.556043 0.587252
O O6 0.739273 0.678955 0.610960
O O7 0.761765 0.603760 0.967473
O O8 0.337586 0.467605 0.266309
O O9 0.411669 0.340953 0.184762
O O10 0.465622 0.435942 0.920089
O O11 0.883827 0.979064 0.632024
O O12 0.695149 0.935486 0.421022
O O13 0.315005 0.199541 0.468592
O O14 0.148734 0.147820 0.239499
O O15 0.005041 0.786581 0.509982
#
# Coordination Sequence:
#
# PCOD8170524 Si02
#       8
#     4   4   4   4   2   4   4   4
#     4  11  25  43  66 100 136 185 237 282 340 429
#     4  11  24  43  71  99 137 182 235 284 352 417
#     4  11  22  40  69 101 135 171 226 286 355 410
#     4  11  24  43  66 101 140 180 226 289 354 422
#     4  10  22  36  64 102 132 172 212 284 352 418
#     4  11  26  42  68  99 140 181 230 287 353 420
#     4  11  23  43  67 102 133 177 235 291 356 409
#     4  11  22  39  70 102 135 175 226 298 352 411
#
# _framework density 22.299446
#
# number of rings (size 3 to 8) (size 9 to 14) (size 15 to 20)
#    0.000    1.067    2.667    3.600    3.733    6.400 
#    0.000    4.000    0.000    0.000    0.000    0.000 
#    0.000    0.000    0.000    0.000    0.000    0.000 
#
# Total GULP energy -372062.854101 kJ/mol
# GULP energy per Si atom -12402.095137 kJ/mol
# Density = 2.224869 g / cm^3
# Si number density = 22.299446 Si / 1000 Ang^3
#
#
#
# Elastic Constant Matrix: (Units=GPa)
#
#
# Indices 1 2 3 4 5 6 
#
# 1 80.6732 42.9982 33.2974 0.0000 0.0000 0.0000
# 2 42.9982 125.6716 47.0671 0.0000 0.0000 0.0000
# 3 33.2974 47.0671 112.2747 0.0000 0.0000 0.0000
# 4 0.0000 0.0000 0.0000 32.5087 0.0000 0.0000
# 5 0.0000 0.0000 0.0000 0.0000 33.6167 0.0000
# 6 0.0000 0.0000 0.0000 0.0000 0.0000 29.7413
#
#
#
# Elastic Compliance Matrix: (Units=1/GPa)
#
#
# Indices 1 2 3 4 5 6 
#
# 1 0.015914 -0.004362 -0.002891 0.000000 0.000000 0.000000
# 2 -0.004362 0.010635 -0.003165 0.000000 0.000000 0.000000
# 3 -0.002891 -0.003165 0.011091 0.000000 0.000000 0.000000
# 4 0.000000 0.000000 0.000000 0.030761 0.000000 0.000000
# 5 0.000000 0.000000 0.000000 0.000000 0.029747 0.000000
# 6 0.000000 0.000000 0.000000 0.000000 0.000000 0.033623
#
#
# Mechanical properties :
#
#
# Convention : Reuss Voigt Hill
#
# Bulk Modulus (GPa) = 59.50903 62.81611 61.16257
# Shear Modulus (GPa) = 31.60399 32.19046 31.89722
#
# Velocity S-wave (km/s) = 3.76873 3.80354 3.78617
# Velocity P-wave (km/s) = 6.75885 6.89345 6.82648
#
# Compressibility (1/GPa) = 0.01680417
#
# Stress axis : x y z
#
# Youngs Moduli (GPa) = 62.83815 94.02914 90.16525
#
# Poissons Ratio (x) = 0.41017 0.26066
# Poissons Ratio (y) = 0.27411 0.28534
# Poissons Ratio (z) = 0.18166 0.29757
#
# Static dielectric constant tensor:
#      x y z
#    x 3.803210 0.000000 0.000000 
#    y 0.000000 3.994930 0.000000 
#    z 0.000000 0.000000 4.201540 
# 
# 
# High freq. dielectric constant tensor:
#      x y z
#    x 1.858730 0.000000 0.000000 
#    y 0.000000 1.879570 0.000000 
#    z 0.000000 0.000000 1.894640 
# 
# From -- ./inp_files/1028.got.cif
#   From: 2010.03.12/outbox.cif.g09.slc.cpg/sg32_1_cif.got.tgz:1028.got - 2010.04.14 01:46:39.
