data_PCOD8170552
_publ_section_title
;
Structure prediction by ZEFSAII (Michael W. Deem and Ramdas Pophale) SiO2 
 PCOD8170552
Probable space group: P B A 2
;
_chemical_formula_sum "Si O2"
_cell_formula_units_Z 24
_cell_length_a 8.260721
_cell_length_b 14.641251
_cell_length_c 7.995530
_cell_angle_alpha 90.000000
_cell_angle_beta 90.000000
_cell_angle_gamma 90.000000
_cell_volume 967.037682
_symmetry_space_group_name_H-M "P B A 2"
_symmetry_group_IT_number 32
_symmetry_cell_setting 'orthorhombic'
loop_
_space_group_symop_operation_xyz
x,y,z
-x,-y,z
1/2-x,1/2+y,z
1/2+x,1/2-y,z
loop_
_atom_site_type_symbol
_atom_site_label
_atom_site_fract_x
_atom_site_fract_y
_atom_site_fract_z
Si Si1 0.500000 0.000000 0.843241
Si Si2 0.378948 0.815781 0.747362
Si Si3 0.729339 0.762734 0.206514
Si Si4 0.000000 0.000000 0.347597
Si Si5 0.994463 0.799260 0.439663
Si Si6 0.937066 0.170888 0.926451
Si Si7 0.786540 0.944212 0.063006
O O1 0.516104 0.090835 0.728758
O O2 0.334222 0.995499 0.951057
O O3 0.405905 0.749688 0.591087
O O4 0.443968 0.758341 0.907260
O O5 0.184740 0.835724 0.764754
O O6 0.918296 0.777518 0.252269
O O7 0.667068 0.746052 0.398431
O O8 0.678019 0.857098 0.116314
O O9 0.683719 0.679090 0.085344
O O10 0.997667 0.090568 0.464896
O O11 0.159656 0.000927 0.229143
O O12 0.051485 0.082973 0.954585
#
# Coordination Sequence:
#
# PCOD8170552 Si02
#       7
#     2   4   4   2   4   4   4
#     4  12  26  42  72 114 148 190 258 314 368 456
#     4  12  25  44  68 105 153 194 245 306 387 451
#     4  11  20  42  71 100 136 190 248 289 372 439
#     4  10  22  44  70 106 148 188 254 306 386 450
#     4  11  25  42  70 105 147 194 237 309 379 451
#     4  12  21  45  74 100 143 200 244 306 377 449
#     4  11  23  40  76 112 138 189 255 319 368 438
#
# _framework density 24.818059999999999
#
# number of rings (size 3 to 8) (size 9 to 14) (size 15 to 20)
#    0.000    0.667    6.667    2.000    0.000    0.000 
#    0.000   15.000    0.000    0.000    0.000    0.000 
#    0.000    0.000    0.000    0.000    0.000    0.000 
#
# Total GULP energy -297368.826624 kJ/mol
# GULP energy per Si atom -12390.367776 kJ/mol
# Density = 2.476157 g / cm^3
# Si number density = 24.818060 Si / 1000 Ang^3
#
#
#
# Elastic Constant Matrix: (Units=GPa)
#
#
# Indices 1 2 3 4 5 6 
#
# 1 89.2697 37.5554 29.0256 0.0000 0.0000 0.0000
# 2 37.5554 155.1959 55.1421 0.0000 0.0000 0.0000
# 3 29.0256 55.1421 73.7207 0.0000 0.0000 0.0000
# 4 0.0000 0.0000 0.0000 46.3632 0.0000 0.0000
# 5 0.0000 0.0000 0.0000 0.0000 31.2581 0.0000
# 6 0.0000 0.0000 0.0000 0.0000 0.0000 38.0211
#
#
#
# Elastic Compliance Matrix: (Units=1/GPa)
#
#
# Indices 1 2 3 4 5 6 
#
# 1 0.013221 -0.001838 -0.003830 0.000000 0.000000 0.000000
# 2 -0.001838 0.009031 -0.006032 0.000000 0.000000 0.000000
# 3 -0.003830 -0.006032 0.019584 0.000000 0.000000 0.000000
# 4 0.000000 0.000000 0.000000 0.021569 0.000000 0.000000
# 5 0.000000 0.000000 0.000000 0.000000 0.031992 0.000000
# 6 0.000000 0.000000 0.000000 0.000000 0.000000 0.026301
#
#
# Mechanical properties :
#
#
# Convention : Reuss Voigt Hill
#
# Bulk Modulus (GPa) = 54.24135 62.40362 58.32248
# Shear Modulus (GPa) = 33.05918 36.22603 34.64261
#
# Velocity S-wave (km/s) = 3.65370 3.82470 3.74018
# Velocity P-wave (km/s) = 6.30099 6.68606 6.49638
#
# Compressibility (1/GPa) = 0.01843612
#
# Stress axis : x y z
#
# Youngs Moduli (GPa) = 75.63842 110.72505 51.06125
#
# Poissons Ratio (x) = 0.20355 0.19558
# Poissons Ratio (y) = 0.13905 0.30798
# Poissons Ratio (z) = 0.28972 0.66784
#
# Static dielectric constant tensor:
#      x y z
#    x 4.610320 0.000000 0.000000 
#    y 0.000000 4.395100 0.000000 
#    z 0.000000 0.000000 4.143040 
# 
# 
# High freq. dielectric constant tensor:
#      x y z
#    x 2.002080 0.000000 0.000000 
#    y 0.000000 1.986960 0.000000 
#    z 0.000000 0.000000 1.973980 
# 
# From -- ./inp_files/2335.got.cif
#   From: 2010.03.12/outbox.cif.g09.slc.cpg/sg32_2_cif.got.tgz:2335.got - 2010.04.14 01:46:39.
