data_PCOD8170407
_publ_section_title
;
Structure prediction by ZEFSAII (Michael W. Deem and Ramdas Pophale) SiO2 
 PCOD8170407
Probable space group: P B A 2
;
_chemical_formula_sum "Si O2"
_cell_formula_units_Z 30
_cell_length_a 8.496046
_cell_length_b 19.287521
_cell_length_c 10.068367
_cell_angle_alpha 90.000000
_cell_angle_beta 90.000000
_cell_angle_gamma 90.000000
_cell_volume 1649.879797
_symmetry_space_group_name_H-M "P B A 2"
_symmetry_group_IT_number 32
_symmetry_cell_setting 'orthorhombic'
loop_
_space_group_symop_operation_xyz
x,y,z
-x,-y,z
1/2-x,1/2+y,z
1/2+x,1/2-y,z
loop_
_atom_site_type_symbol
_atom_site_label
_atom_site_fract_x
_atom_site_fract_y
_atom_site_fract_z
Si Si1 0.000000 0.500000 0.924820
Si Si2 0.884692 0.754776 0.412716
Si Si3 0.230959 0.388681 0.016827
Si Si4 0.698567 0.879951 0.821620
Si Si5 0.370100 0.223637 0.606350
Si Si6 0.956458 0.162952 0.809238
Si Si7 0.459866 0.215248 0.012058
Si Si8 0.127113 0.811936 0.237722
O O1 0.884798 0.454745 0.831169
O O2 0.883795 0.544894 0.019428
O O3 0.804886 0.784100 0.547028
O O4 0.776083 0.701445 0.332380
O O5 0.025678 0.709838 0.475815
O O6 0.965047 0.816637 0.324406
O O7 0.130007 0.318935 0.030136
O O8 0.346269 0.381570 0.146853
O O9 0.326090 0.387573 0.876881
O O10 0.602160 0.837535 0.710643
O O11 0.884516 0.882674 0.787693
O O12 0.669102 0.839783 0.960003
O O13 0.393163 0.300198 0.674580
O O14 0.996396 0.222757 0.912541
O O15 0.394062 0.242655 0.150423
#
# Coordination Sequence:
#
# PCOD8170407 Si02
#       8
#     2   4   4   4   4   4   4   4
#     4  10  24  38  52  78  98 150 192 230 280 304
#     4  10  20  29  51  87 118 142 170 201 284 333
#     4  10  20  34  54  77 111 141 182 228 273 327
#     4  10  20  34  54  78 110 141 182 228 273 327
#     4  10  19  33  52  87 114 139 171 224 278 348
#     4  10  18  30  56  79 107 136 169 228 293 321
#     4   9  17  30  52  82 109 136 163 219 295 328
#     4  10  18  32  51  83 116 142 167 219 270 343
#
# _framework density 18.183143999999999
#
# number of rings (size 3 to 8) (size 9 to 14) (size 15 to 20)
#    0.000    2.133    2.667    2.400    5.600    0.533 
#    0.000    0.000    0.000    0.800    0.000    3.733 
#    0.000    0.000    0.000    0.000    0.000    0.000 
#
# Total GULP energy -371662.564603 kJ/mol
# GULP energy per Si atom -12388.752153 kJ/mol
# Density = 1.814176 g / cm^3
# Si number density = 18.183144 Si / 1000 Ang^3
#
#
#
# Elastic Constant Matrix: (Units=GPa)
#
#
# Indices 1 2 3 4 5 6 
#
# 1 94.6922 36.2963 36.9650 0.0000 0.0000 0.0000
# 2 36.2963 73.7023 25.5045 0.0000 0.0000 0.0000
# 3 36.9650 25.5045 89.8161 0.0000 0.0000 0.0000
# 4 0.0000 0.0000 0.0000 14.6781 0.0000 0.0000
# 5 0.0000 0.0000 0.0000 0.0000 37.8086 0.0000
# 6 0.0000 0.0000 0.0000 0.0000 0.0000 31.5070
#
#
#
# Elastic Compliance Matrix: (Units=1/GPa)
#
#
# Indices 1 2 3 4 5 6 
#
# 1 0.014396 -0.005589 -0.004338 0.000000 0.000000 0.000000
# 2 -0.005589 0.017216 -0.002589 0.000000 0.000000 0.000000
# 3 -0.004338 -0.002589 0.013654 0.000000 0.000000 0.000000
# 4 0.000000 0.000000 0.000000 0.068129 0.000000 0.000000
# 5 0.000000 0.000000 0.000000 0.000000 0.026449 0.000000
# 6 0.000000 0.000000 0.000000 0.000000 0.000000 0.031739
#
#
# Mechanical properties :
#
#
# Convention : Reuss Voigt Hill
#
# Bulk Modulus (GPa) = 49.41663 50.63800 50.02731
# Shear Modulus (GPa) = 24.58705 27.42839 26.00772
#
# Velocity S-wave (km/s) = 3.68120 3.88809 3.78606
# Velocity P-wave (km/s) = 6.73086 6.93294 6.83265
#
# Compressibility (1/GPa) = 0.02023610
#
# Stress axis : x y z
#
# Youngs Moduli (GPa) = 69.46344 58.08513 73.23700
#
# Poissons Ratio (x) = 0.32461 0.31770
# Poissons Ratio (y) = 0.38820 0.18959
# Poissons Ratio (z) = 0.30133 0.15037
#
# Static dielectric constant tensor:
#      x y z
#    x 3.673480 0.000000 0.000000 
#    y 0.000000 2.913670 0.000000 
#    z 0.000000 0.000000 3.502600 
# 
# 
# High freq. dielectric constant tensor:
#      x y z
#    x 1.728110 0.000000 0.000000 
#    y 0.000000 1.639290 0.000000 
#    z 0.000000 0.000000 1.705360 
# 
# From -- ./inp_files/3810.got.cif
#   From: 2010.03.12/outbox.cif.g09.slc.cpg/sg32_2_cif.got.tgz:3810.got - 2010.04.14 01:46:39.
