data_PCOD8170574
_publ_section_title
;
Structure prediction by ZEFSAII (Michael W. Deem and Ramdas Pophale) SiO2 
 PCOD8170574
Probable space group: P B A 2
;
_chemical_formula_sum "Si O2"
_cell_formula_units_Z 30
_cell_length_a 11.530946
_cell_length_b 19.661114
_cell_length_c 5.534650
_cell_angle_alpha 90.000000
_cell_angle_beta 90.000000
_cell_angle_gamma 90.000000
_cell_volume 1254.767386
_symmetry_space_group_name_H-M "P B A 2"
_symmetry_group_IT_number 32
_symmetry_cell_setting 'orthorhombic'
loop_
_space_group_symop_operation_xyz
x,y,z
-x,-y,z
1/2-x,1/2+y,z
1/2+x,1/2-y,z
loop_
_atom_site_type_symbol
_atom_site_label
_atom_site_fract_x
_atom_site_fract_y
_atom_site_fract_z
Si Si1 0.221487 0.454395 0.511750
Si Si2 0.598757 0.159727 0.746046
Si Si3 0.753284 0.475418 0.990058
Si Si4 0.565324 0.617502 0.384142
Si Si5 0.500000 0.500000 0.047817
Si Si6 0.146148 0.203068 0.511320
Si Si7 0.163588 0.661563 0.842680
Si Si8 0.258455 0.287588 0.115457
O O1 0.141101 0.386516 0.519979
O O2 0.179699 0.498172 0.746752
O O3 0.355014 0.430658 0.552457
O O4 0.209777 0.490084 0.247149
O O5 0.607733 0.239637 0.699007
O O6 0.467946 0.138751 0.800886
O O7 0.687650 0.152470 0.974217
O O8 0.779972 0.395323 0.019208
O O9 0.620808 0.490269 0.908879
O O10 0.505248 0.570509 0.189163
O O11 0.459490 0.650553 0.525879
O O12 0.648083 0.676465 0.283498
O O13 0.262700 0.163533 0.593570
O O14 0.167076 0.239408 0.255784
O O15 0.166518 0.737391 0.948387
#
# Coordination Sequence:
#
# PCOD8170574 Si02
#       8
#     4   4   4   4   2   4   4   4
#     4  11  26  49  73 105 147 199 246 306 379 453
#     4  11  24  46  69 105 146 196 248 310 381 458
#     4  11  27  48  74 108 147 196 254 305 379 453
#     4  11  23  44  76 106 144 192 245 312 375 454
#     4  10  24  42  76 106 142 190 240 310 372 446
#     4  11  24  42  72 109 145 185 249 316 384 455
#     4  11  27  43  74 107 148 198 251 319 381 460
#     4  11  23  46  70 110 146 196 248 316 388 448
#
# _framework density 23.908816999999999
#
# number of rings (size 3 to 8) (size 9 to 14) (size 15 to 20)
#    0.000    1.067    1.333    4.000    9.333    2.133 
#    2.400    2.667    0.000    0.000    0.000    0.000 
#    0.000    0.000    0.000    0.000    0.000    0.000 
#
# Total GULP energy -371759.782085 kJ/mol
# GULP energy per Si atom -12391.992736 kJ/mol
# Density = 2.385440 g / cm^3
# Si number density = 23.908817 Si / 1000 Ang^3
#
#
#
# Elastic Constant Matrix: (Units=GPa)
#
#
# Indices 1 2 3 4 5 6 
#
# 1 100.8829 27.0695 34.5834 0.0000 0.0000 0.0000
# 2 27.0695 101.8662 33.5619 0.0000 0.0000 0.0000
# 3 34.5834 33.5619 109.5877 0.0000 0.0000 0.0000
# 4 0.0000 0.0000 0.0000 31.9453 0.0000 0.0000
# 5 0.0000 0.0000 0.0000 0.0000 31.8045 0.0000
# 6 0.0000 0.0000 0.0000 0.0000 0.0000 35.7848
#
#
#
# Elastic Compliance Matrix: (Units=1/GPa)
#
#
# Indices 1 2 3 4 5 6 
#
# 1 0.011494 -0.002068 -0.002994 0.000000 0.000000 0.000000
# 2 -0.002068 0.011291 -0.002805 0.000000 0.000000 0.000000
# 3 -0.002994 -0.002805 0.010929 0.000000 0.000000 0.000000
# 4 0.000000 0.000000 0.000000 0.031304 0.000000 0.000000
# 5 0.000000 0.000000 0.000000 0.000000 0.031442 0.000000
# 6 0.000000 0.000000 0.000000 0.000000 0.000000 0.027945
#
#
# Mechanical properties :
#
#
# Convention : Reuss Voigt Hill
#
# Bulk Modulus (GPa) = 55.61943 55.86292 55.74117
# Shear Modulus (GPa) = 34.21595 34.38172 34.29884
#
# Velocity S-wave (km/s) = 3.78709 3.79626 3.79168
# Velocity P-wave (km/s) = 6.51433 6.52925 6.52179
#
# Compressibility (1/GPa) = 0.01797933
#
# Stress axis : x y z
#
# Youngs Moduli (GPa) = 87.00451 88.56961 91.49958
#
# Poissons Ratio (x) = 0.18315 0.27393
# Poissons Ratio (y) = 0.17992 0.25668
# Poissons Ratio (z) = 0.26048 0.24846
#
# Static dielectric constant tensor:
#      x y z
#    x 3.763210 0.000000 0.000000 
#    y 0.000000 4.441700 0.000000 
#    z 0.000000 0.000000 4.153080 
# 
# 
# High freq. dielectric constant tensor:
#      x y z
#    x 1.942410 0.000000 0.000000 
#    y 0.000000 1.966150 0.000000 
#    z 0.000000 0.000000 1.935110 
# 
# From -- ./inp_files/1009.got.cif
#   From: 2010.03.12/outbox.cif.g09.slc.cpg/sg32_1_cif.got.tgz:1009.got - 2010.04.14 01:46:39.
