data_PCOD8170540
_publ_section_title
;
Structure prediction by ZEFSAII (Michael W. Deem and Ramdas Pophale) SiO2 
 PCOD8170540
Probable space group: P B A 2
;
_chemical_formula_sum "Si O2"
_cell_formula_units_Z 30
_cell_length_a 15.087935
_cell_length_b 8.318429
_cell_length_c 11.131963
_cell_angle_alpha 90.000000
_cell_angle_beta 90.000000
_cell_angle_gamma 90.000000
_cell_volume 1397.149478
_symmetry_space_group_name_H-M "P B A 2"
_symmetry_group_IT_number 32
_symmetry_cell_setting 'orthorhombic'
loop_
_space_group_symop_operation_xyz
x,y,z
-x,-y,z
1/2-x,1/2+y,z
1/2+x,1/2-y,z
loop_
_atom_site_type_symbol
_atom_site_label
_atom_site_fract_x
_atom_site_fract_y
_atom_site_fract_z
Si Si1 0.645486 0.310175 0.931480
Si Si2 0.036855 0.657846 0.946546
Si Si3 0.720314 0.585809 0.789153
Si Si4 0.024787 0.182971 0.350658
Si Si5 0.133706 0.620825 0.704389
Si Si6 0.867090 0.225827 0.170024
Si Si7 0.500000 0.000000 0.511064
Si Si8 0.810202 0.871574 0.193970
O O1 0.541203 0.279783 0.910639
O O2 0.662291 0.492588 0.888655
O O3 0.707503 0.194538 0.855237
O O4 0.666383 0.279447 0.071095
O O5 0.083332 0.585342 0.828431
O O6 0.000000 0.500000 0.015455
O O7 0.110612 0.736330 0.031580
O O8 0.771272 0.465940 0.700906
O O9 0.653451 0.687750 0.704155
O O10 0.124651 0.184132 0.300292
O O11 0.957370 0.226913 0.244566
O O12 0.022568 0.334194 0.441349
O O13 0.000000 0.000000 0.400639
O O14 0.082648 0.553266 0.590736
O O15 0.793563 0.345456 0.226699
O O16 0.819541 0.057475 0.171197
#
# Coordination Sequence:
#
# PCOD8170540 Si02
#       8
#     4   4   4   4   4   4   2   4
#     4  11  20  37  63 100 143 177 212 277 349 429
#     4  12  23  37  66 100 142 182 222 278 355 426
#     4  10  22  40  65 100 138 172 225 280 349 424
#     4  10  26  50  68 100 138 180 242 294 340 416
#     4  11  23  46  65  99 132 177 228 285 343 421
#     4  11  25  41  68 102 136 174 222 282 356 423
#     4  12  26  52  72  90 136 188 240 294 352 390
#     4  11  23  41  66 101 139 177 222 280 349 424
#
# _framework density 21.472289
#
# number of rings (size 3 to 8) (size 9 to 14) (size 15 to 20)
#    0.000    1.067    3.333    3.200    4.667    1.600 
#    9.600    0.000    0.000    0.000    0.000    0.000 
#    0.000    0.000    0.000    0.000    0.000    0.000 
#
# Total GULP energy -371833.875699 kJ/mol
# GULP energy per Si atom -12394.462523 kJ/mol
# Density = 2.142342 g / cm^3
# Si number density = 21.472289 Si / 1000 Ang^3
#
#
#
# Elastic Constant Matrix: (Units=GPa)
#
#
# Indices 1 2 3 4 5 6 
#
# 1 125.7601 55.3326 27.1064 0.0000 0.0000 0.0000
# 2 55.3326 131.2755 53.3505 0.0000 0.0000 0.0000
# 3 27.1064 53.3505 80.9703 0.0000 0.0000 0.0000
# 4 0.0000 0.0000 0.0000 30.1276 0.0000 0.0000
# 5 0.0000 0.0000 0.0000 0.0000 11.9016 0.0000
# 6 0.0000 0.0000 0.0000 0.0000 0.0000 38.7696
#
#
#
# Elastic Compliance Matrix: (Units=1/GPa)
#
#
# Indices 1 2 3 4 5 6 
#
# 1 0.009796 -0.003819 -0.000763 0.000000 0.000000 0.000000
# 2 -0.003819 0.011892 -0.006557 0.000000 0.000000 0.000000
# 3 -0.000763 -0.006557 0.016926 0.000000 0.000000 0.000000
# 4 0.000000 0.000000 0.000000 0.033192 0.000000 0.000000
# 5 0.000000 0.000000 0.000000 0.000000 0.084022 0.000000
# 6 0.000000 0.000000 0.000000 0.000000 0.000000 0.025793
#
#
# Mechanical properties :
#
#
# Convention : Reuss Voigt Hill
#
# Bulk Modulus (GPa) = 61.21464 67.73168 64.47316
# Shear Modulus (GPa) = 23.88384 29.64085 26.76235
#
# Velocity S-wave (km/s) = 3.33875 3.71944 3.53422
# Velocity P-wave (km/s) = 6.59041 7.07516 6.83708
#
# Compressibility (1/GPa) = 0.01633596
#
# Stress axis : x y z
#
# Youngs Moduli (GPa) = 102.07748 84.08949 59.08034
#
# Poissons Ratio (x) = 0.32114 0.04509
# Poissons Ratio (y) = 0.38984 0.38739
# Poissons Ratio (z) = 0.07791 0.55138
#
# Static dielectric constant tensor:
#      x y z
#    x 4.217160 0.000000 0.000000 
#    y 0.000000 4.359350 0.000000 
#    z 0.000000 0.000000 3.535700 
# 
# 
# High freq. dielectric constant tensor:
#      x y z
#    x 1.859350 0.000000 0.000000 
#    y 0.000000 1.864710 0.000000 
#    z 0.000000 0.000000 1.801950 
# 
# From -- ./inp_files/3739.got.cif
#   From: 2010.03.12/outbox.cif.g09.slc.cpg/sg32_2_cif.got.tgz:3739.got - 2010.04.14 01:46:39.
