data_PCOD8170156
_publ_section_title
;
Structure prediction by ZEFSAII (Michael W. Deem and Ramdas Pophale) SiO2 
 PCOD8170156
Probable space group: P M N 21
;
_chemical_formula_sum "Si O2"
_cell_formula_units_Z 20
_cell_length_a 9.872975
_cell_length_b 8.340785
_cell_length_c 10.372466
_cell_angle_alpha 90.000000
_cell_angle_beta 90.000000
_cell_angle_gamma 90.000000
_cell_volume 854.155583
_symmetry_space_group_name_H-M "P M N 21"
_symmetry_group_IT_number 31
_symmetry_cell_setting 'orthorhombic'
loop_
_space_group_symop_operation_xyz
x,y,z
1/2-x,-y,1/2+z
-x,y,z
1/2+x,-y,1/2+z
loop_
_atom_site_type_symbol
_atom_site_label
_atom_site_fract_x
_atom_site_fract_y
_atom_site_fract_z
Si Si1 0.500000 0.640828 0.101231
Si Si2 0.784860 0.702744 0.016231
Si Si3 0.000000 0.997478 0.635445
Si Si4 0.000000 0.589648 0.214942
Si Si5 0.500000 0.455748 0.360706
Si Si6 0.709393 0.971503 0.647435
Si Si7 0.500000 0.102981 0.844140
Si Si8 0.500000 0.713412 0.586331
O O1 0.634347 0.624537 0.012752
O O2 0.500000 0.507356 0.212780
O O3 0.500000 0.814219 0.169521
O O4 0.864521 0.635677 0.138735
O O5 0.777786 0.895164 0.033824
O O6 0.865180 0.651632 0.886854
O O7 0.000000 0.967977 0.483524
O O8 0.861869 0.920614 0.692176
O O9 0.000000 0.699281 0.344650
O O10 0.000000 0.395350 0.219100
O O11 0.500000 0.607048 0.457771
O O12 0.631955 0.037390 0.771336
O O13 0.634714 0.820183 0.585324
#
# Coordination Sequence:
#
# PCOD8170156 Si02
#       8
#     2   4   2   2   2   4   2   2
#     4  10  20  37  62  91 121 157 209 255 301 376
#     4   8  17  36  58  87 120 159 204 244 298 370
#     4  10  21  36  62  98 120 151 214 258 301 373
#     4   8  16  33  57  80 116 160 199 236 298 369
#     4  10  20  37  60  86 123 165 196 250 316 354
#     4   9  18  35  60  90 123 158 207 253 297 368
#     4   9  18  37  61  84 124 167 192 250 315 351
#     4   9  17  32  56  87 120 162 206 245 297 371
#
# _framework density 23.414937999999999
#
# number of rings (size 3 to 8) (size 9 to 14) (size 15 to 20)
#    0.000    3.200    0.000    1.800    0.000    4.800 
#    0.000   23.000    0.000   14.400    0.000    0.000 
#    0.000    0.000    0.000    0.000    0.000    0.000 
#
# Total GULP energy -247797.367571 kJ/mol
# GULP energy per Si atom -12389.868379 kJ/mol
# Density = 2.336164 g / cm^3
# Si number density = 23.414938 Si / 1000 Ang^3
#
#
#
# Elastic Constant Matrix: (Units=GPa)
#
#
# Indices 1 2 3 4 5 6 
#
# 1 222.9018 34.3543 18.2275 0.0000 0.0000 0.0000
# 2 34.3543 105.3274 19.9901 0.0000 0.0000 0.0000
# 3 18.2275 19.9901 57.4209 0.0000 0.0000 0.0000
# 4 0.0000 0.0000 0.0000 26.6601 0.0000 0.0000
# 5 0.0000 0.0000 0.0000 0.0000 9.8433 0.0000
# 6 0.0000 0.0000 0.0000 0.0000 0.0000 2.3160
#
#
#
# Elastic Compliance Matrix: (Units=1/GPa)
#
#
# Indices 1 2 3 4 5 6 
#
# 1 0.004781 -0.001361 -0.001044 0.000000 0.000000 0.000000
# 2 -0.001361 0.010554 -0.003242 0.000000 0.000000 0.000000
# 3 -0.001044 -0.003242 0.018875 0.000000 0.000000 0.000000
# 4 0.000000 0.000000 0.000000 0.037509 0.000000 0.000000
# 5 0.000000 0.000000 0.000000 0.000000 0.101592 0.000000
# 6 0.000000 0.000000 0.000000 0.000000 0.000000 0.431775
#
#
# Mechanical properties :
#
#
# Convention : Reuss Voigt Hill
#
# Bulk Modulus (GPa) = 43.63780 58.97711 51.30745
# Shear Modulus (GPa) = 8.01257 28.63577 18.32417
#
# Velocity S-wave (km/s) = 1.85187 3.50089 2.80051
# Velocity P-wave (km/s) = 4.82180 6.44858 5.69359
#
# Compressibility (1/GPa) = 0.02291591
#
# Stress axis : x y z
#
# Youngs Moduli (GPa) = 209.14072 94.75493 52.97951
#
# Poissons Ratio (x) = 0.12900 0.05530
# Poissons Ratio (y) = 0.28473 0.17175
# Poissons Ratio (z) = 0.21831 0.30718
#
# Static dielectric constant tensor:
#      x y z
#    x 4.820410 0.000000 0.000000 
#    y 0.000000 4.482260 0.000000 
#    z 0.000000 0.000000 3.538340 
# 
# 
# High freq. dielectric constant tensor:
#      x y z
#    x 1.948180 0.000000 0.000000 
#    y 0.000000 1.926630 0.000000 
#    z 0.000000 0.000000 1.874570 
# 
# From -- ./inp_files/3905.got.cif
#   From: 2010.03.12/outbox.cif.g09.slc.cpg/sg31_2_cif.got.tgz:3905.got - 2010.04.14 01:42:59.
