data_PCOD8170991
_publ_section_title
;
Structure prediction by ZEFSAII (Michael W. Deem and Ramdas Pophale) SiO2 
 PCOD8170991
Probable space group: P N A 21
;
_chemical_formula_sum "Si O2"
_cell_formula_units_Z 32
_cell_length_a 9.085844
_cell_length_b 20.263283
_cell_length_c 7.916347
_cell_angle_alpha 90.000000
_cell_angle_beta 90.000000
_cell_angle_gamma 90.000000
_cell_volume 1457.470954
_symmetry_space_group_name_H-M "P N A 21"
_symmetry_group_IT_number 33
_symmetry_cell_setting 'orthorhombic'
loop_
_space_group_symop_operation_xyz
x,y,z
-x,-y,1/2+z
1/2-x,1/2+y,1/2+z
1/2+x,1/2-y,z
loop_
_atom_site_type_symbol
_atom_site_label
_atom_site_fract_x
_atom_site_fract_y
_atom_site_fract_z
Si Si1 0.381840 0.716446 0.882790
Si Si2 0.879613 0.939923 0.181763
Si Si3 0.392906 0.546172 0.560651
Si Si4 0.799990 0.407820 0.356825
Si Si5 0.874020 0.796878 0.250575
Si Si6 0.425030 0.856533 0.723629
Si Si7 0.110963 0.844520 0.670112
Si Si8 0.595145 0.783340 0.463110
O O1 0.249916 0.668072 0.824983
O O2 0.382691 0.783046 0.779567
O O3 0.534442 0.675705 0.848452
O O4 0.350683 0.738876 0.072549
O O5 0.829195 0.964435 0.369820
O O6 0.948572 0.867061 0.206498
O O7 0.747809 0.935702 0.041360
O O8 0.007456 0.983919 0.105221
O O9 0.264654 0.548576 0.702236
O O10 0.493615 0.612471 0.563492
O O11 0.979561 0.403405 0.349229
O O12 0.723464 0.812721 0.347891
O O13 0.967672 0.745500 0.350640
O O14 0.261973 0.887764 0.692608
O O15 0.528274 0.846896 0.559325
O O16 0.154656 0.776958 0.575697
#
# Coordination Sequence:
#
# PCOD8170991 Si02
#       8
#     4   4   4   4   4   4   4   4
#     4   9  21  35  57  89 125 159 203 245 304 379
#     4  11  22  39  65  93 114 163 218 267 305 362
#     4  11  21  42  67  87 120 159 224 267 300 367
#     4  10  22  38  62  90 119 163 207 257 304 373
#     4  11  23  36  58  94 126 157 205 259 316 378
#     4  11  21  37  59  89 126 164 192 247 326 384
#     4  10  21  38  61  88 122 170 201 254 317 378
#     4  11  21  37  59  90 128 163 198 252 318 387
#
# _framework density 21.955839999999998
#
# number of rings (size 3 to 8) (size 9 to 14) (size 15 to 20)
#    0.000    1.500    3.750    2.250    7.000    0.000 
#    0.000    0.000    5.500    0.000    0.000    0.000 
#    0.000    0.000    0.000    0.000    0.000    0.000 
#
# Total GULP energy -396486.264534 kJ/mol
# GULP energy per Si atom -12390.195767 kJ/mol
# Density = 2.190587 g / cm^3
# Si number density = 21.955840 Si / 1000 Ang^3
#
#
#
# Elastic Constant Matrix: (Units=GPa)
#
#
# Indices 1 2 3 4 5 6 
#
# 1 94.4084 -21.2971 38.2400 0.0000 0.0000 0.0000
# 2 -21.2971 29.8263 -5.8388 0.0000 0.0000 0.0000
# 3 38.2400 -5.8388 142.6636 0.0000 0.0000 0.0000
# 4 0.0000 0.0000 0.0000 23.9726 0.0000 0.0000
# 5 0.0000 0.0000 0.0000 0.0000 22.9829 0.0000
# 6 0.0000 0.0000 0.0000 0.0000 0.0000 11.5941
#
#
#
# Elastic Compliance Matrix: (Units=1/GPa)
#
#
# Indices 1 2 3 4 5 6 
#
# 1 0.014085 0.009393 -0.003391 0.000000 0.000000 0.000000
# 2 0.009393 0.040063 -0.000878 0.000000 0.000000 0.000000
# 3 -0.003391 -0.000878 0.007882 0.000000 0.000000 0.000000
# 4 0.000000 0.000000 0.000000 0.041714 0.000000 0.000000
# 5 0.000000 0.000000 0.000000 0.000000 0.043511 0.000000
# 6 0.000000 0.000000 0.000000 0.000000 0.000000 0.086251
#
#
# Mechanical properties :
#
#
# Convention : Reuss Voigt Hill
#
# Bulk Modulus (GPa) = 13.83544 32.12294 22.97919
# Shear Modulus (GPa) = 20.21428 28.76285 24.48856
#
# Velocity S-wave (km/s) = 3.03756 3.62336 3.34332
# Velocity P-wave (km/s) = 4.31480 5.67164 5.03910
#
# Compressibility (1/GPa) = 0.07227815
#
# Stress axis : x y z
#
# Youngs Moduli (GPa) = 70.99895 24.96093 126.86400
#
# Poissons Ratio (x) = -0.23446 0.43018
# Poissons Ratio (y) = -0.66691 0.11140
# Poissons Ratio (z) = 0.24075 0.02192
#
# Static dielectric constant tensor:
#      x y z
#    x 3.925270 0.000000 0.000000 
#    y 0.000000 3.722200 0.000000 
#    z 0.000000 0.000000 4.299660 
# 
# 
# High freq. dielectric constant tensor:
#      x y z
#    x 1.847810 0.000000 0.000000 
#    y 0.000000 1.836300 0.000000 
#    z 0.000000 0.000000 1.874440 
# 
# From -- ./inp_files/3447.got.cif
#   From: 2010.03.12/outbox.cif.g09.slc.cpg/sg33_2_cif.got.tgz:3447.got - 2010.04.14 01:49:19.
