data_PCOD8170999
_publ_section_title
;
Structure prediction by ZEFSAII (Michael W. Deem and Ramdas Pophale) SiO2 
 PCOD8170999
Probable space group: P N A 21
;
_chemical_formula_sum "Si O2"
_cell_formula_units_Z 32
_cell_length_a 13.963001
_cell_length_b 12.897424
_cell_length_c 7.760032
_cell_angle_alpha 90.000000
_cell_angle_beta 90.000000
_cell_angle_gamma 90.000000
_cell_volume 1397.478898
_symmetry_space_group_name_H-M "P N A 21"
_symmetry_group_IT_number 33
_symmetry_cell_setting 'orthorhombic'
loop_
_space_group_symop_operation_xyz
x,y,z
-x,-y,1/2+z
1/2-x,1/2+y,1/2+z
1/2+x,1/2-y,z
loop_
_atom_site_type_symbol
_atom_site_label
_atom_site_fract_x
_atom_site_fract_y
_atom_site_fract_z
Si Si1 0.920606 0.937789 0.173570
Si Si2 0.837637 0.251516 0.356966
Si Si3 0.178093 0.621749 0.534893
Si Si4 0.405213 0.076975 0.572568
Si Si5 0.524696 0.099184 0.870597
Si Si6 0.968548 0.874722 0.792376
Si Si7 0.367014 0.711343 0.465014
Si Si8 0.763588 0.545723 0.807711
O O1 0.927249 0.849901 0.319906
O O2 0.825789 0.005377 0.198872
O O3 0.921650 0.889876 0.981345
O O4 0.010273 0.013766 0.205566
O O5 0.845468 0.316691 0.536291
O O6 0.749718 0.168954 0.345848
O O7 0.936173 0.193724 0.314697
O O8 0.818046 0.348429 0.232931
O O9 0.071550 0.636745 0.466732
O O10 0.252988 0.698525 0.436576
O O11 0.222235 0.506977 0.496718
O O12 0.503725 0.110039 0.668156
O O13 0.442451 0.019350 0.401876
O O14 0.354449 0.991450 0.695616
O O15 0.612096 0.168516 0.935659
O O16 0.895530 0.820124 0.660809
#
# Coordination Sequence:
#
# PCOD8170999 Si02
#       8
#     4   4   4   4   4   4   4   4
#     4  10  21  39  60 102 133 170 233 293 350 421
#     4  11  22  43  67  98 134 185 234 286 363 428
#     4  10  22  42  65  96 137 173 231 291 340 418
#     4  11  24  44  69  95 139 184 232 295 352 431
#     4  11  23  44  64  98 135 181 233 285 353 426
#     4  11  21  37  66  93 135 181 228 289 357 419
#     4  11  22  40  67  93 135 183 227 290 352 413
#     4   9  23  43  64 101 138 173 238 297 347 428
#
# _framework density 22.898378999999998
#
# number of rings (size 3 to 8) (size 9 to 14) (size 15 to 20)
#    0.000    1.500    2.500    2.250    1.750    0.000 
#    0.000   12.500    0.000    0.000    0.000    0.000 
#    0.000    0.000    0.000    0.000    0.000    0.000 
#
# Total GULP energy -396467.496642 kJ/mol
# GULP energy per Si atom -12389.609270 kJ/mol
# Density = 2.284626 g / cm^3
# Si number density = 22.898379 Si / 1000 Ang^3
#
#
#
# Elastic Constant Matrix: (Units=GPa)
#
#
# Indices 1 2 3 4 5 6 
#
# 1 58.9374 33.1555 -5.9363 0.0000 0.0000 0.0000
# 2 33.1555 122.3258 60.6756 0.0000 0.0000 0.0000
# 3 -5.9363 60.6756 114.0605 0.0000 0.0000 0.0000
# 4 0.0000 0.0000 0.0000 34.8013 0.0000 0.0000
# 5 0.0000 0.0000 0.0000 0.0000 31.6714 0.0000
# 6 0.0000 0.0000 0.0000 0.0000 0.0000 24.5217
#
#
#
# Elastic Compliance Matrix: (Units=1/GPa)
#
#
# Indices 1 2 3 4 5 6 
#
# 1 0.022735 -0.009168 0.006060 0.000000 0.000000 0.000000
# 2 -0.009168 0.014802 -0.008351 0.000000 0.000000 0.000000
# 3 0.006060 -0.008351 0.013525 0.000000 0.000000 0.000000
# 4 0.000000 0.000000 0.000000 0.028735 0.000000 0.000000
# 5 0.000000 0.000000 0.000000 0.000000 0.031574 0.000000
# 6 0.000000 0.000000 0.000000 0.000000 0.000000 0.040780
#
#
# Mechanical properties :
#
#
# Convention : Reuss Voigt Hill
#
# Bulk Modulus (GPa) = 35.53116 52.34593 43.93855
# Shear Modulus (GPa) = 27.10735 32.02748 29.56741
#
# Velocity S-wave (km/s) = 3.44439 3.74395 3.59729
# Velocity P-wave (km/s) = 5.60080 6.44975 6.04021
#
# Compressibility (1/GPa) = 0.02814431
#
# Stress axis : x y z
#
# Youngs Moduli (GPa) = 43.98462 67.55701 73.93551
#
# Poissons Ratio (x) = 0.61938 -0.44808
# Poissons Ratio (y) = 0.40326 0.61746
# Poissons Ratio (z) = -0.26657 0.56420
#
# Static dielectric constant tensor:
#      x y z
#    x 4.063070 0.000000 0.000000 
#    y 0.000000 4.224540 0.000000 
#    z 0.000000 0.000000 4.160450 
# 
# 
# High freq. dielectric constant tensor:
#      x y z
#    x 1.899510 0.000000 0.000000 
#    y 0.000000 1.902970 0.000000 
#    z 0.000000 0.000000 1.900480 
# 
# From -- ./inp_files/4448.got.cif
#   From: 2010.03.12/outbox.cif.g09.slc.cpg/sg33_3_cif.got.tgz:4448.got - 2010.04.14 01:49:19.
