data_PCOD8170241
_publ_section_title
;
Structure prediction by ZEFSAII (Michael W. Deem and Ramdas Pophale) SiO2 
 PCOD8170241
Probable space group: P M N 21
;
_chemical_formula_sum "Si O2"
_cell_formula_units_Z 32
_cell_length_a 8.900283
_cell_length_b 16.051131
_cell_length_c 10.452914
_cell_angle_alpha 90.000000
_cell_angle_beta 90.000000
_cell_angle_gamma 90.000000
_cell_volume 1493.299200
_symmetry_space_group_name_H-M "P M N 21"
_symmetry_group_IT_number 31
_symmetry_cell_setting 'orthorhombic'
loop_
_space_group_symop_operation_xyz
x,y,z
1/2-x,-y,1/2+z
-x,y,z
1/2+x,-y,1/2+z
loop_
_atom_site_type_symbol
_atom_site_label
_atom_site_fract_x
_atom_site_fract_y
_atom_site_fract_z
Si Si1 0.826558 0.510428 0.325060
Si Si2 0.168172 0.921415 0.052315
Si Si3 0.329736 0.752288 0.663144
Si Si4 0.333106 0.171524 0.803617
Si Si5 0.678647 0.413144 0.098164
Si Si6 0.321377 0.096637 0.056439
Si Si7 0.169208 0.240222 0.453987
Si Si8 0.173388 0.674160 0.162419
O O1 0.732312 0.445285 0.238669
O O2 0.770425 0.530705 0.472108
O O3 0.805510 0.590961 0.238417
O O4 0.000000 0.481452 0.329154
O O5 0.161187 0.902093 0.201699
O O6 0.000000 0.938901 0.999161
O O7 0.270820 0.002108 0.048304
O O8 0.236275 0.844328 0.973348
O O9 0.500000 0.757963 0.611822
O O10 0.242671 0.680867 0.581849
O O11 0.251969 0.844020 0.663193
O O12 0.326617 0.726850 0.810587
O O13 0.500000 0.198993 0.844950
O O14 0.251219 0.252443 0.747165
O O15 0.251903 0.138563 0.928979
O O16 0.500000 0.408322 0.096888
O O17 0.500000 0.097192 0.069319
O O18 0.236365 0.320742 0.529211
O O19 0.000000 0.221763 0.499306
O O20 0.000000 0.694285 0.131076
#
# Coordination Sequence:
#
# PCOD8170241 Si02
#       8
#     4   4   4   4   4   4   4   4
#     4  10  23  43  67  98 135 170 211 267 325 384
#     4  10  21  38  58  85 119 158 202 249 308 373
#     4  11  25  43  62  88 128 169 210 266 325 379
#     4   8  17  35  57  79 111 150 189 241 301 360
#     4  11  25  44  68  97 132 173 220 269 325 391
#     4  11  22  37  60  87 117 157 204 252 309 375
#     4  10  22  39  60  88 124 163 206 260 315 371
#     4   9  18  37  64  88 116 158 202 248 310 375
#
# _framework density 21.42906
#
# number of rings (size 3 to 8) (size 9 to 14) (size 15 to 20)
#    0.000    2.000    0.000    3.375    3.500    5.500 
#    0.000    8.125    0.000    0.000    0.000    0.000 
#    0.000    0.000    0.000    0.000    0.000    0.000 
#
# Total GULP energy -396477.148600 kJ/mol
# GULP energy per Si atom -12389.910894 kJ/mol
# Density = 2.138029 g / cm^3
# Si number density = 21.429060 Si / 1000 Ang^3
#
#
#
# Elastic Constant Matrix: (Units=GPa)
#
#
# Indices 1 2 3 4 5 6 
#
# 1 111.0859 33.7572 31.0277 0.0000 0.0000 0.0000
# 2 33.7572 56.6664 -0.2299 0.0000 0.0000 0.0000
# 3 31.0277 -0.2299 69.1469 0.0000 0.0000 0.0000
# 4 0.0000 0.0000 0.0000 14.8927 0.0000 0.0000
# 5 0.0000 0.0000 0.0000 0.0000 28.3948 0.0000
# 6 0.0000 0.0000 0.0000 0.0000 0.0000 23.2634
#
#
#
# Elastic Compliance Matrix: (Units=1/GPa)
#
#
# Indices 1 2 3 4 5 6 
#
# 1 0.012999 -0.007767 -0.005859 0.000000 0.000000 0.000000
# 2 -0.007767 0.022289 0.003560 0.000000 0.000000 0.000000
# 3 -0.005859 0.003560 0.017103 0.000000 0.000000 0.000000
# 4 0.000000 0.000000 0.000000 0.067147 0.000000 0.000000
# 5 0.000000 0.000000 0.000000 0.000000 0.035218 0.000000
# 6 0.000000 0.000000 0.000000 0.000000 0.000000 0.042986
#
#
# Mechanical properties :
#
#
# Convention : Reuss Voigt Hill
#
# Bulk Modulus (GPa) = 31.00086 40.66769 35.83427
# Shear Modulus (GPa) = 21.86974 24.79980 23.33477
#
# Velocity S-wave (km/s) = 3.19809 3.40560 3.30348
# Velocity P-wave (km/s) = 5.30426 5.87224 5.59546
#
# Compressibility (1/GPa) = 0.03225717
#
# Stress axis : x y z
#
# Youngs Moduli (GPa) = 76.92998 44.86564 58.47022
#
# Poissons Ratio (x) = 0.34849 0.34256
# Poissons Ratio (y) = 0.59755 -0.20813
# Poissons Ratio (z) = 0.45071 -0.15970
#
# Static dielectric constant tensor:
#      x y z
#    x 3.805290 0.000000 0.000000 
#    y 0.000000 4.091920 0.000000 
#    z 0.000000 0.000000 4.134340 
# 
# 
# High freq. dielectric constant tensor:
#      x y z
#    x 1.828720 0.000000 0.000000 
#    y 0.000000 1.846470 0.000000 
#    z 0.000000 0.000000 1.845480 
# 
# From -- ./inp_files/3749.got.cif
#   From: 2010.03.12/outbox.cif.g09.slc.cpg/sg31_2_cif.got.tgz:3749.got - 2010.04.14 01:42:59.
