data_PCOD8170639
_publ_section_title
;
Structure prediction by ZEFSAII (Michael W. Deem and Ramdas Pophale) SiO2 
 PCOD8170639
Probable space group: P N A 21
;
_chemical_formula_sum "Si O2"
_cell_formula_units_Z 24
_cell_length_a 5.328050
_cell_length_b 7.026424
_cell_length_c 27.695330
_cell_angle_alpha 90.000000
_cell_angle_beta 90.000000
_cell_angle_gamma 90.000000
_cell_volume 1036.833902
_symmetry_space_group_name_H-M "P N A 21"
_symmetry_group_IT_number 33
_symmetry_cell_setting 'orthorhombic'
loop_
_space_group_symop_operation_xyz
x,y,z
-x,-y,1/2+z
1/2-x,1/2+y,1/2+z
1/2+x,1/2-y,z
loop_
_atom_site_type_symbol
_atom_site_label
_atom_site_fract_x
_atom_site_fract_y
_atom_site_fract_z
Si Si1 0.025534 0.042382 0.980690
Si Si2 0.962299 0.631470 0.334449
Si Si3 0.013883 0.040447 0.688561
Si Si4 0.025914 0.471002 0.940352
Si Si5 0.975154 0.870291 0.078880
Si Si6 0.986010 0.530050 0.228973
O O1 0.044343 0.253855 0.959501
O O2 0.279817 0.932372 0.964027
O O3 0.785000 0.931683 0.958004
O O4 0.005389 0.036230 0.038829
O O5 0.679981 0.711043 0.334179
O O6 0.996195 0.508377 0.382698
O O7 0.995601 0.504779 0.286704
O O8 0.003522 0.035747 0.631057
O O9 0.022428 0.250865 0.711504
O O10 0.265538 0.931980 0.706445
O O11 0.767001 0.931449 0.708484
O O12 0.700536 0.779318 0.072502
#
# Coordination Sequence:
#
# PCOD8170639 Si02
#       6
#     4   4   4   4   4   4
#     4  10  20  32  49  64  91 131 159 196 228 269
#     4  12  16  25  46  67  90 123 142 183 243 285
#     4  10  16  27  38  58  94 125 147 174 214 283
#     4  10  19  35  47  69  94 123 160 196 232 269
#     4  12  21  32  47  67  95 137 159 187 231 273
#     4  10  16  25  41  63  92 129 137 174 230 297
#
# _framework density 23.147390000000001
#
# number of rings (size 3 to 8) (size 9 to 14) (size 15 to 20)
#    0.000    1.333   10.000    1.000    0.000    0.000 
#    0.000    0.000    0.000    0.000    0.000    0.000 
#    0.000    0.000  192.667    0.000    0.000    0.000 
#
# Total GULP energy -297376.113571 kJ/mol
# GULP energy per Si atom -12390.671399 kJ/mol
# Density = 2.309471 g / cm^3
# Si number density = 23.147390 Si / 1000 Ang^3
#
#
#
# Elastic Constant Matrix: (Units=GPa)
#
#
# Indices 1 2 3 4 5 6 
#
# 1 222.9936 -11.8422 36.6722 0.0000 0.0000 0.0000
# 2 -11.8422 21.7286 8.7705 0.0000 0.0000 0.0000
# 3 36.6722 8.7705 214.5277 0.0000 0.0000 0.0000
# 4 0.0000 0.0000 0.0000 14.2782 0.0000 0.0000
# 5 0.0000 0.0000 0.0000 0.0000 43.5619 0.0000
# 6 0.0000 0.0000 0.0000 0.0000 0.0000 -16.6345
#
#
#
# Elastic Compliance Matrix: (Units=1/GPa)
#
#
# Indices 1 2 3 4 5 6 
#
# 1 0.004799 0.002996 -0.000943 0.000000 0.000000 0.000000
# 2 0.002996 0.048665 -0.002502 0.000000 0.000000 0.000000
# 3 -0.000943 -0.002502 0.004925 0.000000 0.000000 0.000000
# 4 0.000000 0.000000 0.000000 0.070037 0.000000 0.000000
# 5 0.000000 0.000000 0.000000 0.000000 0.022956 0.000000
# 6 0.000000 0.000000 0.000000 0.000000 0.000000 -0.060116
#
#
# Mechanical properties :
#
#
# Convention : Reuss Voigt Hill
#
# Bulk Modulus (GPa) = 17.39405 58.49453 37.94429
# Shear Modulus (GPa) = 44.91307 36.61773 40.76540
#
# Velocity S-wave (km/s) = 4.40967 3.98167 4.20113
# Velocity P-wave (km/s) = 5.78427 6.81642 6.32145
#
# Compressibility (1/GPa) = 0.05749094
#
# Stress axis : x y z
#
# Youngs Moduli (GPa) = 208.39552 20.54872 203.05234
#
# Poissons Ratio (x) = -0.06156 0.19143
# Poissons Ratio (y) = -0.62431 0.50797
# Poissons Ratio (z) = 0.19647 0.05141
#
# Static dielectric constant tensor:
#      x y z
#    x 7.240590 0.000000 0.000000 
#    y 0.000000 3.173920 0.000000 
#    z 0.000000 0.000000 4.437870 
# 
# 
# High freq. dielectric constant tensor:
#      x y z
#    x 1.964350 0.000000 0.000000 
#    y 0.000000 1.834710 0.000000 
#    z 0.000000 0.000000 1.928610 
# 
# From -- ./inp_files/9190.got.cif
#   From: 2010.03.12/outbox.cif.g09.slc.cpg/sg33_5_cif.got.tgz:9190.got - 2010.04.14 01:49:19.
