data_PCOD8170129
_publ_section_title
;
Structure prediction by ZEFSAII (Michael W. Deem and Ramdas Pophale) SiO2 
 PCOD8170129
Probable space group: P M N 21
;
_chemical_formula_sum "Si O2"
_cell_formula_units_Z 32
_cell_length_a 8.977216
_cell_length_b 12.363178
_cell_length_c 14.243432
_cell_angle_alpha 90.000000
_cell_angle_beta 90.000000
_cell_angle_gamma 90.000000
_cell_volume 1580.834639
_symmetry_space_group_name_H-M "P M N 21"
_symmetry_group_IT_number 31
_symmetry_cell_setting 'orthorhombic'
loop_
_space_group_symop_operation_xyz
x,y,z
1/2-x,-y,1/2+z
-x,y,z
1/2+x,-y,1/2+z
loop_
_atom_site_type_symbol
_atom_site_label
_atom_site_fract_x
_atom_site_fract_y
_atom_site_fract_z
Si Si1 0.163967 0.055349 0.084190
Si Si2 0.330048 0.909917 0.364294
Si Si3 0.672874 0.226884 0.189544
Si Si4 0.674682 0.868889 0.854196
Si Si5 0.323851 0.317292 0.848274
Si Si6 0.828200 0.604916 0.147820
Si Si7 0.331593 0.179008 0.541282
Si Si8 0.676158 0.409805 0.047457
O O1 0.297459 0.114615 0.136459
O O2 0.000000 0.093020 0.120864
O O3 0.184049 0.928329 0.104113
O O4 0.177399 0.080886 0.975372
O O5 0.500000 0.909993 0.327944
O O6 0.252202 0.798843 0.333622
O O7 0.247587 0.016337 0.323904
O O8 0.500000 0.239418 0.213134
O O9 0.766986 0.225848 0.285243
O O10 0.732252 0.322212 0.122840
O O11 0.500000 0.882663 0.846249
O O12 0.715769 0.827075 0.956793
O O13 0.500000 0.296515 0.853570
O O14 0.283852 0.393551 0.758520
O O15 0.265515 0.377520 0.943002
O O16 0.792116 0.723170 0.108918
O O17 0.735576 0.523954 0.083167
O O18 0.000000 0.573581 0.136328
O O19 0.500000 0.187185 0.500293
O O20 0.500000 0.415112 0.044464
#
# Coordination Sequence:
#
# PCOD8170129 Si02
#       8
#     4   4   4   4   4   4   4   4
#     4   9  18  33  56  86 121 157 196 242 300 365
#     4  10  20  36  59  90 124 159 200 249 303 365
#     4  11  22  37  58  88 123 161 205 253 304 357
#     4  11  23  37  58  88 124 168 208 250 304 366
#     4  10  21  40  63  90 119 156 203 255 307 361
#     4  10  23  41  65  91 120 160 205 253 309 367
#     4   9  20  40  59  86 125 160 199 251 307 361
#     4  10  23  42  62  87 124 161 204 257 304 360
#
# _framework density 20.242473
#
# number of rings (size 3 to 8) (size 9 to 14) (size 15 to 20)
#    0.000    2.000    1.250    2.625    1.750    5.500 
#    0.000    2.500    0.000    0.000    0.000    0.000 
#    0.000    0.000    0.000    0.000    0.000    0.000 
#
# Total GULP energy -396756.946846 kJ/mol
# GULP energy per Si atom -12398.654589 kJ/mol
# Density = 2.019640 g / cm^3
# Si number density = 20.242473 Si / 1000 Ang^3
#
#
#
# Elastic Constant Matrix: (Units=GPa)
#
#
# Indices 1 2 3 4 5 6 
#
# 1 67.4661 21.3508 20.8676 0.0000 0.0000 0.0000
# 2 21.3508 80.8003 35.3268 0.0000 0.0000 0.0000
# 3 20.8676 35.3268 66.3251 0.0000 0.0000 0.0000
# 4 0.0000 0.0000 0.0000 29.3610 0.0000 0.0000
# 5 0.0000 0.0000 0.0000 0.0000 26.2976 0.0000
# 6 0.0000 0.0000 0.0000 0.0000 0.0000 34.7202
#
#
#
# Elastic Compliance Matrix: (Units=1/GPa)
#
#
# Indices 1 2 3 4 5 6 
#
# 1 0.016889 -0.002789 -0.003828 0.000000 0.000000 0.000000
# 2 -0.002789 0.016594 -0.007961 0.000000 0.000000 0.000000
# 3 -0.003828 -0.007961 0.020522 0.000000 0.000000 0.000000
# 4 0.000000 0.000000 0.000000 0.034059 0.000000 0.000000
# 5 0.000000 0.000000 0.000000 0.000000 0.038026 0.000000
# 6 0.000000 0.000000 0.000000 0.000000 0.000000 0.028802
#
#
# Mechanical properties :
#
#
# Convention : Reuss Voigt Hill
#
# Bulk Modulus (GPa) = 40.24393 41.07578 40.65986
# Shear Modulus (GPa) = 25.99695 27.21219 26.60457
#
# Velocity S-wave (km/s) = 3.58757 3.67046 3.62925
# Velocity P-wave (km/s) = 6.08974 6.18862 6.13938
#
# Compressibility (1/GPa) = 0.02484847
#
# Stress axis : x y z
#
# Youngs Moduli (GPa) = 59.21025 60.26370 48.72848
#
# Poissons Ratio (x) = 0.16808 0.18654
# Poissons Ratio (y) = 0.16514 0.38792
# Poissons Ratio (z) = 0.22667 0.47975
#
# Static dielectric constant tensor:
#      x y z
#    x 3.592490 0.000000 0.000000 
#    y 0.000000 3.664220 0.000000 
#    z 0.000000 0.000000 3.817740 
# 
# 
# High freq. dielectric constant tensor:
#      x y z
#    x 1.783290 0.000000 0.000000 
#    y 0.000000 1.782180 0.000000 
#    z 0.000000 0.000000 1.798070 
# 
# From -- ./inp_files/4948.got.cif
#   From: 2010.03.12/outbox.cif.g09.slc.cpg/sg31_3_cif.got.tgz:4948.got - 2010.04.14 01:42:59.
