data_PCOD8170194
_publ_section_title
;
Structure prediction by ZEFSAII (Michael W. Deem and Ramdas Pophale) SiO2 
 PCOD8170194
Probable space group: P M N 21
;
_chemical_formula_sum "Si O2"
_cell_formula_units_Z 24
_cell_length_a 9.171224
_cell_length_b 13.502228
_cell_length_c 9.867742
_cell_angle_alpha 90.000000
_cell_angle_beta 90.000000
_cell_angle_gamma 90.000000
_cell_volume 1221.941808
_symmetry_space_group_name_H-M "P M N 21"
_symmetry_group_IT_number 31
_symmetry_cell_setting 'orthorhombic'
loop_
_space_group_symop_operation_xyz
x,y,z
1/2-x,-y,1/2+z
-x,y,z
1/2+x,-y,1/2+z
loop_
_atom_site_type_symbol
_atom_site_label
_atom_site_fract_x
_atom_site_fract_y
_atom_site_fract_z
Si Si1 0.168321 0.585430 0.346070
Si Si2 0.333463 0.439971 0.539611
Si Si3 0.332179 0.853142 0.699097
Si Si4 0.672089 0.079931 0.699383
Si Si5 0.329725 0.785776 0.401479
Si Si6 0.670136 0.219033 0.457538
O O1 0.226107 0.510162 0.457829
O O2 0.258019 0.686192 0.347503
O O3 0.000000 0.610019 0.376366
O O4 0.185840 0.536213 0.198393
O O5 0.500000 0.460274 0.494063
O O6 0.289011 0.326909 0.512956
O O7 0.500000 0.849920 0.740741
O O8 0.302528 0.794177 0.561312
O O9 0.244658 0.797131 0.814257
O O10 0.281770 0.966342 0.681051
O O11 0.500000 0.094644 0.721256
O O12 0.756158 0.120278 0.830047
O O13 0.725726 0.138524 0.566087
O O14 0.500000 0.785161 0.366423
O O15 0.500000 0.207055 0.434093
#
# Coordination Sequence:
#
# PCOD8170194 Si02
#       6
#     4   4   4   4   4   4
#     4  11  24  43  66  90 121 159 197 246 304 359
#     4  10  23  43  64  90 120 155 199 249 299 356
#     4  10  23  38  58  90 125 159 200 248 295 351
#     4  10  20  40  63  86 120 161 203 247 298 354
#     4  11  23  40  62  90 124 159 201 250 298 354
#     4  10  21  40  63  86 120 159 200 246 298 356
#
# _framework density 19.640871000000001
#
# number of rings (size 3 to 8) (size 9 to 14) (size 15 to 20)
#    0.000    1.667    1.667    2.000    2.333    6.000 
#    0.000    0.000    0.000    0.000    0.000    0.000 
#    0.000    0.000    0.000    0.000    0.000    0.000 
#
# Total GULP energy -297737.866871 kJ/mol
# GULP energy per Si atom -12405.744453 kJ/mol
# Density = 1.959617 g / cm^3
# Si number density = 19.640871 Si / 1000 Ang^3
#
#
#
# Elastic Constant Matrix: (Units=GPa)
#
#
# Indices 1 2 3 4 5 6 
#
# 1 68.7300 29.7319 42.1921 0.0000 0.0000 0.0000
# 2 29.7319 59.0779 24.7927 0.0000 0.0000 0.0000
# 3 42.1921 24.7927 79.8898 0.0000 0.0000 0.0000
# 4 0.0000 0.0000 0.0000 37.3948 0.0000 0.0000
# 5 0.0000 0.0000 0.0000 0.0000 37.0157 0.0000
# 6 0.0000 0.0000 0.0000 0.0000 0.0000 83.7812
#
#
#
# Elastic Compliance Matrix: (Units=1/GPa)
#
#
# Indices 1 2 3 4 5 6 
#
# 1 0.024355 -0.007886 -0.010415 0.000000 0.000000 0.000000
# 2 -0.007886 0.022015 -0.002667 0.000000 0.000000 0.000000
# 3 -0.010415 -0.002667 0.018845 0.000000 0.000000 0.000000
# 4 0.000000 0.000000 0.000000 0.026742 0.000000 0.000000
# 5 0.000000 0.000000 0.000000 0.000000 0.027016 0.000000
# 6 0.000000 0.000000 0.000000 0.000000 0.000000 0.011936
#
#
# Mechanical properties :
#
#
# Convention : Reuss Voigt Hill
#
# Bulk Modulus (GPa) = 42.95826 44.57016 43.76421
# Shear Modulus (GPa) = 27.68481 39.03708 33.36095
#
# Velocity S-wave (km/s) = 3.75847 4.46302 4.12581
# Velocity P-wave (km/s) = 6.38390 7.02139 6.71022
#
# Compressibility (1/GPa) = 0.02327841
#
# Stress axis : x y z
#
# Youngs Moduli (GPa) = 41.05971 45.42379 53.06314
#
# Poissons Ratio (x) = 0.35822 0.55266
# Poissons Ratio (y) = 0.32380 0.14153
# Poissons Ratio (z) = 0.42764 0.12115
#
# Static dielectric constant tensor:
#      x y z
#    x 3.587420 0.000000 0.000000 
#    y 0.000000 3.690260 0.000000 
#    z 0.000000 0.000000 3.727820 
# 
# 
# High freq. dielectric constant tensor:
#      x y z
#    x 1.763420 0.000000 0.000000 
#    y 0.000000 1.772820 0.000000 
#    z 0.000000 0.000000 1.776170 
# 
# From -- ./inp_files/1697.got.cif
#   From: 2010.03.12/outbox.cif.g09.slc.cpg/sg31_1_cif.got.tgz:1697.got - 2010.04.14 01:42:59.
