data_PCOD8170121
_publ_section_title
;
Structure prediction by ZEFSAII (Michael W. Deem and Ramdas Pophale) SiO2 
 PCOD8170121
Probable space group: P M N 21
;
_chemical_formula_sum "Si O2"
_cell_formula_units_Z 32
_cell_length_a 27.173992
_cell_length_b 6.822916
_cell_length_c 9.026200
_cell_angle_alpha 90.000000
_cell_angle_beta 90.000000
_cell_angle_gamma 90.000000
_cell_volume 1673.510417
_symmetry_space_group_name_H-M "P M N 21"
_symmetry_group_IT_number 31
_symmetry_cell_setting 'orthorhombic'
loop_
_space_group_symop_operation_xyz
x,y,z
1/2-x,-y,1/2+z
-x,y,z
1/2+x,-y,1/2+z
loop_
_atom_site_type_symbol
_atom_site_label
_atom_site_fract_x
_atom_site_fract_y
_atom_site_fract_z
Si Si1 0.872650 0.981128 0.414480
Si Si2 0.055223 0.955435 0.826766
Si Si3 0.184536 0.605465 0.918044
Si Si4 0.232672 0.107258 0.345005
Si Si5 0.618596 0.347690 0.147162
Si Si6 0.621532 0.093476 0.577850
Si Si7 0.790949 0.180120 0.016113
Si Si8 0.942216 0.265531 0.589213
O O1 0.823205 0.112713 0.405967
O O2 0.917137 0.115839 0.473009
O O3 0.862678 0.785369 0.510671
O O4 0.887143 0.905357 0.252194
O O5 0.085769 0.789116 0.747578
O O6 0.000000 0.885237 0.812687
O O7 0.062914 0.168915 0.752078
O O8 0.069925 0.958318 0.999259
O O9 0.234951 0.728401 0.925214
O O10 0.164408 0.581469 0.749185
O O11 0.143461 0.698334 0.025922
O O12 0.199143 0.404912 0.992244
O O13 0.236409 0.138282 0.170185
O O14 0.256634 0.896520 0.382436
O O15 0.586667 0.529444 0.086723
O O16 0.657003 0.926040 0.515880
O O17 0.000000 0.295374 0.547262
#
# Coordination Sequence:
#
# PCOD8170121 Si02
#       8
#     4   4   4   4   4   4   4   4
#     4  10  22  37  55  80 115 147 179 229 284 334
#     4   9  18  35  58  80 105 140 182 230 277 326
#     4  10  21  36  58  81 109 149 190 232 280 336
#     4  10  22  37  54  80 110 145 188 228 277 342
#     4  10  20  36  58  83 110 145 189 233 282 337
#     4   9  20  37  54  80 111 142 183 226 276 337
#     4  10  21  37  55  78 111 144 182 231 275 328
#     4  10  21  37  59  84 110 146 190 233 281 340
#
# _framework density 19.121480999999999
#
# number of rings (size 3 to 8) (size 9 to 14) (size 15 to 20)
#    0.000    2.250    0.000    1.875    0.000   11.000 
#    0.000    0.000    0.000    0.000    0.000    0.000 
#    0.000    0.000    0.000    0.000    0.000    0.000 
#
# Total GULP energy -396731.879404 kJ/mol
# GULP energy per Si atom -12397.871231 kJ/mol
# Density = 1.907796 g / cm^3
# Si number density = 19.121481 Si / 1000 Ang^3
#
#
#
# Elastic Constant Matrix: (Units=GPa)
#
#
# Indices 1 2 3 4 5 6 
#
# 1 77.2959 31.4057 45.1907 0.0000 0.0000 0.0000
# 2 31.4057 106.8788 38.1386 0.0000 0.0000 0.0000
# 3 45.1907 38.1386 124.9404 0.0000 0.0000 0.0000
# 4 0.0000 0.0000 0.0000 20.7535 0.0000 0.0000
# 5 0.0000 0.0000 0.0000 0.0000 25.5452 0.0000
# 6 0.0000 0.0000 0.0000 0.0000 0.0000 16.9119
#
#
#
# Elastic Compliance Matrix: (Units=1/GPa)
#
#
# Indices 1 2 3 4 5 6 
#
# 1 0.017333 -0.003205 -0.005291 0.000000 0.000000 0.000000
# 2 -0.003205 0.011093 -0.002227 0.000000 0.000000 0.000000
# 3 -0.005291 -0.002227 0.010597 0.000000 0.000000 0.000000
# 4 0.000000 0.000000 0.000000 0.048185 0.000000 0.000000
# 5 0.000000 0.000000 0.000000 0.000000 0.039146 0.000000
# 6 0.000000 0.000000 0.000000 0.000000 0.000000 0.059130
#
#
# Mechanical properties :
#
#
# Convention : Reuss Voigt Hill
#
# Bulk Modulus (GPa) = 56.89183 59.84279 58.36731
# Shear Modulus (GPa) = 23.49747 25.60078 24.54913
#
# Velocity S-wave (km/s) = 3.50930 3.66300 3.58697
# Velocity P-wave (km/s) = 6.79983 7.01813 6.90984
#
# Compressibility (1/GPa) = 0.01757722
#
# Stress axis : x y z
#
# Youngs Moduli (GPa) = 57.69390 90.14833 94.36391
#
# Poissons Ratio (x) = 0.28894 0.49927
# Poissons Ratio (y) = 0.18492 0.21013
# Poissons Ratio (z) = 0.30525 0.20075
#
# Static dielectric constant tensor:
#      x y z
#    x 3.625050 0.000000 0.000000 
#    y 0.000000 3.441800 0.000000 
#    z 0.000000 0.000000 3.569460 
# 
# 
# High freq. dielectric constant tensor:
#      x y z
#    x 1.746930 0.000000 0.000000 
#    y 0.000000 1.741160 0.000000 
#    z 0.000000 0.000000 1.741630 
# 
# From -- ./inp_files/3191.got.cif
#   From: 2010.03.12/outbox.cif.g09.slc.cpg/sg31_2_cif.got.tgz:3191.got - 2010.04.14 01:42:59.
