data_PCOD8170945
_publ_section_title
;
Structure prediction by ZEFSAII (Michael W. Deem and Ramdas Pophale) SiO2 
 PCOD8170945
Probable space group: P N A 21
;
_chemical_formula_sum "Si O2"
_cell_formula_units_Z 32
_cell_length_a 9.126676
_cell_length_b 10.741771
_cell_length_c 14.663471
_cell_angle_alpha 90.000000
_cell_angle_beta 90.000000
_cell_angle_gamma 90.000000
_cell_volume 1437.557773
_symmetry_space_group_name_H-M "P N A 21"
_symmetry_group_IT_number 33
_symmetry_cell_setting 'orthorhombic'
loop_
_space_group_symop_operation_xyz
x,y,z
-x,-y,1/2+z
1/2-x,1/2+y,1/2+z
1/2+x,1/2-y,z
loop_
_atom_site_type_symbol
_atom_site_label
_atom_site_fract_x
_atom_site_fract_y
_atom_site_fract_z
Si Si1 0.756438 0.122471 0.528100
Si Si2 0.650703 0.876877 0.563534
Si Si3 0.444997 0.712820 0.465984
Si Si4 0.990444 0.661960 0.272088
Si Si5 0.613325 0.879630 0.769159
Si Si6 0.559002 0.467850 0.522758
Si Si7 0.278202 0.672504 0.163476
Si Si8 0.633182 0.267352 0.375485
O O1 0.790943 0.247626 0.582418
O O2 0.725647 0.155302 0.422136
O O3 0.890720 0.032200 0.552679
O O4 0.627476 0.027620 0.559322
O O5 0.495386 0.825467 0.529607
O O6 0.780990 0.825951 0.496862
O O7 0.660204 0.836178 0.668532
O O8 0.457794 0.760807 0.363005
O O9 0.570578 0.603320 0.475897
O O10 0.162637 0.646854 0.244511
O O11 0.926383 0.524091 0.278458
O O12 0.914887 0.744992 0.195233
O O13 0.484954 0.790807 0.806873
O O14 0.760320 0.862307 0.825774
O O15 0.663718 0.453395 0.612320
O O16 0.561467 0.349224 0.455313
#
# Coordination Sequence:
#
# PCOD8170945 Si02
#       8
#     4   4   4   4   4   4   4   4
#     4  10  20  44  69  99 138 184 230 290 356 427
#     4  11  24  45  67  97 145 184 236 292 361 423
#     4  11  26  45  67 102 144 190 232 300 366 427
#     4  12  26  45  74 107 141 186 245 299 361 430
#     4  12  26  45  71 106 140 194 242 306 353 436
#     4  10  23  43  70 100 138 189 229 293 366 432
#     4  11  23  44  72 103 136 182 238 294 352 437
#     4  11  24  43  70 102 142 181 242 294 357 428
#
# _framework density 22.259976000000002
#
# number of rings (size 3 to 8) (size 9 to 14) (size 15 to 20)
#    0.000    1.000    3.750    2.250    3.500    3.000 
#    4.500    0.000    0.000    0.000    0.000    0.000 
#    0.000    0.000    0.000    0.000    0.000    0.000 
#
# Total GULP energy -396444.947533 kJ/mol
# GULP energy per Si atom -12388.904610 kJ/mol
# Density = 2.220931 g / cm^3
# Si number density = 22.259976 Si / 1000 Ang^3
#
#
#
# Elastic Constant Matrix: (Units=GPa)
#
#
# Indices 1 2 3 4 5 6 
#
# 1 64.5327 28.1100 35.1862 0.0000 0.0000 0.0000
# 2 28.1100 89.1342 36.3002 0.0000 0.0000 0.0000
# 3 35.1862 36.3002 122.6701 0.0000 0.0000 0.0000
# 4 0.0000 0.0000 0.0000 34.8636 0.0000 0.0000
# 5 0.0000 0.0000 0.0000 0.0000 38.2990 0.0000
# 6 0.0000 0.0000 0.0000 0.0000 0.0000 28.8001
#
#
#
# Elastic Compliance Matrix: (Units=1/GPa)
#
#
# Indices 1 2 3 4 5 6 
#
# 1 0.019824 -0.004475 -0.004362 0.000000 0.000000 0.000000
# 2 -0.004475 0.013767 -0.002790 0.000000 0.000000 0.000000
# 3 -0.004362 -0.002790 0.010229 0.000000 0.000000 0.000000
# 4 0.000000 0.000000 0.000000 0.028683 0.000000 0.000000
# 5 0.000000 0.000000 0.000000 0.000000 0.026110 0.000000
# 6 0.000000 0.000000 0.000000 0.000000 0.000000 0.034722
#
#
# Mechanical properties :
#
#
# Convention : Reuss Voigt Hill
#
# Bulk Modulus (GPa) = 48.62743 52.83666 50.73204
# Shear Modulus (GPa) = 30.59147 32.17525 31.38336
#
# Velocity S-wave (km/s) = 3.71115 3.80601 3.75888
# Velocity P-wave (km/s) = 6.34478 6.56521 6.45593
#
# Compressibility (1/GPa) = 0.02056452
#
# Stress axis : x y z
#
# Youngs Moduli (GPa) = 50.44462 72.63895 97.76406
#
# Poissons Ratio (x) = 0.32509 0.42643
# Poissons Ratio (y) = 0.22576 0.27277
# Poissons Ratio (z) = 0.22003 0.20267
#
# Static dielectric constant tensor:
#      x y z
#    x 3.965900 0.000000 0.000000 
#    y 0.000000 4.217160 0.000000 
#    z 0.000000 0.000000 4.132480 
# 
# 
# High freq. dielectric constant tensor:
#      x y z
#    x 1.874990 0.000000 0.000000 
#    y 0.000000 1.884930 0.000000 
#    z 0.000000 0.000000 1.878980 
# 
# From -- ./inp_files/7655.got.cif
#   From: 2010.03.12/outbox.cif.g09.slc.cpg/sg33_4_cif.got.tgz:7655.got - 2010.04.14 01:49:19.
