data_PCOD8170363
_publ_section_title
;
Structure prediction by ZEFSAII (Michael W. Deem and Ramdas Pophale) SiO2 
 PCOD8170363
Probable space group: P M N 21
;
_chemical_formula_sum "Si O2"
_cell_formula_units_Z 32
_cell_length_a 8.580703
_cell_length_b 11.931356
_cell_length_c 15.206745
_cell_angle_alpha 90.000000
_cell_angle_beta 90.000000
_cell_angle_gamma 90.000000
_cell_volume 1556.857767
_symmetry_space_group_name_H-M "P M N 21"
_symmetry_group_IT_number 31
_symmetry_cell_setting 'orthorhombic'
loop_
_space_group_symop_operation_xyz
x,y,z
1/2-x,-y,1/2+z
-x,y,z
1/2+x,-y,1/2+z
loop_
_atom_site_type_symbol
_atom_site_label
_atom_site_fract_x
_atom_site_fract_y
_atom_site_fract_z
Si Si1 0.183115 0.609222 0.044600
Si Si2 0.178567 0.248813 0.975524
Si Si3 0.177687 0.455134 0.206220
Si Si4 0.677795 0.235695 0.156401
Si Si5 0.322150 0.457943 0.899438
Si Si6 0.320466 0.992452 0.708122
Si Si7 0.818349 0.974615 0.409699
Si Si8 0.318412 0.853209 0.062368
O O1 0.237804 0.537140 0.129056
O O2 0.223698 0.738526 0.059672
O O3 0.000000 0.597925 0.030224
O O4 0.269171 0.563282 0.958200
O O5 0.211274 0.351008 0.910354
O O6 0.213252 0.131911 0.929548
O O7 0.000000 0.251674 0.006417
O O8 0.293795 0.270623 0.056293
O O9 0.281103 0.343337 0.214715
O O10 0.195337 0.516864 0.297520
O O11 0.000000 0.419392 0.187388
O O12 0.500000 0.199346 0.172221
O O13 0.790224 0.132587 0.175935
O O14 0.500000 0.428489 0.923000
O O15 0.500000 0.023504 0.693360
O O16 0.275746 0.992266 0.810590
O O17 0.220106 0.080432 0.652023
O O18 0.000000 0.944065 0.420781
O O19 0.772030 0.073783 0.476676
O O20 0.500000 0.824720 0.061447
#
# Coordination Sequence:
#
# PCOD8170363 Si02
#       8
#     4   4   4   4   4   4   4   4
#     4  11  24  43  65  93 129 171 213 262 317 380
#     4  12  24  41  67  96 128 166 213 266 319 375
#     4  10  24  44  66  92 128 171 213 259 319 380
#     4  12  24  41  67  96 128 166 213 266 319 375
#     4  11  24  43  67  95 128 169 213 263 321 379
#     4  11  24  43  67  95 128 169 213 263 321 379
#     4  10  24  44  66  92 128 171 213 259 319 380
#     4  11  24  43  65  93 129 171 213 262 317 380
#
# _framework density 20.554220000000001
#
# number of rings (size 3 to 8) (size 9 to 14) (size 15 to 20)
#    0.000    1.000    2.500    3.750    3.500    3.000 
#    0.000    0.000    0.000    0.000    0.000    0.000 
#    0.000    0.000    0.000    0.000    0.000    0.000 
#
# Total GULP energy -396970.105831 kJ/mol
# GULP energy per Si atom -12405.315807 kJ/mol
# Density = 2.050744 g / cm^3
# Si number density = 20.554220 Si / 1000 Ang^3
#
#
#
# Elastic Constant Matrix: (Units=GPa)
#
#
# Indices 1 2 3 4 5 6 
#
# 1 60.0086 24.8593 31.8887 0.0000 0.0000 0.0000
# 2 24.8593 113.8728 23.1465 0.0000 0.0000 0.0000
# 3 31.8887 23.1465 93.3340 0.0000 0.0000 0.0000
# 4 0.0000 0.0000 0.0000 34.7741 0.0000 0.0000
# 5 0.0000 0.0000 0.0000 0.0000 31.5834 0.0000
# 6 0.0000 0.0000 0.0000 0.0000 0.0000 37.0833
#
#
#
# Elastic Compliance Matrix: (Units=1/GPa)
#
#
# Indices 1 2 3 4 5 6 
#
# 1 0.021526 -0.003374 -0.006518 0.000000 0.000000 0.000000
# 2 -0.003374 0.009777 -0.001272 0.000000 0.000000 0.000000
# 3 -0.006518 -0.001272 0.013256 0.000000 0.000000 0.000000
# 4 0.000000 0.000000 0.000000 0.028757 0.000000 0.000000
# 5 0.000000 0.000000 0.000000 0.000000 0.031662 0.000000
# 6 0.000000 0.000000 0.000000 0.000000 0.000000 0.026966
#
#
# Mechanical properties :
#
#
# Convention : Reuss Voigt Hill
#
# Bulk Modulus (GPa) = 44.98143 47.44495 46.21319
# Shear Modulus (GPa) = 30.92479 33.17622 32.05051
#
# Velocity S-wave (km/s) = 3.88306 4.02192 3.95310
# Velocity P-wave (km/s) = 6.48352 6.68586 6.58547
#
# Compressibility (1/GPa) = 0.02223140
#
# Stress axis : x y z
#
# Youngs Moduli (GPa) = 46.45618 102.28203 75.43512
#
# Poissons Ratio (x) = 0.34514 0.49166
# Poissons Ratio (y) = 0.15676 0.09593
# Poissons Ratio (z) = 0.30279 0.13008
#
# Static dielectric constant tensor:
#      x y z
#    x 3.774370 0.000000 0.000000 
#    y 0.000000 2.926850 0.000000 
#    z 0.000000 0.000000 3.833680 
# 
# 
# High freq. dielectric constant tensor:
#      x y z
#    x 1.807240 0.000000 0.000000 
#    y 0.000000 1.814330 0.000000 
#    z 0.000000 0.000000 1.811130 
# 
# From -- ./inp_files/5064.got.cif
#   From: 2010.03.12/outbox.cif.g09.slc.cpg/sg31_3_cif.got.tgz:5064.got - 2010.04.14 01:42:59.
