data_PCOD8170266
_publ_section_title
;
Structure prediction by ZEFSAII (Michael W. Deem and Ramdas Pophale) SiO2 
 PCOD8170266
Probable space group: P M N 21
;
_chemical_formula_sum "Si O2"
_cell_formula_units_Z 24
_cell_length_a 8.927295
_cell_length_b 9.960019
_cell_length_c 13.947963
_cell_angle_alpha 90.000000
_cell_angle_beta 90.000000
_cell_angle_gamma 90.000000
_cell_volume 1240.197466
_symmetry_space_group_name_H-M "P M N 21"
_symmetry_group_IT_number 31
_symmetry_cell_setting 'orthorhombic'
loop_
_space_group_symop_operation_xyz
x,y,z
1/2-x,-y,1/2+z
-x,y,z
1/2+x,-y,1/2+z
loop_
_atom_site_type_symbol
_atom_site_label
_atom_site_fract_x
_atom_site_fract_y
_atom_site_fract_z
Si Si1 0.170821 0.858774 0.729940
Si Si2 0.828495 0.110271 0.856414
Si Si3 0.825600 0.659877 0.242782
Si Si4 0.322701 0.401965 0.332079
Si Si5 0.673102 0.271225 0.530144
Si Si6 0.821823 0.984486 0.537558
O O1 0.240855 0.717766 0.764353
O O2 0.247126 0.921665 0.635475
O O3 0.000000 0.831784 0.703214
O O4 0.183949 0.959134 0.818757
O O5 0.756005 0.206984 0.778516
O O6 0.000000 0.153335 0.873464
O O7 0.738378 0.114615 0.955444
O O8 0.760924 0.534901 0.300310
O O9 0.795732 0.648043 0.128766
O O10 0.000000 0.671907 0.265800
O O11 0.500000 0.421357 0.320021
O O12 0.282444 0.369377 0.442719
O O13 0.500000 0.227982 0.521631
O O14 0.768442 0.136272 0.525615
O O15 0.000000 0.986203 0.537058
#
# Coordination Sequence:
#
# PCOD8170266 Si02
#       6
#     4   4   4   4   4   4
#     4   9  19  36  60  87 117 152 199 243 289 355
#     4  11  21  39  62  87 119 161 201 240 297 361
#     4  11  24  40  59  91 125 154 199 257 303 354
#     4  10  21  41  63  84 117 163 202 240 298 368
#     4  10  21  39  62  86 118 159 203 248 303 365
#     4  11  21  35  60  95 124 153 200 254 298 349
#
# _framework density 19.351756000000002
#
# number of rings (size 3 to 8) (size 9 to 14) (size 15 to 20)
#    0.000    1.667    3.333    1.500    0.000    2.667 
#    0.000    5.000    0.000    0.000    0.000    0.000 
#    0.000    0.000    0.000    0.000    0.000    0.000 
#
# Total GULP energy -297607.378705 kJ/mol
# GULP energy per Si atom -12400.307446 kJ/mol
# Density = 1.930771 g / cm^3
# Si number density = 19.351756 Si / 1000 Ang^3
#
#
#
# Elastic Constant Matrix: (Units=GPa)
#
#
# Indices 1 2 3 4 5 6 
#
# 1 75.9187 28.5368 39.4571 0.0000 0.0000 0.0000
# 2 28.5368 71.9361 22.4934 0.0000 0.0000 0.0000
# 3 39.4571 22.4934 124.3897 0.0000 0.0000 0.0000
# 4 0.0000 0.0000 0.0000 35.8693 0.0000 0.0000
# 5 0.0000 0.0000 0.0000 0.0000 26.5306 0.0000
# 6 0.0000 0.0000 0.0000 0.0000 0.0000 32.8426
#
#
#
# Elastic Compliance Matrix: (Units=1/GPa)
#
#
# Indices 1 2 3 4 5 6 
#
# 1 0.017651 -0.005566 -0.004593 0.000000 0.000000 0.000000
# 2 -0.005566 0.016490 -0.001216 0.000000 0.000000 0.000000
# 3 -0.004593 -0.001216 0.009716 0.000000 0.000000 0.000000
# 4 0.000000 0.000000 0.000000 0.027879 0.000000 0.000000
# 5 0.000000 0.000000 0.000000 0.000000 0.037692 0.000000
# 6 0.000000 0.000000 0.000000 0.000000 0.000000 0.030448
#
#
# Mechanical properties :
#
#
# Convention : Reuss Voigt Hill
#
# Bulk Modulus (GPa) = 47.37775 50.35767 48.86771
# Shear Modulus (GPa) = 29.47047 31.16565 30.31806
#
# Velocity S-wave (km/s) = 3.90665 4.01743 3.96243
# Velocity P-wave (km/s) = 6.69961 6.89916 6.80012
#
# Compressibility (1/GPa) = 0.02110695
#
# Stress axis : x y z
#
# Youngs Moduli (GPa) = 56.65384 60.64443 102.92357
#
# Poissons Ratio (x) = 0.33755 0.47268
# Poissons Ratio (y) = 0.31534 0.12518
# Poissons Ratio (z) = 0.26018 0.07376
#
# Static dielectric constant tensor:
#      x y z
#    x 3.426940 0.000000 0.000000 
#    y 0.000000 3.410090 0.000000 
#    z 0.000000 0.000000 3.873160 
# 
# 
# High freq. dielectric constant tensor:
#      x y z
#    x 1.739560 0.000000 0.000000 
#    y 0.000000 1.746720 0.000000 
#    z 0.000000 0.000000 1.771810 
# 
# From -- ./inp_files/4725.got.cif
#   From: 2010.03.12/outbox.cif.g09.slc.cpg/sg31_3_cif.got.tgz:4725.got - 2010.04.14 01:42:59.
