data_PCOD8170887
_publ_section_title
;
Structure prediction by ZEFSAII (Michael W. Deem and Ramdas Pophale) SiO2 
 PCOD8170887
Probable space group: P N A 21
;
_chemical_formula_sum "Si O2"
_cell_formula_units_Z 28
_cell_length_a 8.293695
_cell_length_b 16.916612
_cell_length_c 8.892473
_cell_angle_alpha 90.000000
_cell_angle_beta 90.000000
_cell_angle_gamma 90.000000
_cell_volume 1247.624814
_symmetry_space_group_name_H-M "P N A 21"
_symmetry_group_IT_number 33
_symmetry_cell_setting 'orthorhombic'
loop_
_space_group_symop_operation_xyz
x,y,z
-x,-y,1/2+z
1/2-x,1/2+y,1/2+z
1/2+x,1/2-y,z
loop_
_atom_site_type_symbol
_atom_site_label
_atom_site_fract_x
_atom_site_fract_y
_atom_site_fract_z
Si Si1 0.338071 0.179272 0.692000
Si Si2 0.565118 0.060793 0.837426
Si Si3 0.150899 0.176628 0.989808
Si Si4 0.210937 0.862635 0.873231
Si Si5 0.804945 0.490602 0.052180
Si Si6 0.430073 0.728859 0.000292
Si Si7 0.280661 0.334204 0.045276
O O1 0.431349 0.098805 0.727257
O O2 0.231634 0.204738 0.834122
O O3 0.463288 0.248143 0.646737
O O4 0.213167 0.169893 0.552568
O O5 0.673516 0.006170 0.729917
O O6 0.475986 0.009857 0.965057
O O7 0.671966 0.127574 0.915906
O O8 0.216587 0.092960 0.044680
O O9 0.209062 0.248526 0.096976
O O10 0.959384 0.172934 0.978788
O O11 0.228897 0.886371 0.697803
O O12 0.360112 0.809382 0.928856
O O13 0.040466 0.816775 0.880890
O O14 0.197774 0.941206 0.974858
#
# Coordination Sequence:
#
# PCOD8170887 Si02
#       7
#     4   4   4   4   4   4   4
#     4  10  20  38  65 100 126 176 225 282 331 403
#     4  11  24  45  70  98 137 184 225 283 345 416
#     4  11  25  42  71  99 141 179 236 283 349 412
#     4  11  24  43  68 102 138 180 231 285 346 407
#     4  11  25  46  67 104 141 180 227 290 355 401
#     4  10  21  39  69  99 134 177 235 279 335 415
#     4  12  25  45  70 100 137 184 235 278 341 424
#
# _framework density 22.442646
#
# number of rings (size 3 to 8) (size 9 to 14) (size 15 to 20)
#    0.000    1.143    1.429    5.143    4.000    2.286 
#    7.714    0.000    0.000    0.000    0.000    0.000 
#    0.000    0.000    0.000    0.000    0.000    0.000 
#
# Total GULP energy -347196.338650 kJ/mol
# GULP energy per Si atom -12399.869237 kJ/mol
# Density = 2.239157 g / cm^3
# Si number density = 22.442646 Si / 1000 Ang^3
#
#
#
# Elastic Constant Matrix: (Units=GPa)
#
#
# Indices 1 2 3 4 5 6 
#
# 1 125.0118 42.5781 38.2596 0.0000 0.0000 0.0000
# 2 42.5781 113.0387 39.0501 0.0000 0.0000 0.0000
# 3 38.2596 39.0501 92.0158 0.0000 0.0000 0.0000
# 4 0.0000 0.0000 0.0000 26.1346 0.0000 0.0000
# 5 0.0000 0.0000 0.0000 0.0000 29.8804 0.0000
# 6 0.0000 0.0000 0.0000 0.0000 0.0000 32.1027
#
#
#
# Elastic Compliance Matrix: (Units=1/GPa)
#
#
# Indices 1 2 3 4 5 6 
#
# 1 0.009812 -0.002679 -0.002943 0.000000 0.000000 0.000000
# 2 -0.002679 0.011098 -0.003596 0.000000 0.000000 0.000000
# 3 -0.002943 -0.003596 0.013617 0.000000 0.000000 0.000000
# 4 0.000000 0.000000 0.000000 0.038263 0.000000 0.000000
# 5 0.000000 0.000000 0.000000 0.000000 0.033467 0.000000
# 6 0.000000 0.000000 0.000000 0.000000 0.000000 0.031150
#
#
# Mechanical properties :
#
#
# Convention : Reuss Voigt Hill
#
# Bulk Modulus (GPa) = 62.14372 63.31576 62.72974
# Shear Modulus (GPa) = 31.01586 31.63545 31.32566
#
# Velocity S-wave (km/s) = 3.72157 3.75855 3.74011
# Velocity P-wave (km/s) = 6.79830 6.86361 6.83103
#
# Compressibility (1/GPa) = 0.01609173
#
# Stress axis : x y z
#
# Youngs Moduli (GPa) = 101.91094 90.10680 73.43608
#
# Poissons Ratio (x) = 0.24143 0.21611
# Poissons Ratio (y) = 0.27306 0.26405
# Poissons Ratio (z) = 0.29991 0.32400
#
# Static dielectric constant tensor:
#      x y z
#    x 4.173640 0.000000 0.000000 
#    y 0.000000 3.789390 0.000000 
#    z 0.000000 0.000000 4.052080 
# 
# 
# High freq. dielectric constant tensor:
#      x y z
#    x 1.894070 0.000000 0.000000 
#    y 0.000000 1.869500 0.000000 
#    z 0.000000 0.000000 1.888790 
# 
# From -- ./inp_files/3329.got.cif
#   From: 2010.03.12/outbox.cif.g09.slc.cpg/sg33_2_cif.got.tgz:3329.got - 2010.04.14 01:49:19.
