data_PCOD8170966
_publ_section_title
;
Structure prediction by ZEFSAII (Michael W. Deem and Ramdas Pophale) SiO2 
 PCOD8170966
Probable space group: P N A 21
;
_chemical_formula_sum "Si O2"
_cell_formula_units_Z 32
_cell_length_a 8.896474
_cell_length_b 20.039754
_cell_length_c 9.118988
_cell_angle_alpha 90.000000
_cell_angle_beta 90.000000
_cell_angle_gamma 90.000000
_cell_volume 1625.761909
_symmetry_space_group_name_H-M "P N A 21"
_symmetry_group_IT_number 33
_symmetry_cell_setting 'orthorhombic'
loop_
_space_group_symop_operation_xyz
x,y,z
-x,-y,1/2+z
1/2-x,1/2+y,1/2+z
1/2+x,1/2-y,z
loop_
_atom_site_type_symbol
_atom_site_label
_atom_site_fract_x
_atom_site_fract_y
_atom_site_fract_z
Si Si1 0.800571 0.051613 0.695480
Si Si2 0.698951 0.802590 0.355230
Si Si3 0.356157 0.832839 0.355704
Si Si4 0.143843 0.332839 0.192919
Si Si5 0.800571 0.051613 0.353143
Si Si6 0.857027 0.920355 0.852955
Si Si7 0.642973 0.420355 0.695668
Si Si8 0.801049 0.302590 0.193393
O O1 0.680167 0.104073 0.755117
O O2 0.774139 0.041534 0.524311
O O3 0.966643 0.077958 0.732763
O O4 0.771558 0.980745 0.772511
O O5 0.524000 0.809452 0.320668
O O6 0.743875 0.727159 0.316074
O O7 0.794299 0.850874 0.252905
O O8 0.737322 0.818776 0.524312
O O9 0.337394 0.854349 0.524312
O O10 0.180167 0.395927 0.293506
O O11 0.256125 0.272841 0.232549
O O12 0.976000 0.309452 0.227955
O O13 0.966643 0.077958 0.315860
O O14 0.771559 0.980746 0.276112
O O15 0.794299 0.850874 0.795719
O O16 0.826031 0.927188 0.024312
#
# Coordination Sequence:
#
# PCOD8170966 Si02
#       8
#     4   4   4   4   4   4   4   4
#     4  10  21  37  58  83 111 145 184 226 273 325
#     4  10  21  37  58  83 111 145 184 226 273 325
#     4  10  21  37  58  83 111 145 184 226 273 325
#     4  10  21  37  58  83 111 145 184 226 273 325
#     4  10  21  37  58  83 111 145 184 226 273 325
#     4  10  21  37  58  83 111 145 184 226 273 325
#     4  10  21  37  58  83 111 145 184 226 273 325
#     4  10  21  37  58  83 111 145 184 226 273 325
#
# _framework density 19.68308
#
# number of rings (size 3 to 8) (size 9 to 14) (size 15 to 20)
#    0.000    2.000    0.000    3.000    0.000    8.000 
#    0.000    0.000    0.000    0.000    0.000    0.000 
#    0.000    0.000    0.000    0.000    0.000    0.000 
#
# Total GULP energy -397014.719427 kJ/mol
# GULP energy per Si atom -12406.709982 kJ/mol
# Density = 1.963828 g / cm^3
# Si number density = 19.683080 Si / 1000 Ang^3
#
#
#
# Elastic Constant Matrix: (Units=GPa)
#
#
# Indices 1 2 3 4 5 6 
#
# 1 35.2949 -4.8935 16.3847 0.0000 0.0000 0.0000
# 2 -4.8935 47.6313 22.4961 0.0000 0.0000 0.0000
# 3 16.3847 22.4961 72.6833 0.0000 0.0000 0.0000
# 4 0.0000 0.0000 0.0000 41.9740 0.0000 0.0000
# 5 0.0000 0.0000 0.0000 0.0000 31.2426 0.0000
# 6 0.0000 0.0000 0.0000 0.0000 0.0000 35.7000
#
#
#
# Elastic Compliance Matrix: (Units=1/GPa)
#
#
# Indices 1 2 3 4 5 6 
#
# 1 0.034294 0.008403 -0.010331 0.000000 0.000000 0.000000
# 2 0.008403 0.026648 -0.010142 0.000000 0.000000 0.000000
# 3 -0.010331 -0.010142 0.019226 0.000000 0.000000 0.000000
# 4 0.000000 0.000000 0.000000 0.023824 0.000000 0.000000
# 5 0.000000 0.000000 0.000000 0.000000 0.032008 0.000000
# 6 0.000000 0.000000 0.000000 0.000000 0.000000 0.028011
#
#
# Mechanical properties :
#
#
# Convention : Reuss Voigt Hill
#
# Bulk Modulus (GPa) = 17.84863 24.84268 21.34565
# Shear Modulus (GPa) = 24.17470 29.89147 27.03309
#
# Velocity S-wave (km/s) = 3.50837 3.90120 3.70999
# Velocity P-wave (km/s) = 5.04967 5.73944 5.40557
#
# Compressibility (1/GPa) = 0.05602671
#
# Stress axis : x y z
#
# Youngs Moduli (GPa) = 29.15982 37.52645 52.01211
#
# Poissons Ratio (x) = -0.31532 0.53736
# Poissons Ratio (y) = -0.24502 0.52750
# Poissons Ratio (z) = 0.30126 0.38059
#
# Static dielectric constant tensor:
#      x y z
#    x 3.555800 0.000000 0.000000 
#    y 0.000000 3.561380 0.000000 
#    z 0.000000 0.000000 3.530230 
# 
# 
# High freq. dielectric constant tensor:
#      x y z
#    x 1.765250 0.000000 0.000000 
#    y 0.000000 1.775490 0.000000 
#    z 0.000000 0.000000 1.767300 
# 
# From -- ./inp_files/3531.got.cif
#   From: 2010.03.12/outbox.cif.g09.slc.cpg/sg33_2_cif.got.tgz:3531.got - 2010.04.14 01:49:19.
