data_PCOD8170697
_publ_section_title
;
Structure prediction by ZEFSAII (Michael W. Deem and Ramdas Pophale) SiO2 
 PCOD8170697
Probable space group: P N A 21
;
_chemical_formula_sum "Si O2"
_cell_formula_units_Z 32
_cell_length_a 4.998613
_cell_length_b 29.238760
_cell_length_c 10.757631
_cell_angle_alpha 90.000000
_cell_angle_beta 90.000000
_cell_angle_gamma 90.000000
_cell_volume 1572.262688
_symmetry_space_group_name_H-M "P N A 21"
_symmetry_group_IT_number 33
_symmetry_cell_setting 'orthorhombic'
loop_
_space_group_symop_operation_xyz
x,y,z
-x,-y,1/2+z
1/2-x,1/2+y,1/2+z
1/2+x,1/2-y,z
loop_
_atom_site_type_symbol
_atom_site_label
_atom_site_fract_x
_atom_site_fract_y
_atom_site_fract_z
Si Si1 0.033176 0.531176 0.372170
Si Si2 0.466877 0.617469 0.998758
Si Si3 0.101874 0.863289 0.503548
Si Si4 0.961368 0.574840 0.877342
Si Si5 0.910225 0.778122 0.631798
Si Si6 0.406563 0.091800 0.097387
Si Si7 0.965297 0.781680 0.913646
Si Si8 0.953957 0.080094 0.769967
O O1 0.095764 0.478486 0.394147
O O2 0.261583 0.557521 0.296793
O O3 0.998574 0.549703 0.512238
O O4 0.763988 0.540225 0.293477
O O5 0.564695 0.599802 0.132101
O O6 0.687360 0.602330 0.898057
O O7 0.438667 0.672695 0.997204
O O8 0.183690 0.593888 0.971340
O O9 0.989622 0.812711 0.522958
O O10 0.904364 0.898034 0.574915
O O11 0.103522 0.876209 0.358315
O O12 0.399962 0.865845 0.560886
O O13 0.066227 0.581074 0.739859
O O14 0.599370 0.766021 0.615673
O O15 0.954294 0.798599 0.770064
O O16 0.737729 0.744726 0.944208
#
# Coordination Sequence:
#
# PCOD8170697 Si02
#       8
#     4   4   4   4   4   4   4   4
#     4  10  23  41  59  86 117 161 199 249 308 343
#     4  12  25  40  63  93 121 167 206 250 301 376
#     4  10  20  39  58  82 115 154 194 239 297 358
#     4  12  24  38  62  92 119 155 205 259 294 362
#     4  10  19  32  56  85 113 145 188 251 299 350
#     4  10  21  36  60  81 113 153 194 243 294 349
#     4  10  21  38  59  87 124 157 197 252 309 354
#     4  10  23  42  61  82 124 164 199 245 300 368
#
# _framework density 20.352834000000001
#
# number of rings (size 3 to 8) (size 9 to 14) (size 15 to 20)
#    0.000    1.500    0.000    5.250    3.500    2.000 
#    0.000    1.250    0.000    0.000    0.000    0.000 
#    0.000    0.000    0.000    0.000    0.000    0.000 
#
# Total GULP energy -396858.868527 kJ/mol
# GULP energy per Si atom -12401.839641 kJ/mol
# Density = 2.030651 g / cm^3
# Si number density = 20.352834 Si / 1000 Ang^3
#
#
#
# Elastic Constant Matrix: (Units=GPa)
#
#
# Indices 1 2 3 4 5 6 
#
# 1 72.1025 -2.5912 6.1505 0.0000 0.0000 0.0000
# 2 -2.5912 90.5010 27.2522 0.0000 0.0000 0.0000
# 3 6.1505 27.2522 73.1789 0.0000 0.0000 0.0000
# 4 0.0000 0.0000 0.0000 -21.5992 0.0000 0.0000
# 5 0.0000 0.0000 0.0000 0.0000 23.4438 0.0000
# 6 0.0000 0.0000 0.0000 0.0000 0.0000 20.8161
#
#
#
# Elastic Compliance Matrix: (Units=1/GPa)
#
#
# Indices 1 2 3 4 5 6 
#
# 1 0.014027 0.000852 -0.001496 0.000000 0.000000 0.000000
# 2 0.000852 0.012497 -0.004726 0.000000 0.000000 0.000000
# 3 -0.001496 -0.004726 0.015551 0.000000 0.000000 0.000000
# 4 0.000000 0.000000 0.000000 -0.046298 0.000000 0.000000
# 5 0.000000 0.000000 0.000000 0.000000 0.042655 0.000000
# 6 0.000000 0.000000 0.000000 0.000000 0.000000 0.048040
#
#
# Mechanical properties :
#
#
# Convention : Reuss Voigt Hill
#
# Bulk Modulus (GPa) = 31.91244 33.04504 32.47874
# Shear Modulus (GPa) = 46.44394 18.19687 32.32041
#
# Velocity S-wave (km/s) = 4.78215 2.99335 3.98930
# Velocity P-wave (km/s) = 6.79747 5.31208 6.10015
#
# Compressibility (1/GPa) = 0.03133575
#
# Stress axis : x y z
#
# Youngs Moduli (GPa) = 71.28903 80.01922 64.30565
#
# Poissons Ratio (x) = -0.06819 0.09622
# Poissons Ratio (y) = -0.06075 0.30388
# Poissons Ratio (z) = 0.10667 0.37814
#
# Static dielectric constant tensor:
#      x y z
#    x 3.927800 0.000000 0.000000 
#    y 0.000000 3.921220 0.000000 
#    z 0.000000 0.000000 3.565270 
# 
# 
# High freq. dielectric constant tensor:
#      x y z
#    x 1.817160 0.000000 0.000000 
#    y 0.000000 1.789380 0.000000 
#    z 0.000000 0.000000 1.781040 
# 
# From -- ./inp_files/5617.got.cif
#   From: 2010.03.12/outbox.cif.g09.slc.cpg/sg33_3_cif.got.tgz:5617.got - 2010.04.14 01:49:19.
