data_PCOD8170974
_publ_section_title
;
Structure prediction by ZEFSAII (Michael W. Deem and Ramdas Pophale) SiO2 
 PCOD8170974
Probable space group: P N A 21
;
_chemical_formula_sum "Si O2"
_cell_formula_units_Z 32
_cell_length_a 8.679603
_cell_length_b 9.795055
_cell_length_c 18.331980
_cell_angle_alpha 90.000000
_cell_angle_beta 90.000000
_cell_angle_gamma 90.000000
_cell_volume 1558.533404
_symmetry_space_group_name_H-M "P N A 21"
_symmetry_group_IT_number 33
_symmetry_cell_setting 'orthorhombic'
loop_
_space_group_symop_operation_xyz
x,y,z
-x,-y,1/2+z
1/2-x,1/2+y,1/2+z
1/2+x,1/2-y,z
loop_
_atom_site_type_symbol
_atom_site_label
_atom_site_fract_x
_atom_site_fract_y
_atom_site_fract_z
Si Si1 0.071024 0.850614 0.465060
Si Si2 0.497162 0.833380 0.690670
Si Si3 0.879313 0.563364 0.101067
Si Si4 0.719902 0.828792 0.090035
Si Si5 0.283869 0.073912 0.950674
Si Si6 0.180770 0.889702 0.626995
Si Si7 0.763676 0.885204 0.924701
Si Si8 0.569548 0.142376 0.357096
O O1 0.109199 0.703297 0.431270
O O2 0.119035 0.842495 0.549207
O O3 0.892425 0.882582 0.456332
O O4 0.172024 0.961757 0.422344
O O5 0.354737 0.835111 0.634789
O O6 0.574843 0.682811 0.688476
O O7 0.443655 0.872819 0.770773
O O8 0.620005 0.947388 0.663439
O O9 0.754651 0.679285 0.123061
O O10 0.040546 0.641857 0.095583
O O11 0.838475 0.495060 0.024960
O O12 0.817869 0.945454 0.133198
O O13 0.772491 0.825621 0.006036
O O14 0.304100 0.966150 0.885041
O O15 0.590856 0.887169 0.896052
O O16 0.872211 0.794250 0.873652
#
# Coordination Sequence:
#
# PCOD8170974 Si02
#       8
#     4   4   4   4   4   4   4   4
#     4  11  24  39  68  98 124 165 221 278 328 366
#     4  11  24  42  62  97 135 176 211 263 327 399
#     4  11  23  39  64  91 128 162 214 270 316 378
#     4  10  21  37  61  94 118 158 216 271 311 364
#     4  12  23  40  65  95 127 165 219 277 321 390
#     4  10  22  39  63  92 130 161 217 267 317 384
#     4  11  21  39  62  94 126 168 214 272 316 387
#     4  12  24  41  65  95 138 175 216 260 336 396
#
# _framework density 20.532122999999999
#
# number of rings (size 3 to 8) (size 9 to 14) (size 15 to 20)
#    0.000    1.000    3.750    3.000    5.250    0.000 
#    0.000    6.250    0.000    0.000    0.000    0.000 
#    0.000    0.000    0.000    0.000    0.000    0.000 
#
# Total GULP energy -396890.136874 kJ/mol
# GULP energy per Si atom -12402.816777 kJ/mol
# Density = 2.048539 g / cm^3
# Si number density = 20.532123 Si / 1000 Ang^3
#
#
#
# Elastic Constant Matrix: (Units=GPa)
#
#
# Indices 1 2 3 4 5 6 
#
# 1 117.2227 53.3649 23.3350 0.0000 0.0000 0.0000
# 2 53.3649 128.5697 33.2088 0.0000 0.0000 0.0000
# 3 23.3350 33.2088 51.0539 0.0000 0.0000 0.0000
# 4 0.0000 0.0000 0.0000 21.7277 0.0000 0.0000
# 5 0.0000 0.0000 0.0000 0.0000 14.2933 0.0000
# 6 0.0000 0.0000 0.0000 0.0000 0.0000 42.1555
#
#
#
# Elastic Compliance Matrix: (Units=1/GPa)
#
#
# Indices 1 2 3 4 5 6 
#
# 1 0.010761 -0.003842 -0.002420 0.000000 0.000000 0.000000
# 2 -0.003842 0.010720 -0.005217 0.000000 0.000000 0.000000
# 3 -0.002420 -0.005217 0.024087 0.000000 0.000000 0.000000
# 4 0.000000 0.000000 0.000000 0.046024 0.000000 0.000000
# 5 0.000000 0.000000 0.000000 0.000000 0.069963 0.000000
# 6 0.000000 0.000000 0.000000 0.000000 0.000000 0.023722
#
#
# Mechanical properties :
#
#
# Convention : Reuss Voigt Hill
#
# Bulk Modulus (GPa) = 44.22637 57.40709 50.81673
# Shear Modulus (GPa) = 23.17276 28.09781 25.63529
#
# Velocity S-wave (km/s) = 3.36312 3.70331 3.53731
# Velocity P-wave (km/s) = 6.05538 6.80488 6.44104
#
# Compressibility (1/GPa) = 0.02261094
#
# Stress axis : x y z
#
# Youngs Moduli (GPa) = 92.92508 93.28392 41.51677
#
# Poissons Ratio (x) = 0.35836 0.10046
# Poissons Ratio (y) = 0.35699 0.21660
# Poissons Ratio (z) = 0.22486 0.48667
#
# Static dielectric constant tensor:
#      x y z
#    x 3.850020 0.000000 0.000000 
#    y 0.000000 4.087950 0.000000 
#    z 0.000000 0.000000 3.476220 
# 
# 
# High freq. dielectric constant tensor:
#      x y z
#    x 1.814360 0.000000 0.000000 
#    y 0.000000 1.820590 0.000000 
#    z 0.000000 0.000000 1.768180 
# 
# From -- ./inp_files/8944.got.cif
#   From: 2010.03.12/outbox.cif.g09.slc.cpg/sg33_5_cif.got.tgz:8944.got - 2010.04.14 01:49:19.
