data_PCOD8170088
_publ_section_title
;
Structure prediction by ZEFSAII (Michael W. Deem and Ramdas Pophale) SiO2 
 PCOD8170088
Probable space group: P M N 21
;
_chemical_formula_sum "Si O2"
_cell_formula_units_Z 24
_cell_length_a 9.215283
_cell_length_b 15.153014
_cell_length_c 8.841636
_cell_angle_alpha 90.000000
_cell_angle_beta 90.000000
_cell_angle_gamma 90.000000
_cell_volume 1234.639971
_symmetry_space_group_name_H-M "P M N 21"
_symmetry_group_IT_number 31
_symmetry_cell_setting 'orthorhombic'
loop_
_space_group_symop_operation_xyz
x,y,z
1/2-x,-y,1/2+z
-x,y,z
1/2+x,-y,1/2+z
loop_
_atom_site_type_symbol
_atom_site_label
_atom_site_fract_x
_atom_site_fract_y
_atom_site_fract_z
Si Si1 0.667136 0.597134 0.643020
Si Si2 0.827629 0.234855 0.327031
Si Si3 0.169202 0.273902 0.662404
Si Si4 0.832852 0.575590 0.334039
Si Si5 0.171490 0.061704 0.161751
Si Si6 0.332265 0.907639 0.319288
O O1 0.500000 0.607210 0.591589
O O2 0.726721 0.687162 0.717516
O O3 0.761803 0.575351 0.497982
O O4 0.684717 0.521967 0.768200
O O5 0.769844 0.249129 0.496723
O O6 0.768202 0.141506 0.265360
O O7 0.000000 0.233760 0.327576
O O8 0.255967 0.357543 0.720702
O O9 0.197621 0.193146 0.775293
O O10 0.000000 0.298907 0.655221
O O11 0.000000 0.602829 0.349563
O O12 0.000000 0.053373 0.177006
O O13 0.241502 0.970279 0.210457
O O14 0.219077 0.080715 0.990686
O O15 0.500000 0.931958 0.297211
#
# Coordination Sequence:
#
# PCOD8170088 Si02
#       6
#     4   4   4   4   4   4
#     4  10  21  38  58  80 111 148 183 222 272 330
#     4   9  18  35  59  82 104 141 188 225 269 332
#     4  10  20  37  60  81 108 147 185 223 273 332
#     4  11  23  37  57  86 114 143 184 229 271 318
#     4  10  20  35  56  81 109 141 183 233 275 320
#     4  10  21  36  56  82 110 146 187 224 274 334
#
# _framework density 19.438866000000001
#
# number of rings (size 3 to 8) (size 9 to 14) (size 15 to 20)
#    0.000    2.000    0.000    3.500    0.000    8.000 
#    0.000    4.167    0.000    0.000    0.000    0.000 
#    0.000    0.000    0.000    0.000    0.000    0.000 
#
# Total GULP energy -297706.103080 kJ/mol
# GULP energy per Si atom -12404.420962 kJ/mol
# Density = 1.939462 g / cm^3
# Si number density = 19.438866 Si / 1000 Ang^3
#
#
#
# Elastic Constant Matrix: (Units=GPa)
#
#
# Indices 1 2 3 4 5 6 
#
# 1 49.0995 20.4169 25.2053 0.0000 0.0000 0.0000
# 2 20.4169 56.4523 -4.1746 0.0000 0.0000 0.0000
# 3 25.2053 -4.1746 90.8810 0.0000 0.0000 0.0000
# 4 0.0000 0.0000 0.0000 39.4182 0.0000 0.0000
# 5 0.0000 0.0000 0.0000 0.0000 31.2969 0.0000
# 6 0.0000 0.0000 0.0000 0.0000 0.0000 31.3113
#
#
#
# Elastic Compliance Matrix: (Units=1/GPa)
#
#
# Indices 1 2 3 4 5 6 
#
# 1 0.029555 -0.011334 -0.008717 0.000000 0.000000 0.000000
# 2 -0.011334 0.022121 0.004159 0.000000 0.000000 0.000000
# 3 -0.008717 0.004159 0.013612 0.000000 0.000000 0.000000
# 4 0.000000 0.000000 0.000000 0.025369 0.000000 0.000000
# 5 0.000000 0.000000 0.000000 0.000000 0.031952 0.000000
# 6 0.000000 0.000000 0.000000 0.000000 0.000000 0.031937
#
#
# Mechanical properties :
#
#
# Convention : Reuss Voigt Hill
#
# Bulk Modulus (GPa) = 29.84690 31.03644 30.44167
# Shear Modulus (GPa) = 25.31680 30.73762 28.02721
#
# Velocity S-wave (km/s) = 3.61277 3.98080 3.80124
# Velocity P-wave (km/s) = 5.72629 6.09343 5.91271
#
# Compressibility (1/GPa) = 0.03350432
#
# Stress axis : x y z
#
# Youngs Moduli (GPa) = 33.83552 45.20662 73.46358
#
# Poissons Ratio (x) = 0.51235 0.64041
# Poissons Ratio (y) = 0.38348 -0.30557
# Poissons Ratio (z) = 0.29496 -0.18803
#
# Static dielectric constant tensor:
#      x y z
#    x 3.335570 0.000000 0.000000 
#    y 0.000000 3.661080 0.000000 
#    z 0.000000 0.000000 3.716170 
# 
# 
# High freq. dielectric constant tensor:
#      x y z
#    x 1.730060 0.000000 0.000000 
#    y 0.000000 1.771090 0.000000 
#    z 0.000000 0.000000 1.775090 
# 
# From -- ./inp_files/1694.got.cif
#   From: 2010.03.12/outbox.cif.g09.slc.cpg/sg31_1_cif.got.tgz:1694.got - 2010.04.14 01:42:59.
