data_PCOD8170715
_publ_section_title
;
Structure prediction by ZEFSAII (Michael W. Deem and Ramdas Pophale) SiO2 
 PCOD8170715
Probable space group: P N A 21
;
_chemical_formula_sum "Si O2"
_cell_formula_units_Z 32
_cell_length_a 18.407886
_cell_length_b 8.594818
_cell_length_c 11.479810
_cell_angle_alpha 90.000000
_cell_angle_beta 90.000000
_cell_angle_gamma 90.000000
_cell_volume 1816.248635
_symmetry_space_group_name_H-M "P N A 21"
_symmetry_group_IT_number 33
_symmetry_cell_setting 'orthorhombic'
loop_
_space_group_symop_operation_xyz
x,y,z
-x,-y,1/2+z
1/2-x,1/2+y,1/2+z
1/2+x,1/2-y,z
loop_
_atom_site_type_symbol
_atom_site_label
_atom_site_fract_x
_atom_site_fract_y
_atom_site_fract_z
Si Si1 0.133092 0.057578 0.485340
Si Si2 0.323478 0.007863 0.765742
Si Si3 0.735406 0.431474 0.160096
Si Si4 0.066379 0.845062 0.656569
Si Si5 0.768884 0.266721 0.576055
Si Si6 0.093006 0.199557 0.247400
Si Si7 0.309139 0.295366 0.327488
Si Si8 0.165182 0.718936 0.479351
O O1 0.077258 0.011124 0.589687
O O2 0.176825 0.900972 0.445400
O O3 0.190061 0.182833 0.531136
O O4 0.089062 0.131687 0.378211
O O5 0.385739 0.880614 0.747450
O O6 0.247132 0.933282 0.801391
O O7 0.310974 0.101376 0.646885
O O8 0.353002 0.122220 0.865014
O O9 0.745990 0.616277 0.155656
O O10 0.650137 0.396392 0.170554
O O11 0.777699 0.364516 0.272692
O O12 0.763242 0.347098 0.042742
O O13 0.113339 0.843066 0.775029
O O14 0.096946 0.709408 0.569955
O O15 0.983514 0.817074 0.684894
O O16 0.819164 0.224991 0.465406
#
# Coordination Sequence:
#
# PCOD8170715 Si02
#       8
#     4   4   4   4   4   4   4   4
#     4  10  19  36  62  83 117 154 196 248 301 342
#     4  11  20  36  63  86 118 151 205 244 300 348
#     4  10  19  34  64  86 114 150 201 243 292 349
#     4   9  22  39  58  81 128 155 193 248 299 364
#     4  12  20  35  64  94 111 151 203 249 298 350
#     4  11  21  39  58  85 124 163 190 246 300 361
#     4  10  20  38  57  91 114 151 197 253 293 345
#     4   9  19  39  60  86 116 155 197 255 291 345
#
# _framework density 17.618735000000001
#
# number of rings (size 3 to 8) (size 9 to 14) (size 15 to 20)
#    0.750    1.000    5.000    1.500    0.000    1.000 
#    2.250    0.000   11.000    0.000    0.000    0.000 
#    0.000    0.000    0.000    0.000    0.000    0.000 
#
# Total GULP energy -396694.915205 kJ/mol
# GULP energy per Si atom -12396.716100 kJ/mol
# Density = 1.757863 g / cm^3
# Si number density = 17.618735 Si / 1000 Ang^3
#
#
#
# Elastic Constant Matrix: (Units=GPa)
#
#
# Indices 1 2 3 4 5 6 
#
# 1 113.1778 27.8371 41.3684 0.0000 0.0000 0.0000
# 2 27.8371 104.7175 40.5435 0.0000 0.0000 0.0000
# 3 41.3684 40.5435 111.7964 0.0000 0.0000 0.0000
# 4 0.0000 0.0000 0.0000 39.1557 0.0000 0.0000
# 5 0.0000 0.0000 0.0000 0.0000 20.0944 0.0000
# 6 0.0000 0.0000 0.0000 0.0000 0.0000 12.7827
#
#
#
# Elastic Compliance Matrix: (Units=1/GPa)
#
#
# Indices 1 2 3 4 5 6 
#
# 1 0.010412 -0.001485 -0.003314 0.000000 0.000000 0.000000
# 2 -0.001485 0.011321 -0.003556 0.000000 0.000000 0.000000
# 3 -0.003314 -0.003556 0.011461 0.000000 0.000000 0.000000
# 4 0.000000 0.000000 0.000000 0.025539 0.000000 0.000000
# 5 0.000000 0.000000 0.000000 0.000000 0.049765 0.000000
# 6 0.000000 0.000000 0.000000 0.000000 0.000000 0.078231
#
#
# Mechanical properties :
#
#
# Convention : Reuss Voigt Hill
#
# Bulk Modulus (GPa) = 60.66649 61.02110 60.84380
# Shear Modulus (GPa) = 23.93091 29.06940 26.50016
#
# Velocity S-wave (km/s) = 3.68946 4.06632 3.88247
# Velocity P-wave (km/s) = 7.25653 7.53366 7.39639
#
# Compressibility (1/GPa) = 0.01648356
#
# Stress axis : x y z
#
# Youngs Moduli (GPa) = 96.04003 88.33106 87.25240
#
# Poissons Ratio (x) = 0.13114 0.28920
# Poissons Ratio (y) = 0.14259 0.31029
# Poissons Ratio (z) = 0.31832 0.31413
#
# Static dielectric constant tensor:
#      x y z
#    x 2.908080 0.000000 0.000000 
#    y 0.000000 3.324990 0.000000 
#    z 0.000000 0.000000 3.427660 
# 
# 
# High freq. dielectric constant tensor:
#      x y z
#    x 1.647840 0.000000 0.000000 
#    y 0.000000 1.683750 0.000000 
#    z 0.000000 0.000000 1.691330 
# 
# From -- ./inp_files/7068.got.cif
#   From: 2010.03.12/outbox.cif.g09.slc.cpg/sg33_4_cif.got.tgz:7068.got - 2010.04.14 01:49:19.
