data_PCOD8170072
_publ_section_title
;
Structure prediction by ZEFSAII (Michael W. Deem and Ramdas Pophale) SiO2 
 PCOD8170072
Probable space group: P M N 21
;
_chemical_formula_sum "Si O2"
_cell_formula_units_Z 32
_cell_length_a 8.700306
_cell_length_b 11.448710
_cell_length_c 16.561603
_cell_angle_alpha 90.000000
_cell_angle_beta 90.000000
_cell_angle_gamma 90.000000
_cell_volume 1649.656232
_symmetry_space_group_name_H-M "P M N 21"
_symmetry_group_IT_number 31
_symmetry_cell_setting 'orthorhombic'
loop_
_space_group_symop_operation_xyz
x,y,z
1/2-x,-y,1/2+z
-x,y,z
1/2+x,-y,1/2+z
loop_
_atom_site_type_symbol
_atom_site_label
_atom_site_fract_x
_atom_site_fract_y
_atom_site_fract_z
Si Si1 0.682018 0.434112 0.752780
Si Si2 0.666747 0.897705 0.193458
Si Si3 0.822817 0.711579 0.098453
Si Si4 0.823256 0.855782 0.649044
Si Si5 0.170820 0.237777 0.854034
Si Si6 0.318485 0.800430 0.941434
Si Si7 0.182385 0.935004 0.478106
Si Si8 0.316913 0.314211 0.281158
O O1 0.500000 0.447971 0.755219
O O2 0.734165 0.386298 0.663776
O O3 0.733310 0.349717 0.825426
O O4 0.763815 0.553946 0.773139
O O5 0.500000 0.883274 0.147828
O O6 0.798531 0.836684 0.140992
O O7 0.651362 0.849384 0.281357
O O8 0.703353 0.032912 0.206374
O O9 0.000000 0.692876 0.077617
O O10 0.729426 0.712612 0.014613
O O11 0.747351 0.889902 0.563369
O O12 0.751321 0.748662 0.699670
O O13 0.000000 0.826129 0.632977
O O14 0.265199 0.166378 0.919055
O O15 0.000000 0.274600 0.885240
O O16 0.500000 0.797985 0.932615
O O17 0.247485 0.749312 0.859995
O O18 0.257399 0.933671 0.956987
O O19 0.000000 0.940700 0.479654
O O20 0.500000 0.307078 0.285533
#
# Coordination Sequence:
#
# PCOD8170072 Si02
#       8
#     4   4   4   4   4   4   4   4
#     4  10  22  42  62  83 116 156 201 247 296 354
#     4   9  16  32  56  81 113 149 186 229 288 356
#     4  10  20  35  59  88 116 149 194 249 294 342
#     4   9  18  35  57  82 116 156 190 233 291 353
#     4  10  20  34  58  88 115 150 194 242 292 344
#     4  11  22  38  62  89 122 159 197 242 299 365
#     4  10  20  36  58  86 122 157 194 238 292 359
#     4  11  23  40  62  87 118 156 204 254 298 351
#
# _framework density 19.397981999999999
#
# number of rings (size 3 to 8) (size 9 to 14) (size 15 to 20)
#    0.000    2.000    1.250    2.625    0.000    4.000 
#    2.250    2.500    0.000    0.000    0.000    0.000 
#    0.000    0.000    0.000    0.000    0.000    0.000 
#
# Total GULP energy -396511.332028 kJ/mol
# GULP energy per Si atom -12390.979126 kJ/mol
# Density = 1.935383 g / cm^3
# Si number density = 19.397982 Si / 1000 Ang^3
#
#
#
# Elastic Constant Matrix: (Units=GPa)
#
#
# Indices 1 2 3 4 5 6 
#
# 1 54.5305 34.3026 40.2618 0.0000 0.0000 0.0000
# 2 34.3026 124.6783 83.4351 0.0000 0.0000 0.0000
# 3 40.2618 83.4351 118.4494 0.0000 0.0000 0.0000
# 4 0.0000 0.0000 0.0000 24.5542 0.0000 0.0000
# 5 0.0000 0.0000 0.0000 0.0000 10.3683 0.0000
# 6 0.0000 0.0000 0.0000 0.0000 0.0000 26.9021
#
#
#
# Elastic Compliance Matrix: (Units=1/GPa)
#
#
# Indices 1 2 3 4 5 6 
#
# 1 0.024808 -0.002237 -0.006857 0.000000 0.000000 0.000000
# 2 -0.002237 0.015375 -0.010069 0.000000 0.000000 0.000000
# 3 -0.006857 -0.010069 0.017866 0.000000 0.000000 0.000000
# 4 0.000000 0.000000 0.000000 0.040726 0.000000 0.000000
# 5 0.000000 0.000000 0.000000 0.000000 0.096447 0.000000
# 6 0.000000 0.000000 0.000000 0.000000 0.000000 0.037172
#
#
# Mechanical properties :
#
#
# Convention : Reuss Voigt Hill
#
# Bulk Modulus (GPa) = 50.70370 68.18412 59.44391
# Shear Modulus (GPa) = 18.03137 21.67550 19.85344
#
# Velocity S-wave (km/s) = 3.05216 3.34640 3.20266
# Velocity P-wave (km/s) = 6.21420 7.08220 6.66235
#
# Compressibility (1/GPa) = 0.01972243
#
# Stress axis : x y z
#
# Youngs Moduli (GPa) = 40.30942 65.04256 55.97235
#
# Poissons Ratio (x) = 0.14549 0.38379
# Poissons Ratio (y) = 0.09016 0.56361
# Poissons Ratio (z) = 0.27640 0.65494
#
# Static dielectric constant tensor:
#      x y z
#    x 4.881810 0.000000 0.000000 
#    y 0.000000 3.585810 0.000000 
#    z 0.000000 0.000000 3.832650 
# 
# 
# High freq. dielectric constant tensor:
#      x y z
#    x 1.744420 0.000000 0.000000 
#    y 0.000000 1.750100 0.000000 
#    z 0.000000 0.000000 1.760270 
# 
# From -- ./inp_files/4935.got.cif
#   From: 2010.03.12/outbox.cif.g09.slc.cpg/sg31_3_cif.got.tgz:4935.got - 2010.04.14 01:42:59.
