data_PCOD8170670
_publ_section_title
;
Structure prediction by ZEFSAII (Michael W. Deem and Ramdas Pophale) SiO2 
 PCOD8170670
Probable space group: P N A 21
;
_chemical_formula_sum "Si O2"
_cell_formula_units_Z 28
_cell_length_a 5.235133
_cell_length_b 28.732977
_cell_length_c 9.244192
_cell_angle_alpha 90.000000
_cell_angle_beta 90.000000
_cell_angle_gamma 90.000000
_cell_volume 1390.520199
_symmetry_space_group_name_H-M "P N A 21"
_symmetry_group_IT_number 33
_symmetry_cell_setting 'orthorhombic'
loop_
_space_group_symop_operation_xyz
x,y,z
-x,-y,1/2+z
1/2-x,1/2+y,1/2+z
1/2+x,1/2-y,z
loop_
_atom_site_type_symbol
_atom_site_label
_atom_site_fract_x
_atom_site_fract_y
_atom_site_fract_z
Si Si1 0.717253 0.131949 0.818370
Si Si2 0.716273 0.368088 0.987805
Si Si3 0.262511 0.291852 0.367065
Si Si4 0.747540 0.525964 0.302940
Si Si5 0.750068 0.474475 0.995083
Si Si6 0.703293 0.726281 0.186257
Si Si7 0.238239 0.693449 0.756999
O O1 0.421928 0.138774 0.860485
O O2 0.762568 0.080281 0.758886
O O3 0.777410 0.170596 0.698244
O O4 0.922342 0.141308 0.945673
O O5 0.744436 0.420743 0.043772
O O6 0.797495 0.329966 0.103389
O O7 0.301798 0.264189 0.515767
O O8 0.501386 0.325486 0.331627
O O9 0.241352 0.249885 0.248253
O O10 0.003861 0.321951 0.356104
O O11 0.497058 0.512338 0.397232
O O12 0.997053 0.514125 0.399994
O O13 0.752525 0.500954 0.147957
O O14 0.445736 0.747154 0.257711
#
# Coordination Sequence:
#
# PCOD8170670 Si02
#       7
#     4   4   4   4   4   4   4
#     4  10  23  40  58  84 119 157 190 244 298 354
#     4  10  21  40  58  84 119 152 193 243 296 357
#     4  10  19  35  53  74 109 145 178 248 281 320
#     4  10  21  42  64  93 128 163 202 256 312 372
#     4  10  21  40  66  91 128 160 205 253 313 371
#     4  12  21  40  57  78 114 152 198 241 295 337
#     4  10  18  35  54  74 107 145 184 225 297 323
#
# _framework density 20.136348999999999
#
# number of rings (size 3 to 8) (size 9 to 14) (size 15 to 20)
#    0.000    1.714    2.857    2.571    0.000    0.000 
#   20.571    0.000    0.000    0.000    0.000    0.000 
#    0.000    0.000    0.000    0.000    0.000    0.000 
#
# Total GULP energy -346909.527724 kJ/mol
# GULP energy per Si atom -12389.625990 kJ/mol
# Density = 2.009052 g / cm^3
# Si number density = 20.136349 Si / 1000 Ang^3
#
#
#
# Elastic Constant Matrix: (Units=GPa)
#
#
# Indices 1 2 3 4 5 6 
#
# 1 173.3438 25.8633 39.2620 0.0000 0.0000 0.0000
# 2 25.8633 85.9347 54.3520 0.0000 0.0000 0.0000
# 3 39.2620 54.3520 84.4857 0.0000 0.0000 0.0000
# 4 0.0000 0.0000 0.0000 33.7237 0.0000 0.0000
# 5 0.0000 0.0000 0.0000 0.0000 22.6950 0.0000
# 6 0.0000 0.0000 0.0000 0.0000 0.0000 22.8623
#
#
#
# Elastic Compliance Matrix: (Units=1/GPa)
#
#
# Indices 1 2 3 4 5 6 
#
# 1 0.006448 -0.000077 -0.002947 0.000000 0.000000 0.000000
# 2 -0.000077 0.019621 -0.012587 0.000000 0.000000 0.000000
# 3 -0.002947 -0.012587 0.021304 0.000000 0.000000 0.000000
# 4 0.000000 0.000000 0.000000 0.029653 0.000000 0.000000
# 5 0.000000 0.000000 0.000000 0.000000 0.044063 0.000000
# 6 0.000000 0.000000 0.000000 0.000000 0.000000 0.043740
#
#
# Mechanical properties :
#
#
# Convention : Reuss Voigt Hill
#
# Bulk Modulus (GPa) = 61.91704 64.74654 63.33179
# Shear Modulus (GPa) = 24.82215 30.80865 27.81540
#
# Velocity S-wave (km/s) = 3.51480 3.91577 3.72069
# Velocity P-wave (km/s) = 6.87658 7.25728 7.06950
#
# Compressibility (1/GPa) = 0.01615064
#
# Stress axis : x y z
#
# Youngs Moduli (GPa) = 155.09087 50.96610 46.94046
#
# Poissons Ratio (x) = 0.00390 0.13834
# Poissons Ratio (y) = 0.01187 0.59084
# Poissons Ratio (z) = 0.45708 0.64152
#
# Static dielectric constant tensor:
#      x y z
#    x 4.519160 0.000000 0.000000 
#    y 0.000000 3.493610 0.000000 
#    z 0.000000 0.000000 3.281430 
# 
# 
# High freq. dielectric constant tensor:
#      x y z
#    x 1.826940 0.000000 0.000000 
#    y 0.000000 1.762670 0.000000 
#    z 0.000000 0.000000 1.758120 
# 
# From -- ./inp_files/2802.got.cif
#   From: 2010.03.12/outbox.cif.g09.slc.cpg/sg33_2_cif.got.tgz:2802.got - 2010.04.14 01:49:19.
