data_PCOD8170122
_publ_section_title
;
Structure prediction by ZEFSAII (Michael W. Deem and Ramdas Pophale) SiO2 
 PCOD8170122
Probable space group: P M N 21
;
_chemical_formula_sum "Si O2"
_cell_formula_units_Z 24
_cell_length_a 15.736043
_cell_length_b 8.870161
_cell_length_c 8.975544
_cell_angle_alpha 90.000000
_cell_angle_beta 90.000000
_cell_angle_gamma 90.000000
_cell_volume 1252.817516
_symmetry_space_group_name_H-M "P M N 21"
_symmetry_group_IT_number 31
_symmetry_cell_setting 'orthorhombic'
loop_
_space_group_symop_operation_xyz
x,y,z
1/2-x,-y,1/2+z
-x,y,z
1/2+x,-y,1/2+z
loop_
_atom_site_type_symbol
_atom_site_label
_atom_site_fract_x
_atom_site_fract_y
_atom_site_fract_z
Si Si1 0.337676 0.930612 0.356740
Si Si2 0.164129 0.422213 0.839550
Si Si3 0.500000 0.389250 0.349292
Si Si4 0.167748 0.921796 0.534441
Si Si5 0.000000 0.925029 0.008973
Si Si6 0.000000 0.600592 0.498507
Si Si7 0.500000 0.087000 0.861765
Si Si8 0.322254 0.435558 0.034880
O O1 0.354048 0.753500 0.349942
O O2 0.250694 0.970005 0.442017
O O3 0.332175 0.995398 0.191554
O O4 0.415661 0.999721 0.445761
O O5 0.081591 0.511956 0.891784
O O6 0.195215 0.466425 0.677989
O O7 0.243814 0.475610 0.934307
O O8 0.500000 0.247420 0.457907
O O9 0.500000 0.344690 0.173884
O O10 0.085102 0.977081 0.441255
O O11 0.166863 0.742881 0.565315
O O12 0.000000 0.947570 0.186653
O O13 0.000000 0.734592 0.381026
O O14 0.086468 0.506413 0.468381
#
# Coordination Sequence:
#
# PCOD8170122 Si02
#       8
#     4   4   2   4   2   2   2   4
#     4  11  22  37  59  88 120 154 193 241 288 341
#     4  10  21  36  57  84 115 149 192 236 283 339
#     4  10  21  38  59  80 109 152 194 236 292 350
#     4  10  21  38  59  85 117 153 195 240 287 343
#     4  12  23  37  60  85 114 155 195 240 296 346
#     4   8  16  35  55  75 105 143 187 232 275 332
#     4  10  20  36  58  84 110 148 198 236 279 346
#     4   9  19  35  56  81 112 149 189 234 282 342
#
# _framework density 19.15682
#
# number of rings (size 3 to 8) (size 9 to 14) (size 15 to 20)
#    0.000    2.000    0.000    5.000    0.000    6.667 
#    0.000    0.000    0.000    6.000    0.000    0.000 
#    0.000    0.000    0.000    0.000    0.000    0.000 
#
# Total GULP energy -297481.538441 kJ/mol
# GULP energy per Si atom -12395.064102 kJ/mol
# Density = 1.911322 g / cm^3
# Si number density = 19.156820 Si / 1000 Ang^3
#
#
#
# Elastic Constant Matrix: (Units=GPa)
#
#
# Indices 1 2 3 4 5 6 
#
# 1 218.5470 62.5095 94.2988 0.0000 0.0000 0.0000
# 2 62.5095 64.5304 49.6634 0.0000 0.0000 0.0000
# 3 94.2988 49.6634 135.5435 0.0000 0.0000 0.0000
# 4 0.0000 0.0000 0.0000 24.4513 0.0000 0.0000
# 5 0.0000 0.0000 0.0000 0.0000 43.9614 0.0000
# 6 0.0000 0.0000 0.0000 0.0000 0.0000 29.2219
#
#
#
# Elastic Compliance Matrix: (Units=1/GPa)
#
#
# Indices 1 2 3 4 5 6 
#
# 1 0.007349 -0.004435 -0.003488 0.000000 0.000000 0.000000
# 2 -0.004435 0.024258 -0.005803 0.000000 0.000000 0.000000
# 3 -0.003488 -0.005803 0.011931 0.000000 0.000000 0.000000
# 4 0.000000 0.000000 0.000000 0.040898 0.000000 0.000000
# 5 0.000000 0.000000 0.000000 0.000000 0.022747 0.000000
# 6 0.000000 0.000000 0.000000 0.000000 0.000000 0.034221
#
#
# Mechanical properties :
#
#
# Convention : Reuss Voigt Hill
#
# Bulk Modulus (GPa) = 62.16310 92.39602 77.27956
# Shear Modulus (GPa) = 28.69976 33.67019 31.18498
#
# Velocity S-wave (km/s) = 3.87479 4.19693 4.03907
# Velocity P-wave (km/s) = 7.24836 8.47477 7.88544
#
# Compressibility (1/GPa) = 0.01608671
#
# Stress axis : x y z
#
# Youngs Moduli (GPa) = 136.07214 41.22277 83.81782
#
# Poissons Ratio (x) = 0.18280 0.29236
# Poissons Ratio (y) = 0.60341 0.48641
# Poissons Ratio (z) = 0.47462 0.23922
#
# Static dielectric constant tensor:
#      x y z
#    x 4.085540 0.000000 0.000000 
#    y 0.000000 3.339180 0.000000 
#    z 0.000000 0.000000 3.445510 
# 
# 
# High freq. dielectric constant tensor:
#      x y z
#    x 1.779210 0.000000 0.000000 
#    y 0.000000 1.727150 0.000000 
#    z 0.000000 0.000000 1.742620 
# 
# From -- ./inp_files/2467.got.cif
#   From: 2010.03.12/outbox.cif.g09.slc.cpg/sg31_2_cif.got.tgz:2467.got - 2010.04.14 01:42:59.
