data_PCOD8170542
_publ_section_title
;
Structure prediction by ZEFSAII (Michael W. Deem and Ramdas Pophale) SiO2 
 PCOD8170542
Probable space group: P B A 2
;
_chemical_formula_sum "Si O2"
_cell_formula_units_Z 20
_cell_length_a 4.935197
_cell_length_b 11.125259
_cell_length_c 14.121663
_cell_angle_alpha 90.000000
_cell_angle_beta 90.000000
_cell_angle_gamma 90.000000
_cell_volume 775.354777
_symmetry_space_group_name_H-M "P B A 2"
_symmetry_group_IT_number 32
_symmetry_cell_setting 'orthorhombic'
loop_
_space_group_symop_operation_xyz
x,y,z
-x,-y,z
1/2-x,1/2+y,z
1/2+x,1/2-y,z
loop_
_atom_site_type_symbol
_atom_site_label
_atom_site_fract_x
_atom_site_fract_y
_atom_site_fract_z
Si Si1 0.273695 0.833818 0.448980
Si Si2 0.734311 0.667012 0.855188
Si Si3 0.296978 0.666208 0.147524
Si Si4 0.755435 0.664846 0.652326
Si Si5 0.500000 0.500000 0.303984
Si Si6 0.500000 0.000000 0.002470
O O1 0.074758 0.719134 0.439216
O O2 0.249819 0.905419 0.551400
O O3 0.215826 0.928392 0.367178
O O4 0.930313 0.782845 0.864072
O O5 0.761104 0.594330 0.753377
O O6 0.294531 0.923183 0.939433
O O7 0.601870 0.718152 0.143326
O O8 0.303860 0.586990 0.242831
O O9 0.209170 0.579294 0.062873
O O10 0.004894 0.750295 0.652634
#
# Coordination Sequence:
#
# PCOD8170542 Si02
#       6
#     4   4   4   4   2   2
#     4  10  22  41  67 100 137 177 224 278 336 410
#     4  10  22  41  67 100 137 177 224 278 336 410
#     4  12  28  48  70 102 142 182 236 302 358 420
#     4   8  16  36  62  92 134 174 212 270 336 398
#     4  12  26  46  74 102 134 188 236 286 356 416
#     4  12  26  46  74 102 134 188 236 286 356 416
#
# _framework density 25.794644000000002
#
# number of rings (size 3 to 8) (size 9 to 14) (size 15 to 20)
#    0.000    1.600    0.000    3.600    0.000    8.000 
#    0.000   12.000    0.000    0.000    0.000    0.000 
#    0.000    0.000    0.000    0.000    0.000    0.000 
#
# Total GULP energy -247761.199398 kJ/mol
# GULP energy per Si atom -12388.059970 kJ/mol
# Density = 2.573593 g / cm^3
# Si number density = 25.794644 Si / 1000 Ang^3
#
#
#
# Elastic Constant Matrix: (Units=GPa)
#
#
# Indices 1 2 3 4 5 6 
#
# 1 98.4223 6.1289 11.4698 0.0000 0.0000 0.0000
# 2 6.1289 83.0425 59.8876 0.0000 0.0000 0.0000
# 3 11.4698 59.8876 210.9167 0.0000 0.0000 0.0000
# 4 0.0000 0.0000 0.0000 76.3539 0.0000 0.0000
# 5 0.0000 0.0000 0.0000 0.0000 39.6848 0.0000
# 6 0.0000 0.0000 0.0000 0.0000 0.0000 19.4004
#
#
#
# Elastic Compliance Matrix: (Units=1/GPa)
#
#
# Indices 1 2 3 4 5 6 
#
# 1 0.010238 -0.000445 -0.000430 0.000000 0.000000 0.000000
# 2 -0.000445 0.015162 -0.004281 0.000000 0.000000 0.000000
# 3 -0.000430 -0.004281 0.005980 0.000000 0.000000 0.000000
# 4 0.000000 0.000000 0.000000 0.013097 0.000000 0.000000
# 5 0.000000 0.000000 0.000000 0.000000 0.025199 0.000000
# 6 0.000000 0.000000 0.000000 0.000000 0.000000 0.051545
#
#
# Mechanical properties :
#
#
# Convention : Reuss Voigt Hill
#
# Bulk Modulus (GPa) = 47.46670 60.81712 54.14191
# Shear Modulus (GPa) = 36.08632 48.08085 42.08358
#
# Velocity S-wave (km/s) = 3.74436 4.32207 4.04355
# Velocity P-wave (km/s) = 6.09388 6.96676 6.54489
#
# Compressibility (1/GPa) = 0.02106740
#
# Stress axis : x y z
#
# Youngs Moduli (GPa) = 97.67360 65.95372 167.22042
#
# Poissons Ratio (x) = 0.02937 0.07196
# Poissons Ratio (y) = 0.04349 0.71586
# Poissons Ratio (z) = 0.04203 0.28234
#
# Static dielectric constant tensor:
#      x y z
#    x 4.611170 0.000000 0.000000 
#    y 0.000000 4.263630 0.000000 
#    z 0.000000 0.000000 5.885190 
# 
# 
# High freq. dielectric constant tensor:
#      x y z
#    x 2.051020 0.000000 0.000000 
#    y 0.000000 1.997210 0.000000 
#    z 0.000000 0.000000 2.065180 
# 
# From -- ./inp_files/4063.got.cif
#   From: 2010.03.12/outbox.cif.g09.slc.cpg/sg32_3_cif.got.tgz:4063.got - 2010.04.14 01:46:39.
