data_PCOD8170410
_publ_section_title
;
Structure prediction by ZEFSAII (Michael W. Deem and Ramdas Pophale) SiO2 
 PCOD8170410
Probable space group: P B A 2
;
_chemical_formula_sum "Si O2"
_cell_formula_units_Z 22
_cell_length_a 13.896393
_cell_length_b 9.397211
_cell_length_c 8.132328
_cell_angle_alpha 90.000000
_cell_angle_beta 90.000000
_cell_angle_gamma 90.000000
_cell_volume 1061.979058
_symmetry_space_group_name_H-M "P B A 2"
_symmetry_group_IT_number 32
_symmetry_cell_setting 'orthorhombic'
loop_
_space_group_symop_operation_xyz
x,y,z
-x,-y,z
1/2-x,1/2+y,z
1/2+x,1/2-y,z
loop_
_atom_site_type_symbol
_atom_site_label
_atom_site_fract_x
_atom_site_fract_y
_atom_site_fract_z
Si Si1 0.000000 0.500000 0.237880
Si Si2 0.693194 0.957927 0.762749
Si Si3 0.712608 0.665277 0.181503
Si Si4 0.656684 0.257513 0.909280
Si Si5 0.552643 0.774126 0.970426
Si Si6 0.307614 0.061922 0.382076
O O1 0.092184 0.477826 0.355473
O O2 0.018626 0.633949 0.123864
O O3 0.785631 0.899677 0.861473
O O4 0.599972 0.872271 0.828530
O O5 0.679942 0.125898 0.787968
O O6 0.715665 0.932385 0.573057
O O7 0.724353 0.515226 0.274335
O O8 0.685483 0.777282 0.321571
O O9 0.812602 0.707038 0.091915
O O10 0.629005 0.658606 0.040851
O O11 0.543637 0.298455 0.898807
#
# Coordination Sequence:
#
# PCOD8170410 Si02
#       6
#     2   4   4   4   4   4
#     4  10  18  34  62  84 112 158 210 234 294 370
#     4  11  23  36  63  91 124 159 203 261 316 356
#     4  10  21  39  63  85 122 160 208 242 309 365
#     4  11  20  40  61  86 119 162 211 249 302 376
#     4  10  19  37  63  88 114 167 210 246 292 389
#     4  11  22  38  59  94 124 155 200 265 307 358
#
# _framework density 20.716038000000001
#
# number of rings (size 3 to 8) (size 9 to 14) (size 15 to 20)
#    0.000    1.455    3.636    3.273    2.545    0.000 
#    0.000    8.182    0.000    4.364    0.000    0.000 
#    0.000    0.000    0.000    0.000    0.000    0.000 
#
# Total GULP energy -272760.070213 kJ/mol
# GULP energy per Si atom -12398.185010 kJ/mol
# Density = 2.066889 g / cm^3
# Si number density = 20.716038 Si / 1000 Ang^3
#
#
#
# Elastic Constant Matrix: (Units=GPa)
#
#
# Indices 1 2 3 4 5 6 
#
# 1 120.3551 26.7245 8.4248 0.0000 0.0000 0.0000
# 2 26.7245 38.9512 4.0223 0.0000 0.0000 0.0000
# 3 8.4248 4.0223 87.5626 0.0000 0.0000 0.0000
# 4 0.0000 0.0000 0.0000 23.3099 0.0000 0.0000
# 5 0.0000 0.0000 0.0000 0.0000 18.9445 0.0000
# 6 0.0000 0.0000 0.0000 0.0000 0.0000 24.4418
#
#
#
# Elastic Compliance Matrix: (Units=1/GPa)
#
#
# Indices 1 2 3 4 5 6 
#
# 1 0.009838 -0.006684 -0.000640 0.000000 0.000000 0.000000
# 2 -0.006684 0.030336 -0.000750 0.000000 0.000000 0.000000
# 3 -0.000640 -0.000750 0.011516 0.000000 0.000000 0.000000
# 4 0.000000 0.000000 0.000000 0.042900 0.000000 0.000000
# 5 0.000000 0.000000 0.000000 0.000000 0.052786 0.000000
# 6 0.000000 0.000000 0.000000 0.000000 0.000000 0.040914
#
#
# Mechanical properties :
#
#
# Convention : Reuss Voigt Hill
#
# Bulk Modulus (GPa) = 28.13480 36.13469 32.13474
# Shear Modulus (GPa) = 23.11770 27.18572 25.15171
#
# Velocity S-wave (km/s) = 3.34418 3.62650 3.48820
# Velocity P-wave (km/s) = 5.34060 5.91744 5.63641
#
# Compressibility (1/GPa) = 0.03554317
#
# Stress axis : x y z
#
# Youngs Moduli (GPa) = 101.65111 32.96390 86.83264
#
# Poissons Ratio (x) = 0.22032 0.05553
# Poissons Ratio (y) = 0.67939 0.06516
# Poissons Ratio (z) = 0.06501 0.02474
#
# Static dielectric constant tensor:
#      x y z
#    x 4.254070 0.000000 0.000000 
#    y 0.000000 3.535910 0.000000 
#    z 0.000000 0.000000 3.610380 
# 
# 
# High freq. dielectric constant tensor:
#      x y z
#    x 1.814760 0.000000 0.000000 
#    y 0.000000 1.791720 0.000000 
#    z 0.000000 0.000000 1.802630 
# 
# From -- ./inp_files/2269.got.cif
#   From: 2010.03.12/outbox.cif.g09.slc.cpg/sg32_2_cif.got.tgz:2269.got - 2010.04.14 01:46:39.
