data_PCOD8170911
_publ_section_title
;
Structure prediction by ZEFSAII (Michael W. Deem and Ramdas Pophale) SiO2 
 PCOD8170911
Probable space group: P N A 21
;
_chemical_formula_sum "Si O2"
_cell_formula_units_Z 32
_cell_length_a 16.447047
_cell_length_b 9.636004
_cell_length_c 10.297502
_cell_angle_alpha 90.000000
_cell_angle_beta 90.000000
_cell_angle_gamma 90.000000
_cell_volume 1631.987357
_symmetry_space_group_name_H-M "P N A 21"
_symmetry_group_IT_number 33
_symmetry_cell_setting 'orthorhombic'
loop_
_space_group_symop_operation_xyz
x,y,z
-x,-y,1/2+z
1/2-x,1/2+y,1/2+z
1/2+x,1/2-y,z
loop_
_atom_site_type_symbol
_atom_site_label
_atom_site_fract_x
_atom_site_fract_y
_atom_site_fract_z
Si Si1 0.595516 0.270848 0.919560
Si Si2 0.936035 0.368377 0.687418
Si Si3 0.436035 0.631623 0.682571
Si Si4 0.343771 0.033693 0.439580
Si Si5 0.050811 0.117803 0.658535
Si Si6 0.843771 0.966307 0.930409
Si Si7 0.095515 0.729152 0.450429
Si Si8 0.449189 0.117803 0.211454
O O1 0.606881 0.357300 0.786633
O O2 0.500000 0.250000 0.934995
O O3 0.645545 0.129016 0.910143
O O4 0.619058 0.354663 0.051029
O O5 0.876860 0.431362 0.581211
O O6 0.880942 0.354663 0.818961
O O7 0.974145 0.221059 0.644837
O O8 0.014710 0.463781 0.708829
O O9 0.514710 0.536219 0.661160
O O10 0.376860 0.568638 0.788778
O O11 0.474145 0.778941 0.725152
O O12 0.250000 0.073955 0.434995
O O13 0.390654 0.128898 0.335493
O O14 0.109345 0.128898 0.534496
O O15 0.854455 0.129016 0.959846
O O16 0.106881 0.642700 0.583356
#
# Coordination Sequence:
#
# PCOD8170911 Si02
#       8
#     4   4   4   4   4   4   4   4
#     4  10  20  40  67  90 124 166 211 248 313 374
#     4  11  20  41  70  92 121 169 218 250 304 387
#     4  11  20  41  70  92 121 169 218 250 304 387
#     4  12  25  40  62 100 133 158 205 276 320 356
#     4  11  20  41  70  92 121 169 218 250 304 387
#     4  12  25  40  62 100 133 158 205 276 320 356
#     4  10  20  40  67  90 124 166 211 248 313 374
#     4  11  20  41  70  92 121 169 218 250 304 387
#
# _framework density 19.607994999999999
#
# number of rings (size 3 to 8) (size 9 to 14) (size 15 to 20)
#    0.000    1.000   10.000    0.750    0.000    2.000 
#    0.000    0.000    0.000    0.000    0.000    0.000 
#    0.000    0.000    0.000    0.000    0.000    0.000 
#
# Total GULP energy -396758.403265 kJ/mol
# GULP energy per Si atom -12398.700102 kJ/mol
# Density = 1.956337 g / cm^3
# Si number density = 19.607995 Si / 1000 Ang^3
#
#
#
# Elastic Constant Matrix: (Units=GPa)
#
#
# Indices 1 2 3 4 5 6 
#
# 1 71.1123 -3.2554 16.9472 0.0000 0.0000 0.0000
# 2 -3.2554 59.2087 20.5373 0.0000 0.0000 0.0000
# 3 16.9472 20.5373 110.5434 0.0000 0.0000 0.0000
# 4 0.0000 0.0000 0.0000 34.6761 0.0000 0.0000
# 5 0.0000 0.0000 0.0000 0.0000 13.0782 0.0000
# 6 0.0000 0.0000 0.0000 0.0000 0.0000 17.9613
#
#
#
# Elastic Compliance Matrix: (Units=1/GPa)
#
#
# Indices 1 2 3 4 5 6 
#
# 1 0.014755 0.001706 -0.002579 0.000000 0.000000 0.000000
# 2 0.001706 0.018250 -0.003652 0.000000 0.000000 0.000000
# 3 -0.002579 -0.003652 0.010120 0.000000 0.000000 0.000000
# 4 0.000000 0.000000 0.000000 0.028838 0.000000 0.000000
# 5 0.000000 0.000000 0.000000 0.000000 0.076463 0.000000
# 6 0.000000 0.000000 0.000000 0.000000 0.000000 0.055675
#
#
# Mechanical properties :
#
#
# Convention : Reuss Voigt Hill
#
# Bulk Modulus (GPa) = 29.34741 34.36917 31.85829
# Shear Modulus (GPa) = 22.27068 26.91880 24.59474
#
# Velocity S-wave (km/s) = 3.37381 3.70922 3.54548
# Velocity P-wave (km/s) = 5.49330 5.99254 5.74835
#
# Compressibility (1/GPa) = 0.03407455
#
# Stress axis : x y z
#
# Youngs Moduli (GPa) = 67.77376 54.79455 98.81325
#
# Poissons Ratio (x) = -0.09347 0.25484
# Poissons Ratio (y) = -0.11561 0.36088
# Poissons Ratio (z) = 0.17479 0.20011
#
# Static dielectric constant tensor:
#      x y z
#    x 3.189770 0.000000 0.000000 
#    y 0.000000 3.577850 0.000000 
#    z 0.000000 0.000000 4.582140 
# 
# 
# High freq. dielectric constant tensor:
#      x y z
#    x 1.722830 0.000000 0.000000 
#    y 0.000000 1.761670 0.000000 
#    z 0.000000 0.000000 1.790670 
# 
# From -- ./inp_files/6774.got.cif
#   From: 2010.03.12/outbox.cif.g09.slc.cpg/sg33_4_cif.got.tgz:6774.got - 2010.04.14 01:49:19.
