data_PCOD8170539
_publ_section_title
;
Structure prediction by ZEFSAII (Michael W. Deem and Ramdas Pophale) SiO2 
 PCOD8170539
Probable space group: P B A 2
;
_chemical_formula_sum "Si O2"
_cell_formula_units_Z 20
_cell_length_a 15.289600
_cell_length_b 4.898300
_cell_length_c 11.340834
_cell_angle_alpha 90.000000
_cell_angle_beta 90.000000
_cell_angle_gamma 90.000000
_cell_volume 849.349621
_symmetry_space_group_name_H-M "P B A 2"
_symmetry_group_IT_number 32
_symmetry_cell_setting 'orthorhombic'
loop_
_space_group_symop_operation_xyz
x,y,z
-x,-y,z
1/2-x,1/2+y,z
1/2+x,1/2-y,z
loop_
_atom_site_type_symbol
_atom_site_label
_atom_site_fract_x
_atom_site_fract_y
_atom_site_fract_z
Si Si1 0.807219 0.965997 0.283040
Si Si2 0.556553 0.248589 0.467328
Si Si3 0.901390 0.033586 0.044693
Si Si4 0.807125 0.510528 0.646132
Si Si5 0.098889 0.462031 0.886893
O O1 0.724288 0.772434 0.310322
O O2 0.887305 0.884260 0.364527
O O3 0.835248 0.950027 0.147290
O O4 0.500000 0.500000 0.520949
O O5 0.500000 0.000000 0.411821
O O6 0.610456 0.105951 0.571235
O O7 0.882741 0.337827 0.997463
O O8 0.000000 0.000000 0.093621
O O9 0.886698 0.842792 0.932235
O O10 0.724863 0.706251 0.615486
O O11 0.832293 0.502578 0.782863
O O12 0.000000 0.500000 0.839396
#
# Coordination Sequence:
#
# PCOD8170539 Si02
#       5
#     4   4   4   4   4
#     4  12  25  42  66  97 133 167 213 274 332 385
#     4  12  26  46  70  94 128 176 226 268 324 398
#     4  10  22  40  63  92 128 172 220 265 317 388
#     4  12  25  42  66  97 133 167 213 274 332 385
#     4  10  22  40  63  92 128 172 220 265 317 388
#
# _framework density 23.547429999999999
#
# number of rings (size 3 to 8) (size 9 to 14) (size 15 to 20)
#    0.000    0.800    0.000    7.200    0.000    9.600 
#    0.000    0.000    0.000    0.000    0.000    0.000 
#    0.000    0.000    0.000    0.000    0.000    0.000 
#
# Total GULP energy -248102.722926 kJ/mol
# GULP energy per Si atom -12405.136146 kJ/mol
# Density = 2.349384 g / cm^3
# Si number density = 23.547430 Si / 1000 Ang^3
#
#
#
# Elastic Constant Matrix: (Units=GPa)
#
#
# Indices 1 2 3 4 5 6 
#
# 1 87.4797 27.7894 35.9206 0.0000 0.0000 0.0000
# 2 27.7894 100.5472 11.0528 0.0000 0.0000 0.0000
# 3 35.9206 11.0528 76.2234 0.0000 0.0000 0.0000
# 4 0.0000 0.0000 0.0000 18.4418 0.0000 0.0000
# 5 0.0000 0.0000 0.0000 0.0000 22.1392 0.0000
# 6 0.0000 0.0000 0.0000 0.0000 0.0000 38.8748
#
#
#
# Elastic Compliance Matrix: (Units=1/GPa)
#
#
# Indices 1 2 3 4 5 6 
#
# 1 0.015291 -0.003490 -0.006700 0.000000 0.000000 0.000000
# 2 -0.003490 0.010903 0.000063 0.000000 0.000000 0.000000
# 3 -0.006700 0.000063 0.016267 0.000000 0.000000 0.000000
# 4 0.000000 0.000000 0.000000 0.054225 0.000000 0.000000
# 5 0.000000 0.000000 0.000000 0.000000 0.045169 0.000000
# 6 0.000000 0.000000 0.000000 0.000000 0.000000 0.025724
#
#
# Mechanical properties :
#
#
# Convention : Reuss Voigt Hill
#
# Bulk Modulus (GPa) = 45.02597 45.97509 45.50053
# Shear Modulus (GPa) = 25.61035 28.52364 27.06700
#
# Velocity S-wave (km/s) = 3.30147 3.48419 3.39406
# Velocity P-wave (km/s) = 5.80481 5.97938 5.89274
#
# Compressibility (1/GPa) = 0.02220941
#
# Stress axis : x y z
#
# Youngs Moduli (GPa) = 65.39866 91.71734 61.47235
#
# Poissons Ratio (x) = 0.32006 0.41186
# Poissons Ratio (y) = 0.22822 -0.00390
# Poissons Ratio (z) = 0.43816 -0.00582
#
# Static dielectric constant tensor:
#      x y z
#    x 4.405240 0.000000 0.000000 
#    y 0.000000 4.476880 0.000000 
#    z 0.000000 0.000000 3.909720 
# 
# 
# High freq. dielectric constant tensor:
#      x y z
#    x 1.939680 0.000000 0.000000 
#    y 0.000000 1.951500 0.000000 
#    z 0.000000 0.000000 1.923880 
# 
# From -- ./inp_files/3897.got.cif
#   From: 2010.03.12/outbox.cif.g09.slc.cpg/sg32_2_cif.got.tgz:3897.got - 2010.04.14 01:46:39.
