data_PCOD8170108
_publ_section_title
;
Structure prediction by ZEFSAII (Michael W. Deem and Ramdas Pophale) SiO2 
 PCOD8170108
Probable space group: P M N 21
;
_chemical_formula_sum "Si O2"
_cell_formula_units_Z 32
_cell_length_a 9.182146
_cell_length_b 15.874850
_cell_length_c 10.879987
_cell_angle_alpha 90.000000
_cell_angle_beta 90.000000
_cell_angle_gamma 90.000000
_cell_volume 1585.923377
_symmetry_space_group_name_H-M "P M N 21"
_symmetry_group_IT_number 31
_symmetry_cell_setting 'orthorhombic'
loop_
_space_group_symop_operation_xyz
x,y,z
1/2-x,-y,1/2+z
-x,y,z
1/2+x,-y,1/2+z
loop_
_atom_site_type_symbol
_atom_site_label
_atom_site_fract_x
_atom_site_fract_y
_atom_site_fract_z
Si Si1 0.167824 0.027239 0.658890
Si Si2 0.661455 0.286539 0.620002
Si Si3 0.835634 0.131386 0.193078
Si Si4 0.339743 0.144395 0.817824
Si Si5 0.328628 0.549116 0.476409
Si Si6 0.336435 0.740070 0.494712
Si Si7 0.672674 0.552481 0.195459
Si Si8 0.331688 0.829609 0.960697
O O1 0.247137 0.062283 0.781280
O O2 0.193366 0.090916 0.547912
O O3 0.000000 0.015588 0.691050
O O4 0.236504 0.937138 0.622321
O O5 0.500000 0.323267 0.588470
O O6 0.644873 0.205190 0.702758
O O7 0.760034 0.354495 0.690107
O O8 0.742502 0.254271 0.497845
O O9 0.772434 0.142738 0.328939
O O10 0.000000 0.095764 0.194826
O O11 0.832940 0.224136 0.132689
O O12 0.500000 0.114755 0.862012
O O13 0.263370 0.195369 0.923963
O O14 0.500000 0.540163 0.503762
O O15 0.275794 0.645501 0.490210
O O16 0.294053 0.518058 0.335250
O O17 0.242405 0.499581 0.582731
O O18 0.500000 0.741121 0.439090
O O19 0.500000 0.556721 0.175157
O O20 0.500000 0.802673 0.956758
#
# Coordination Sequence:
#
# PCOD8170108 Si02
#       8
#     4   4   4   4   4   4   4   4
#     4  10  21  36  56  82 114 155 197 245 297 352
#     4  10  20  36  61  89 115 148 194 245 297 357
#     4  10  22  38  57  84 118 156 198 248 303 362
#     4  10  20  35  59  86 114 148 193 243 289 349
#     4  10  23  42  63  92 130 166 213 263 313 381
#     4  10  21  39  61  85 119 159 197 246 304 360
#     4  11  23  40  65  94 127 166 207 259 316 376
#     4   9  20  38  56  80 117 154 197 245 299 365
#
# _framework density 20.177520999999999
#
# number of rings (size 3 to 8) (size 9 to 14) (size 15 to 20)
#    0.000    2.000    1.250    1.500    1.750    5.000 
#    0.000    1.250    0.000    0.000    0.000    0.000 
#    0.000    0.000    0.000    0.000    0.000    0.000 
#
# Total GULP energy -396675.997940 kJ/mol
# GULP energy per Si atom -12396.124936 kJ/mol
# Density = 2.013160 g / cm^3
# Si number density = 20.177521 Si / 1000 Ang^3
#
#
#
# Elastic Constant Matrix: (Units=GPa)
#
#
# Indices 1 2 3 4 5 6 
#
# 1 101.4974 35.4921 54.4595 0.0000 0.0000 0.0000
# 2 35.4921 67.7686 30.8090 0.0000 0.0000 0.0000
# 3 54.4595 30.8090 95.2547 0.0000 0.0000 0.0000
# 4 0.0000 0.0000 0.0000 26.8480 0.0000 0.0000
# 5 0.0000 0.0000 0.0000 0.0000 29.1548 0.0000
# 6 0.0000 0.0000 0.0000 0.0000 0.0000 36.5069
#
#
#
# Elastic Compliance Matrix: (Units=1/GPa)
#
#
# Indices 1 2 3 4 5 6 
#
# 1 0.015424 -0.004771 -0.007276 0.000000 0.000000 0.000000
# 2 -0.004771 0.018775 -0.003345 0.000000 0.000000 0.000000
# 3 -0.007276 -0.003345 0.015740 0.000000 0.000000 0.000000
# 4 0.000000 0.000000 0.000000 0.037247 0.000000 0.000000
# 5 0.000000 0.000000 0.000000 0.000000 0.034300 0.000000
# 6 0.000000 0.000000 0.000000 0.000000 0.000000 0.027392
#
#
# Mechanical properties :
#
#
# Convention : Reuss Voigt Hill
#
# Bulk Modulus (GPa) = 52.20053 56.22689 54.21371
# Shear Modulus (GPa) = 26.87502 28.08594 27.48048
#
# Velocity S-wave (km/s) = 3.65352 3.73492 3.69444
# Velocity P-wave (km/s) = 6.61244 6.82101 6.71753
#
# Compressibility (1/GPa) = 0.01915689
#
# Stress axis : x y z
#
# Youngs Moduli (GPa) = 64.83220 53.26130 63.53333
#
# Poissons Ratio (x) = 0.25409 0.46224
# Poissons Ratio (y) = 0.30928 0.21253
# Poissons Ratio (z) = 0.47169 0.17817
#
# Static dielectric constant tensor:
#      x y z
#    x 3.833030 0.000000 0.000000 
#    y 0.000000 3.626160 0.000000 
#    z 0.000000 0.000000 3.728230 
# 
# 
# High freq. dielectric constant tensor:
#      x y z
#    x 1.791040 0.000000 0.000000 
#    y 0.000000 1.780200 0.000000 
#    z 0.000000 0.000000 1.786040 
# 
# From -- ./inp_files/3585.got.cif
#   From: 2010.03.12/outbox.cif.g09.slc.cpg/sg31_2_cif.got.tgz:3585.got - 2010.04.14 01:42:59.
