data_PCOD8170642
_publ_section_title
;
Structure prediction by ZEFSAII (Michael W. Deem and Ramdas Pophale) SiO2 
 PCOD8170642
Probable space group: P N A 21
;
_chemical_formula_sum "Si O2"
_cell_formula_units_Z 32
_cell_length_a 9.028124
_cell_length_b 35.832413
_cell_length_c 5.146231
_cell_angle_alpha 90.000000
_cell_angle_beta 90.000000
_cell_angle_gamma 90.000000
_cell_volume 1664.802990
_symmetry_space_group_name_H-M "P N A 21"
_symmetry_group_IT_number 33
_symmetry_cell_setting 'orthorhombic'
loop_
_space_group_symop_operation_xyz
x,y,z
-x,-y,1/2+z
1/2-x,1/2+y,1/2+z
1/2+x,1/2-y,z
loop_
_atom_site_type_symbol
_atom_site_label
_atom_site_fract_x
_atom_site_fract_y
_atom_site_fract_z
Si Si1 0.292967 0.431348 0.430500
Si Si2 0.233361 0.892914 0.438168
Si Si3 0.909637 0.993511 0.459055
Si Si4 0.087401 0.322449 0.084183
Si Si5 0.565591 0.413307 0.121009
Si Si6 0.790367 0.797591 0.065369
Si Si7 0.752907 0.343078 0.070881
Si Si8 0.956685 0.723142 0.088486
O O1 0.213944 0.406723 0.655023
O O2 0.279615 0.475487 0.499125
O O3 0.207522 0.421334 0.162722
O O4 0.470428 0.421635 0.386199
O O5 0.283978 0.851686 0.516202
O O6 0.054083 0.895171 0.422059
O O7 0.858371 0.951216 0.512361
O O8 0.040415 0.003114 0.660655
O O9 0.098407 0.291095 0.865586
O O10 0.930865 0.343824 0.077854
O O11 0.114905 0.302406 0.360681
O O12 0.700539 0.384635 0.143348
O O13 0.814814 0.816698 0.789622
O O14 0.915547 0.766331 0.076869
O O15 0.632825 0.777402 0.073661
O O16 0.805588 0.828119 0.294052
#
# Coordination Sequence:
#
# PCOD8170642 Si02
#       8
#     4   4   4   4   4   4   4   4
#     4   9  18  31  50  79 106 133 173 220 258 295
#     4  10  19  31  52  76 104 131 175 211 254 301
#     4  10  16  30  49  76 105 139 166 219 261 303
#     4  10  21  37  54  75 105 142 165 207 263 319
#     4   9  21  30  55  78 105 133 180 215 256 304
#     4  10  22  37  55  76 102 135 166 217 254 314
#     4  10  22  36  53  77 108 133 169 210 267 304
#     4  10  21  38  56  75 101 134 174 205 263 310
#
# _framework density 19.221494
#
# number of rings (size 3 to 8) (size 9 to 14) (size 15 to 20)
#    0.750    1.500    1.250    1.500    1.750    2.000 
#    0.000    0.000    0.000    1.500    0.000    0.000 
#    0.000    0.000    0.000    0.000    0.000    0.000 
#
# Total GULP energy -396495.744622 kJ/mol
# GULP energy per Si atom -12390.492019 kJ/mol
# Density = 1.917775 g / cm^3
# Si number density = 19.221494 Si / 1000 Ang^3
#
#
#
# Elastic Constant Matrix: (Units=GPa)
#
#
# Indices 1 2 3 4 5 6 
#
# 1 17.2660 24.4762 12.1711 0.0000 0.0000 0.0000
# 2 24.4762 92.0074 6.0315 0.0000 0.0000 0.0000
# 3 12.1711 6.0315 96.0260 0.0000 0.0000 0.0000
# 4 0.0000 0.0000 0.0000 21.6112 0.0000 0.0000
# 5 0.0000 0.0000 0.0000 0.0000 13.1582 0.0000
# 6 0.0000 0.0000 0.0000 0.0000 0.0000 18.2113
#
#
#
# Elastic Compliance Matrix: (Units=1/GPa)
#
#
# Indices 1 2 3 4 5 6 
#
# 1 0.104306 -0.026992 -0.011525 0.000000 0.000000 0.000000
# 2 -0.026992 0.017899 0.002297 0.000000 0.000000 0.000000
# 3 -0.011525 0.002297 0.011730 0.000000 0.000000 0.000000
# 4 0.000000 0.000000 0.000000 0.046272 0.000000 0.000000
# 5 0.000000 0.000000 0.000000 0.000000 0.075998 0.000000
# 6 0.000000 0.000000 0.000000 0.000000 0.000000 0.054911
#
#
# Mechanical properties :
#
#
# Convention : Reuss Voigt Hill
#
# Bulk Modulus (GPa) = 16.26174 32.29521 24.27848
# Shear Modulus (GPa) = 12.37453 21.43751 16.90602
#
# Velocity S-wave (km/s) = 2.54005 3.34322 2.96892
# Velocity P-wave (km/s) = 4.13292 5.63390 4.94074
#
# Compressibility (1/GPa) = 0.06149403
#
# Stress axis : x y z
#
# Youngs Moduli (GPa) = 9.58718 55.86990 85.24886
#
# Poissons Ratio (x) = 1.50806 0.98251
# Poissons Ratio (y) = 0.25878 -0.19582
# Poissons Ratio (z) = 0.11049 -0.12833
#
# Static dielectric constant tensor:
#      x y z
#    x 3.073140 0.000000 0.000000 
#    y 0.000000 3.504620 0.000000 
#    z 0.000000 0.000000 3.670410 
# 
# 
# High freq. dielectric constant tensor:
#      x y z
#    x 1.691180 0.000000 0.000000 
#    y 0.000000 1.753770 0.000000 
#    z 0.000000 0.000000 1.765110 
# 
# From -- ./inp_files/620.got.cif
#   From: 2010.03.12/outbox.cif.g09.slc.cpg/sg33_1_cif.got.tgz:620.got - 2010.04.14 01:49:19.
