data_PCOD8170947
_publ_section_title
;
Structure prediction by ZEFSAII (Michael W. Deem and Ramdas Pophale) SiO2 
 PCOD8170947
Probable space group: P N A 21
;
_chemical_formula_sum "Si O2"
_cell_formula_units_Z 32
_cell_length_a 23.040709
_cell_length_b 5.136158
_cell_length_c 11.828771
_cell_angle_alpha 90.000000
_cell_angle_beta 90.000000
_cell_angle_gamma 90.000000
_cell_volume 1399.825299
_symmetry_space_group_name_H-M "P N A 21"
_symmetry_group_IT_number 33
_symmetry_cell_setting 'orthorhombic'
loop_
_space_group_symop_operation_xyz
x,y,z
-x,-y,1/2+z
1/2-x,1/2+y,1/2+z
1/2+x,1/2-y,z
loop_
_atom_site_type_symbol
_atom_site_label
_atom_site_fract_x
_atom_site_fract_y
_atom_site_fract_z
Si Si1 0.405876 0.742783 0.272160
Si Si2 0.924027 0.934187 0.946691
Si Si3 0.614124 0.949596 0.568959
Si Si4 0.882741 0.906827 0.698879
Si Si5 0.190804 0.587943 0.159091
Si Si6 0.947487 0.041269 0.473530
Si Si7 0.158215 0.601689 0.916353
Si Si8 0.312094 0.378768 0.207188
O O1 0.454355 0.644580 0.361077
O O2 0.375163 0.520788 0.195973
O O3 0.424282 0.970859 0.183037
O O4 0.353636 0.830417 0.354894
O O5 0.920837 0.949365 0.810807
O O6 0.987941 0.847238 0.990554
O O7 0.879927 0.710206 0.991941
O O8 0.914137 0.222768 0.995122
O O9 0.678223 0.855431 0.614843
O O10 0.849594 0.634095 0.712556
O O11 0.833866 0.130883 0.691993
O O12 0.924504 0.900144 0.588230
O O13 0.257840 0.566340 0.191615
O O14 0.195042 0.545856 0.025843
O O15 0.904491 0.275661 0.445909
O O16 0.196461 0.779385 0.834527
#
# Coordination Sequence:
#
# PCOD8170947 Si02
#       8
#     4   4   4   4   4   4   4   4
#     4  10  20  45  68 101 133 175 242 280 326 434
#     4  12  27  45  69 106 143 184 224 294 363 398
#     4  11  25  45  66 103 140 173 239 283 336 428
#     4  11  26  46  66 105 146 175 239 287 343 436
#     4  11  24  46  69 100 141 181 228 287 360 401
#     4  10  24  44  72  98 136 192 227 285 348 416
#     4   9  21  42  67 105 131 174 244 282 325 439
#     4  10  23  43  73  96 138 186 227 288 351 408
#
# _framework density 22.859995000000001
#
# number of rings (size 3 to 8) (size 9 to 14) (size 15 to 20)
#    0.000    1.500    2.500    0.750    7.000    1.000 
#    4.500    0.000    0.000    0.000    0.000    0.000 
#    0.000    0.000    0.000    0.000    0.000    0.000 
#
# Total GULP energy -396463.204012 kJ/mol
# GULP energy per Si atom -12389.475125 kJ/mol
# Density = 2.280796 g / cm^3
# Si number density = 22.859995 Si / 1000 Ang^3
#
#
#
# Elastic Constant Matrix: (Units=GPa)
#
#
# Indices 1 2 3 4 5 6 
#
# 1 68.3504 3.7445 25.8112 0.0000 0.0000 0.0000
# 2 3.7445 86.2305 30.2445 0.0000 0.0000 0.0000
# 3 25.8112 30.2445 130.8213 0.0000 0.0000 0.0000
# 4 0.0000 0.0000 0.0000 39.4060 0.0000 0.0000
# 5 0.0000 0.0000 0.0000 0.0000 26.2998 0.0000
# 6 0.0000 0.0000 0.0000 0.0000 0.0000 20.5217
#
#
#
# Elastic Compliance Matrix: (Units=1/GPa)
#
#
# Indices 1 2 3 4 5 6 
#
# 1 0.015824 0.000444 -0.003225 0.000000 0.000000 0.000000
# 2 0.000444 0.012633 -0.003008 0.000000 0.000000 0.000000
# 3 -0.003225 -0.003008 0.008976 0.000000 0.000000 0.000000
# 4 0.000000 0.000000 0.000000 0.025377 0.000000 0.000000
# 5 0.000000 0.000000 0.000000 0.000000 0.038023 0.000000
# 6 0.000000 0.000000 0.000000 0.000000 0.000000 0.048729
#
#
# Mechanical properties :
#
#
# Convention : Reuss Voigt Hill
#
# Bulk Modulus (GPa) = 38.67816 45.00030 41.83923
# Shear Modulus (GPa) = 29.45388 32.28565 30.86976
#
# Velocity S-wave (km/s) = 3.59339 3.76216 3.67874
# Velocity P-wave (km/s) = 5.84576 6.21287 6.03211
#
# Compressibility (1/GPa) = 0.02585438
#
# Stress axis : x y z
#
# Youngs Moduli (GPa) = 63.19550 79.16019 111.41193
#
# Poissons Ratio (x) = -0.03514 0.35927
# Poissons Ratio (y) = -0.02805 0.33514
# Poissons Ratio (z) = 0.20379 0.23812
#
# Static dielectric constant tensor:
#      x y z
#    x 3.543380 0.000000 0.000000 
#    y 0.000000 4.227710 0.000000 
#    z 0.000000 0.000000 4.499000 
# 
# 
# High freq. dielectric constant tensor:
#      x y z
#    x 1.857640 0.000000 0.000000 
#    y 0.000000 1.913720 0.000000 
#    z 0.000000 0.000000 1.924800 
# 
# From -- ./inp_files/7233.got.cif
#   From: 2010.03.12/outbox.cif.g09.slc.cpg/sg33_4_cif.got.tgz:7233.got - 2010.04.14 01:49:19.
