data_PCOD8170806
_publ_section_title
;
Structure prediction by ZEFSAII (Michael W. Deem and Ramdas Pophale) SiO2 
 PCOD8170806
Probable space group: P N A 21
;
_chemical_formula_sum "Si O2"
_cell_formula_units_Z 28
_cell_length_a 12.651956
_cell_length_b 17.412732
_cell_length_c 6.979851
_cell_angle_alpha 90.000000
_cell_angle_beta 90.000000
_cell_angle_gamma 90.000000
_cell_volume 1537.696906
_symmetry_space_group_name_H-M "P N A 21"
_symmetry_group_IT_number 33
_symmetry_cell_setting 'orthorhombic'
loop_
_space_group_symop_operation_xyz
x,y,z
-x,-y,1/2+z
1/2-x,1/2+y,1/2+z
1/2+x,1/2-y,z
loop_
_atom_site_type_symbol
_atom_site_label
_atom_site_fract_x
_atom_site_fract_y
_atom_site_fract_z
Si Si1 0.862210 0.227062 0.952370
Si Si2 0.424375 0.225498 0.372898
Si Si3 0.276707 0.157237 0.665352
Si Si4 0.951737 0.783631 0.213708
Si Si5 0.881895 0.499010 0.590715
Si Si6 0.338382 0.863701 0.314566
Si Si7 0.426556 0.910990 0.947122
O O1 0.839543 0.310352 0.852516
O O2 0.764114 0.171180 0.914474
O O3 0.960842 0.181812 0.856927
O O4 0.887524 0.236709 0.175553
O O5 0.315517 0.208110 0.485718
O O6 0.498261 0.280880 0.500852
O O7 0.496056 0.149937 0.342315
O O8 0.152177 0.164895 0.701102
O O9 0.297520 0.069303 0.611197
O O10 0.931080 0.700416 0.315769
O O11 0.863020 0.555391 0.413024
O O12 0.000138 0.466033 0.577075
O O13 0.864888 0.545459 0.783843
O O14 0.332819 0.878706 0.084181
#
# Coordination Sequence:
#
# PCOD8170806 Si02
#       7
#     4   4   4   4   4   4   4
#     4  10  20  35  58  78 111 145 191 225 282 329
#     4   9  19  33  56  82 106 141 182 225 275 335
#     4   9  21  34  52  83 112 140 181 234 277 333
#     4   9  19  37  54  77 112 144 185 233 272 324
#     4  11  20  32  55  79 112 141 180 225 292 333
#     4  10  21  35  53  83 110 144 183 236 278 339
#     4  10  20  32  54  82 113 137 174 230 288 333
#
# _framework density 18.209050999999999
#
# number of rings (size 3 to 8) (size 9 to 14) (size 15 to 20)
#    0.000    2.286    1.429    1.714    2.000    6.857 
#    0.000    0.000    6.286    0.000    0.000    0.000 
#    0.000    0.000    0.000    0.000    0.000    0.000 
#
# Total GULP energy -346874.496416 kJ/mol
# GULP energy per Si atom -12388.374872 kJ/mol
# Density = 1.816761 g / cm^3
# Si number density = 18.209051 Si / 1000 Ang^3
#
#
#
# Elastic Constant Matrix: (Units=GPa)
#
#
# Indices 1 2 3 4 5 6 
#
# 1 96.7017 25.9369 62.2154 0.0000 0.0000 0.0000
# 2 25.9369 51.7243 25.9711 0.0000 0.0000 0.0000
# 3 62.2154 25.9711 120.1236 0.0000 0.0000 0.0000
# 4 0.0000 0.0000 0.0000 31.5639 0.0000 0.0000
# 5 0.0000 0.0000 0.0000 0.0000 22.7657 0.0000
# 6 0.0000 0.0000 0.0000 0.0000 0.0000 10.0440
#
#
#
# Elastic Compliance Matrix: (Units=1/GPa)
#
#
# Indices 1 2 3 4 5 6 
#
# 1 0.016367 -0.004432 -0.007519 0.000000 0.000000 0.000000
# 2 -0.004432 0.022888 -0.002653 0.000000 0.000000 0.000000
# 3 -0.007519 -0.002653 0.012793 0.000000 0.000000 0.000000
# 4 0.000000 0.000000 0.000000 0.031682 0.000000 0.000000
# 5 0.000000 0.000000 0.000000 0.000000 0.043926 0.000000
# 6 0.000000 0.000000 0.000000 0.000000 0.000000 0.099561
#
#
# Mechanical properties :
#
#
# Convention : Reuss Voigt Hill
#
# Bulk Modulus (GPa) = 43.78295 55.19960 49.49128
# Shear Modulus (GPa) = 18.93672 23.16982 21.05327
#
# Velocity S-wave (km/s) = 3.22834 3.57099 3.40398
# Velocity P-wave (km/s) = 6.16385 6.88352 6.53360
#
# Compressibility (1/GPa) = 0.02283994
#
# Stress axis : x y z
#
# Youngs Moduli (GPa) = 61.09760 43.69153 78.17047
#
# Poissons Ratio (x) = 0.19364 0.58775
# Poissons Ratio (y) = 0.27079 0.20738
# Poissons Ratio (z) = 0.45938 0.11591
#
# Static dielectric constant tensor:
#      x y z
#    x 3.255670 0.000000 0.000000 
#    y 0.000000 3.257300 0.000000 
#    z 0.000000 0.000000 3.355080 
# 
# 
# High freq. dielectric constant tensor:
#      x y z
#    x 1.696910 0.000000 0.000000 
#    y 0.000000 1.679890 0.000000 
#    z 0.000000 0.000000 1.712890 
# 
# From -- ./inp_files/1464.got.cif
#   From: 2010.03.12/outbox.cif.g09.slc.cpg/sg33_1_cif.got.tgz:1464.got - 2010.04.14 01:49:19.
