data_PCOD8170830
_publ_section_title
;
Structure prediction by ZEFSAII (Michael W. Deem and Ramdas Pophale) SiO2 
 PCOD8170830
Probable space group: P N A 21
;
_chemical_formula_sum "Si O2"
_cell_formula_units_Z 20
_cell_length_a 12.735277
_cell_length_b 15.274728
_cell_length_c 5.095428
_cell_angle_alpha 90.000000
_cell_angle_beta 90.000000
_cell_angle_gamma 90.000000
_cell_volume 991.202869
_symmetry_space_group_name_H-M "P N A 21"
_symmetry_group_IT_number 33
_symmetry_cell_setting 'orthorhombic'
loop_
_space_group_symop_operation_xyz
x,y,z
-x,-y,1/2+z
1/2-x,1/2+y,1/2+z
1/2+x,1/2-y,z
loop_
_atom_site_type_symbol
_atom_site_label
_atom_site_fract_x
_atom_site_fract_y
_atom_site_fract_z
Si Si1 0.009303 0.614580 0.060290
Si Si2 0.148274 0.051755 0.890078
Si Si3 0.054075 0.900857 0.633092
Si Si4 0.013183 0.188020 0.648720
Si Si5 0.123069 0.552539 0.555709
O O1 0.963724 0.709084 0.133188
O O2 0.096242 0.588681 0.270610
O O3 0.911316 0.548536 0.079560
O O4 0.067004 0.610791 0.778523
O O5 0.124178 0.139682 0.717957
O O6 0.150920 0.966564 0.696863
O O7 0.251224 0.059362 0.068995
O O8 0.050310 0.037953 0.092017
O O9 0.071727 0.839722 0.375720
O O10 0.035926 0.835905 0.872360
#
# Coordination Sequence:
#
# PCOD8170830 Si02
#       5
#     4   4   4   4   4
#     4  10  22  43  58  88 122 166 202 260 293 375
#     4  10  21  38  62  93 121 163 200 251 315 369
#     4  10  20  35  61  87 125 155 190 270 300 363
#     4  10  20  37  61  84 127 154 204 258 307 347
#     4  10  23  39  66  82 125 166 206 241 319 372
#
# _framework density 20.177503000000002
#
# number of rings (size 3 to 8) (size 9 to 14) (size 15 to 20)
#    1.200    0.800    2.000    1.200    2.800    0.000 
#    3.600    2.000    0.000    0.000    0.000    0.000 
#    0.000    0.000    0.000    0.000    0.000    0.000 
#
# Total GULP energy -247834.876134 kJ/mol
# GULP energy per Si atom -12391.743807 kJ/mol
# Density = 2.013158 g / cm^3
# Si number density = 20.177503 Si / 1000 Ang^3
#
#
#
# Elastic Constant Matrix: (Units=GPa)
#
#
# Indices 1 2 3 4 5 6 
#
# 1 71.5157 26.8136 11.1970 0.0000 0.0000 0.0000
# 2 26.8136 143.0241 30.8782 0.0000 0.0000 0.0000
# 3 11.1970 30.8782 104.8701 0.0000 0.0000 0.0000
# 4 0.0000 0.0000 0.0000 26.6726 0.0000 0.0000
# 5 0.0000 0.0000 0.0000 0.0000 22.9596 0.0000
# 6 0.0000 0.0000 0.0000 0.0000 0.0000 11.7424
#
#
#
# Elastic Compliance Matrix: (Units=1/GPa)
#
#
# Indices 1 2 3 4 5 6 
#
# 1 0.015108 -0.002653 -0.000832 0.000000 0.000000 0.000000
# 2 -0.002653 0.007932 -0.002052 0.000000 0.000000 0.000000
# 3 -0.000832 -0.002052 0.010229 0.000000 0.000000 0.000000
# 4 0.000000 0.000000 0.000000 0.037492 0.000000 0.000000
# 5 0.000000 0.000000 0.000000 0.000000 0.043555 0.000000
# 6 0.000000 0.000000 0.000000 0.000000 0.000000 0.085161
#
#
# Mechanical properties :
#
#
# Convention : Reuss Voigt Hill
#
# Bulk Modulus (GPa) = 45.05592 50.79861 47.92726
# Shear Modulus (GPa) = 22.94118 28.97635 25.95877
#
# Velocity S-wave (km/s) = 3.37555 3.79367 3.59070
# Velocity P-wave (km/s) = 6.12950 6.66481 6.40275
#
# Compressibility (1/GPa) = 0.02219464
#
# Stress axis : x y z
#
# Youngs Moduli (GPa) = 66.19099 126.06769 97.76375
#
# Poissons Ratio (x) = 0.33442 0.08134
# Poissons Ratio (y) = 0.17559 0.20065
# Poissons Ratio (z) = 0.05507 0.25874
#
# Static dielectric constant tensor:
#      x y z
#    x 3.119880 0.000000 0.000000 
#    y 0.000000 3.613720 0.000000 
#    z 0.000000 0.000000 3.797010 
# 
# 
# High freq. dielectric constant tensor:
#      x y z
#    x 1.738310 0.000000 0.000000 
#    y 0.000000 1.786870 0.000000 
#    z 0.000000 0.000000 1.806940 
# 
# From -- ./inp_files/737.got.cif
#   From: 2010.03.12/outbox.cif.g09.slc.cpg/sg33_1_cif.got.tgz:737.got - 2010.04.14 01:49:19.
