data_PCOD8170575
_publ_section_title
;
Structure prediction by ZEFSAII (Michael W. Deem and Ramdas Pophale) SiO2 
 PCOD8170575
Probable space group: P B A 2
;
_chemical_formula_sum "Si O2"
_cell_formula_units_Z 20
_cell_length_a 11.555377
_cell_length_b 12.709980
_cell_length_c 6.384210
_cell_angle_alpha 90.000000
_cell_angle_beta 90.000000
_cell_angle_gamma 90.000000
_cell_volume 937.640052
_symmetry_space_group_name_H-M "P B A 2"
_symmetry_group_IT_number 32
_symmetry_cell_setting 'orthorhombic'
loop_
_space_group_symop_operation_xyz
x,y,z
-x,-y,z
1/2-x,1/2+y,z
1/2+x,1/2-y,z
loop_
_atom_site_type_symbol
_atom_site_label
_atom_site_fract_x
_atom_site_fract_y
_atom_site_fract_z
Si Si1 0.371252 0.240413 0.615400
Si Si2 0.003979 0.888188 0.917727
Si Si3 0.794759 0.115048 0.249287
Si Si4 0.885075 0.435905 0.288139
Si Si5 0.233815 0.197224 0.000285
O O1 0.470096 0.289225 0.766679
O O2 0.336828 0.332568 0.461208
O O3 0.411393 0.134192 0.495798
O O4 0.259308 0.212941 0.754896
O O5 0.095926 0.907326 0.102123
O O6 0.000000 0.000000 0.792847
O O7 0.880956 0.870363 0.028254
O O8 0.710522 0.192953 0.119560
O O9 0.723372 0.013181 0.321395
O O10 0.847742 0.358411 0.100314
O O11 0.000000 0.500000 0.227056
#
# Coordination Sequence:
#
# PCOD8170575 Si02
#       5
#     4   4   4   4   4
#     4  10  26  41  66 102 128 178 225 279 331 401
#     4  11  23  44  70  98 133 176 222 282 336 395
#     4  10  24  43  66  95 132 177 221 274 335 397
#     4  11  25  43  66  96 136 179 221 274 340 400
#     4  10  24  44  66  94 135 175 225 276 334 399
#
# _framework density 21.330148000000001
#
# number of rings (size 3 to 8) (size 9 to 14) (size 15 to 20)
#    0.000    1.600    2.000    0.000   14.000    3.200 
#    0.000    0.000    0.000    0.000    0.000    0.000 
#    0.000    0.000    0.000    0.000    0.000    0.000 
#
# Total GULP energy -247932.000134 kJ/mol
# GULP energy per Si atom -12396.600007 kJ/mol
# Density = 2.128160 g / cm^3
# Si number density = 21.330148 Si / 1000 Ang^3
#
#
#
# Elastic Constant Matrix: (Units=GPa)
#
#
# Indices 1 2 3 4 5 6 
#
# 1 114.0213 46.6082 39.4467 0.0000 0.0000 0.0000
# 2 46.6082 127.4280 48.4615 0.0000 0.0000 0.0000
# 3 39.4467 48.4615 103.1990 0.0000 0.0000 0.0000
# 4 0.0000 0.0000 0.0000 26.5398 0.0000 0.0000
# 5 0.0000 0.0000 0.0000 0.0000 11.4831 0.0000
# 6 0.0000 0.0000 0.0000 0.0000 0.0000 37.0860
#
#
#
# Elastic Compliance Matrix: (Units=1/GPa)
#
#
# Indices 1 2 3 4 5 6 
#
# 1 0.010940 -0.002935 -0.002803 0.000000 0.000000 0.000000
# 2 -0.002935 0.010341 -0.003734 0.000000 0.000000 0.000000
# 3 -0.002803 -0.003734 0.012515 0.000000 0.000000 0.000000
# 4 0.000000 0.000000 0.000000 0.037679 0.000000 0.000000
# 5 0.000000 0.000000 0.000000 0.000000 0.087084 0.000000
# 6 0.000000 0.000000 0.000000 0.000000 0.000000 0.026964
#
#
# Mechanical properties :
#
#
# Convention : Reuss Voigt Hill
#
# Bulk Modulus (GPa) = 67.33657 68.18678 67.76168
# Shear Modulus (GPa) = 23.87542 29.03057 26.45300
#
# Velocity S-wave (km/s) = 3.34927 3.69319 3.52542
# Velocity P-wave (km/s) = 6.82598 7.08681 6.95762
#
# Compressibility (1/GPa) = 0.01485077
#
# Stress axis : x y z
#
# Youngs Moduli (GPa) = 91.40792 96.69930 79.90344
#
# Poissons Ratio (x) = 0.28384 0.22399
# Poissons Ratio (y) = 0.26831 0.29838
# Poissons Ratio (z) = 0.25624 0.36110
#
# Static dielectric constant tensor:
#      x y z
#    x 3.625880 0.000000 0.000000 
#    y 0.000000 4.180400 0.000000 
#    z 0.000000 0.000000 3.747820 
# 
# 
# High freq. dielectric constant tensor:
#      x y z
#    x 1.827790 0.000000 0.000000 
#    y 0.000000 1.859440 0.000000 
#    z 0.000000 0.000000 1.829550 
# 
# From -- ./inp_files/755.got.cif
#   From: 2010.03.12/outbox.cif.g09.slc.cpg/sg32_1_cif.got.tgz:755.got - 2010.04.14 01:46:39.
