data_PCOD8170007
_publ_section_title
;
Structure prediction by ZEFSAII (Michael W. Deem and Ramdas Pophale) SiO2 
 PCOD8170007
Probable space group: P M N 21
;
_chemical_formula_sum "Si O2"
_cell_formula_units_Z 32
_cell_length_a 9.120277
_cell_length_b 20.727865
_cell_length_c 9.590542
_cell_angle_alpha 90.000000
_cell_angle_beta 90.000000
_cell_angle_gamma 90.000000
_cell_volume 1813.033179
_symmetry_space_group_name_H-M "P M N 21"
_symmetry_group_IT_number 31
_symmetry_cell_setting 'orthorhombic'
loop_
_space_group_symop_operation_xyz
x,y,z
1/2-x,-y,1/2+z
-x,y,z
1/2+x,-y,1/2+z
loop_
_atom_site_type_symbol
_atom_site_label
_atom_site_fract_x
_atom_site_fract_y
_atom_site_fract_z
Si Si1 0.671649 0.437507 0.205090
Si Si2 0.838258 0.183391 0.583336
Si Si3 0.830451 0.704210 0.735280
Si Si4 0.827929 0.953604 0.788546
Si Si5 0.832742 0.316582 0.512868
Si Si6 0.164682 0.173117 0.251888
Si Si7 0.168477 0.457456 0.492961
Si Si8 0.170517 0.939607 0.112717
O O1 0.500000 0.448530 0.228965
O O2 0.702432 0.363438 0.155705
O O3 0.748898 0.455474 0.347981
O O4 0.734509 0.485524 0.087567
O O5 0.806673 0.258555 0.626339
O O6 0.832295 0.184376 0.416260
O O7 0.718397 0.134311 0.644155
O O8 0.000000 0.161334 0.634281
O O9 0.788808 0.691074 0.894592
O O10 0.737200 0.764665 0.675295
O O11 0.000000 0.723720 0.726431
O O12 0.755573 0.891192 0.716468
O O13 0.000000 0.950388 0.761326
O O14 0.761877 0.016295 0.716519
O O15 0.792302 0.957423 0.953107
O O16 0.814623 0.388636 0.575409
O O17 0.000000 0.308908 0.452650
O O18 0.000000 0.164191 0.194756
O O19 0.000000 0.472036 0.459402
O O20 0.000000 0.946968 0.146288
#
# Coordination Sequence:
#
# PCOD8170007 Si02
#       8
#     4   4   4   4   4   4   4   4
#     4   9  18  30  45  68  95 122 155 193 232 277
#     4   8  14  25  42  64  88 115 148 188 231 270
#     4   9  15  24  40  63  90 117 148 189 233 273
#     4  10  20  33  50  72  97 125 155 189 231 275
#     4   8  14  25  42  63  86 115 151 190 232 272
#     4   9  16  27  44  66  91 118 152 192 230 270
#     4   9  17  30  47  67  93 123 154 190 232 277
#     4  10  20  32  48  71  96 123 155 189 227 274
#
# _framework density 17.649978999999998
#
# number of rings (size 3 to 8) (size 9 to 14) (size 15 to 20)
#    0.000    3.000    0.000    2.250    0.000    5.500 
#    0.000    0.000    0.000    1.500    0.000    5.250 
#    0.000    0.000    0.000    0.000    0.000    0.000 
#
# Total GULP energy -396498.397956 kJ/mol
# GULP energy per Si atom -12390.574936 kJ/mol
# Density = 1.760981 g / cm^3
# Si number density = 17.649979 Si / 1000 Ang^3
#
#
#
# Elastic Constant Matrix: (Units=GPa)
#
#
# Indices 1 2 3 4 5 6 
#
# 1 64.1876 4.9072 6.7051 0.0000 0.0000 0.0000
# 2 4.9072 30.9993 -6.6836 0.0000 0.0000 0.0000
# 3 6.7051 -6.6836 15.7144 0.0000 0.0000 0.0000
# 4 0.0000 0.0000 0.0000 22.9458 0.0000 0.0000
# 5 0.0000 0.0000 0.0000 0.0000 17.1329 0.0000
# 6 0.0000 0.0000 0.0000 0.0000 0.0000 31.1297
#
#
#
# Elastic Compliance Matrix: (Units=1/GPa)
#
#
# Indices 1 2 3 4 5 6 
#
# 1 0.016895 -0.004656 -0.009189 0.000000 0.000000 0.000000
# 2 -0.004656 0.036798 0.017637 0.000000 0.000000 0.000000
# 3 -0.009189 0.017637 0.075058 0.000000 0.000000 0.000000
# 4 0.000000 0.000000 0.000000 0.043581 0.000000 0.000000
# 5 0.000000 0.000000 0.000000 0.000000 0.058367 0.000000
# 6 0.000000 0.000000 0.000000 0.000000 0.000000 0.032124
#
#
# Mechanical properties :
#
#
# Convention : Reuss Voigt Hill
#
# Bulk Modulus (GPa) = 7.33474 13.41764 10.37619
# Shear Modulus (GPa) = 16.62874 21.30651 18.96762
#
# Velocity S-wave (km/s) = 3.07276 3.47820 3.28175
# Velocity P-wave (km/s) = 4.09314 4.87331 4.50016
#
# Compressibility (1/GPa) = 0.13633740
#
# Stress axis : x y z
#
# Youngs Moduli (GPa) = 59.18855 27.17504 13.32297
#
# Poissons Ratio (x) = 0.12652 0.12243
# Poissons Ratio (y) = 0.27556 -0.23498
# Poissons Ratio (z) = 0.54389 -0.47930
#
# Static dielectric constant tensor:
#      x y z
#    x 3.349670 0.000000 0.000000 
#    y 0.000000 3.889980 0.000000 
#    z 0.000000 0.000000 2.687060 
# 
# 
# High freq. dielectric constant tensor:
#      x y z
#    x 1.690340 0.000000 0.000000 
#    y 0.000000 1.709760 0.000000 
#    z 0.000000 0.000000 1.605060 
# 
# From -- ./inp_files/3770.got.cif
#   From: 2010.03.12/outbox.cif.g09.slc.cpg/sg31_2_cif.got.tgz:3770.got - 2010.04.14 01:42:59.
