data_PCOD8170200
_publ_section_title
;
Structure prediction by ZEFSAII (Michael W. Deem and Ramdas Pophale) SiO2 
 PCOD8170200
Probable space group: P M N 21
;
_chemical_formula_sum "Si O2"
_cell_formula_units_Z 32
_cell_length_a 9.386782
_cell_length_b 12.816845
_cell_length_c 14.235319
_cell_angle_alpha 90.000000
_cell_angle_beta 90.000000
_cell_angle_gamma 90.000000
_cell_volume 1712.635996
_symmetry_space_group_name_H-M "P M N 21"
_symmetry_group_IT_number 31
_symmetry_cell_setting 'orthorhombic'
loop_
_space_group_symop_operation_xyz
x,y,z
1/2-x,-y,1/2+z
-x,y,z
1/2+x,-y,1/2+z
loop_
_atom_site_type_symbol
_atom_site_label
_atom_site_fract_x
_atom_site_fract_y
_atom_site_fract_z
Si Si1 0.163425 0.160851 0.070160
Si Si2 0.340592 0.327690 0.170475
Si Si3 0.833479 0.969316 0.701123
Si Si4 0.836988 0.524622 0.512607
Si Si5 0.330945 0.797434 0.214425
Si Si6 0.161096 0.787191 0.846604
Si Si7 0.665394 0.698746 0.403186
Si Si8 0.669329 0.710682 0.016763
O O1 0.213806 0.260720 0.128211
O O2 0.255947 0.061718 0.103144
O O3 0.000000 0.136662 0.093194
O O4 0.185530 0.192991 0.961476
O O5 0.500000 0.282470 0.145564
O O6 0.324482 0.319558 0.283634
O O7 0.325939 0.442058 0.123585
O O8 0.795590 0.887426 0.783591
O O9 0.000000 0.969972 0.679264
O O10 0.778289 0.083803 0.729703
O O11 0.751367 0.601784 0.445062
O O12 0.776467 0.407991 0.504836
O O13 0.000000 0.528263 0.479085
O O14 0.500000 0.794628 0.215982
O O15 0.275252 0.724491 0.299279
O O16 0.272892 0.753175 0.116022
O O17 0.000000 0.799858 0.883702
O O18 0.265223 0.781533 0.934807
O O19 0.500000 0.665962 0.403037
O O20 0.500000 0.718439 0.011067
#
# Coordination Sequence:
#
# PCOD8170200 Si02
#       8
#     4   4   4   4   4   4   4   4
#     4   9  16  27  48  78 103 122 155 206 253 288
#     4   8  15  30  51  72  96 129 166 200 237 288
#     4   9  18  34  54  73  97 133 170 203 244 295
#     4   9  18  33  52  75 102 130 163 204 249 295
#     4   9  19  36  54  72  98 133 172 206 240 293
#     4   9  18  32  52  76  99 128 167 207 245 290
#     4   9  18  33  54  77  99 129 170 210 246 290
#     4  10  21  35  51  73 102 134 165 202 248 295
#
# _framework density 18.684647999999999
#
# number of rings (size 3 to 8) (size 9 to 14) (size 15 to 20)
#    0.000    3.000    0.000    1.125    0.000    5.000 
#    0.000    5.625    0.000    0.000    0.000    0.000 
#    0.000    0.000    0.000    0.000    0.000    0.000 
#
# Total GULP energy -396508.822684 kJ/mol
# GULP energy per Si atom -12390.900709 kJ/mol
# Density = 1.864212 g / cm^3
# Si number density = 18.684648 Si / 1000 Ang^3
#
#
#
# Elastic Constant Matrix: (Units=GPa)
#
#
# Indices 1 2 3 4 5 6 
#
# 1 49.4219 34.4263 43.3941 0.0000 0.0000 0.0000
# 2 34.4263 108.9361 57.6618 0.0000 0.0000 0.0000
# 3 43.3941 57.6618 133.2051 0.0000 0.0000 0.0000
# 4 0.0000 0.0000 0.0000 25.6622 0.0000 0.0000
# 5 0.0000 0.0000 0.0000 0.0000 27.3092 0.0000
# 6 0.0000 0.0000 0.0000 0.0000 0.0000 17.8371
#
#
#
# Elastic Compliance Matrix: (Units=1/GPa)
#
#
# Indices 1 2 3 4 5 6 
#
# 1 0.030891 -0.005754 -0.007573 0.000000 0.000000 0.000000
# 2 -0.005754 0.012980 -0.003744 0.000000 0.000000 0.000000
# 3 -0.007573 -0.003744 0.011595 0.000000 0.000000 0.000000
# 4 0.000000 0.000000 0.000000 0.038968 0.000000 0.000000
# 5 0.000000 0.000000 0.000000 0.000000 0.036618 0.000000
# 6 0.000000 0.000000 0.000000 0.000000 0.000000 0.056063
#
#
# Mechanical properties :
#
#
# Convention : Reuss Voigt Hill
#
# Bulk Modulus (GPa) = 46.89486 62.50304 54.69895
# Shear Modulus (GPa) = 21.89484 24.56709 23.23097
#
# Velocity S-wave (km/s) = 3.42688 3.62999 3.52990
# Velocity P-wave (km/s) = 6.38832 7.14796 6.77879
#
# Compressibility (1/GPa) = 0.02132430
#
# Stress axis : x y z
#
# Youngs Moduli (GPa) = 32.37188 77.04158 86.24446
#
# Poissons Ratio (x) = 0.44330 0.65309
# Poissons Ratio (y) = 0.18627 0.32293
# Poissons Ratio (z) = 0.24514 0.28847
#
# Static dielectric constant tensor:
#      x y z
#    x 3.245360 0.000000 0.000000 
#    y 0.000000 3.441030 0.000000 
#    z 0.000000 0.000000 3.565640 
# 
# 
# High freq. dielectric constant tensor:
#      x y z
#    x 1.706070 0.000000 0.000000 
#    y 0.000000 1.714190 0.000000 
#    z 0.000000 0.000000 1.721020 
# 
# From -- ./inp_files/4958.got.cif
#   From: 2010.03.12/outbox.cif.g09.slc.cpg/sg31_3_cif.got.tgz:4958.got - 2010.04.14 01:42:59.
