data_PCOD8170878
_publ_section_title
;
Structure prediction by ZEFSAII (Michael W. Deem and Ramdas Pophale) SiO2 
 PCOD8170878
Probable space group: P N A 21
;
_chemical_formula_sum "Si O2"
_cell_formula_units_Z 32
_cell_length_a 8.406641
_cell_length_b 9.088506
_cell_length_c 20.258441
_cell_angle_alpha 90.000000
_cell_angle_beta 90.000000
_cell_angle_gamma 90.000000
_cell_volume 1547.822020
_symmetry_space_group_name_H-M "P N A 21"
_symmetry_group_IT_number 33
_symmetry_cell_setting 'orthorhombic'
loop_
_space_group_symop_operation_xyz
x,y,z
-x,-y,1/2+z
1/2-x,1/2+y,1/2+z
1/2+x,1/2-y,z
loop_
_atom_site_type_symbol
_atom_site_label
_atom_site_fract_x
_atom_site_fract_y
_atom_site_fract_z
Si Si1 0.704695 0.947753 0.319200
Si Si2 0.648077 0.140152 0.437770
Si Si3 0.288568 0.056044 0.587646
Si Si4 0.656059 0.130970 0.587318
Si Si5 0.794896 0.947784 0.700665
Si Si6 0.661358 0.632692 0.701671
Si Si7 0.161813 0.366057 0.818321
Si Si8 0.212635 0.556405 0.938290
O O1 0.820063 0.808601 0.315722
O O2 0.523278 0.899109 0.312247
O O3 0.738194 0.030681 0.388133
O O4 0.742943 0.057178 0.260274
O O5 0.710609 0.106864 0.511587
O O6 0.672752 0.309975 0.418099
O O7 0.462084 0.120579 0.432271
O O8 0.472573 0.093968 0.599484
O O9 0.184198 0.198849 0.606519
O O10 0.255119 0.002666 0.512835
O O11 0.235640 0.921162 0.632820
O O12 0.766407 0.025393 0.630535
O O13 0.680847 0.807351 0.707184
O O14 0.976285 0.900697 0.706093
O O15 0.756140 0.061784 0.758317
O O16 0.236703 0.422944 0.887396
#
# Coordination Sequence:
#
# PCOD8170878 Si02
#       8
#     4   4   4   4   4   4   4   4
#     4  11  23  40  60  86 117 153 193 238 287 341
#     4   9  20  37  60  87 117 151 191 234 284 340
#     4  10  20  38  61  88 119 154 192 235 284 340
#     4  10  20  38  61  88 119 154 192 235 284 340
#     4  12  25  41  60  85 115 152 193 239 289 343
#     4  12  25  41  60  85 115 152 193 239 289 343
#     4  11  23  40  60  86 117 153 193 238 287 341
#     4   9  20  37  60  87 117 151 191 234 284 340
#
# _framework density 20.674211
#
# number of rings (size 3 to 8) (size 9 to 14) (size 15 to 20)
#    0.000    1.500    0.000    5.250    0.000    6.000 
#    0.000    2.500    0.000    0.000    0.000    0.000 
#    0.000    0.000    0.000    0.000    0.000    0.000 
#
# Total GULP energy -396977.257528 kJ/mol
# GULP energy per Si atom -12405.539298 kJ/mol
# Density = 2.062716 g / cm^3
# Si number density = 20.674211 Si / 1000 Ang^3
#
#
#
# Elastic Constant Matrix: (Units=GPa)
#
#
# Indices 1 2 3 4 5 6 
#
# 1 48.3349 -9.9149 16.1339 0.0000 0.0000 0.0000
# 2 -9.9149 67.5986 39.2826 0.0000 0.0000 0.0000
# 3 16.1339 39.2826 111.6294 0.0000 0.0000 0.0000
# 4 0.0000 0.0000 0.0000 37.2587 0.0000 0.0000
# 5 0.0000 0.0000 0.0000 0.0000 24.2402 0.0000
# 6 0.0000 0.0000 0.0000 0.0000 0.0000 33.6995
#
#
#
# Elastic Compliance Matrix: (Units=1/GPa)
#
#
# Indices 1 2 3 4 5 6 
#
# 1 0.024107 0.006990 -0.005944 0.000000 0.000000 0.000000
# 2 0.006990 0.020623 -0.008267 0.000000 0.000000 0.000000
# 3 -0.005944 -0.008267 0.012727 0.000000 0.000000 0.000000
# 4 0.000000 0.000000 0.000000 0.026839 0.000000 0.000000
# 5 0.000000 0.000000 0.000000 0.000000 0.041254 0.000000
# 6 0.000000 0.000000 0.000000 0.000000 0.000000 0.029674
#
#
# Mechanical properties :
#
#
# Convention : Reuss Voigt Hill
#
# Bulk Modulus (GPa) = 23.24855 35.39623 29.32239
# Shear Modulus (GPa) = 27.17328 31.17711 29.17519
#
# Velocity S-wave (km/s) = 3.62934 3.88754 3.76065
# Velocity P-wave (km/s) = 5.36958 6.10808 5.75070
#
# Compressibility (1/GPa) = 0.04301344
#
# Stress axis : x y z
#
# Youngs Moduli (GPa) = 41.48184 48.48996 78.57523
#
# Poissons Ratio (x) = -0.33895 0.46705
# Poissons Ratio (y) = -0.28996 0.64962
# Poissons Ratio (z) = 0.24657 0.40089
#
# Static dielectric constant tensor:
#      x y z
#    x 3.703950 0.000000 0.000000 
#    y 0.000000 3.878180 0.000000 
#    z 0.000000 0.000000 4.083330 
# 
# 
# High freq. dielectric constant tensor:
#      x y z
#    x 1.814560 0.000000 0.000000 
#    y 0.000000 1.806860 0.000000 
#    z 0.000000 0.000000 1.823410 
# 
# From -- ./inp_files/8976.got.cif
#   From: 2010.03.12/outbox.cif.g09.slc.cpg/sg33_5_cif.got.tgz:8976.got - 2010.04.14 01:49:19.
