data_PCOD8170175
_publ_section_title
;
Structure prediction by ZEFSAII (Michael W. Deem and Ramdas Pophale) SiO2 
 PCOD8170175
Probable space group: P M N 21
;
_chemical_formula_sum "Si O2"
_cell_formula_units_Z 32
_cell_length_a 8.716136
_cell_length_b 16.284230
_cell_length_c 10.847534
_cell_angle_alpha 90.000000
_cell_angle_beta 90.000000
_cell_angle_gamma 90.000000
_cell_volume 1539.650849
_symmetry_space_group_name_H-M "P M N 21"
_symmetry_group_IT_number 31
_symmetry_cell_setting 'orthorhombic'
loop_
_space_group_symop_operation_xyz
x,y,z
1/2-x,-y,1/2+z
-x,y,z
1/2+x,-y,1/2+z
loop_
_atom_site_type_symbol
_atom_site_label
_atom_site_fract_x
_atom_site_fract_y
_atom_site_fract_z
Si Si1 0.678440 0.029111 0.611390
Si Si2 0.824809 0.281222 0.595854
Si Si3 0.675695 0.136055 0.162808
Si Si4 0.177109 0.146011 0.775312
Si Si5 0.319227 0.564666 0.430418
Si Si6 0.325589 0.744963 0.501475
Si Si7 0.682459 0.541031 0.150575
Si Si8 0.325288 0.854547 0.914062
O O1 0.500000 0.041220 0.582301
O O2 0.719874 0.933721 0.599432
O O3 0.723516 0.063485 0.748595
O O4 0.784285 0.081409 0.520288
O O5 0.748947 0.219238 0.693366
O O6 0.750766 0.371516 0.602229
O O7 0.811613 0.239880 0.461286
O O8 0.000000 0.292621 0.638810
O O9 0.500000 0.118132 0.132977
O O10 0.702315 0.133742 0.307979
O O11 0.723098 0.227705 0.117672
O O12 0.192784 0.175685 0.914255
O O13 0.000000 0.128495 0.739571
O O14 0.500000 0.553868 0.439410
O O15 0.270391 0.660736 0.437295
O O16 0.264646 0.529159 0.295457
O O17 0.247727 0.523894 0.552671
O O18 0.500000 0.733684 0.545620
O O19 0.500000 0.535568 0.143452
O O20 0.500000 0.871363 0.869019
#
# Coordination Sequence:
#
# PCOD8170175 Si02
#       8
#     4   4   4   4   4   4   4   4
#     4  11  23  39  60  88 121 158 198 246 303 362
#     4   8  15  33  62  87 108 146 194 244 299 360
#     4  12  26  41  58  85 124 162 201 251 311 372
#     4   9  17  35  63  87 110 147 199 251 295 353
#     4  10  22  40  63  92 127 167 214 263 320 387
#     4  10  21  40  64  86 116 159 208 256 308 369
#     4  10  20  38  63  92 126 165 209 261 317 382
#     4  10  21  40  63  87 116 154 205 254 305 367
#
# _framework density 20.783933999999999
#
# number of rings (size 3 to 8) (size 9 to 14) (size 15 to 20)
#    0.000    2.000    1.250    3.375    1.750    2.500 
#    0.000    6.875    0.000    0.000    0.000    0.000 
#    0.000    0.000    0.000    0.000    0.000    0.000 
#
# Total GULP energy -396555.199370 kJ/mol
# GULP energy per Si atom -12392.349980 kJ/mol
# Density = 2.073663 g / cm^3
# Si number density = 20.783934 Si / 1000 Ang^3
#
#
#
# Elastic Constant Matrix: (Units=GPa)
#
#
# Indices 1 2 3 4 5 6 
#
# 1 69.0848 32.9065 27.8566 0.0000 0.0000 0.0000
# 2 32.9065 90.1518 48.1936 0.0000 0.0000 0.0000
# 3 27.8566 48.1936 101.8773 0.0000 0.0000 0.0000
# 4 0.0000 0.0000 0.0000 31.1034 0.0000 0.0000
# 5 0.0000 0.0000 0.0000 0.0000 32.0762 0.0000
# 6 0.0000 0.0000 0.0000 0.0000 0.0000 25.9571
#
#
#
# Elastic Compliance Matrix: (Units=1/GPa)
#
#
# Indices 1 2 3 4 5 6 
#
# 1 0.017957 -0.005260 -0.002422 0.000000 0.000000 0.000000
# 2 -0.005260 0.016388 -0.006314 0.000000 0.000000 0.000000
# 3 -0.002422 -0.006314 0.013465 0.000000 0.000000 0.000000
# 4 0.000000 0.000000 0.000000 0.032151 0.000000 0.000000
# 5 0.000000 0.000000 0.000000 0.000000 0.031176 0.000000
# 6 0.000000 0.000000 0.000000 0.000000 0.000000 0.038525
#
#
# Mechanical properties :
#
#
# Convention : Reuss Voigt Hill
#
# Bulk Modulus (GPa) = 50.45924 53.22528 51.84226
# Shear Modulus (GPa) = 27.13578 27.97113 27.55345
#
# Velocity S-wave (km/s) = 3.61725 3.67250 3.64498
# Velocity P-wave (km/s) = 6.46349 6.60662 6.53545
#
# Compressibility (1/GPa) = 0.01981797
#
# Stress axis : x y z
#
# Youngs Moduli (GPa) = 55.68909 61.02141 74.26746
#
# Poissons Ratio (x) = 0.32096 0.17986
# Poissons Ratio (y) = 0.29291 0.46893
# Poissons Ratio (z) = 0.13487 0.38529
#
# Static dielectric constant tensor:
#      x y z
#    x 3.427270 0.000000 0.000000 
#    y 0.000000 3.946640 0.000000 
#    z 0.000000 0.000000 3.788260 
# 
# 
# High freq. dielectric constant tensor:
#      x y z
#    x 1.786320 0.000000 0.000000 
#    y 0.000000 1.813210 0.000000 
#    z 0.000000 0.000000 1.814490 
# 
# From -- ./inp_files/3703.got.cif
#   From: 2010.03.12/outbox.cif.g09.slc.cpg/sg31_2_cif.got.tgz:3703.got - 2010.04.14 01:42:59.
