data_PCOD8170044
_publ_section_title
;
Structure prediction by ZEFSAII (Michael W. Deem and Ramdas Pophale) SiO2 
 PCOD8170044
Probable space group: P M N 21
;
_chemical_formula_sum "Si O2"
_cell_formula_units_Z 24
_cell_length_a 8.749575
_cell_length_b 7.650302
_cell_length_c 18.801698
_cell_angle_alpha 90.000000
_cell_angle_beta 90.000000
_cell_angle_gamma 90.000000
_cell_volume 1258.527212
_symmetry_space_group_name_H-M "P M N 21"
_symmetry_group_IT_number 31
_symmetry_cell_setting 'orthorhombic'
loop_
_space_group_symop_operation_xyz
x,y,z
1/2-x,-y,1/2+z
-x,y,z
1/2+x,-y,1/2+z
loop_
_atom_site_type_symbol
_atom_site_label
_atom_site_fract_x
_atom_site_fract_y
_atom_site_fract_z
Si Si1 0.180064 0.317379 0.815160
Si Si2 0.319263 0.988518 0.555365
Si Si3 0.319989 0.012725 0.903249
Si Si4 0.820857 0.320059 0.151408
Si Si5 0.681045 0.685492 0.810181
Si Si6 0.178247 0.709501 0.164575
O O1 0.245545 0.505731 0.837273
O O2 0.234064 0.253839 0.737664
O O3 0.000000 0.327642 0.816325
O O4 0.235046 0.182383 0.874451
O O5 0.500000 0.981552 0.539307
O O6 0.225283 0.017885 0.484302
O O7 0.276427 0.148106 0.606829
O O8 0.254565 0.811789 0.592434
O O9 0.500000 0.039699 0.895340
O O10 0.264372 0.842752 0.860008
O O11 0.759276 0.274287 0.230249
O O12 0.777527 0.519695 0.132411
O O13 0.000000 0.288906 0.151789
O O14 0.500000 0.660228 0.811269
O O15 0.000000 0.716536 0.183933
#
# Coordination Sequence:
#
# PCOD8170044 Si02
#       6
#     4   4   4   4   4   4
#     4  11  22  36  58  86 113 141 181 233 281 328
#     4  10  20  34  53  79 111 146 183 223 270 326
#     4  11  23  38  56  80 114 153 188 226 276 332
#     4   8  15  31  55  78 100 134 179 221 264 318
#     4   9  19  38  61  81 105 143 189 230 272 326
#     4   9  18  35  57  78 105 143 184 223 269 328
#
# _framework density 19.069908999999999
#
# number of rings (size 3 to 8) (size 9 to 14) (size 15 to 20)
#    0.000    2.333    0.000    4.000    0.000    6.000 
#    0.000    5.000    0.000    0.000    0.000    0.000 
#    0.000    0.000    0.000    0.000    0.000    0.000 
#
# Total GULP energy -297617.685087 kJ/mol
# GULP energy per Si atom -12400.736879 kJ/mol
# Density = 1.902651 g / cm^3
# Si number density = 19.069909 Si / 1000 Ang^3
#
#
#
# Elastic Constant Matrix: (Units=GPa)
#
#
# Indices 1 2 3 4 5 6 
#
# 1 50.0862 25.5092 18.5504 0.0000 0.0000 0.0000
# 2 25.5092 111.6253 48.6052 0.0000 0.0000 0.0000
# 3 18.5504 48.6052 76.3702 0.0000 0.0000 0.0000
# 4 0.0000 0.0000 0.0000 17.5337 0.0000 0.0000
# 5 0.0000 0.0000 0.0000 0.0000 32.2654 0.0000
# 6 0.0000 0.0000 0.0000 0.0000 0.0000 16.6481
#
#
#
# Elastic Compliance Matrix: (Units=1/GPa)
#
#
# Indices 1 2 3 4 5 6 
#
# 1 0.023120 -0.003926 -0.003117 0.000000 0.000000 0.000000
# 2 -0.003926 0.013060 -0.007358 0.000000 0.000000 0.000000
# 3 -0.003117 -0.007358 0.018534 0.000000 0.000000 0.000000
# 4 0.000000 0.000000 0.000000 0.057033 0.000000 0.000000
# 5 0.000000 0.000000 0.000000 0.000000 0.030993 0.000000
# 6 0.000000 0.000000 0.000000 0.000000 0.000000 0.060067
#
#
# Mechanical properties :
#
#
# Convention : Reuss Voigt Hill
#
# Bulk Modulus (GPa) = 38.59353 47.04569 42.81961
# Shear Modulus (GPa) = 20.81198 22.98390 21.89794
#
# Velocity S-wave (km/s) = 3.30715 3.47543 3.39233
# Velocity P-wave (km/s) = 5.90464 6.38972 6.15196
#
# Compressibility (1/GPa) = 0.02591108
#
# Stress axis : x y z
#
# Youngs Moduli (GPa) = 43.25328 76.57138 53.95423
#
# Poissons Ratio (x) = 0.30063 0.16817
# Poissons Ratio (y) = 0.16982 0.39700
# Poissons Ratio (z) = 0.13482 0.56342
#
# Static dielectric constant tensor:
#      x y z
#    x 3.235350 0.000000 0.000000 
#    y 0.000000 3.780070 0.000000 
#    z 0.000000 0.000000 3.502170 
# 
# 
# High freq. dielectric constant tensor:
#      x y z
#    x 1.718030 0.000000 0.000000 
#    y 0.000000 1.757890 0.000000 
#    z 0.000000 0.000000 1.738100 
# 
# From -- ./inp_files/5709.got.cif
#   From: 2010.03.12/outbox.cif.g09.slc.cpg/sg31_3_cif.got.tgz:5709.got - 2010.04.14 01:42:59.
