data_PCOD8170031
_publ_section_title
;
Structure prediction by ZEFSAII (Michael W. Deem and Ramdas Pophale) SiO2 
 PCOD8170031
Probable space group: P M N 21
;
_chemical_formula_sum "Si O2"
_cell_formula_units_Z 32
_cell_length_a 9.187011
_cell_length_b 19.543834
_cell_length_c 10.081225
_cell_angle_alpha 90.000000
_cell_angle_beta 90.000000
_cell_angle_gamma 90.000000
_cell_volume 1810.078081
_symmetry_space_group_name_H-M "P M N 21"
_symmetry_group_IT_number 31
_symmetry_cell_setting 'orthorhombic'
loop_
_space_group_symop_operation_xyz
x,y,z
1/2-x,-y,1/2+z
-x,y,z
1/2+x,-y,1/2+z
loop_
_atom_site_type_symbol
_atom_site_label
_atom_site_fract_x
_atom_site_fract_y
_atom_site_fract_z
Si Si1 0.672102 0.308532 0.858920
Si Si2 0.665318 0.544634 0.069334
Si Si3 0.170543 0.448883 0.872408
Si Si4 0.329936 0.796816 0.852738
Si Si5 0.168145 0.297460 0.592043
Si Si6 0.670340 0.953434 0.846436
Si Si7 0.669237 0.205011 0.088997
Si Si8 0.829502 0.951033 0.582545
O O1 0.500000 0.318468 0.846618
O O2 0.743712 0.379537 0.903295
O O3 0.734751 0.281817 0.720015
O O4 0.715742 0.252518 0.967582
O O5 0.500000 0.522976 0.034859
O O6 0.701379 0.526354 0.222178
O O7 0.688159 0.624874 0.044533
O O8 0.777005 0.506293 0.974112
O O9 0.000000 0.434753 0.892350
O O10 0.500000 0.786376 0.830285
O O11 0.289641 0.875434 0.882945
O O12 0.252191 0.770292 0.720262
O O13 0.274924 0.751831 0.975972
O O14 0.000000 0.283080 0.628419
O O15 0.500000 0.962645 0.822570
O O16 0.750627 0.977295 0.714038
O O17 0.727493 0.002168 0.962978
O O18 0.500000 0.211442 0.120605
O O19 0.712068 0.127412 0.051315
O O20 0.000000 0.960591 0.604506
#
# Coordination Sequence:
#
# PCOD8170031 Si02
#       8
#     4   4   4   4   4   4   4   4
#     4  10  20  34  52  74 100 130 165 204 245 291
#     4   9  19  35  52  73 101 130 162 201 243 290
#     4  10  21  36  54  76 101 130 164 202 245 292
#     4   9  18  33  52  74 100 130 165 205 247 291
#     4   9  19  35  52  73 102 131 162 203 247 291
#     4   9  18  32  50  73 100 130 166 206 246 291
#     4   9  19  34  50  71 100 132 166 204 245 291
#     4   9  18  33  50  70 100 133 164 203 248 291
#
# _framework density 17.678795000000001
#
# number of rings (size 3 to 8) (size 9 to 14) (size 15 to 20)
#    0.000    2.750    0.000    1.500    0.000    6.500 
#    0.000    2.500    0.000    0.000    0.000    0.000 
#    0.000    0.000    0.000    0.000    0.000    0.000 
#
# Total GULP energy -396874.265892 kJ/mol
# GULP energy per Si atom -12402.320809 kJ/mol
# Density = 1.763856 g / cm^3
# Si number density = 17.678795 Si / 1000 Ang^3
#
#
#
# Elastic Constant Matrix: (Units=GPa)
#
#
# Indices 1 2 3 4 5 6 
#
# 1 59.7356 41.5422 58.7205 0.0000 0.0000 0.0000
# 2 41.5422 84.2360 82.9281 0.0000 0.0000 0.0000
# 3 58.7205 82.9281 141.8105 0.0000 0.0000 0.0000
# 4 0.0000 0.0000 0.0000 39.2380 0.0000 0.0000
# 5 0.0000 0.0000 0.0000 0.0000 37.1442 0.0000
# 6 0.0000 0.0000 0.0000 0.0000 0.0000 24.5586
#
#
#
# Elastic Compliance Matrix: (Units=1/GPa)
#
#
# Indices 1 2 3 4 5 6 
#
# 1 0.029439 -0.005933 -0.008720 0.000000 0.000000 0.000000
# 2 -0.005933 0.029175 -0.014604 0.000000 0.000000 0.000000
# 3 -0.008720 -0.014604 0.019203 0.000000 0.000000 0.000000
# 4 0.000000 0.000000 0.000000 0.025485 0.000000 0.000000
# 5 0.000000 0.000000 0.000000 0.000000 0.026922 0.000000
# 6 0.000000 0.000000 0.000000 0.000000 0.000000 0.040719
#
#
# Mechanical properties :
#
#
# Convention : Reuss Voigt Hill
#
# Bulk Modulus (GPa) = 51.81061 72.46264 62.13663
# Shear Modulus (GPa) = 21.19621 27.02759 24.11190
#
# Velocity S-wave (km/s) = 3.46636 3.91425 3.69709
# Velocity P-wave (km/s) = 6.73729 7.84257 7.31085
#
# Compressibility (1/GPa) = 0.01930107
#
# Stress axis : x y z
#
# Youngs Moduli (GPa) = 33.96883 34.27627 52.07622
#
# Poissons Ratio (x) = 0.20337 0.45412
# Poissons Ratio (y) = 0.20155 0.76052
# Poissons Ratio (z) = 0.29622 0.50057
#
# Static dielectric constant tensor:
#      x y z
#    x 3.232810 0.000000 0.000000 
#    y 0.000000 3.307470 0.000000 
#    z 0.000000 0.000000 3.336210 
# 
# 
# High freq. dielectric constant tensor:
#      x y z
#    x 1.683240 0.000000 0.000000 
#    y 0.000000 1.682440 0.000000 
#    z 0.000000 0.000000 1.686850 
# 
# From -- ./inp_files/1871.got.cif
#   From: 2010.03.12/outbox.cif.g09.slc.cpg/sg31_1_cif.got.tgz:1871.got - 2010.04.14 01:42:59.
