data_PCOD8170935
_publ_section_title
;
Structure prediction by ZEFSAII (Michael W. Deem and Ramdas Pophale) SiO2 
 PCOD8170935
Probable space group: P N A 21
;
_chemical_formula_sum "Si O2"
_cell_formula_units_Z 28
_cell_length_a 13.695944
_cell_length_b 10.953554
_cell_length_c 8.482665
_cell_angle_alpha 90.000000
_cell_angle_beta 90.000000
_cell_angle_gamma 90.000000
_cell_volume 1272.563145
_symmetry_space_group_name_H-M "P N A 21"
_symmetry_group_IT_number 33
_symmetry_cell_setting 'orthorhombic'
loop_
_space_group_symop_operation_xyz
x,y,z
-x,-y,1/2+z
1/2-x,1/2+y,1/2+z
1/2+x,1/2-y,z
loop_
_atom_site_type_symbol
_atom_site_label
_atom_site_fract_x
_atom_site_fract_y
_atom_site_fract_z
Si Si1 0.083709 0.597666 0.011790
Si Si2 0.823047 0.615804 0.367907
Si Si3 0.631164 0.697632 0.233105
Si Si4 0.120176 0.512913 0.559534
Si Si5 0.590887 0.739388 0.719238
Si Si6 0.044983 0.169002 0.954305
Si Si7 0.688269 0.553085 0.922474
O O1 0.113147 0.662100 0.176541
O O2 0.991692 0.506640 0.013420
O O3 0.176754 0.513650 0.962764
O O4 0.053711 0.698549 0.880970
O O5 0.717481 0.681590 0.362147
O O6 0.858083 0.586095 0.192683
O O7 0.900592 0.703035 0.448720
O O8 0.533867 0.652138 0.316602
O O9 0.657594 0.618325 0.082940
O O10 0.135729 0.654779 0.607824
O O11 0.197615 0.485232 0.420266
O O12 0.504971 0.666620 0.627831
O O13 0.672518 0.639671 0.769924
O O14 0.121585 0.064847 0.918261
#
# Coordination Sequence:
#
# PCOD8170935 Si02
#       7
#     4   4   4   4   4   4   4
#     4  10  20  43  68  92 127 172 216 277 329 390
#     4  10  22  39  65  98 119 170 219 271 325 390
#     4  10  23  44  63  90 135 169 219 271 336 399
#     4  10  20  42  68  91 128 168 225 269 318 398
#     4  10  23  40  63  95 131 168 218 269 333 385
#     4  12  22  40  63  95 133 167 219 271 331 392
#     4  10  24  42  62  93 131 176 214 270 336 394
#
# _framework density 22.002837
#
# number of rings (size 3 to 8) (size 9 to 14) (size 15 to 20)
#    0.000    1.714    2.857    0.857    2.000    1.143 
#    5.143    4.286    0.000    0.000    0.000    0.000 
#    0.000    0.000    0.000    0.000    0.000    0.000 
#
# Total GULP energy -347056.119663 kJ/mol
# GULP energy per Si atom -12394.861417 kJ/mol
# Density = 2.195276 g / cm^3
# Si number density = 22.002837 Si / 1000 Ang^3
#
#
#
# Elastic Constant Matrix: (Units=GPa)
#
#
# Indices 1 2 3 4 5 6 
#
# 1 124.6913 57.3028 34.5478 0.0000 0.0000 0.0000
# 2 57.3028 111.1039 37.4635 0.0000 0.0000 0.0000
# 3 34.5478 37.4635 47.8452 0.0000 0.0000 0.0000
# 4 0.0000 0.0000 0.0000 31.6647 0.0000 0.0000
# 5 0.0000 0.0000 0.0000 0.0000 35.7387 0.0000
# 6 0.0000 0.0000 0.0000 0.0000 0.0000 33.7726
#
#
#
# Elastic Compliance Matrix: (Units=1/GPa)
#
#
# Indices 1 2 3 4 5 6 
#
# 1 0.011293 -0.004178 -0.004883 0.000000 0.000000 0.000000
# 2 -0.004178 0.013775 -0.007769 0.000000 0.000000 0.000000
# 3 -0.004883 -0.007769 0.030510 0.000000 0.000000 0.000000
# 4 0.000000 0.000000 0.000000 0.031581 0.000000 0.000000
# 5 0.000000 0.000000 0.000000 0.000000 0.027981 0.000000
# 6 0.000000 0.000000 0.000000 0.000000 0.000000 0.029610
#
#
# Mechanical properties :
#
#
# Convention : Reuss Voigt Hill
#
# Bulk Modulus (GPa) = 45.62528 60.25208 52.93868
# Shear Modulus (GPa) = 26.92291 30.52361 28.72326
#
# Velocity S-wave (km/s) = 3.50181 3.72863 3.61700
# Velocity P-wave (km/s) = 6.09355 6.78087 6.44637
#
# Compressibility (1/GPa) = 0.02191767
#
# Stress axis : x y z
#
# Youngs Moduli (GPa) = 88.55337 72.59459 32.77607
#
# Poissons Ratio (x) = 0.30329 0.16004
# Poissons Ratio (y) = 0.36996 0.25465
# Poissons Ratio (z) = 0.43239 0.56402
#
# Static dielectric constant tensor:
#      x y z
#    x 4.181760 0.000000 0.000000 
#    y 0.000000 4.060830 0.000000 
#    z 0.000000 0.000000 3.997130 
# 
# 
# High freq. dielectric constant tensor:
#      x y z
#    x 1.855960 0.000000 0.000000 
#    y 0.000000 1.876330 0.000000 
#    z 0.000000 0.000000 1.863860 
# 
# From -- ./inp_files/3850.got.cif
#   From: 2010.03.12/outbox.cif.g09.slc.cpg/sg33_2_cif.got.tgz:3850.got - 2010.04.14 01:49:19.
