data_PCOD8170242
_publ_section_title
;
Structure prediction by ZEFSAII (Michael W. Deem and Ramdas Pophale) SiO2 
 PCOD8170242
Probable space group: P M N 21
;
_chemical_formula_sum "Si O2"
_cell_formula_units_Z 24
_cell_length_a 9.163190
_cell_length_b 11.883196
_cell_length_c 11.705275
_cell_angle_alpha 90.000000
_cell_angle_beta 90.000000
_cell_angle_gamma 90.000000
_cell_volume 1274.563782
_symmetry_space_group_name_H-M "P M N 21"
_symmetry_group_IT_number 31
_symmetry_cell_setting 'orthorhombic'
loop_
_space_group_symop_operation_xyz
x,y,z
1/2-x,-y,1/2+z
-x,y,z
1/2+x,-y,1/2+z
loop_
_atom_site_type_symbol
_atom_site_label
_atom_site_fract_x
_atom_site_fract_y
_atom_site_fract_z
Si Si1 0.327987 0.769923 0.180190
Si Si2 0.170709 0.581911 0.308724
Si Si3 0.669027 0.270751 0.027124
Si Si4 0.830436 0.645382 0.771854
Si Si5 0.668969 0.910879 0.398233
Si Si6 0.667979 0.162414 0.454277
O O1 0.500000 0.749027 0.174068
O O2 0.250762 0.651776 0.209226
O O3 0.284409 0.862789 0.274733
O O4 0.272391 0.813988 0.059824
O O5 0.203234 0.636790 0.431205
O O6 0.234134 0.457464 0.315263
O O7 0.000000 0.578516 0.280408
O O8 0.500000 0.241103 0.035406
O O9 0.725840 0.319089 0.146858
O O10 0.748343 0.153898 0.999328
O O11 0.801623 0.748233 0.855997
O O12 0.000000 0.609982 0.769349
O O13 0.500000 0.889373 0.419738
O O14 0.709592 0.041711 0.401716
O O15 0.500000 0.165717 0.495095
#
# Coordination Sequence:
#
# PCOD8170242 Si02
#       6
#     4   4   4   4   4   4
#     4  10  21  38  61  85 113 151 193 232 283 342
#     4  10  21  38  59  85 115 147 189 236 284 337
#     4   9  20  38  60  83 111 148 188 231 281 338
#     4  10  22  38  58  84 116 151 187 232 285 337
#     4   9  20  38  59  84 114 149 188 232 283 338
#     4  10  22  38  57  85 119 150 187 235 286 334
#
# _framework density 18.829972000000001
#
# number of rings (size 3 to 8) (size 9 to 14) (size 15 to 20)
#    0.000    2.333    0.000    1.000    4.667    3.333 
#    0.000    0.000    0.000    0.000    0.000    0.000 
#    0.000    0.000    0.000    0.000    0.000    0.000 
#
# Total GULP energy -297711.832966 kJ/mol
# GULP energy per Si atom -12404.659707 kJ/mol
# Density = 1.878711 g / cm^3
# Si number density = 18.829972 Si / 1000 Ang^3
#
#
#
# Elastic Constant Matrix: (Units=GPa)
#
#
# Indices 1 2 3 4 5 6 
#
# 1 76.7141 61.8495 47.5408 0.0000 0.0000 0.0000
# 2 61.8495 149.3819 51.3042 0.0000 0.0000 0.0000
# 3 47.5408 51.3042 104.4957 0.0000 0.0000 0.0000
# 4 0.0000 0.0000 0.0000 21.5268 0.0000 0.0000
# 5 0.0000 0.0000 0.0000 0.0000 29.7964 0.0000
# 6 0.0000 0.0000 0.0000 0.0000 0.0000 35.4065
#
#
#
# Elastic Compliance Matrix: (Units=1/GPa)
#
#
# Indices 1 2 3 4 5 6 
#
# 1 0.023178 -0.007187 -0.007016 0.000000 0.000000 0.000000
# 2 -0.007187 0.010280 -0.001778 0.000000 0.000000 0.000000
# 3 -0.007016 -0.001778 0.013635 0.000000 0.000000 0.000000
# 4 0.000000 0.000000 0.000000 0.046454 0.000000 0.000000
# 5 0.000000 0.000000 0.000000 0.000000 0.033561 0.000000
# 6 0.000000 0.000000 0.000000 0.000000 0.000000 0.028243
#
#
# Mechanical properties :
#
#
# Convention : Reuss Voigt Hill
#
# Bulk Modulus (GPa) = 66.08853 72.44231 69.26542
# Shear Modulus (GPa) = 25.99344 28.67243 27.33293
#
# Velocity S-wave (km/s) = 3.71944 3.90641 3.81407
# Velocity P-wave (km/s) = 7.32253 7.67477 7.50072
#
# Compressibility (1/GPa) = 0.01513122
#
# Stress axis : x y z
#
# Youngs Moduli (GPa) = 43.14487 97.27298 73.34225
#
# Poissons Ratio (x) = 0.69907 0.51460
# Poissons Ratio (y) = 0.31007 0.13038
# Poissons Ratio (z) = 0.30272 0.17292
#
# Static dielectric constant tensor:
#      x y z
#    x 3.447690 0.000000 0.000000 
#    y 0.000000 3.517250 0.000000 
#    z 0.000000 0.000000 3.508030 
# 
# 
# High freq. dielectric constant tensor:
#      x y z
#    x 1.730430 0.000000 0.000000 
#    y 0.000000 1.738850 0.000000 
#    z 0.000000 0.000000 1.734550 
# 
# From -- ./inp_files/3436.got.cif
#   From: 2010.03.12/outbox.cif.g09.slc.cpg/sg31_2_cif.got.tgz:3436.got - 2010.04.14 01:42:59.
