data_PCOD8170026
_publ_section_title
;
Structure prediction by ZEFSAII (Michael W. Deem and Ramdas Pophale) SiO2 
 PCOD8170026
Probable space group: P M N 21
;
_chemical_formula_sum "Si O2"
_cell_formula_units_Z 32
_cell_length_a 9.413660
_cell_length_b 16.435287
_cell_length_c 10.418602
_cell_angle_alpha 90.000000
_cell_angle_beta 90.000000
_cell_angle_gamma 90.000000
_cell_volume 1611.926551
_symmetry_space_group_name_H-M "P M N 21"
_symmetry_group_IT_number 31
_symmetry_cell_setting 'orthorhombic'
loop_
_space_group_symop_operation_xyz
x,y,z
1/2-x,-y,1/2+z
-x,y,z
1/2+x,-y,1/2+z
loop_
_atom_site_type_symbol
_atom_site_label
_atom_site_fract_x
_atom_site_fract_y
_atom_site_fract_z
Si Si1 0.154339 0.935204 0.263760
Si Si2 0.168022 0.772008 0.365014
Si Si3 0.162946 0.911294 0.757714
Si Si4 0.837146 0.465425 0.505907
Si Si5 0.837831 0.290588 0.627103
Si Si6 0.346696 0.166220 0.510859
Si Si7 0.168879 0.571968 0.749127
Si Si8 0.832094 0.743072 0.646911
O O1 0.207196 0.869947 0.371566
O O2 0.138843 0.874333 0.146753
O O3 0.000000 0.972400 0.300595
O O4 0.258430 0.006226 0.219904
O O5 0.251847 0.721212 0.258378
O O6 0.215313 0.732355 0.499527
O O7 0.000000 0.762015 0.339664
O O8 0.230443 0.828798 0.698586
O O9 0.000000 0.922625 0.715858
O O10 0.187286 0.904489 0.909860
O O11 0.821609 0.381303 0.579721
O O12 0.786056 0.530222 0.613600
O O13 0.744963 0.467324 0.374305
O O14 0.000000 0.482302 0.465373
O O15 0.773965 0.234770 0.513428
O O16 0.000000 0.265458 0.651565
O O17 0.500000 0.206379 0.472695
O O18 0.217910 0.666361 0.732885
O O19 0.000000 0.562632 0.769599
O O20 0.000000 0.749123 0.654897
#
# Coordination Sequence:
#
# PCOD8170026 Si02
#       8
#     4   4   4   4   4   4   4   4
#     4   9  19  33  49  75 110 143 179 229 281 334
#     4   9  19  36  57  81 112 150 193 236 279 341
#     4  10  20  33  54  78 103 139 185 231 275 331
#     4  10  23  40  60  92 127 153 193 250 299 352
#     4  10  20  35  56  83 114 144 181 233 291 341
#     4   9  19  36  54  75 104 140 185 227 269 337
#     4  10  22  41  64  89 120 160 205 244 292 359
#     4   9  19  36  58  83 110 147 197 242 280 337
#
# _framework density 19.852021000000001
#
# number of rings (size 3 to 8) (size 9 to 14) (size 15 to 20)
#    0.000    2.500    0.000    1.875    3.500    5.000 
#    0.000    1.875    0.000    0.000    0.000    0.000 
#    0.000    0.000    0.000    0.000    0.000    0.000 
#
# Total GULP energy -396488.901938 kJ/mol
# GULP energy per Si atom -12390.278186 kJ/mol
# Density = 1.980684 g / cm^3
# Si number density = 19.852021 Si / 1000 Ang^3
#
#
#
# Elastic Constant Matrix: (Units=GPa)
#
#
# Indices 1 2 3 4 5 6 
#
# 1 73.7953 38.6055 41.7477 0.0000 0.0000 0.0000
# 2 38.6055 86.8823 31.2398 0.0000 0.0000 0.0000
# 3 41.7477 31.2398 94.3477 0.0000 0.0000 0.0000
# 4 0.0000 0.0000 0.0000 23.9441 0.0000 0.0000
# 5 0.0000 0.0000 0.0000 0.0000 16.2005 0.0000
# 6 0.0000 0.0000 0.0000 0.0000 0.0000 27.6620
#
#
#
# Elastic Compliance Matrix: (Units=1/GPa)
#
#
# Indices 1 2 3 4 5 6 
#
# 1 0.021142 -0.006846 -0.007089 0.000000 0.000000 0.000000
# 2 -0.006846 0.015282 -0.002031 0.000000 0.000000 0.000000
# 3 -0.007089 -0.002031 0.014408 0.000000 0.000000 0.000000
# 4 0.000000 0.000000 0.000000 0.041764 0.000000 0.000000
# 5 0.000000 0.000000 0.000000 0.000000 0.061726 0.000000
# 6 0.000000 0.000000 0.000000 0.000000 0.000000 0.036151
#
#
# Mechanical properties :
#
#
# Convention : Reuss Voigt Hill
#
# Bulk Modulus (GPa) = 52.90401 53.13460 53.01930
# Shear Modulus (GPa) = 21.86226 23.12347 22.49287
#
# Velocity S-wave (km/s) = 3.32213 3.41661 3.36970
# Velocity P-wave (km/s) = 6.43602 6.51058 6.47341
#
# Compressibility (1/GPa) = 0.01890216
#
# Stress axis : x y z
#
# Youngs Moduli (GPa) = 47.29816 65.43693 69.40513
#
# Poissons Ratio (x) = 0.44796 0.49198
# Poissons Ratio (y) = 0.32379 0.14095
# Poissons Ratio (z) = 0.33528 0.13290
#
# Static dielectric constant tensor:
#      x y z
#    x 3.576830 0.000000 0.000000 
#    y 0.000000 3.792000 0.000000 
#    z 0.000000 0.000000 3.739730 
# 
# 
# High freq. dielectric constant tensor:
#      x y z
#    x 1.746960 0.000000 0.000000 
#    y 0.000000 1.775030 0.000000 
#    z 0.000000 0.000000 1.782470 
# 
# From -- ./inp_files/3786.got.cif
#   From: 2010.03.12/outbox.cif.g09.slc.cpg/sg31_2_cif.got.tgz:3786.got - 2010.04.14 01:42:59.
