data_PCOD8170214
_publ_section_title
;
Structure prediction by ZEFSAII (Michael W. Deem and Ramdas Pophale) SiO2 
 PCOD8170214
Probable space group: P M N 21
;
_chemical_formula_sum "Si O2"
_cell_formula_units_Z 32
_cell_length_a 24.182791
_cell_length_b 7.611494
_cell_length_c 8.772193
_cell_angle_alpha 90.000000
_cell_angle_beta 90.000000
_cell_angle_gamma 90.000000
_cell_volume 1614.672728
_symmetry_space_group_name_H-M "P M N 21"
_symmetry_group_IT_number 31
_symmetry_cell_setting 'orthorhombic'
loop_
_space_group_symop_operation_xyz
x,y,z
1/2-x,-y,1/2+z
-x,y,z
1/2+x,-y,1/2+z
loop_
_atom_site_type_symbol
_atom_site_label
_atom_site_fract_x
_atom_site_fract_y
_atom_site_fract_z
Si Si1 0.614263 0.442490 0.300060
Si Si2 0.324224 0.950739 0.205144
Si Si3 0.783198 0.004035 0.051190
Si Si4 0.329753 0.602147 0.045158
Si Si5 0.650947 0.698230 0.716884
Si Si6 0.937339 0.917735 0.787416
Si Si7 0.294563 0.393830 0.542540
Si Si8 0.062163 0.251525 0.981736
O O1 0.631275 0.451060 0.119740
O O2 0.570794 0.285655 0.333748
O O3 0.671466 0.406586 0.386697
O O4 0.586954 0.625226 0.350420
O O5 0.300513 0.972774 0.376256
O O6 0.327300 0.743503 0.181093
O O7 0.385314 0.035311 0.177858
O O8 0.282471 0.036159 0.080472
O O9 0.813841 0.135326 0.164443
O O10 0.796530 0.805407 0.103547
O O11 0.267625 0.540057 0.004943
O O12 0.357511 0.691731 0.897907
O O13 0.679571 0.515869 0.671566
O O14 0.590992 0.715118 0.642576
O O15 0.000000 0.941182 0.717562
O O16 0.931430 0.047431 0.932703
O O17 0.000000 0.306394 0.009197
#
# Coordination Sequence:
#
# PCOD8170214 Si02
#       8
#     4   4   4   4   4   4   4   4
#     4  11  20  39  61  89 121 157 212 250 305 361
#     4  11  21  40  61  95 123 162 200 256 307 374
#     4  11  21  38  60  90 126 157 204 248 315 365
#     4  11  23  37  57  95 128 162 199 243 319 371
#     4  11  22  39  59  91 125 162 199 251 307 369
#     4  11  22  40  65  90 116 160 214 258 299 361
#     4  10  21  36  58  87 124 163 201 248 299 372
#     4  10  21  41  65  87 115 159 212 256 303 363
#
# _framework density 19.818256999999999
#
# number of rings (size 3 to 8) (size 9 to 14) (size 15 to 20)
#    0.000    1.250    3.750    3.375    1.750    1.000 
#    2.250    1.875    0.000    0.000    0.000    0.000 
#    0.000    0.000    0.000    0.000    0.000    0.000 
#
# Total GULP energy -396621.580571 kJ/mol
# GULP energy per Si atom -12394.424393 kJ/mol
# Density = 1.977315 g / cm^3
# Si number density = 19.818257 Si / 1000 Ang^3
#
#
#
# Elastic Constant Matrix: (Units=GPa)
#
#
# Indices 1 2 3 4 5 6 
#
# 1 168.0897 43.8348 56.5229 0.0000 0.0000 0.0000
# 2 43.8348 97.2051 50.8820 0.0000 0.0000 0.0000
# 3 56.5229 50.8820 84.7576 0.0000 0.0000 0.0000
# 4 0.0000 0.0000 0.0000 12.9452 0.0000 0.0000
# 5 0.0000 0.0000 0.0000 0.0000 12.6565 0.0000
# 6 0.0000 0.0000 0.0000 0.0000 0.0000 22.9963
#
#
#
# Elastic Compliance Matrix: (Units=1/GPa)
#
#
# Indices 1 2 3 4 5 6 
#
# 1 0.007756 -0.001152 -0.004481 0.000000 0.000000 0.000000
# 2 -0.001152 0.015173 -0.008340 0.000000 0.000000 0.000000
# 3 -0.004481 -0.008340 0.019793 0.000000 0.000000 0.000000
# 4 0.000000 0.000000 0.000000 0.077249 0.000000 0.000000
# 5 0.000000 0.000000 0.000000 0.000000 0.079011 0.000000
# 6 0.000000 0.000000 0.000000 0.000000 0.000000 0.043485
#
#
# Mechanical properties :
#
#
# Convention : Reuss Voigt Hill
#
# Bulk Modulus (GPa) = 67.67740 72.50353 70.09047
# Shear Modulus (GPa) = 18.15941 22.97378 20.56660
#
# Velocity S-wave (km/s) = 3.03032 3.40843 3.22492
# Velocity P-wave (km/s) = 6.81667 7.22174 7.02212
#
# Compressibility (1/GPa) = 0.01477598
#
# Stress axis : x y z
#
# Youngs Moduli (GPa) = 128.92474 65.90739 50.52207
#
# Poissons Ratio (x) = 0.07594 0.22638
# Poissons Ratio (y) = 0.14856 0.42136
# Poissons Ratio (z) = 0.57769 0.54968
#
# Static dielectric constant tensor:
#      x y z
#    x 3.866200 0.000000 0.000000 
#    y 0.000000 3.824380 0.000000 
#    z 0.000000 0.000000 3.357650 
# 
# 
# High freq. dielectric constant tensor:
#      x y z
#    x 1.775840 0.000000 0.000000 
#    y 0.000000 1.786090 0.000000 
#    z 0.000000 0.000000 1.742080 
# 
# From -- ./inp_files/3096.got.cif
#   From: 2010.03.12/outbox.cif.g09.slc.cpg/sg31_2_cif.got.tgz:3096.got - 2010.04.14 01:42:59.
