data_PCOD8170233
_publ_section_title
;
Structure prediction by ZEFSAII (Michael W. Deem and Ramdas Pophale) SiO2 
 PCOD8170233
Probable space group: P M N 21
;
_chemical_formula_sum "Si O2"
_cell_formula_units_Z 20
_cell_length_a 18.053497
_cell_length_b 8.552617
_cell_length_c 6.476964
_cell_angle_alpha 90.000000
_cell_angle_beta 90.000000
_cell_angle_gamma 90.000000
_cell_volume 1000.073329
_symmetry_space_group_name_H-M "P M N 21"
_symmetry_group_IT_number 31
_symmetry_cell_setting 'orthorhombic'
loop_
_space_group_symop_operation_xyz
x,y,z
1/2-x,-y,1/2+z
-x,y,z
1/2+x,-y,1/2+z
loop_
_atom_site_type_symbol
_atom_site_label
_atom_site_fract_x
_atom_site_fract_y
_atom_site_fract_z
Si Si1 0.705914 0.225121 0.416160
Si Si2 0.167200 0.325943 0.666984
Si Si3 0.586320 0.452829 0.464940
Si Si4 0.916973 0.274651 0.279450
Si Si5 0.208421 0.121822 0.047218
O O1 0.763174 0.354278 0.512568
O O2 0.622438 0.279448 0.476443
O O3 0.722900 0.204757 0.170137
O O4 0.723512 0.061103 0.526013
O O5 0.138363 0.477805 0.784501
O O6 0.097645 0.277059 0.524186
O O7 0.193685 0.193423 0.824118
O O8 0.500000 0.439564 0.402037
O O9 0.595891 0.554347 0.673203
O O10 0.865609 0.142754 0.181163
O O11 0.000000 0.219106 0.238737
#
# Coordination Sequence:
#
# PCOD8170233 Si02
#       5
#     4   4   4   4   4
#     4  11  22  37  61  87 122 158 206 253 296 354
#     4  10  21  37  62  85 119 160 197 251 299 358
#     4  10  23  39  60  91 122 154 198 250 311 368
#     4   9  20  39  61  88 118 155 197 244 304 366
#     4  10  21  38  59  89 119 159 206 246 293 358
#
# _framework density 19.998535
#
# number of rings (size 3 to 8) (size 9 to 14) (size 15 to 20)
#    0.000    2.000    2.000    0.600    8.400    1.600 
#    0.000    0.000    0.000    0.000    0.000    0.000 
#    0.000    0.000    0.000    0.000    0.000    0.000 
#
# Total GULP energy -247808.686093 kJ/mol
# GULP energy per Si atom -12390.434305 kJ/mol
# Density = 1.995302 g / cm^3
# Si number density = 19.998535 Si / 1000 Ang^3
#
#
#
# Elastic Constant Matrix: (Units=GPa)
#
#
# Indices 1 2 3 4 5 6 
#
# 1 111.7749 39.6199 32.6982 0.0000 0.0000 0.0000
# 2 39.6199 53.7680 25.7817 0.0000 0.0000 0.0000
# 3 32.6982 25.7817 112.3312 0.0000 0.0000 0.0000
# 4 0.0000 0.0000 0.0000 23.6153 0.0000 0.0000
# 5 0.0000 0.0000 0.0000 0.0000 29.6084 0.0000
# 6 0.0000 0.0000 0.0000 0.0000 0.0000 26.2154
#
#
#
# Elastic Compliance Matrix: (Units=1/GPa)
#
#
# Indices 1 2 3 4 5 6 
#
# 1 0.012391 -0.008316 -0.001698 0.000000 0.000000 0.000000
# 2 -0.008316 0.026480 -0.003657 0.000000 0.000000 0.000000
# 3 -0.001698 -0.003657 0.010236 0.000000 0.000000 0.000000
# 4 0.000000 0.000000 0.000000 0.042346 0.000000 0.000000
# 5 0.000000 0.000000 0.000000 0.000000 0.033774 0.000000
# 6 0.000000 0.000000 0.000000 0.000000 0.000000 0.038146
#
#
# Mechanical properties :
#
#
# Convention : Reuss Voigt Hill
#
# Bulk Modulus (GPa) = 45.94677 52.67485 49.31081
# Shear Modulus (GPa) = 25.25640 27.87275 26.56457
#
# Velocity S-wave (km/s) = 3.55760 3.73733 3.64857
# Velocity P-wave (km/s) = 6.31667 6.70970 6.51615
#
# Compressibility (1/GPa) = 0.02176431
#
# Stress axis : x y z
#
# Youngs Moduli (GPa) = 80.70261 37.76446 97.69585
#
# Poissons Ratio (x) = 0.31406 0.16590
# Poissons Ratio (y) = 0.67115 0.35725
# Poissons Ratio (z) = 0.13705 0.13810
#
# Static dielectric constant tensor:
#      x y z
#    x 3.659320 0.000000 0.000000 
#    y 0.000000 3.393500 0.000000 
#    z 0.000000 0.000000 3.948610 
# 
# 
# High freq. dielectric constant tensor:
#      x y z
#    x 1.777870 0.000000 0.000000 
#    y 0.000000 1.754310 0.000000 
#    z 0.000000 0.000000 1.792560 
# 
# From -- ./inp_files/760.got.cif
#   From: 2010.03.12/outbox.cif.g09.slc.cpg/sg31_1_cif.got.tgz:760.got - 2010.04.14 01:42:59.
