data_PCOD8170071
_publ_section_title
;
Structure prediction by ZEFSAII (Michael W. Deem and Ramdas Pophale) SiO2 
 PCOD8170071
Probable space group: P M N 21
;
_chemical_formula_sum "Si O2"
_cell_formula_units_Z 24
_cell_length_a 14.754037
_cell_length_b 8.692585
_cell_length_c 9.406544
_cell_angle_alpha 90.000000
_cell_angle_beta 90.000000
_cell_angle_gamma 90.000000
_cell_volume 1206.396047
_symmetry_space_group_name_H-M "P M N 21"
_symmetry_group_IT_number 31
_symmetry_cell_setting 'orthorhombic'
loop_
_space_group_symop_operation_xyz
x,y,z
1/2-x,-y,1/2+z
-x,y,z
1/2+x,-y,1/2+z
loop_
_atom_site_type_symbol
_atom_site_label
_atom_site_fract_x
_atom_site_fract_y
_atom_site_fract_z
Si Si1 0.000000 0.945591 0.662791
Si Si2 0.500000 0.948508 0.842525
Si Si3 0.313593 0.517903 0.024836
Si Si4 0.500000 0.388357 0.074261
Si Si5 0.695623 0.965095 0.182505
Si Si6 0.689007 0.844331 0.881446
Si Si7 0.698766 0.344910 0.747338
Si Si8 0.000000 0.726774 0.255780
O O1 0.000000 0.758407 0.681872
O O2 0.000000 0.981952 0.498155
O O3 0.090023 0.022798 0.731269
O O4 0.588145 0.845716 0.816653
O O5 0.500000 0.090036 0.733053
O O6 0.296438 0.675033 0.940042
O O7 0.296612 0.380200 0.915135
O O8 0.412934 0.498948 0.095381
O O9 0.242805 0.517572 0.155121
O O10 0.500000 0.322638 0.917500
O O11 0.743768 0.810817 0.236038
O O12 0.743861 0.113325 0.252444
O O13 0.701434 0.968619 0.010103
O O14 0.594862 0.332988 0.689011
#
# Coordination Sequence:
#
# PCOD8170071 Si02
#       8
#     2   2   4   2   4   4   4   2
#     4   9  20  34  59  85 111 152 198 236 282 342
#     4   9  15  32  59  80 103 151 192 237 267 328
#     4  10  22  36  57  88 115 151 190 238 289 348
#     4   9  19  36  59  82 111 152 199 234 282 347
#     4  10  21  37  58  85 112 151 195 239 278 341
#     4  10  20  34  58  86 113 146 194 238 283 339
#     4  10  21  37  58  85 118 151 194 239 290 345
#     4   9  16  34  57  83 107 153 193 231 283 341
#
# _framework density 19.893965000000001
#
# number of rings (size 3 to 8) (size 9 to 14) (size 15 to 20)
#    0.000    2.333    1.667    0.500    4.667    2.000 
#    0.000    5.833    0.000    2.000    0.000    0.000 
#    0.000    0.000    0.000    0.000    0.000    0.000 
#
# Total GULP energy -297390.355177 kJ/mol
# GULP energy per Si atom -12391.264799 kJ/mol
# Density = 1.984869 g / cm^3
# Si number density = 19.893965 Si / 1000 Ang^3
#
#
#
# Elastic Constant Matrix: (Units=GPa)
#
#
# Indices 1 2 3 4 5 6 
#
# 1 178.0890 38.8110 43.5394 0.0000 0.0000 0.0000
# 2 38.8110 56.6825 9.4948 0.0000 0.0000 0.0000
# 3 43.5394 9.4948 37.5242 0.0000 0.0000 0.0000
# 4 0.0000 0.0000 0.0000 31.3711 0.0000 0.0000
# 5 0.0000 0.0000 0.0000 0.0000 29.5661 0.0000
# 6 0.0000 0.0000 0.0000 0.0000 0.0000 32.7981
#
#
#
# Elastic Compliance Matrix: (Units=1/GPa)
#
#
# Indices 1 2 3 4 5 6 
#
# 1 0.008823 -0.004518 -0.009094 0.000000 0.000000 0.000000
# 2 -0.004518 0.020736 -0.000005 0.000000 0.000000 0.000000
# 3 -0.009094 -0.000005 0.037203 0.000000 0.000000 0.000000
# 4 0.000000 0.000000 0.000000 0.031876 0.000000 0.000000
# 5 0.000000 0.000000 0.000000 0.000000 0.033822 0.000000
# 6 0.000000 0.000000 0.000000 0.000000 0.000000 0.030490
#
#
# Mechanical properties :
#
#
# Convention : Reuss Voigt Hill
#
# Bulk Modulus (GPa) = 25.29836 50.66512 37.98174
# Shear Modulus (GPa) = 24.58680 30.77711 27.68196
#
# Velocity S-wave (km/s) = 3.51934 3.93753 3.73429
# Velocity P-wave (km/s) = 5.40912 6.79670 6.14222
#
# Compressibility (1/GPa) = 0.03952825
#
# Stress axis : x y z
#
# Youngs Moduli (GPa) = 113.33815 48.22442 26.87965
#
# Poissons Ratio (x) = 0.21787 0.24445
# Poissons Ratio (y) = 0.51205 0.00013
# Poissons Ratio (z) = 1.03074 0.00023
#
# Static dielectric constant tensor:
#      x y z
#    x 4.071090 0.000000 0.000000 
#    y 0.000000 3.544350 0.000000 
#    z 0.000000 0.000000 3.488780 
# 
# 
# High freq. dielectric constant tensor:
#      x y z
#    x 1.791870 0.000000 0.000000 
#    y 0.000000 1.770450 0.000000 
#    z 0.000000 0.000000 1.734740 
# 
# From -- ./inp_files/2483.got.cif
#   From: 2010.03.12/outbox.cif.g09.slc.cpg/sg31_2_cif.got.tgz:2483.got - 2010.04.14 01:42:59.
