data_PCOD8170470
_publ_section_title
;
Structure prediction by ZEFSAII (Michael W. Deem and Ramdas Pophale) SiO2 
 PCOD8170470
Probable space group: P B A 2
;
_chemical_formula_sum "Si O2"
_cell_formula_units_Z 32
_cell_length_a 13.956675
_cell_length_b 11.592254
_cell_length_c 9.393975
_cell_angle_alpha 90.000000
_cell_angle_beta 90.000000
_cell_angle_gamma 90.000000
_cell_volume 1519.844842
_symmetry_space_group_name_H-M "P B A 2"
_symmetry_group_IT_number 32
_symmetry_cell_setting 'orthorhombic'
loop_
_space_group_symop_operation_xyz
x,y,z
-x,-y,z
1/2-x,1/2+y,z
1/2+x,1/2-y,z
loop_
_atom_site_type_symbol
_atom_site_label
_atom_site_fract_x
_atom_site_fract_y
_atom_site_fract_z
Si Si1 0.889359 0.008835 0.185750
Si Si2 0.235545 0.403022 0.403340
Si Si3 0.249107 0.268795 0.677136
Si Si4 0.181115 0.802365 0.986559
Si Si5 0.050906 0.349756 0.708982
Si Si6 0.020064 0.634874 0.018850
Si Si7 0.854634 0.746257 0.172880
Si Si8 0.629308 0.931362 0.587417
O O1 0.827597 0.062320 0.313193
O O2 0.879641 0.087574 0.043758
O O3 0.846794 0.882874 0.160063
O O4 0.000000 0.000000 0.232101
O O5 0.277967 0.356469 0.551623
O O6 0.175782 0.300908 0.327683
O O7 0.160231 0.508307 0.437724
O O8 0.133389 0.255521 0.683226
O O9 0.281257 0.140116 0.642433
O O10 0.302470 0.314202 0.818154
O O11 0.129425 0.681100 0.032683
O O12 0.285439 0.808687 0.055404
O O13 0.105800 0.473203 0.708330
O O14 0.968159 0.351784 0.584112
O O15 0.007223 0.324207 0.861514
O O16 0.000000 0.500000 0.043842
O O17 0.961168 0.703594 0.138066
#
# Coordination Sequence:
#
# PCOD8170470 Si02
#       8
#     4   4   4   4   4   4   4   4
#     4  11  24  49  66  96 144 178 229 287 344 424
#     4  10  25  44  65  97 131 191 224 277 349 407
#     4  11  21  41  66  99 135 171 225 281 348 401
#     4  11  24  40  73 101 134 181 221 293 350 412
#     4  10  20  38  65  97 130 168 217 281 344 397
#     4  12  22  41  66 103 129 173 232 284 344 408
#     4  11  25  45  67  96 136 180 229 280 351 413
#     4  10  20  42  65  92 140 168 226 285 331 414
#
# _framework density 21.054780999999998
#
# number of rings (size 3 to 8) (size 9 to 14) (size 15 to 20)
#    0.000    1.250    5.000    0.750    3.500    2.000 
#   13.500    0.625    0.000    0.000    0.000    0.000 
#    0.000    0.000    0.000    0.000    0.000    0.000 
#
# Total GULP energy -396624.223398 kJ/mol
# GULP energy per Si atom -12394.506981 kJ/mol
# Density = 2.100686 g / cm^3
# Si number density = 21.054781 Si / 1000 Ang^3
#
#
#
# Elastic Constant Matrix: (Units=GPa)
#
#
# Indices 1 2 3 4 5 6 
#
# 1 108.3633 37.0584 32.1406 0.0000 0.0000 0.0000
# 2 37.0584 93.7519 38.6798 0.0000 0.0000 0.0000
# 3 32.1406 38.6798 111.9787 0.0000 0.0000 0.0000
# 4 0.0000 0.0000 0.0000 30.8905 0.0000 0.0000
# 5 0.0000 0.0000 0.0000 0.0000 29.0565 0.0000
# 6 0.0000 0.0000 0.0000 0.0000 0.0000 44.4934
#
#
#
# Elastic Compliance Matrix: (Units=1/GPa)
#
#
# Indices 1 2 3 4 5 6 
#
# 1 0.011018 -0.003558 -0.001934 0.000000 0.000000 0.000000
# 2 -0.003558 0.013588 -0.003672 0.000000 0.000000 0.000000
# 3 -0.001934 -0.003672 0.010754 0.000000 0.000000 0.000000
# 4 0.000000 0.000000 0.000000 0.032372 0.000000 0.000000
# 5 0.000000 0.000000 0.000000 0.000000 0.034416 0.000000
# 6 0.000000 0.000000 0.000000 0.000000 0.000000 0.022475
#
#
# Mechanical properties :
#
#
# Convention : Reuss Voigt Hill
#
# Bulk Modulus (GPa) = 58.71061 58.87239 58.79150
# Shear Modulus (GPa) = 33.64095 34.63574 34.13835
#
# Velocity S-wave (km/s) = 4.00156 4.06030 4.03104
# Velocity P-wave (km/s) = 7.02106 7.07132 7.04623
#
# Compressibility (1/GPa) = 0.01703270
#
# Stress axis : x y z
#
# Youngs Moduli (GPa) = 90.75746 73.59518 92.99031
#
# Poissons Ratio (x) = 0.26182 0.17981
# Poissons Ratio (y) = 0.32288 0.34150
# Poissons Ratio (z) = 0.17550 0.27027
#
# Static dielectric constant tensor:
#      x y z
#    x 4.126480 0.000000 0.000000 
#    y 0.000000 3.868930 0.000000 
#    z 0.000000 0.000000 3.746900 
# 
# 
# High freq. dielectric constant tensor:
#      x y z
#    x 1.835770 0.000000 0.000000 
#    y 0.000000 1.815880 0.000000 
#    z 0.000000 0.000000 1.814820 
# 
# From -- ./inp_files/3099.got.cif
#   From: 2010.03.12/outbox.cif.g09.slc.cpg/sg32_2_cif.got.tgz:3099.got - 2010.04.14 01:46:39.
