data_PCOD8170160
_publ_section_title
;
Structure prediction by ZEFSAII (Michael W. Deem and Ramdas Pophale) SiO2 
 PCOD8170160
Probable space group: P M N 21
;
_chemical_formula_sum "Si O2"
_cell_formula_units_Z 32
_cell_length_a 9.032220
_cell_length_b 11.741673
_cell_length_c 15.315492
_cell_angle_alpha 90.000000
_cell_angle_beta 90.000000
_cell_angle_gamma 90.000000
_cell_volume 1624.259597
_symmetry_space_group_name_H-M "P M N 21"
_symmetry_group_IT_number 31
_symmetry_cell_setting 'orthorhombic'
loop_
_space_group_symop_operation_xyz
x,y,z
1/2-x,-y,1/2+z
-x,y,z
1/2+x,-y,1/2+z
loop_
_atom_site_type_symbol
_atom_site_label
_atom_site_fract_x
_atom_site_fract_y
_atom_site_fract_z
Si Si1 0.325483 0.248128 0.772460
Si Si2 0.326001 0.766645 0.956018
Si Si3 0.828749 0.379999 0.621560
Si Si4 0.671003 0.354199 0.108430
Si Si5 0.169562 0.989578 0.015048
Si Si6 0.327506 0.996749 0.715927
Si Si7 0.325901 0.221841 0.281653
Si Si8 0.171135 0.236687 0.949542
O O1 0.500000 0.259335 0.778230
O O2 0.267907 0.336652 0.701566
O O3 0.257765 0.281852 0.865447
O O4 0.276027 0.121492 0.745606
O O5 0.500000 0.764037 0.940492
O O6 0.246549 0.723777 0.868032
O O7 0.277007 0.682689 0.033432
O O8 0.278092 0.894559 0.978447
O O9 0.798119 0.512497 0.610333
O O10 0.000000 0.353906 0.641503
O O11 0.500000 0.326525 0.088476
O O12 0.719494 0.301023 0.200764
O O13 0.771153 0.300251 0.034449
O O14 0.000000 0.946485 0.008824
O O15 0.210438 0.018358 0.114429
O O16 0.196302 0.101799 0.958131
O O17 0.500000 0.975677 0.734954
O O18 0.233453 0.906095 0.769994
O O19 0.500000 0.215941 0.295211
O O20 0.000000 0.266809 0.938306
#
# Coordination Sequence:
#
# PCOD8170160 Si02
#       8
#     4   4   4   4   4   4   4   4
#     4  11  23  39  62  90 122 158 196 243 296 354
#     4  11  23  38  61  89 120 157 196 243 296 355
#     4  10  23  43  63  86 118 156 202 251 297 348
#     4  10  23  43  63  86 118 156 202 251 297 348
#     4  10  20  37  61  90 123 155 192 240 295 356
#     4  10  20  37  61  90 123 155 192 240 295 356
#     4  11  23  38  61  89 120 157 196 243 296 355
#     4  11  23  39  62  90 122 158 196 243 296 354
#
# _framework density 19.701284999999999
#
# number of rings (size 3 to 8) (size 9 to 14) (size 15 to 20)
#    0.000    1.500    2.500    2.250    0.000    7.000 
#    0.000    2.500    0.000    0.000    0.000    0.000 
#    0.000    0.000    0.000    0.000    0.000    0.000 
#
# Total GULP energy -397018.810143 kJ/mol
# GULP energy per Si atom -12406.837817 kJ/mol
# Density = 1.965644 g / cm^3
# Si number density = 19.701285 Si / 1000 Ang^3
#
#
#
# Elastic Constant Matrix: (Units=GPa)
#
#
# Indices 1 2 3 4 5 6 
#
# 1 78.6487 39.3961 50.5559 0.0000 0.0000 0.0000
# 2 39.3961 86.2835 35.6500 0.0000 0.0000 0.0000
# 3 50.5559 35.6500 118.3243 0.0000 0.0000 0.0000
# 4 0.0000 0.0000 0.0000 3.4434 0.0000 0.0000
# 5 0.0000 0.0000 0.0000 0.0000 38.8806 0.0000
# 6 0.0000 0.0000 0.0000 0.0000 0.0000 24.2227
#
#
#
# Elastic Compliance Matrix: (Units=1/GPa)
#
#
# Indices 1 2 3 4 5 6 
#
# 1 0.020276 -0.006486 -0.006709 0.000000 0.000000 0.000000
# 2 -0.006486 0.015312 -0.001842 0.000000 0.000000 0.000000
# 3 -0.006709 -0.001842 0.011873 0.000000 0.000000 0.000000
# 4 0.000000 0.000000 0.000000 0.290409 0.000000 0.000000
# 5 0.000000 0.000000 0.000000 0.000000 0.025720 0.000000
# 6 0.000000 0.000000 0.000000 0.000000 0.000000 0.041284
#
#
# Mechanical properties :
#
#
# Convention : Reuss Voigt Hill
#
# Bulk Modulus (GPa) = 57.51464 59.38453 58.44958
# Shear Modulus (GPa) = 11.34445 23.81966 17.58205
#
# Velocity S-wave (km/s) = 2.40223 3.48090 2.99060
# Velocity P-wave (km/s) = 6.07874 6.80907 6.45424
#
# Compressibility (1/GPa) = 0.01738688
#
# Stress axis : x y z
#
# Youngs Moduli (GPa) = 49.31845 65.30718 84.22445
#
# Poissons Ratio (x) = 0.42358 0.56508
# Poissons Ratio (y) = 0.31987 0.15516
# Poissons Ratio (z) = 0.33089 0.12031
#
# Static dielectric constant tensor:
#      x y z
#    x 3.562850 0.000000 0.000000 
#    y 0.000000 3.514930 0.000000 
#    z 0.000000 0.000000 3.783370 
# 
# 
# High freq. dielectric constant tensor:
#      x y z
#    x 1.770060 0.000000 0.000000 
#    y 0.000000 1.761430 0.000000 
#    z 0.000000 0.000000 1.785470 
# 
# From -- ./inp_files/4998.got.cif
#   From: 2010.03.12/outbox.cif.g09.slc.cpg/sg31_3_cif.got.tgz:4998.got - 2010.04.14 01:42:59.
