data_PCOD8170553
_publ_section_title
;
Structure prediction by ZEFSAII (Michael W. Deem and Ramdas Pophale) SiO2 
 PCOD8170553
Probable space group: P B A 2
;
_chemical_formula_sum "Si O2"
_cell_formula_units_Z 18
_cell_length_a 9.301102
_cell_length_b 10.049217
_cell_length_c 8.387647
_cell_angle_alpha 90.000000
_cell_angle_beta 90.000000
_cell_angle_gamma 90.000000
_cell_volume 783.983236
_symmetry_space_group_name_H-M "P B A 2"
_symmetry_group_IT_number 32
_symmetry_cell_setting 'orthorhombic'
loop_
_space_group_symop_operation_xyz
x,y,z
-x,-y,z
1/2-x,1/2+y,z
1/2+x,1/2-y,z
loop_
_atom_site_type_symbol
_atom_site_label
_atom_site_fract_x
_atom_site_fract_y
_atom_site_fract_z
Si Si1 0.756093 0.851638 0.954890
Si Si2 0.133501 0.359148 0.438536
Si Si3 0.669394 0.858225 0.316675
Si Si4 0.500000 0.500000 0.818690
Si Si5 0.978139 0.710111 0.769723
O O1 0.846379 0.721677 0.896073
O O2 0.856899 0.981876 0.928801
O O3 0.610235 0.866638 0.852380
O O4 0.722515 0.835440 0.139050
O O5 0.250326 0.243510 0.433592
O O6 0.207341 0.496522 0.385176
O O7 0.070405 0.372937 0.616453
O O8 0.000694 0.329656 0.319856
O O9 0.478577 0.363441 0.716973
#
# Coordination Sequence:
#
# PCOD8170553 Si02
#       5
#     4   4   4   2   4
#     4  10  22  45  73 103 141 193 251 296 367 437
#     4  11  26  47  70 110 149 195 242 310 382 436
#     4  11  26  46  73 106 150 193 245 305 382 440
#     4   8  24  42  74 104 138 188 244 310 360 418
#     4  10  22  45  71 106 145 191 255 301 366 447
#
# _framework density 22.959676000000002
#
# number of rings (size 3 to 8) (size 9 to 14) (size 15 to 20)
#    1.333    0.444    0.000    2.667    3.111    4.444 
#    8.000    0.000    0.000    0.000    0.000    0.000 
#    0.000    0.000    0.000    0.000    0.000    0.000 
#
# Total GULP energy -223113.540013 kJ/mol
# GULP energy per Si atom -12395.196667 kJ/mol
# Density = 2.290742 g / cm^3
# Si number density = 22.959676 Si / 1000 Ang^3
#
#
#
# Elastic Constant Matrix: (Units=GPa)
#
#
# Indices 1 2 3 4 5 6 
#
# 1 110.0676 54.0834 43.0283 0.0000 0.0000 0.0000
# 2 54.0834 98.5194 36.5579 0.0000 0.0000 0.0000
# 3 43.0283 36.5579 130.6534 0.0000 0.0000 0.0000
# 4 0.0000 0.0000 0.0000 31.6372 0.0000 0.0000
# 5 0.0000 0.0000 0.0000 0.0000 40.5132 0.0000
# 6 0.0000 0.0000 0.0000 0.0000 0.0000 52.1965
#
#
#
# Elastic Compliance Matrix: (Units=1/GPa)
#
#
# Indices 1 2 3 4 5 6 
#
# 1 0.013179 -0.006276 -0.002584 0.000000 0.000000 0.000000
# 2 -0.006276 0.014315 -0.001939 0.000000 0.000000 0.000000
# 3 -0.002584 -0.001939 0.009047 0.000000 0.000000 0.000000
# 4 0.000000 0.000000 0.000000 0.031608 0.000000 0.000000
# 5 0.000000 0.000000 0.000000 0.000000 0.024683 0.000000
# 6 0.000000 0.000000 0.000000 0.000000 0.000000 0.019158
#
#
# Mechanical properties :
#
#
# Convention : Reuss Voigt Hill
#
# Bulk Modulus (GPa) = 66.91678 67.39773 67.15725
# Shear Modulus (GPa) = 36.08264 38.57411 37.32838
#
# Velocity S-wave (km/s) = 3.96860 4.10333 4.03652
# Velocity P-wave (km/s) = 7.08578 7.20196 7.14411
#
# Compressibility (1/GPa) = 0.01494394
#
# Stress axis : x y z
#
# Youngs Moduli (GPa) = 75.87587 69.85714 110.52951
#
# Poissons Ratio (x) = 0.43843 0.28564
# Poissons Ratio (y) = 0.47620 0.21427
# Poissons Ratio (z) = 0.19609 0.13542
#
# Static dielectric constant tensor:
#      x y z
#    x 4.285500 0.000000 0.000000 
#    y 0.000000 3.946720 0.000000 
#    z 0.000000 0.000000 3.737620 
# 
# 
# High freq. dielectric constant tensor:
#      x y z
#    x 1.919920 0.000000 0.000000 
#    y 0.000000 1.901860 0.000000 
#    z 0.000000 0.000000 1.891210 
# 
# From -- ./inp_files/2675.got.cif
#   From: 2010.03.12/outbox.cif.g09.slc.cpg/sg32_2_cif.got.tgz:2675.got - 2010.04.14 01:46:39.
