data_PCOD8170065
_publ_section_title
;
Structure prediction by ZEFSAII (Michael W. Deem and Ramdas Pophale) SiO2 
 PCOD8170065
Probable space group: P M N 21
;
_chemical_formula_sum "Si O2"
_cell_formula_units_Z 32
_cell_length_a 23.685950
_cell_length_b 8.803632
_cell_length_c 8.560052
_cell_angle_alpha 90.000000
_cell_angle_beta 90.000000
_cell_angle_gamma 90.000000
_cell_volume 1784.962479
_symmetry_space_group_name_H-M "P M N 21"
_symmetry_group_IT_number 31
_symmetry_cell_setting 'orthorhombic'
loop_
_space_group_symop_operation_xyz
x,y,z
1/2-x,-y,1/2+z
-x,y,z
1/2+x,-y,1/2+z
loop_
_atom_site_type_symbol
_atom_site_label
_atom_site_fract_x
_atom_site_fract_y
_atom_site_fract_z
Si Si1 0.764909 0.042949 0.239990
Si Si2 0.731518 0.682340 0.955860
Si Si3 0.562640 0.948542 0.672504
Si Si4 0.364811 0.176601 0.806982
Si Si5 0.840456 0.159158 0.680589
Si Si6 0.154815 0.239035 0.029256
Si Si7 0.311914 0.466458 0.700476
Si Si8 0.063870 0.000471 0.516108
O O1 0.746536 0.166725 0.369124
O O2 0.796708 0.130980 0.099769
O O3 0.805596 0.915581 0.316235
O O4 0.708021 0.969336 0.174416
O O5 0.725070 0.542955 0.836749
O O6 0.672055 0.721366 0.040915
O O7 0.774974 0.641180 0.091042
O O8 0.500000 0.973079 0.605562
O O9 0.592704 0.820123 0.571361
O O10 0.561676 0.898461 0.856381
O O11 0.597851 0.107237 0.663163
O O12 0.357005 0.355762 0.783012
O O13 0.400316 0.151636 0.968894
O O14 0.902430 0.087934 0.652356
O O15 0.839012 0.246828 0.843916
O O16 0.157549 0.408167 0.096535
O O17 0.000000 0.962238 0.573347
#
# Coordination Sequence:
#
# PCOD8170065 Si02
#       8
#     4   4   4   4   4   4   4   4
#     4  10  20  34  56  82 112 147 200 233 285 342
#     4  11  22  36  52  83 121 159 189 231 289 365
#     4   8  17  38  60  80 104 143 203 247 275 331
#     4   9  17  34  59  78 108 145 195 243 277 337
#     4  12  20  33  58  82 119 151 188 241 288 344
#     4  10  22  33  52  89 115 151 186 230 303 357
#     4  11  22  35  53  82 127 153 191 228 299 363
#     4   9  19  35  58  82 105 145 198 247 280 325
#
# _framework density 17.927548000000002
#
# number of rings (size 3 to 8) (size 9 to 14) (size 15 to 20)
#    0.750    1.250    2.500    2.250    1.750    1.500 
#    0.000    1.250    0.000    1.500    0.000    0.000 
#    0.000    0.000    0.000    0.000    0.000    0.000 
#
# Total GULP energy -396545.073623 kJ/mol
# GULP energy per Si atom -12392.033551 kJ/mol
# Density = 1.788674 g / cm^3
# Si number density = 17.927548 Si / 1000 Ang^3
#
#
#
# Elastic Constant Matrix: (Units=GPa)
#
#
# Indices 1 2 3 4 5 6 
#
# 1 89.4175 25.1604 2.9735 0.0000 0.0000 0.0000
# 2 25.1604 82.5430 14.9146 0.0000 0.0000 0.0000
# 3 2.9735 14.9146 60.5476 0.0000 0.0000 0.0000
# 4 0.0000 0.0000 0.0000 26.6688 0.0000 0.0000
# 5 0.0000 0.0000 0.0000 0.0000 26.1402 0.0000
# 6 0.0000 0.0000 0.0000 0.0000 0.0000 15.4524
#
#
#
# Elastic Compliance Matrix: (Units=1/GPa)
#
#
# Indices 1 2 3 4 5 6 
#
# 1 0.012239 -0.003791 0.000333 0.000000 0.000000 0.000000
# 2 -0.003791 0.013853 -0.003226 0.000000 0.000000 0.000000
# 3 0.000333 -0.003226 0.017294 0.000000 0.000000 0.000000
# 4 0.000000 0.000000 0.000000 0.037497 0.000000 0.000000
# 5 0.000000 0.000000 0.000000 0.000000 0.038255 0.000000
# 6 0.000000 0.000000 0.000000 0.000000 0.000000 0.064715
#
#
# Mechanical properties :
#
#
# Convention : Reuss Voigt Hill
#
# Bulk Modulus (GPa) = 33.31336 35.40058 34.35697
# Shear Modulus (GPa) = 24.12793 26.28291 25.20542
#
# Velocity S-wave (km/s) = 3.67257 3.83307 3.75368
# Velocity P-wave (km/s) = 6.05031 6.27529 6.16383
#
# Compressibility (1/GPa) = 0.03001799
#
# Stress axis : x y z
#
# Youngs Moduli (GPa) = 81.70552 72.18478 57.82245
#
# Poissons Ratio (x) = 0.27364 -0.01924
# Poissons Ratio (y) = 0.30973 0.18655
# Poissons Ratio (z) = -0.02718 0.23289
#
# Static dielectric constant tensor:
#      x y z
#    x 3.252920 0.000000 0.000000 
#    y 0.000000 3.211320 0.000000 
#    z 0.000000 0.000000 3.247930 
# 
# 
# High freq. dielectric constant tensor:
#      x y z
#    x 1.680690 0.000000 0.000000 
#    y 0.000000 1.672730 0.000000 
#    z 0.000000 0.000000 1.689970 
# 
# From -- ./inp_files/3097.got.cif
#   From: 2010.03.12/outbox.cif.g09.slc.cpg/sg31_2_cif.got.tgz:3097.got - 2010.04.14 01:42:59.
