data_PCOD8170782
_publ_section_title
;
Structure prediction by ZEFSAII (Michael W. Deem and Ramdas Pophale) SiO2 
 PCOD8170782
Probable space group: P N A 21
;
_chemical_formula_sum "Si O2"
_cell_formula_units_Z 32
_cell_length_a 16.493090
_cell_length_b 5.218795
_cell_length_c 17.777389
_cell_angle_alpha 90.000000
_cell_angle_beta 90.000000
_cell_angle_gamma 90.000000
_cell_volume 1530.171970
_symmetry_space_group_name_H-M "P N A 21"
_symmetry_group_IT_number 33
_symmetry_cell_setting 'orthorhombic'
loop_
_space_group_symop_operation_xyz
x,y,z
-x,-y,1/2+z
1/2-x,1/2+y,1/2+z
1/2+x,1/2-y,z
loop_
_atom_site_type_symbol
_atom_site_label
_atom_site_fract_x
_atom_site_fract_y
_atom_site_fract_z
Si Si1 0.174733 0.163881 0.717800
Si Si2 0.697580 0.619187 0.857075
Si Si3 0.912671 0.327159 0.177762
Si Si4 0.355687 0.132021 0.894643
Si Si5 0.041466 0.864906 0.945076
Si Si6 0.518372 0.855302 0.517069
Si Si7 0.298447 0.489364 0.777640
Si Si8 0.046918 0.258925 0.301146
O O1 0.121591 0.386954 0.681749
O O2 0.269568 0.267610 0.718079
O O3 0.160569 0.118512 0.808024
O O4 0.155270 0.900850 0.672496
O O5 0.779960 0.562643 0.902950
O O6 0.630864 0.710667 0.916067
O O7 0.720537 0.824779 0.790960
O O8 0.969121 0.316576 0.105040
O O9 0.967688 0.284149 0.250775
O O10 0.319649 0.391964 0.861448
O O11 0.421315 0.030430 0.833016
O O12 0.394725 0.176216 0.975918
O O13 0.978957 0.901312 0.875545
O O14 0.016861 0.635717 0.000632
O O15 0.042977 0.133433 0.989388
O O16 0.381084 0.629419 0.751153
#
# Coordination Sequence:
#
# PCOD8170782 Si02
#       8
#     4   4   4   4   4   4   4   4
#     4  11  22  39  64  95 119 166 206 271 306 387
#     4  10  21  37  69  96 120 156 221 268 317 365
#     4  12  25  41  66  93 135 171 214 259 330 382
#     4   9  21  37  65  92 126 161 212 264 315 376
#     4  11  22  40  66  92 122 165 217 262 313 377
#     4  11  25  43  61  94 132 175 205 261 329 385
#     4  10  19  39  64  98 121 156 213 272 316 366
#     4  10  21  36  65  96 121 164 212 275 306 376
#
# _framework density 20.912682
#
# number of rings (size 3 to 8) (size 9 to 14) (size 15 to 20)
#    0.000    1.500    3.750    0.750    8.750    0.000 
#    0.000    1.250    5.500    0.000    0.000    0.000 
#    0.000    0.000    0.000    0.000    0.000    0.000 
#
# Total GULP energy -396491.153666 kJ/mol
# GULP energy per Si atom -12390.348552 kJ/mol
# Density = 2.086508 g / cm^3
# Si number density = 20.912682 Si / 1000 Ang^3
#
#
#
# Elastic Constant Matrix: (Units=GPa)
#
#
# Indices 1 2 3 4 5 6 
#
# 1 54.8340 17.8762 -7.3093 0.0000 0.0000 0.0000
# 2 17.8762 98.4338 10.6471 0.0000 0.0000 0.0000
# 3 -7.3093 10.6471 50.5106 0.0000 0.0000 0.0000
# 4 0.0000 0.0000 0.0000 26.2302 0.0000 0.0000
# 5 0.0000 0.0000 0.0000 0.0000 21.9994 0.0000
# 6 0.0000 0.0000 0.0000 0.0000 0.0000 21.2694
#
#
#
# Elastic Compliance Matrix: (Units=1/GPa)
#
#
# Indices 1 2 3 4 5 6 
#
# 1 0.020057 -0.004049 0.003756 0.000000 0.000000 0.000000
# 2 -0.004049 0.011213 -0.002950 0.000000 0.000000 0.000000
# 3 0.003756 -0.002950 0.020963 0.000000 0.000000 0.000000
# 4 0.000000 0.000000 0.000000 0.038124 0.000000 0.000000
# 5 0.000000 0.000000 0.000000 0.000000 0.045456 0.000000
# 6 0.000000 0.000000 0.000000 0.000000 0.000000 0.047016
#
#
# Mechanical properties :
#
#
# Convention : Reuss Voigt Hill
#
# Bulk Modulus (GPa) = 21.85837 27.35626 24.60732
# Shear Modulus (GPa) = 24.44220 26.07076 25.25648
#
# Velocity S-wave (km/s) = 3.42244 3.53462 3.47898
# Velocity P-wave (km/s) = 5.10807 5.45597 5.28489
#
# Compressibility (1/GPa) = 0.04574906
#
# Stress axis : x y z
#
# Youngs Moduli (GPa) = 49.85679 89.17869 47.70290
#
# Poissons Ratio (x) = 0.36107 -0.17917
# Poissons Ratio (y) = 0.20186 0.14070
# Poissons Ratio (z) = -0.18726 0.26304
#
# Static dielectric constant tensor:
#      x y z
#    x 3.885000 0.000000 0.000000 
#    y 0.000000 3.981130 0.000000 
#    z 0.000000 0.000000 3.343950 
# 
# 
# High freq. dielectric constant tensor:
#      x y z
#    x 1.819900 0.000000 0.000000 
#    y 0.000000 1.834470 0.000000 
#    z 0.000000 0.000000 1.771190 
# 
# From -- ./inp_files/8279.got.cif
#   From: 2010.03.12/outbox.cif.g09.slc.cpg/sg33_5_cif.got.tgz:8279.got - 2010.04.14 01:49:19.
