data_PCOD8170712
_publ_section_title
;
Structure prediction by ZEFSAII (Michael W. Deem and Ramdas Pophale) SiO2 
 PCOD8170712
Probable space group: P N A 21
;
_chemical_formula_sum "Si O2"
_cell_formula_units_Z 32
_cell_length_a 5.140942
_cell_length_b 16.444872
_cell_length_c 17.163962
_cell_angle_alpha 90.000000
_cell_angle_beta 90.000000
_cell_angle_gamma 90.000000
_cell_volume 1451.077961
_symmetry_space_group_name_H-M "P N A 21"
_symmetry_group_IT_number 33
_symmetry_cell_setting 'orthorhombic'
loop_
_space_group_symop_operation_xyz
x,y,z
-x,-y,1/2+z
1/2-x,1/2+y,1/2+z
1/2+x,1/2-y,z
loop_
_atom_site_type_symbol
_atom_site_label
_atom_site_fract_x
_atom_site_fract_y
_atom_site_fract_z
Si Si1 0.279237 0.287244 0.639310
Si Si2 0.842943 0.780001 0.310578
Si Si3 0.480868 0.969495 0.875713
Si Si4 0.524351 0.197516 0.110076
Si Si5 0.480398 0.463449 0.803571
Si Si6 0.483884 0.975321 0.549997
Si Si7 0.029883 0.302489 0.290571
Si Si8 0.980389 0.031324 0.630879
O O1 0.500801 0.229757 0.599344
O O2 0.254421 0.263617 0.730292
O O3 0.370149 0.378186 0.628870
O O4 0.568071 0.771099 0.356831
O O5 0.928003 0.871299 0.297906
O O6 0.529313 0.877372 0.848344
O O7 0.181252 0.989788 0.858425
O O8 0.685401 0.029314 0.833337
O O9 0.525919 0.983051 0.966381
O O10 0.245379 0.236437 0.091576
O O11 0.582519 0.120552 0.053818
O O12 0.526369 0.168564 0.200454
O O13 0.491755 0.503190 0.718281
O O14 0.776699 0.978099 0.582881
O O15 0.272334 0.026247 0.598781
O O16 0.311375 0.264782 0.308488
#
# Coordination Sequence:
#
# PCOD8170712 Si02
#       8
#     4   4   4   4   4   4   4   4
#     4  10  19  34  58  90 137 163 212 278 305 381
#     4  10  19  34  58  90 137 163 212 278 305 381
#     4  12  27  45  64 102 146 176 220 288 362 426
#     4  10  21  42  73  97 124 170 236 297 333 389
#     4  12  23  40  70  95 129 183 233 279 328 402
#     4  12  27  45  64 102 146 176 220 288 362 426
#     4  10  21  42  73  97 124 170 236 297 333 389
#     4  12  23  40  70  95 129 183 233 279 328 402
#
# _framework density 22.052569999999999
#
# number of rings (size 3 to 8) (size 9 to 14) (size 15 to 20)
#    0.000    1.000    2.500    6.000    3.500    2.000 
#    0.000    7.500    0.000    0.000    0.000    0.000 
#    0.000    0.000    0.000    0.000    0.000    0.000 
#
# Total GULP energy -396654.714184 kJ/mol
# GULP energy per Si atom -12395.459818 kJ/mol
# Density = 2.200238 g / cm^3
# Si number density = 22.052570 Si / 1000 Ang^3
#
#
#
# Elastic Constant Matrix: (Units=GPa)
#
#
# Indices 1 2 3 4 5 6 
#
# 1 141.3289 19.7046 17.8304 0.0000 0.0000 0.0000
# 2 19.7046 92.8384 1.1812 0.0000 0.0000 0.0000
# 3 17.8304 1.1812 53.5073 0.0000 0.0000 0.0000
# 4 0.0000 0.0000 0.0000 27.9291 0.0000 0.0000
# 5 0.0000 0.0000 0.0000 0.0000 26.8039 0.0000
# 6 0.0000 0.0000 0.0000 0.0000 0.0000 42.9926
#
#
#
# Elastic Compliance Matrix: (Units=1/GPa)
#
#
# Indices 1 2 3 4 5 6 
#
# 1 0.007612 -0.001584 -0.002502 0.000000 0.000000 0.000000
# 2 -0.001584 0.011104 0.000283 0.000000 0.000000 0.000000
# 3 -0.002502 0.000283 0.019516 0.000000 0.000000 0.000000
# 4 0.000000 0.000000 0.000000 0.035805 0.000000 0.000000
# 5 0.000000 0.000000 0.000000 0.000000 0.037308 0.000000
# 6 0.000000 0.000000 0.000000 0.000000 0.000000 0.023260
#
#
# Mechanical properties :
#
#
# Convention : Reuss Voigt Hill
#
# Bulk Modulus (GPa) = 32.65103 40.56743 36.60923
# Shear Modulus (GPa) = 32.80411 36.14234 34.47323
#
# Velocity S-wave (km/s) = 3.86105 4.05275 3.95806
# Velocity P-wave (km/s) = 5.89195 6.35102 6.12578
#
# Compressibility (1/GPa) = 0.03062691
#
# Stress axis : x y z
#
# Youngs Moduli (GPa) = 131.36930 90.05795 51.23885
#
# Poissons Ratio (x) = 0.14263 0.12818
# Poissons Ratio (y) = 0.20806 -0.01448
# Poissons Ratio (z) = 0.32864 -0.02545
#
# Static dielectric constant tensor:
#      x y z
#    x 5.135050 0.000000 0.000000 
#    y 0.000000 3.938580 0.000000 
#    z 0.000000 0.000000 3.706630 
# 
# 
# High freq. dielectric constant tensor:
#      x y z
#    x 1.905230 0.000000 0.000000 
#    y 0.000000 1.871250 0.000000 
#    z 0.000000 0.000000 1.824160 
# 
# From -- ./inp_files/8359.got.cif
#   From: 2010.03.12/outbox.cif.g09.slc.cpg/sg33_5_cif.got.tgz:8359.got - 2010.04.14 01:49:19.
