data_PCOD8170231
_publ_section_title
;
Structure prediction by ZEFSAII (Michael W. Deem and Ramdas Pophale) SiO2 
 PCOD8170231
Probable space group: P M N 21
;
_chemical_formula_sum "Si O2"
_cell_formula_units_Z 20
_cell_length_a 10.790471
_cell_length_b 7.677318
_cell_length_c 12.247314
_cell_angle_alpha 90.000000
_cell_angle_beta 90.000000
_cell_angle_gamma 90.000000
_cell_volume 1014.590483
_symmetry_space_group_name_H-M "P M N 21"
_symmetry_group_IT_number 31
_symmetry_cell_setting 'orthorhombic'
loop_
_space_group_symop_operation_xyz
x,y,z
1/2-x,-y,1/2+z
-x,y,z
1/2+x,-y,1/2+z
loop_
_atom_site_type_symbol
_atom_site_label
_atom_site_fract_x
_atom_site_fract_y
_atom_site_fract_z
Si Si1 0.861169 0.274786 0.183500
Si Si2 0.141051 0.033696 0.374492
Si Si3 0.360139 0.648777 0.009350
Si Si4 0.863902 0.474894 0.737334
Si Si5 0.219636 0.305602 0.944658
O O1 0.849403 0.091459 0.247411
O O2 0.753260 0.396233 0.232998
O O3 0.000000 0.353644 0.205277
O O4 0.849465 0.242615 0.054151
O O5 0.203801 0.185682 0.450214
O O6 0.000000 0.001414 0.410532
O O7 0.210015 0.854269 0.390910
O O8 0.500000 0.651197 0.967280
O O9 0.347146 0.666370 0.140175
O O10 0.309599 0.462306 0.974543
O O11 0.873322 0.375020 0.852225
O O12 0.000000 0.568228 0.721704
#
# Coordination Sequence:
#
# PCOD8170231 Si02
#       5
#     4   4   4   4   4
#     4  10  22  41  62  90 126 158 203 254 298 360
#     4  10  21  37  60  88 120 161 205 245 299 367
#     4   9  19  37  57  83 117 155 202 248 292 359
#     4  10  21  38  62  89 121 160 201 248 309 360
#     4  11  21  35  63  86 123 156 202 247 309 346
#
# _framework density 19.712387
#
# number of rings (size 3 to 8) (size 9 to 14) (size 15 to 20)
#    0.000    2.000    2.000    1.200    2.800    1.600 
#    0.000    2.000    0.000    0.000    0.000    0.000 
#    0.000    0.000    0.000    0.000    0.000    0.000 
#
# Total GULP energy -247790.472551 kJ/mol
# GULP energy per Si atom -12389.523628 kJ/mol
# Density = 1.966752 g / cm^3
# Si number density = 19.712387 Si / 1000 Ang^3
#
#
#
# Elastic Constant Matrix: (Units=GPa)
#
#
# Indices 1 2 3 4 5 6 
#
# 1 110.9150 38.6834 33.3784 0.0000 0.0000 0.0000
# 2 38.6834 79.6550 33.4596 0.0000 0.0000 0.0000
# 3 33.3784 33.4596 144.6680 0.0000 0.0000 0.0000
# 4 0.0000 0.0000 0.0000 25.9141 0.0000 0.0000
# 5 0.0000 0.0000 0.0000 0.0000 24.0565 0.0000
# 6 0.0000 0.0000 0.0000 0.0000 0.0000 21.8297
#
#
#
# Elastic Compliance Matrix: (Units=1/GPa)
#
#
# Indices 1 2 3 4 5 6 
#
# 1 0.011126 -0.004790 -0.001459 0.000000 0.000000 0.000000
# 2 -0.004790 0.015967 -0.002588 0.000000 0.000000 0.000000
# 3 -0.001459 -0.002588 0.007848 0.000000 0.000000 0.000000
# 4 0.000000 0.000000 0.000000 0.038589 0.000000 0.000000
# 5 0.000000 0.000000 0.000000 0.000000 0.041569 0.000000
# 6 0.000000 0.000000 0.000000 0.000000 0.000000 0.045809
#
#
# Mechanical properties :
#
#
# Convention : Reuss Voigt Hill
#
# Bulk Modulus (GPa) = 57.91541 60.69787 59.30664
# Shear Modulus (GPa) = 27.12421 29.67450 28.39935
#
# Velocity S-wave (km/s) = 3.71347 3.88412 3.79975
# Velocity P-wave (km/s) = 6.91596 7.13959 7.02867
#
# Compressibility (1/GPa) = 0.01726656
#
# Stress axis : x y z
#
# Youngs Moduli (GPa) = 89.88253 62.62740 127.42826
#
# Poissons Ratio (x) = 0.29999 0.18593
# Poissons Ratio (y) = 0.43055 0.32976
# Poissons Ratio (z) = 0.13114 0.16207
#
# Static dielectric constant tensor:
#      x y z
#    x 3.488990 0.000000 0.000000 
#    y 0.000000 3.315370 0.000000 
#    z 0.000000 0.000000 4.124480 
# 
# 
# High freq. dielectric constant tensor:
#      x y z
#    x 1.761180 0.000000 0.000000 
#    y 0.000000 1.738860 0.000000 
#    z 0.000000 0.000000 1.794200 
# 
# From -- ./inp_files/3387.got.cif
#   From: 2010.03.12/outbox.cif.g09.slc.cpg/sg31_2_cif.got.tgz:3387.got - 2010.04.14 01:42:59.
