data_PCOD8170955
_publ_section_title
;
Structure prediction by ZEFSAII (Michael W. Deem and Ramdas Pophale) SiO2 
 PCOD8170955
Probable space group: P N A 21
;
_chemical_formula_sum "Si O2"
_cell_formula_units_Z 24
_cell_length_a 20.598476
_cell_length_b 5.035427
_cell_length_c 7.632705
_cell_angle_alpha 90.000000
_cell_angle_beta 90.000000
_cell_angle_gamma 90.000000
_cell_volume 791.680361
_symmetry_space_group_name_H-M "P N A 21"
_symmetry_group_IT_number 33
_symmetry_cell_setting 'orthorhombic'
loop_
_space_group_symop_operation_xyz
x,y,z
-x,-y,1/2+z
1/2-x,1/2+y,1/2+z
1/2+x,1/2-y,z
loop_
_atom_site_type_symbol
_atom_site_label
_atom_site_fract_x
_atom_site_fract_y
_atom_site_fract_z
Si Si1 0.973254 0.500305 0.959500
Si Si2 0.589752 0.774199 0.773684
Si Si3 0.329090 0.617101 0.528222
Si Si4 0.609974 0.879467 0.171483
Si Si5 0.359117 0.734102 0.116935
Si Si6 0.718013 0.598759 0.357623
O O1 0.960442 0.357981 0.768534
O O2 0.046560 0.627228 0.949566
O O3 0.964929 0.288973 0.118379
O O4 0.918521 0.734914 0.977447
O O5 0.647374 0.983514 0.721599
O O6 0.618076 0.470057 0.774060
O O7 0.380273 0.826529 0.599089
O O8 0.284470 0.728825 0.370002
O O9 0.368514 0.329407 0.510541
O O10 0.274964 0.569091 0.679396
O O11 0.658463 0.808302 0.335568
O O12 0.296189 0.608267 0.018020
#
# Coordination Sequence:
#
# PCOD8170955 Si02
#       6
#     4   4   4   4   4   4
#     4  10  21  40  63  86 125 164 203 255 308 383
#     4  10  22  34  64  89 117 162 211 244 309 370
#     4  10  22  33  65  85 120 152 217 244 315 369
#     4  10  21  37  61  86 115 167 198 251 312 377
#     4  10  21  36  62  85 121 163 202 246 319 374
#     4  10  21  40  61  89 118 166 203 260 309 385
#
# _framework density 30.315266000000001
#
# number of rings (size 3 to 8) (size 9 to 14) (size 15 to 20)
#    2.000    0.000    3.333    0.000    4.667    0.000 
#    0.000    1.667    0.000    0.000    0.000    0.000 
#    0.000    0.000    0.000    0.000    0.000    0.000 
#
# Total GULP energy -297476.379910 kJ/mol
# GULP energy per Si atom -12394.849163 kJ/mol
# Density = 3.024627 g / cm^3
# Si number density = 30.315266 Si / 1000 Ang^3
#
#
#
# Elastic Constant Matrix: (Units=GPa)
#
#
# Indices 1 2 3 4 5 6 
#
# 1 125.9801 44.4676 27.6696 0.0000 0.0000 0.0000
# 2 44.4676 176.1844 34.3080 0.0000 0.0000 0.0000
# 3 27.6696 34.3080 142.9650 0.0000 0.0000 0.0000
# 4 0.0000 0.0000 0.0000 57.6586 0.0000 0.0000
# 5 0.0000 0.0000 0.0000 0.0000 53.0375 0.0000
# 6 0.0000 0.0000 0.0000 0.0000 0.0000 55.2569
#
#
#
# Elastic Compliance Matrix: (Units=1/GPa)
#
#
# Indices 1 2 3 4 5 6 
#
# 1 0.008920 -0.002009 -0.001244 0.000000 0.000000 0.000000
# 2 -0.002009 0.006407 -0.001149 0.000000 0.000000 0.000000
# 3 -0.001244 -0.001149 0.007511 0.000000 0.000000 0.000000
# 4 0.000000 0.000000 0.000000 0.017343 0.000000 0.000000
# 5 0.000000 0.000000 0.000000 0.000000 0.018855 0.000000
# 6 0.000000 0.000000 0.000000 0.000000 0.000000 0.018097
#
#
# Mechanical properties :
#
#
# Convention : Reuss Voigt Hill
#
# Bulk Modulus (GPa) = 71.25530 73.11335 72.18432
# Shear Modulus (GPa) = 55.17833 55.76956 55.47394
#
# Velocity S-wave (km/s) = 4.27095 4.29377 4.28238
# Velocity P-wave (km/s) = 6.91933 6.98226 6.95087
#
# Compressibility (1/GPa) = 0.01403404
#
# Stress axis : x y z
#
# Youngs Moduli (GPa) = 112.10504 156.08877 133.13499
#
# Poissons Ratio (x) = 0.31360 0.16566
# Poissons Ratio (y) = 0.22523 0.15292
# Poissons Ratio (z) = 0.13949 0.17928
#
# Static dielectric constant tensor:
#      x y z
#    x 5.295330 0.000000 0.000000 
#    y 0.000000 5.260710 0.000000 
#    z 0.000000 0.000000 6.367170 
# 
# 
# High freq. dielectric constant tensor:
#      x y z
#    x 2.253370 0.000000 0.000000 
#    y 0.000000 2.224980 0.000000 
#    z 0.000000 0.000000 2.318890 
# 
# From -- ./inp_files/5230.got.cif
#   From: 2010.03.12/outbox.cif.g09.slc.cpg/sg33_3_cif.got.tgz:5230.got - 2010.04.14 01:49:19.
