data_PCOD8170787
_publ_section_title
;
Structure prediction by ZEFSAII (Michael W. Deem and Ramdas Pophale) SiO2 
 PCOD8170787
Probable space group: P N A 21
;
_chemical_formula_sum "Si O2"
_cell_formula_units_Z 28
_cell_length_a 5.551851
_cell_length_b 17.534407
_cell_length_c 13.002313
_cell_angle_alpha 90.000000
_cell_angle_beta 90.000000
_cell_angle_gamma 90.000000
_cell_volume 1265.754562
_symmetry_space_group_name_H-M "P N A 21"
_symmetry_group_IT_number 33
_symmetry_cell_setting 'orthorhombic'
loop_
_space_group_symop_operation_xyz
x,y,z
-x,-y,1/2+z
1/2-x,1/2+y,1/2+z
1/2+x,1/2-y,z
loop_
_atom_site_type_symbol
_atom_site_label
_atom_site_fract_x
_atom_site_fract_y
_atom_site_fract_z
Si Si1 0.111825 0.147726 0.581300
Si Si2 0.444754 0.708362 0.859858
Si Si3 0.912848 0.437604 0.867526
Si Si4 0.111541 0.945910 0.764395
Si Si5 0.259703 0.940741 0.185605
Si Si6 0.251608 0.707431 0.291113
Si Si7 0.139439 0.486108 0.065265
O O1 0.070792 0.200063 0.482363
O O2 0.270746 0.188320 0.668344
O O3 0.850866 0.133590 0.632155
O O4 0.218443 0.065186 0.547922
O O5 0.685221 0.755992 0.826927
O O6 0.472747 0.628363 0.802103
O O7 0.798757 0.522586 0.851068
O O8 0.729104 0.366230 0.869759
O O9 0.034584 0.411821 0.760450
O O10 0.107271 0.439797 0.959476
O O11 0.235022 0.933183 0.652372
O O12 0.928266 0.014901 0.755532
O O13 0.365663 0.996755 0.098857
O O14 0.503865 0.748650 0.318091
#
# Coordination Sequence:
#
# PCOD8170787 Si02
#       7
#     4   4   4   4   4   4   4
#     4  11  22  42  65 106 133 183 222 292 355 423
#     4  12  29  44  70 105 145 187 226 290 367 428
#     4  11  22  41  69  96 136 181 238 287 341 418
#     4  10  23  44  66  99 134 184 239 292 340 420
#     4  10  19  39  70  98 134 172 237 292 345 394
#     4  12  25  42  65  97 146 179 218 283 359 420
#     4  10  22  38  73 101 128 182 244 296 339 409
#
# _framework density 22.121193999999999
#
# number of rings (size 3 to 8) (size 9 to 14) (size 15 to 20)
#    0.000    1.143    4.286    3.429    8.000    1.143 
#    0.000    1.429    0.000    0.000    0.000    0.000 
#    0.000    0.000    0.000    0.000    0.000    0.000 
#
# Total GULP energy -346948.677244 kJ/mol
# GULP energy per Si atom -12391.024187 kJ/mol
# Density = 2.207085 g / cm^3
# Si number density = 22.121194 Si / 1000 Ang^3
#
#
#
# Elastic Constant Matrix: (Units=GPa)
#
#
# Indices 1 2 3 4 5 6 
#
# 1 105.0522 17.2681 11.8900 0.0000 0.0000 0.0000
# 2 17.2681 59.5129 20.9677 0.0000 0.0000 0.0000
# 3 11.8900 20.9677 55.4838 0.0000 0.0000 0.0000
# 4 0.0000 0.0000 0.0000 33.0695 0.0000 0.0000
# 5 0.0000 0.0000 0.0000 0.0000 25.2675 0.0000
# 6 0.0000 0.0000 0.0000 0.0000 0.0000 25.7321
#
#
#
# Elastic Compliance Matrix: (Units=1/GPa)
#
#
# Indices 1 2 3 4 5 6 
#
# 1 0.010066 -0.002493 -0.001215 0.000000 0.000000 0.000000
# 2 -0.002493 0.020001 -0.007024 0.000000 0.000000 0.000000
# 3 -0.001215 -0.007024 0.020938 0.000000 0.000000 0.000000
# 4 0.000000 0.000000 0.000000 0.030239 0.000000 0.000000
# 5 0.000000 0.000000 0.000000 0.000000 0.039577 0.000000
# 6 0.000000 0.000000 0.000000 0.000000 0.000000 0.038862
#
#
# Mechanical properties :
#
#
# Convention : Reuss Voigt Hill
#
# Bulk Modulus (GPa) = 33.85099 35.58896 34.71998
# Shear Modulus (GPa) = 26.17863 28.14201 27.16032
#
# Velocity S-wave (km/s) = 3.44382 3.57062 3.50779
# Velocity P-wave (km/s) = 5.58112 5.75519 5.66882
#
# Compressibility (1/GPa) = 0.02954123
#
# Stress axis : x y z
#
# Youngs Moduli (GPa) = 99.34081 49.99695 47.75944
#
# Poissons Ratio (x) = 0.12463 0.05804
# Poissons Ratio (y) = 0.24763 0.33548
# Poissons Ratio (z) = 0.12072 0.35120
#
# Static dielectric constant tensor:
#      x y z
#    x 4.285790 0.000000 0.000000 
#    y 0.000000 3.823470 0.000000 
#    z 0.000000 0.000000 3.788060 
# 
# 
# High freq. dielectric constant tensor:
#      x y z
#    x 1.887390 0.000000 0.000000 
#    y 0.000000 1.857690 0.000000 
#    z 0.000000 0.000000 1.849640 
# 
# From -- ./inp_files/5488.got.cif
#   From: 2010.03.12/outbox.cif.g09.slc.cpg/sg33_3_cif.got.tgz:5488.got - 2010.04.14 01:49:19.
