data_PCOD8170896
_publ_section_title
;
Structure prediction by ZEFSAII (Michael W. Deem and Ramdas Pophale) SiO2 
 PCOD8170896
Probable space group: P N A 21
;
_chemical_formula_sum "Si O2"
_cell_formula_units_Z 28
_cell_length_a 11.179606
_cell_length_b 13.280801
_cell_length_c 9.534772
_cell_angle_alpha 90.000000
_cell_angle_beta 90.000000
_cell_angle_gamma 90.000000
_cell_volume 1415.666906
_symmetry_space_group_name_H-M "P N A 21"
_symmetry_group_IT_number 33
_symmetry_cell_setting 'orthorhombic'
loop_
_space_group_symop_operation_xyz
x,y,z
-x,-y,1/2+z
1/2-x,1/2+y,1/2+z
1/2+x,1/2-y,z
loop_
_atom_site_type_symbol
_atom_site_label
_atom_site_fract_x
_atom_site_fract_y
_atom_site_fract_z
Si Si1 0.388808 0.917343 0.583710
Si Si2 0.502895 0.604584 0.267923
Si Si3 0.956649 0.518245 0.295762
Si Si4 0.867474 0.304526 0.772710
Si Si5 0.297463 0.554842 0.766716
Si Si6 0.705007 0.419089 0.573723
Si Si7 0.826550 0.808890 0.498344
O O1 0.456140 0.985718 0.465389
O O2 0.374761 0.803235 0.530949
O O3 0.466482 0.926412 0.727183
O O4 0.259722 0.969515 0.605839
O O5 0.591681 0.694317 0.233394
O O6 0.585195 0.509598 0.299373
O O7 0.430530 0.577782 0.127467
O O8 0.419971 0.631201 0.401170
O O9 0.820309 0.513869 0.238027
O O10 0.017703 0.623770 0.256608
O O11 0.769533 0.331694 0.658825
O O12 0.804416 0.306640 0.926347
O O13 0.315324 0.633783 0.643930
O O14 0.280926 0.614649 0.912435
#
# Coordination Sequence:
#
# PCOD8170896 Si02
#       7
#     4   4   4   4   4   4   4
#     4  10  20  41  64  91 124 161 209 262 301 380
#     4  11  22  40  66  88 123 170 209 250 313 385
#     4  10  20  39  63  93 123 162 207 256 309 370
#     4  10  20  39  66  89 117 168 216 242 309 387
#     4  11  23  39  58  95 130 156 204 268 313 357
#     4   9  22  40  57  89 127 159 202 262 315 363
#     4  11  23  40  66  95 120 170 213 254 312 376
#
# _framework density 19.778663999999999
#
# number of rings (size 3 to 8) (size 9 to 14) (size 15 to 20)
#    0.000    1.714    1.429    3.429    2.000    0.000 
#    7.714    4.286    0.000    0.000    0.000    0.000 
#    0.000    0.000    0.000    0.000    0.000    0.000 
#
# Total GULP energy -347088.325394 kJ/mol
# GULP energy per Si atom -12396.011621 kJ/mol
# Density = 1.973365 g / cm^3
# Si number density = 19.778664 Si / 1000 Ang^3
#
#
#
# Elastic Constant Matrix: (Units=GPa)
#
#
# Indices 1 2 3 4 5 6 
#
# 1 108.6338 42.7810 55.1602 0.0000 0.0000 0.0000
# 2 42.7810 74.7649 62.8176 0.0000 0.0000 0.0000
# 3 55.1602 62.8176 119.6560 0.0000 0.0000 0.0000
# 4 0.0000 0.0000 0.0000 29.7354 0.0000 0.0000
# 5 0.0000 0.0000 0.0000 0.0000 28.9315 0.0000
# 6 0.0000 0.0000 0.0000 0.0000 0.0000 29.1616
#
#
#
# Elastic Compliance Matrix: (Units=1/GPa)
#
#
# Indices 1 2 3 4 5 6 
#
# 1 0.012717 -0.004207 -0.003654 0.000000 0.000000 0.000000
# 2 -0.004207 0.025323 -0.011355 0.000000 0.000000 0.000000
# 3 -0.003654 -0.011355 0.016003 0.000000 0.000000 0.000000
# 4 0.000000 0.000000 0.000000 0.033630 0.000000 0.000000
# 5 0.000000 0.000000 0.000000 0.000000 0.034564 0.000000
# 6 0.000000 0.000000 0.000000 0.000000 0.000000 0.034292
#
#
# Mechanical properties :
#
#
# Convention : Reuss Voigt Hill
#
# Bulk Modulus (GPa) = 64.05466 69.39693 66.72580
# Shear Modulus (GPa) = 24.97954 27.05210 26.01582
#
# Velocity S-wave (km/s) = 3.55766 3.70231 3.63071
# Velocity P-wave (km/s) = 7.02367 7.31020 7.16837
#
# Compressibility (1/GPa) = 0.01561167
#
# Stress axis : x y z
#
# Youngs Moduli (GPa) = 78.63310 39.49031 62.48895
#
# Poissons Ratio (x) = 0.16613 0.22834
# Poissons Ratio (y) = 0.33079 0.70955
# Poissons Ratio (z) = 0.28733 0.44840
#
# Static dielectric constant tensor:
#      x y z
#    x 3.863430 0.000000 0.000000 
#    y 0.000000 3.395250 0.000000 
#    z 0.000000 0.000000 3.703190 
# 
# 
# High freq. dielectric constant tensor:
#      x y z
#    x 1.786120 0.000000 0.000000 
#    y 0.000000 1.752060 0.000000 
#    z 0.000000 0.000000 1.772770 
# 
# From -- ./inp_files/3897.got.cif
#   From: 2010.03.12/outbox.cif.g09.slc.cpg/sg33_2_cif.got.tgz:3897.got - 2010.04.14 01:49:19.
