data_PCOD8170454
_publ_section_title
;
Structure prediction by ZEFSAII (Michael W. Deem and Ramdas Pophale) SiO2 
 PCOD8170454
Probable space group: P B A 2
;
_chemical_formula_sum "Si O2"
_cell_formula_units_Z 30
_cell_length_a 11.046977
_cell_length_b 19.545116
_cell_length_c 6.331229
_cell_angle_alpha 90.000000
_cell_angle_beta 90.000000
_cell_angle_gamma 90.000000
_cell_volume 1367.003808
_symmetry_space_group_name_H-M "P B A 2"
_symmetry_group_IT_number 32
_symmetry_cell_setting 'orthorhombic'
loop_
_space_group_symop_operation_xyz
x,y,z
-x,-y,z
1/2-x,1/2+y,z
1/2+x,1/2-y,z
loop_
_atom_site_type_symbol
_atom_site_label
_atom_site_fract_x
_atom_site_fract_y
_atom_site_fract_z
Si Si1 0.273419 0.214654 0.512430
Si Si2 0.500000 0.500000 0.508545
Si Si3 0.388961 0.402685 0.191527
Si Si4 0.690981 0.137395 0.510110
Si Si5 0.217702 0.980557 0.801591
Si Si6 0.184918 0.623159 0.900647
Si Si7 0.486579 0.179659 0.235259
Si Si8 0.396512 0.687892 0.159945
O O1 0.233012 0.288782 0.603277
O O2 0.332120 0.165534 0.686768
O O3 0.379092 0.224759 0.338620
O O4 0.158103 0.178422 0.397438
O O5 0.480571 0.435145 0.360768
O O6 0.380871 0.513251 0.646042
O O7 0.267901 0.378517 0.302342
O O8 0.470210 0.340844 0.107668
O O9 0.352865 0.454092 0.006091
O O10 0.706394 0.080616 0.692255
O O11 0.553302 0.136677 0.421916
O O12 0.307581 0.041905 0.862291
O O13 0.069268 0.631327 0.054131
O O14 0.308165 0.653370 0.993976
O O15 0.586058 0.230222 0.128703
#
# Coordination Sequence:
#
# PCOD8170454 Si02
#       8
#     4   2   4   4   4   4   4   4
#     4  10  22  42  66  95 130 170 221 271 331 387
#     4  10  20  36  60  96 132 168 202 272 326 394
#     4  11  21  39  67  93 134 165 218 268 331 397
#     4  10  24  42  66  96 132 173 221 275 327 393
#     4  11  24  40  64 101 133 174 219 269 343 399
#     4  11  24  41  67  96 130 171 220 270 332 398
#     4  10  23  43  65  95 128 174 224 271 328 389
#     4  10  21  38  65  96 127 164 215 274 328 384
#
# _framework density 21.945805
#
# number of rings (size 3 to 8) (size 9 to 14) (size 15 to 20)
#    0.000    1.600    1.333    2.800    1.867    7.467 
#    0.000    4.000    0.000    0.000    0.000    0.000 
#    0.000    0.000    0.000    0.000    0.000    0.000 
#
# Total GULP energy -371911.597593 kJ/mol
# GULP energy per Si atom -12397.053253 kJ/mol
# Density = 2.189586 g / cm^3
# Si number density = 21.945805 Si / 1000 Ang^3
#
#
#
# Elastic Constant Matrix: (Units=GPa)
#
#
# Indices 1 2 3 4 5 6 
#
# 1 89.9815 41.4257 31.3435 0.0000 0.0000 0.0000
# 2 41.4257 111.2085 36.8389 0.0000 0.0000 0.0000
# 3 31.3435 36.8389 76.0576 0.0000 0.0000 0.0000
# 4 0.0000 0.0000 0.0000 23.2809 0.0000 0.0000
# 5 0.0000 0.0000 0.0000 0.0000 17.8995 0.0000
# 6 0.0000 0.0000 0.0000 0.0000 0.0000 36.9966
#
#
#
# Elastic Compliance Matrix: (Units=1/GPa)
#
#
# Indices 1 2 3 4 5 6 
#
# 1 0.014350 -0.004034 -0.003960 0.000000 0.000000 0.000000
# 2 -0.004034 0.011844 -0.004075 0.000000 0.000000 0.000000
# 3 -0.003960 -0.004075 0.016753 0.000000 0.000000 0.000000
# 4 0.000000 0.000000 0.000000 0.042954 0.000000 0.000000
# 5 0.000000 0.000000 0.000000 0.000000 0.055868 0.000000
# 6 0.000000 0.000000 0.000000 0.000000 0.000000 0.027029
#
#
# Mechanical properties :
#
#
# Convention : Reuss Voigt Hill
#
# Bulk Modulus (GPa) = 53.15953 55.16264 54.16108
# Shear Modulus (GPa) = 25.09977 26.81136 25.95557
#
# Velocity S-wave (km/s) = 3.38556 3.49909 3.44279
# Velocity P-wave (km/s) = 6.28954 6.44323 6.36685
#
# Compressibility (1/GPa) = 0.01881130
#
# Stress axis : x y z
#
# Youngs Moduli (GPa) = 69.68770 84.42793 59.68943
#
# Poissons Ratio (x) = 0.34055 0.23636
# Poissons Ratio (y) = 0.28109 0.24321
# Poissons Ratio (z) = 0.27595 0.34401
#
# Static dielectric constant tensor:
#      x y z
#    x 3.998920 0.000000 0.000000 
#    y 0.000000 3.857880 0.000000 
#    z 0.000000 0.000000 3.891200 
# 
# 
# High freq. dielectric constant tensor:
#      x y z
#    x 1.865920 0.000000 0.000000 
#    y 0.000000 1.858110 0.000000 
#    z 0.000000 0.000000 1.857800 
# 
# From -- ./inp_files/1019.got.cif
#   From: 2010.03.12/outbox.cif.g09.slc.cpg/sg32_1_cif.got.tgz:1019.got - 2010.04.14 01:46:39.
