data_PCOD8170790
_publ_section_title
;
Structure prediction by ZEFSAII (Michael W. Deem and Ramdas Pophale) SiO2 
 PCOD8170790
Probable space group: P N A 21
;
_chemical_formula_sum "Si O2"
_cell_formula_units_Z 32
_cell_length_a 14.461339
_cell_length_b 13.482289
_cell_length_c 8.639257
_cell_angle_alpha 90.000000
_cell_angle_beta 90.000000
_cell_angle_gamma 90.000000
_cell_volume 1684.412799
_symmetry_space_group_name_H-M "P N A 21"
_symmetry_group_IT_number 33
_symmetry_cell_setting 'orthorhombic'
loop_
_space_group_symop_operation_xyz
x,y,z
-x,-y,1/2+z
1/2-x,1/2+y,1/2+z
1/2+x,1/2-y,z
loop_
_atom_site_type_symbol
_atom_site_label
_atom_site_fract_x
_atom_site_fract_y
_atom_site_fract_z
Si Si1 0.322930 0.754015 0.664020
Si Si2 0.210202 0.610786 0.149882
Si Si3 0.765587 0.420530 0.985654
Si Si4 0.429216 0.048043 0.223829
Si Si5 0.207588 0.867224 0.892955
Si Si6 0.603903 0.058601 0.029809
Si Si7 0.357874 0.733784 0.999374
Si Si8 0.058217 0.723201 0.958133
O O1 0.300729 0.660820 0.558318
O O2 0.237435 0.823560 0.723507
O O3 0.388655 0.824019 0.559814
O O4 0.372074 0.707738 0.816370
O O5 0.191656 0.627207 0.331371
O O6 0.194813 0.496826 0.097373
O O7 0.314189 0.642442 0.096247
O O8 0.132454 0.674751 0.068938
O O9 0.842265 0.446336 0.110859
O O10 0.708075 0.514956 0.920020
O O11 0.516235 0.014480 0.122411
O O12 0.451482 0.152852 0.307186
O O13 0.408665 0.961914 0.348112
O O14 0.284571 0.824576 0.015139
O O15 0.102339 0.830194 0.916874
O O16 0.461614 0.763051 0.051621
#
# Coordination Sequence:
#
# PCOD8170790 Si02
#       8
#     4   4   4   4   4   4   4   4
#     4  10  20  39  58  87 123 161 200 256 322 376
#     4  10  21  35  60  89 123 157 204 258 318 374
#     4  12  22  39  60  88 129 166 205 258 316 387
#     4  11  22  36  62  96 120 159 214 266 321 377
#     4   9  20  38  61  87 122 159 203 256 314 365
#     4  11  21  37  60  95 120 156 209 268 316 375
#     4   9  19  40  61  85 122 163 201 258 314 376
#     4  10  19  40  64  87 121 161 204 256 321 374
#
# _framework density 18.997717999999999
#
# number of rings (size 3 to 8) (size 9 to 14) (size 15 to 20)
#    0.750    1.000    3.750    1.500    3.500    2.000 
#    2.250    1.250    2.750    0.000    0.000    0.000 
#    0.000    0.000    0.000    0.000    0.000    0.000 
#
# Total GULP energy -396432.329111 kJ/mol
# GULP energy per Si atom -12388.510285 kJ/mol
# Density = 1.895448 g / cm^3
# Si number density = 18.997718 Si / 1000 Ang^3
#
#
#
# Elastic Constant Matrix: (Units=GPa)
#
#
# Indices 1 2 3 4 5 6 
#
# 1 79.5019 16.3849 16.4376 0.0000 0.0000 0.0000
# 2 16.3849 75.9625 24.9455 0.0000 0.0000 0.0000
# 3 16.4376 24.9455 94.8190 0.0000 0.0000 0.0000
# 4 0.0000 0.0000 0.0000 28.9253 0.0000 0.0000
# 5 0.0000 0.0000 0.0000 0.0000 26.5885 0.0000
# 6 0.0000 0.0000 0.0000 0.0000 0.0000 16.0183
#
#
#
# Elastic Compliance Matrix: (Units=1/GPa)
#
#
# Indices 1 2 3 4 5 6 
#
# 1 0.013413 -0.002331 -0.001712 0.000000 0.000000 0.000000
# 2 -0.002331 0.014814 -0.003493 0.000000 0.000000 0.000000
# 3 -0.001712 -0.003493 0.011762 0.000000 0.000000 0.000000
# 4 0.000000 0.000000 0.000000 0.034572 0.000000 0.000000
# 5 0.000000 0.000000 0.000000 0.000000 0.037610 0.000000
# 6 0.000000 0.000000 0.000000 0.000000 0.000000 0.062429
#
#
# Mechanical properties :
#
#
# Convention : Reuss Voigt Hill
#
# Bulk Modulus (GPa) = 40.13349 40.64659 40.39004
# Shear Modulus (GPa) = 25.25534 27.14078 26.19806
#
# Velocity S-wave (km/s) = 3.65003 3.78383 3.71753
# Velocity P-wave (km/s) = 6.23979 6.36646 6.30344
#
# Compressibility (1/GPa) = 0.02491684
#
# Stress axis : x y z
#
# Youngs Moduli (GPa) = 74.55648 67.50213 85.01777
#
# Poissons Ratio (x) = 0.15734 0.14555
# Poissons Ratio (y) = 0.17378 0.29700
# Poissons Ratio (z) = 0.12764 0.23581
#
# Static dielectric constant tensor:
#      x y z
#    x 3.378460 0.000000 0.000000 
#    y 0.000000 3.620510 0.000000 
#    z 0.000000 0.000000 3.448190 
# 
# 
# High freq. dielectric constant tensor:
#      x y z
#    x 1.719840 0.000000 0.000000 
#    y 0.000000 1.726230 0.000000 
#    z 0.000000 0.000000 1.733220 
# 
# From -- ./inp_files/4405.got.cif
#   From: 2010.03.12/outbox.cif.g09.slc.cpg/sg33_3_cif.got.tgz:4405.got - 2010.04.14 01:49:19.
