data_PCOD8170027
_publ_section_title
;
Structure prediction by ZEFSAII (Michael W. Deem and Ramdas Pophale) SiO2 
 PCOD8170027
Probable space group: P M N 21
;
_chemical_formula_sum "Si O2"
_cell_formula_units_Z 32
_cell_length_a 14.999758
_cell_length_b 11.457565
_cell_length_c 9.148933
_cell_angle_alpha 90.000000
_cell_angle_beta 90.000000
_cell_angle_gamma 90.000000
_cell_volume 1572.342050
_symmetry_space_group_name_H-M "P M N 21"
_symmetry_group_IT_number 31
_symmetry_cell_setting 'orthorhombic'
loop_
_space_group_symop_operation_xyz
x,y,z
1/2-x,-y,1/2+z
-x,y,z
1/2+x,-y,1/2+z
loop_
_atom_site_type_symbol
_atom_site_label
_atom_site_fract_x
_atom_site_fract_y
_atom_site_fract_z
Si Si1 0.717848 0.294109 0.345440
Si Si2 0.097446 0.795395 0.074697
Si Si3 0.331625 0.231159 0.881800
Si Si4 0.603073 0.414263 0.106814
Si Si5 0.839306 0.160076 0.734886
Si Si6 0.899687 0.330124 0.490824
Si Si7 0.276719 0.087052 0.140303
Si Si8 0.095374 0.060600 0.017691
O O1 0.671765 0.290779 0.505478
O O2 0.667995 0.388005 0.243632
O O3 0.823067 0.322698 0.365619
O O4 0.699052 0.166257 0.278189
O O5 0.101464 0.797164 0.250465
O O6 0.000000 0.747720 0.030737
O O7 0.111018 0.922982 0.008287
O O8 0.232624 0.244481 0.813276
O O9 0.360879 0.349394 0.962221
O O10 0.334489 0.124189 0.998148
O O11 0.500000 0.377792 0.139109
O O12 0.610862 0.550793 0.079373
O O13 0.890466 0.225254 0.606202
O O14 0.786644 0.049731 0.667047
O O15 0.908435 0.111611 0.853293
O O16 0.000000 0.322912 0.421641
O O17 0.173348 0.118834 0.110853
O O18 0.000000 0.089161 0.091885
#
# Coordination Sequence:
#
# PCOD8170027 Si02
#       8
#     4   4   4   4   4   4   4   4
#     4  11  22  41  66  88 124 167 207 261 323 375
#     4  11  20  34  59  94 122 158 209 259 310 373
#     4  10  21  37  62  88 121 167 203 261 318 369
#     4  10  24  45  64  92 126 163 216 273 319 378
#     4  11  20  38  61  88 128 168 203 250 323 386
#     4  11  25  41  65  94 128 168 218 266 319 384
#     4  10  21  37  59  88 125 163 202 248 314 388
#     4  10  20  33  54  84 122 156 199 250 301 371
#
# _framework density 20.351804999999999
#
# number of rings (size 3 to 8) (size 9 to 14) (size 15 to 20)
#    0.000    1.500    3.750    1.125    3.500    0.500 
#    0.000    3.125    0.000    0.750    0.000    0.000 
#    0.000    0.000    0.000    0.000    0.000    0.000 
#
# Total GULP energy -396665.857703 kJ/mol
# GULP energy per Si atom -12395.808053 kJ/mol
# Density = 2.030548 g / cm^3
# Si number density = 20.351805 Si / 1000 Ang^3
#
#
#
# Elastic Constant Matrix: (Units=GPa)
#
#
# Indices 1 2 3 4 5 6 
#
# 1 119.7628 36.1609 42.2164 0.0000 0.0000 0.0000
# 2 36.1609 79.6140 30.4742 0.0000 0.0000 0.0000
# 3 42.2164 30.4742 93.7850 0.0000 0.0000 0.0000
# 4 0.0000 0.0000 0.0000 19.3832 0.0000 0.0000
# 5 0.0000 0.0000 0.0000 0.0000 29.1430 0.0000
# 6 0.0000 0.0000 0.0000 0.0000 0.0000 19.1955
#
#
#
# Elastic Compliance Matrix: (Units=1/GPa)
#
#
# Indices 1 2 3 4 5 6 
#
# 1 0.010691 -0.003442 -0.003694 0.000000 0.000000 0.000000
# 2 -0.003442 0.015453 -0.003472 0.000000 0.000000 0.000000
# 3 -0.003694 -0.003472 0.013454 0.000000 0.000000 0.000000
# 4 0.000000 0.000000 0.000000 0.051591 0.000000 0.000000
# 5 0.000000 0.000000 0.000000 0.000000 0.034314 0.000000
# 6 0.000000 0.000000 0.000000 0.000000 0.000000 0.052096
#
#
# Mechanical properties :
#
#
# Convention : Reuss Voigt Hill
#
# Bulk Modulus (GPa) = 54.40126 56.76277 55.58201
# Shear Modulus (GPa) = 24.39721 25.83169 25.11445
#
# Velocity S-wave (km/s) = 3.46609 3.56653 3.51667
# Velocity P-wave (km/s) = 6.54269 6.70160 6.62262
#
# Compressibility (1/GPa) = 0.01838193
#
# Stress axis : x y z
#
# Youngs Moduli (GPa) = 93.53406 64.71278 74.32899
#
# Poissons Ratio (x) = 0.22274 0.27458
# Poissons Ratio (y) = 0.32194 0.25806
# Poissons Ratio (z) = 0.34553 0.22467
#
# Static dielectric constant tensor:
#      x y z
#    x 3.886350 0.000000 0.000000 
#    y 0.000000 3.402470 0.000000 
#    z 0.000000 0.000000 3.637610 
# 
# 
# High freq. dielectric constant tensor:
#      x y z
#    x 1.805820 0.000000 0.000000 
#    y 0.000000 1.772220 0.000000 
#    z 0.000000 0.000000 1.793180 
# 
# From -- ./inp_files/2536.got.cif
#   From: 2010.03.12/outbox.cif.g09.slc.cpg/sg31_2_cif.got.tgz:2536.got - 2010.04.14 01:42:59.
