data_PCOD8170954
_publ_section_title
;
Structure prediction by ZEFSAII (Michael W. Deem and Ramdas Pophale) SiO2 
 PCOD8170954
Probable space group: P N A 21
;
_chemical_formula_sum "Si O2"
_cell_formula_units_Z 24
_cell_length_a 5.177698
_cell_length_b 19.944147
_cell_length_c 11.184410
_cell_angle_alpha 90.000000
_cell_angle_beta 90.000000
_cell_angle_gamma 90.000000
_cell_volume 1154.955527
_symmetry_space_group_name_H-M "P N A 21"
_symmetry_group_IT_number 33
_symmetry_cell_setting 'orthorhombic'
loop_
_space_group_symop_operation_xyz
x,y,z
-x,-y,1/2+z
1/2-x,1/2+y,1/2+z
1/2+x,1/2-y,z
loop_
_atom_site_type_symbol
_atom_site_label
_atom_site_fract_x
_atom_site_fract_y
_atom_site_fract_z
Si Si1 0.255740 0.085854 0.866950
Si Si2 0.430222 0.222824 0.780765
Si Si3 0.750670 0.061459 0.012396
Si Si4 0.255742 0.585853 0.929945
Si Si5 0.569775 0.277177 0.516140
Si Si6 0.749328 0.061458 0.284499
O O1 0.316574 0.147671 0.778469
O O2 0.477141 0.086086 0.965646
O O3 0.982140 0.093468 0.934467
O O4 0.269333 0.019171 0.787693
O O5 0.208764 0.269019 0.846108
O O6 0.500015 0.250003 0.648456
O O7 0.769334 0.980829 0.009200
O O8 0.750000 0.085920 0.148447
O O9 0.316573 0.647670 0.018427
O O10 0.477145 0.586087 0.831250
O O11 0.982143 0.593467 0.862427
O O12 0.291231 0.269019 0.450800
#
# Coordination Sequence:
#
# PCOD8170954 Si02
#       6
#     4   4   4   4   4   4
#     4  10  21  38  57  90 123 149 208 245 301 363
#     4  10  21  36  57  88 118 158 186 250 305 348
#     4  10  21  37  61  85 118 166 191 255 298 354
#     4  10  21  38  57  90 123 149 208 245 301 363
#     4  10  21  36  57  88 118 158 186 250 305 348
#     4  10  21  37  61  85 118 166 191 255 298 354
#
# _framework density 20.780021000000001
#
# number of rings (size 3 to 8) (size 9 to 14) (size 15 to 20)
#    0.000    2.000    0.000    3.000    4.667    0.000 
#   12.000    0.000    0.000   20.000    0.000    0.000 
#    0.000    0.000    0.000    0.000    0.000    0.000 
#
# Total GULP energy -297315.832736 kJ/mol
# GULP energy per Si atom -12388.159697 kJ/mol
# Density = 2.073272 g / cm^3
# Si number density = 20.780021 Si / 1000 Ang^3
#
#
#
# Elastic Constant Matrix: (Units=GPa)
#
#
# Indices 1 2 3 4 5 6 
#
# 1 141.9343 18.2962 1.2105 0.0000 0.0000 0.0000
# 2 18.2962 100.4644 13.6963 0.0000 0.0000 0.0000
# 3 1.2105 13.6963 66.4759 0.0000 0.0000 0.0000
# 4 0.0000 0.0000 0.0000 22.5346 0.0000 0.0000
# 5 0.0000 0.0000 0.0000 0.0000 16.3502 0.0000
# 6 0.0000 0.0000 0.0000 0.0000 0.0000 30.5155
#
#
#
# Elastic Compliance Matrix: (Units=1/GPa)
#
#
# Indices 1 2 3 4 5 6 
#
# 1 0.007216 -0.001334 0.000143 0.000000 0.000000 0.000000
# 2 -0.001334 0.010488 -0.002137 0.000000 0.000000 0.000000
# 3 0.000143 -0.002137 0.015481 0.000000 0.000000 0.000000
# 4 0.000000 0.000000 0.000000 0.044376 0.000000 0.000000
# 5 0.000000 0.000000 0.000000 0.000000 0.061161 0.000000
# 6 0.000000 0.000000 0.000000 0.000000 0.000000 0.032770
#
#
# Mechanical properties :
#
#
# Convention : Reuss Voigt Hill
#
# Bulk Modulus (GPa) = 37.69185 41.69785 39.69485
# Shear Modulus (GPa) = 26.73936 32.25815 29.49876
#
# Velocity S-wave (km/s) = 3.59107 3.94428 3.77181
# Velocity P-wave (km/s) = 5.94746 6.39163 6.17354
#
# Compressibility (1/GPa) = 0.02653093
#
# Stress axis : x y z
#
# Youngs Moduli (GPa) = 138.57670 95.34750 64.59684
#
# Poissons Ratio (x) = 0.12717 -0.00926
# Poissons Ratio (y) = 0.18483 0.13802
# Poissons Ratio (z) = -0.01987 0.20372
#
# Static dielectric constant tensor:
#      x y z
#    x -14.013400 0.000000 0.000000 
#    y 0.000000 3.895770 0.000000 
#    z 0.000000 0.000000 4.315000 
# 
# 
# High freq. dielectric constant tensor:
#      x y z
#    x 1.855850 0.000000 0.000000 
#    y 0.000000 1.802160 0.000000 
#    z 0.000000 0.000000 1.772180 
# 
# From -- ./inp_files/5506.got.cif
#   From: 2010.03.12/outbox.cif.g09.slc.cpg/sg33_3_cif.got.tgz:5506.got - 2010.04.14 01:49:19.
