data_PCOD8170479
_publ_section_title
;
Structure prediction by ZEFSAII (Michael W. Deem and Ramdas Pophale) SiO2 
 PCOD8170479
Probable space group: P B A 2
;
_chemical_formula_sum "Si O2"
_cell_formula_units_Z 20
_cell_length_a 12.124955
_cell_length_b 12.475785
_cell_length_c 7.022345
_cell_angle_alpha 90.000000
_cell_angle_beta 90.000000
_cell_angle_gamma 90.000000
_cell_volume 1062.258413
_symmetry_space_group_name_H-M "P B A 2"
_symmetry_group_IT_number 32
_symmetry_cell_setting 'orthorhombic'
loop_
_space_group_symop_operation_xyz
x,y,z
-x,-y,z
1/2-x,1/2+y,z
1/2+x,1/2-y,z
loop_
_atom_site_type_symbol
_atom_site_label
_atom_site_fract_x
_atom_site_fract_y
_atom_site_fract_z
Si Si1 0.905386 0.423373 0.947740
Si Si2 0.408847 0.288408 0.773704
Si Si3 0.444603 0.759319 0.092678
Si Si4 0.760827 0.099614 0.066077
Si Si5 0.053783 0.890056 0.375096
O O1 0.864553 0.335382 0.791508
O O2 0.000000 0.500000 0.855471
O O3 0.802005 0.488134 0.029993
O O4 0.966289 0.357063 0.119381
O O5 0.415101 0.318563 0.555117
O O6 0.528021 0.292922 0.883677
O O7 0.328197 0.372469 0.876710
O O8 0.320951 0.801605 0.105946
O O9 0.461035 0.672462 0.256410
O O10 0.838360 0.086981 0.248957
O O11 0.000000 0.000000 0.446661
#
# Coordination Sequence:
#
# PCOD8170479 Si02
#       5
#     4   4   4   4   4
#     4   8  17  41  64  82 113 161 207 244 298 357
#     4   9  21  39  57  90 122 154 204 250 307 369
#     4   8  20  41  62  80 121 156 207 250 294 368
#     4  10  20  41  64  88 113 170 201 252 304 367
#     4  11  24  38  57  95 128 156 197 257 317 355
#
# _framework density 18.827809999999999
#
# number of rings (size 3 to 8) (size 9 to 14) (size 15 to 20)
#    1.200    1.600    0.000    0.000    2.800    4.800 
#    7.200    1.000    0.000    0.000    0.000    0.000 
#    0.000    0.000    0.000    0.000    0.000    0.000 
#
# Total GULP energy -247774.644067 kJ/mol
# GULP energy per Si atom -12388.732203 kJ/mol
# Density = 1.878496 g / cm^3
# Si number density = 18.827810 Si / 1000 Ang^3
#
#
#
# Elastic Constant Matrix: (Units=GPa)
#
#
# Indices 1 2 3 4 5 6 
#
# 1 77.2600 23.3732 29.5184 0.0000 0.0000 0.0000
# 2 23.3732 97.0066 40.3645 0.0000 0.0000 0.0000
# 3 29.5184 40.3645 111.8607 0.0000 0.0000 0.0000
# 4 0.0000 0.0000 0.0000 29.7616 0.0000 0.0000
# 5 0.0000 0.0000 0.0000 0.0000 5.8675 0.0000
# 6 0.0000 0.0000 0.0000 0.0000 0.0000 36.1664
#
#
#
# Elastic Compliance Matrix: (Units=1/GPa)
#
#
# Indices 1 2 3 4 5 6 
#
# 1 0.014813 -0.002286 -0.003084 0.000000 0.000000 0.000000
# 2 -0.002286 0.012483 -0.003901 0.000000 0.000000 0.000000
# 3 -0.003084 -0.003901 0.011161 0.000000 0.000000 0.000000
# 4 0.000000 0.000000 0.000000 0.033600 0.000000 0.000000
# 5 0.000000 0.000000 0.000000 0.000000 0.170430 0.000000
# 6 0.000000 0.000000 0.000000 0.000000 0.000000 0.027650
#
#
# Mechanical properties :
#
#
# Convention : Reuss Voigt Hill
#
# Bulk Modulus (GPa) = 50.21376 52.51549 51.36463
# Shear Modulus (GPa) = 16.93091 27.21719 22.07405
#
# Velocity S-wave (km/s) = 3.00200 3.80621 3.42777
# Velocity P-wave (km/s) = 6.22446 6.87527 6.55795
#
# Compressibility (1/GPa) = 0.01991486
#
# Stress axis : x y z
#
# Youngs Moduli (GPa) = 67.50744 80.11161 89.59573
#
# Poissons Ratio (x) = 0.18312 0.27633
# Poissons Ratio (y) = 0.15431 0.34952
# Poissons Ratio (z) = 0.20820 0.31252
#
# Static dielectric constant tensor:
#      x y z
#    x 3.341790 0.000000 0.000000 
#    y 0.000000 3.620510 0.000000 
#    z 0.000000 0.000000 3.011680 
# 
# 
# High freq. dielectric constant tensor:
#      x y z
#    x 1.727000 0.000000 0.000000 
#    y 0.000000 1.747320 0.000000 
#    z 0.000000 0.000000 1.694140 
# 
# From -- ./inp_files/794.got.cif
#   From: 2010.03.12/outbox.cif.g09.slc.cpg/sg32_1_cif.got.tgz:794.got - 2010.04.14 01:46:39.
