data_PCOD8170632
_publ_section_title
;
Structure prediction by ZEFSAII (Michael W. Deem and Ramdas Pophale) SiO2 
 PCOD8170632
Probable space group: P B A 2
;
_chemical_formula_sum "Si O2"
_cell_formula_units_Z 20
_cell_length_a 9.407127
_cell_length_b 8.809910
_cell_length_c 9.609882
_cell_angle_alpha 90.000000
_cell_angle_beta 90.000000
_cell_angle_gamma 90.000000
_cell_volume 796.428025
_symmetry_space_group_name_H-M "P B A 2"
_symmetry_group_IT_number 32
_symmetry_cell_setting 'orthorhombic'
loop_
_space_group_symop_operation_xyz
x,y,z
-x,-y,z
1/2-x,1/2+y,z
1/2+x,1/2-y,z
loop_
_atom_site_type_symbol
_atom_site_label
_atom_site_fract_x
_atom_site_fract_y
_atom_site_fract_z
Si Si1 0.256902 0.231804 0.190500
Si Si2 0.156430 0.561602 0.650404
Si Si3 0.387501 0.378795 0.771608
Si Si4 0.990486 0.666875 0.007292
Si Si5 0.341516 0.490896 0.384622
O O1 0.292540 0.330657 0.325077
O O2 0.160228 0.097941 0.249207
O O3 0.405240 0.162249 0.138669
O O4 0.170295 0.306475 0.061225
O O5 0.239161 0.475505 0.779434
O O6 0.147812 0.742959 0.666327
O O7 0.235896 0.534270 0.506961
O O8 0.000000 0.500000 0.638441
O O9 0.500000 0.500000 0.711273
O O10 0.454177 0.304876 0.910550
O O11 0.000000 0.500000 0.932860
O O12 0.500000 0.500000 0.445674
#
# Coordination Sequence:
#
# PCOD8170632 Si02
#       5
#     4   4   4   4   4
#     4  12  27  47  78 118 158 210 261 330 407 483
#     4  12  29  51  82 117 158 215 277 340 410 483
#     4  12  30  53  81 118 160 213 272 341 408 487
#     4  12  29  49  80 118 166 214 268 332 406 493
#     4  12  27  50  79 115 161 207 267 336 402 486
#
# _framework density 25.112124000000001
#
# number of rings (size 3 to 8) (size 9 to 14) (size 15 to 20)
#    0.000    0.000    4.000    3.600   14.000    3.200 
#    0.000    0.000    0.000    0.000    0.000    0.000 
#    0.000    0.000    0.000    0.000    0.000    0.000 
#
# Total GULP energy -247947.194087 kJ/mol
# GULP energy per Si atom -12397.359704 kJ/mol
# Density = 2.505497 g / cm^3
# Si number density = 25.112124 Si / 1000 Ang^3
#
#
#
# Elastic Constant Matrix: (Units=GPa)
#
#
# Indices 1 2 3 4 5 6 
#
# 1 187.0615 54.0738 32.3509 0.0000 0.0000 0.0000
# 2 54.0738 151.9932 26.0377 0.0000 0.0000 0.0000
# 3 32.3509 26.0377 86.9082 0.0000 0.0000 0.0000
# 4 0.0000 0.0000 0.0000 25.5347 0.0000 0.0000
# 5 0.0000 0.0000 0.0000 0.0000 -14.9253 0.0000
# 6 0.0000 0.0000 0.0000 0.0000 0.0000 41.6783
#
#
#
# Elastic Compliance Matrix: (Units=1/GPa)
#
#
# Indices 1 2 3 4 5 6 
#
# 1 0.006197 -0.001908 -0.001735 0.000000 0.000000 0.000000
# 2 -0.001908 0.007522 -0.001544 0.000000 0.000000 0.000000
# 3 -0.001735 -0.001544 0.012615 0.000000 0.000000 0.000000
# 4 0.000000 0.000000 0.000000 0.039162 0.000000 0.000000
# 5 0.000000 0.000000 0.000000 0.000000 -0.067000 0.000000
# 6 0.000000 0.000000 0.000000 0.000000 0.000000 0.023993
#
#
# Mechanical properties :
#
#
# Convention : Reuss Voigt Hill
#
# Bulk Modulus (GPa) = 62.65114 72.32085 67.48599
# Shear Modulus (GPa) = 130.94650 31.35756 81.15203
#
# Velocity S-wave (km/s) = 7.22897 3.53753 5.69087
# Velocity P-wave (km/s) = 9.73036 6.74887 8.37339
#
# Compressibility (1/GPa) = 0.01596140
#
# Stress axis : x y z
#
# Youngs Moduli (GPa) = 161.35879 132.93800 79.27151
#
# Poissons Ratio (x) = 0.25358 0.13757
# Poissons Ratio (y) = 0.30779 0.12237
# Poissons Ratio (z) = 0.28003 0.20521
#
# Static dielectric constant tensor:
#      x y z
#    x 4.750210 0.000000 0.000000 
#    y 0.000000 4.909750 0.000000 
#    z 0.000000 0.000000 4.227760 
# 
# 
# High freq. dielectric constant tensor:
#      x y z
#    x 2.019970 0.000000 0.000000 
#    y 0.000000 2.016150 0.000000 
#    z 0.000000 0.000000 2.000510 
# 
# From -- ./inp_files/3633.got.cif
#   From: 2010.03.12/outbox.cif.g09.slc.cpg/sg32_2_cif.got.tgz:3633.got - 2010.04.14 01:46:39.
