data_PCOD8170940
_publ_section_title
;
Structure prediction by ZEFSAII (Michael W. Deem and Ramdas Pophale) SiO2 
 PCOD8170940
Probable space group: P N A 21
;
_chemical_formula_sum "Si O2"
_cell_formula_units_Z 20
_cell_length_a 13.606012
_cell_length_b 9.748597
_cell_length_c 7.431021
_cell_angle_alpha 90.000000
_cell_angle_beta 90.000000
_cell_angle_gamma 90.000000
_cell_volume 985.647116
_symmetry_space_group_name_H-M "P N A 21"
_symmetry_group_IT_number 33
_symmetry_cell_setting 'orthorhombic'
loop_
_space_group_symop_operation_xyz
x,y,z
-x,-y,1/2+z
1/2-x,1/2+y,1/2+z
1/2+x,1/2-y,z
loop_
_atom_site_type_symbol
_atom_site_label
_atom_site_fract_x
_atom_site_fract_y
_atom_site_fract_z
Si Si1 0.945179 0.400171 0.932170
Si Si2 0.924515 0.351540 0.520326
Si Si3 0.920533 0.085784 0.323339
Si Si4 0.792453 0.310500 0.213608
Si Si5 0.918316 0.841808 0.564905
O O1 0.908297 0.370509 0.731162
O O2 0.849082 0.390874 0.055446
O O3 0.988201 0.552965 0.944198
O O4 0.030929 0.297102 0.996926
O O5 0.954857 0.193764 0.479154
O O6 0.823996 0.381919 0.404767
O O7 0.827641 0.151237 0.216557
O O8 0.009935 0.066762 0.186026
O O9 0.889208 0.937829 0.397288
O O10 0.677004 0.308861 0.183162
#
# Coordination Sequence:
#
# PCOD8170940 Si02
#       5
#     4   4   4   4   4
#     4  11  20  41  66  90 125 173 209 264 316 374
#     4  10  20  43  62  89 126 162 216 256 310 381
#     4   9  22  40  61  91 129 163 205 262 323 366
#     4   9  23  41  61  93 126 165 220 251 318 390
#     4  11  21  43  64  93 132 163 212 267 317 383
#
# _framework density 20.291238
#
# number of rings (size 3 to 8) (size 9 to 14) (size 15 to 20)
#    1.200    0.800    2.000    1.200    0.000    3.200 
#   18.000    0.000    0.000    0.000    0.000    0.000 
#    0.000    0.000    0.000    0.000    0.000    0.000 
#
# Total GULP energy -247842.788111 kJ/mol
# GULP energy per Si atom -12392.139406 kJ/mol
# Density = 2.024505 g / cm^3
# Si number density = 20.291238 Si / 1000 Ang^3
#
#
#
# Elastic Constant Matrix: (Units=GPa)
#
#
# Indices 1 2 3 4 5 6 
#
# 1 100.6021 13.8710 39.7450 0.0000 0.0000 0.0000
# 2 13.8710 51.8570 -2.9255 0.0000 0.0000 0.0000
# 3 39.7450 -2.9255 122.1096 0.0000 0.0000 0.0000
# 4 0.0000 0.0000 0.0000 32.6187 0.0000 0.0000
# 5 0.0000 0.0000 0.0000 0.0000 28.5355 0.0000
# 6 0.0000 0.0000 0.0000 0.0000 0.0000 11.1806
#
#
#
# Elastic Compliance Matrix: (Units=1/GPa)
#
#
# Indices 1 2 3 4 5 6 
#
# 1 0.011987 -0.003431 -0.003984 0.000000 0.000000 0.000000
# 2 -0.003431 0.020292 0.001603 0.000000 0.000000 0.000000
# 3 -0.003984 0.001603 0.009524 0.000000 0.000000 0.000000
# 4 0.000000 0.000000 0.000000 0.030657 0.000000 0.000000
# 5 0.000000 0.000000 0.000000 0.000000 0.035044 0.000000
# 6 0.000000 0.000000 0.000000 0.000000 0.000000 0.089440
#
#
# Mechanical properties :
#
#
# Convention : Reuss Voigt Hill
#
# Bulk Modulus (GPa) = 33.13505 41.77217 37.45361
# Shear Modulus (GPa) = 22.86977 29.39219 26.13098
#
# Velocity S-wave (km/s) = 3.36084 3.81007 3.59248
# Velocity P-wave (km/s) = 5.60584 6.32349 5.97545
#
# Compressibility (1/GPa) = 0.03017952
#
# Stress axis : x y z
#
# Youngs Moduli (GPa) = 83.42275 49.28052 104.99284
#
# Poissons Ratio (x) = 0.16909 0.41828
# Poissons Ratio (y) = 0.28623 -0.16830
# Poissons Ratio (z) = 0.33234 -0.07899
#
# Static dielectric constant tensor:
#      x y z
#    x 3.305300 0.000000 0.000000 
#    y 0.000000 3.530380 0.000000 
#    z 0.000000 0.000000 3.707040 
# 
# 
# High freq. dielectric constant tensor:
#      x y z
#    x 1.770840 0.000000 0.000000 
#    y 0.000000 1.787040 0.000000 
#    z 0.000000 0.000000 1.799350 
# 
# From -- ./inp_files/4211.got.cif
#   From: 2010.03.12/outbox.cif.g09.slc.cpg/sg33_3_cif.got.tgz:4211.got - 2010.04.14 01:49:19.
