data_PCOD8170946
_publ_section_title
;
Structure prediction by ZEFSAII (Michael W. Deem and Ramdas Pophale) SiO2 
 PCOD8170946
Probable space group: P N A 21
;
_chemical_formula_sum "Si O2"
_cell_formula_units_Z 24
_cell_length_a 5.542598
_cell_length_b 15.668950
_cell_length_c 10.484401
_cell_angle_alpha 90.000000
_cell_angle_beta 90.000000
_cell_angle_gamma 90.000000
_cell_volume 910.535533
_symmetry_space_group_name_H-M "P N A 21"
_symmetry_group_IT_number 33
_symmetry_cell_setting 'orthorhombic'
loop_
_space_group_symop_operation_xyz
x,y,z
-x,-y,1/2+z
1/2-x,1/2+y,1/2+z
1/2+x,1/2-y,z
loop_
_atom_site_type_symbol
_atom_site_label
_atom_site_fract_x
_atom_site_fract_y
_atom_site_fract_z
Si Si1 0.535254 0.228842 0.912410
Si Si2 0.170311 0.516182 0.178604
Si Si3 0.033837 0.122863 0.097664
Si Si4 0.921686 0.454967 0.950029
Si Si5 0.739716 0.798453 0.820167
Si Si6 0.239623 0.199762 0.615460
O O1 0.272457 0.234543 0.835775
O O2 0.588078 0.130944 0.949709
O O3 0.463047 0.283433 0.039653
O O4 0.321953 0.431832 0.155459
O O5 0.047499 0.497949 0.315349
O O6 0.297199 0.608798 0.187633
O O7 0.986169 0.522154 0.060515
O O8 0.231980 0.128067 0.212431
O O9 0.146643 0.072273 0.977533
O O10 0.482087 0.756736 0.791838
O O11 0.760792 0.826764 0.966388
O O12 0.505293 0.241180 0.649371
#
# Coordination Sequence:
#
# PCOD8170946 Si02
#       6
#     4   4   4   4   4   4
#     4  10  20  44  72 111 145 199 255 316 383 468
#     4  12  29  49  77 114 158 212 268 337 403 484
#     4  11  25  43  76 110 156 200 265 318 397 476
#     4  11  28  47  76 113 156 206 260 334 401 475
#     4  10  22  41  76 108 150 199 257 320 393 475
#     4  10  26  50  75 110 155 212 263 333 407 484
#
# _framework density 26.358115999999999
#
# number of rings (size 3 to 8) (size 9 to 14) (size 15 to 20)
#    0.000    1.333    1.667    2.000    9.333    4.000 
#    0.000    0.000    0.000    0.000    0.000    0.000 
#    0.000    0.000    0.000    0.000    0.000    0.000 
#
# Total GULP energy -297363.222788 kJ/mol
# GULP energy per Si atom -12390.134283 kJ/mol
# Density = 2.629812 g / cm^3
# Si number density = 26.358116 Si / 1000 Ang^3
#
#
#
# Elastic Constant Matrix: (Units=GPa)
#
#
# Indices 1 2 3 4 5 6 
#
# 1 100.4707 36.2948 64.1977 0.0000 0.0000 0.0000
# 2 36.2948 85.7752 50.0587 0.0000 0.0000 0.0000
# 3 64.1977 50.0587 155.9176 0.0000 0.0000 0.0000
# 4 0.0000 0.0000 0.0000 43.6428 0.0000 0.0000
# 5 0.0000 0.0000 0.0000 0.0000 45.5616 0.0000
# 6 0.0000 0.0000 0.0000 0.0000 0.0000 30.9474
#
#
#
# Elastic Compliance Matrix: (Units=1/GPa)
#
#
# Indices 1 2 3 4 5 6 
#
# 1 0.014183 -0.003191 -0.004815 0.000000 0.000000 0.000000
# 2 -0.003191 0.015065 -0.003523 0.000000 0.000000 0.000000
# 3 -0.004815 -0.003523 0.009527 0.000000 0.000000 0.000000
# 4 0.000000 0.000000 0.000000 0.022913 0.000000 0.000000
# 5 0.000000 0.000000 0.000000 0.000000 0.021948 0.000000
# 6 0.000000 0.000000 0.000000 0.000000 0.000000 0.032313
#
#
# Mechanical properties :
#
#
# Convention : Reuss Voigt Hill
#
# Bulk Modulus (GPa) = 63.62689 71.47399 67.55044
# Shear Modulus (GPa) = 34.66318 36.80451 35.73385
#
# Velocity S-wave (km/s) = 3.63035 3.74080 3.68599
# Velocity P-wave (km/s) = 6.46253 6.77004 6.61807
#
# Compressibility (1/GPa) = 0.01571663
#
# Stress axis : x y z
#
# Youngs Moduli (GPa) = 70.50895 66.38116 104.96299
#
# Poissons Ratio (x) = 0.21183 0.50540
# Poissons Ratio (y) = 0.22500 0.36975
# Poissons Ratio (z) = 0.33950 0.23384
#
# Static dielectric constant tensor:
#      x y z
#    x 4.819460 0.000000 0.000000 
#    y 0.000000 4.589410 0.000000 
#    z 0.000000 0.000000 5.703540 
# 
# 
# High freq. dielectric constant tensor:
#      x y z
#    x 2.059270 0.000000 0.000000 
#    y 0.000000 2.039910 0.000000 
#    z 0.000000 0.000000 2.098140 
# 
# From -- ./inp_files/5438.got.cif
#   From: 2010.03.12/outbox.cif.g09.slc.cpg/sg33_3_cif.got.tgz:5438.got - 2010.04.14 01:49:19.
