data_PCOD8170059
_publ_section_title
;
Structure prediction by ZEFSAII (Michael W. Deem and Ramdas Pophale) SiO2 
 PCOD8170059
Probable space group: P M N 21
;
_chemical_formula_sum "Si O2"
_cell_formula_units_Z 32
_cell_length_a 9.026966
_cell_length_b 14.588732
_cell_length_c 12.612992
_cell_angle_alpha 90.000000
_cell_angle_beta 90.000000
_cell_angle_gamma 90.000000
_cell_volume 1661.029988
_symmetry_space_group_name_H-M "P M N 21"
_symmetry_group_IT_number 31
_symmetry_cell_setting 'orthorhombic'
loop_
_space_group_symop_operation_xyz
x,y,z
1/2-x,-y,1/2+z
-x,y,z
1/2+x,-y,1/2+z
loop_
_atom_site_type_symbol
_atom_site_label
_atom_site_fract_x
_atom_site_fract_y
_atom_site_fract_z
Si Si1 0.663003 0.824897 0.264470
Si Si2 0.323579 0.938991 0.463986
Si Si3 0.825825 0.864805 0.889844
Si Si4 0.825575 0.740441 0.079107
Si Si5 0.327058 0.365690 0.076390
Si Si6 0.677289 0.170600 0.153614
Si Si7 0.673337 0.557953 0.153747
Si Si8 0.839865 0.369125 0.870091
O O1 0.500000 0.862746 0.230491
O O2 0.731568 0.887671 0.357207
O O3 0.769005 0.817586 0.162457
O O4 0.643234 0.724300 0.308241
O O5 0.500000 0.927719 0.477578
O O6 0.245682 0.898651 0.568056
O O7 0.270055 0.043445 0.448831
O O8 0.761729 0.855478 0.770560
O O9 0.000000 0.872075 0.877670
O O10 0.783054 0.777099 0.961750
O O11 0.755177 0.640341 0.092903
O O12 0.000000 0.731511 0.094507
O O13 0.500000 0.368427 0.095113
O O14 0.263853 0.274108 0.131679
O O15 0.257517 0.460218 0.119652
O O16 0.292248 0.362504 0.952342
O O17 0.500000 0.165249 0.144779
O O18 0.500000 0.567078 0.125594
O O19 0.700355 0.556961 0.280164
O O20 0.000000 0.392200 0.923967
#
# Coordination Sequence:
#
# PCOD8170059 Si02
#       8
#     4   4   4   4   4   4   4   4
#     4   9  18  33  55  78 106 143 179 224 278 330
#     4  10  20  37  58  80 109 146 184 225 274 334
#     4   9  21  38  56  81 116 151 182 225 285 336
#     4  10  20  35  56  82 111 144 188 235 273 323
#     4  10  20  34  55  80 108 140 181 231 275 323
#     4  10  21  38  58  83 113 146 185 231 282 333
#     4   9  20  37  54  77 110 150 187 224 279 339
#     4   9  17  32  52  75 103 138 180 221 270 328
#
# _framework density 19.265153999999999
#
# number of rings (size 3 to 8) (size 9 to 14) (size 15 to 20)
#    0.000    2.500    1.250    1.125    1.750    4.000 
#    0.000    5.000    0.000    0.000    0.000    0.000 
#    0.000    0.000    0.000    0.000    0.000    0.000 
#
# Total GULP energy -396595.981749 kJ/mol
# GULP energy per Si atom -12393.624430 kJ/mol
# Density = 1.922131 g / cm^3
# Si number density = 19.265154 Si / 1000 Ang^3
#
#
#
# Elastic Constant Matrix: (Units=GPa)
#
#
# Indices 1 2 3 4 5 6 
#
# 1 38.8115 31.5805 35.4641 0.0000 0.0000 0.0000
# 2 31.5805 113.5327 75.2816 0.0000 0.0000 0.0000
# 3 35.4641 75.2816 133.7668 0.0000 0.0000 0.0000
# 4 0.0000 0.0000 0.0000 18.0205 0.0000 0.0000
# 5 0.0000 0.0000 0.0000 0.0000 30.0031 0.0000
# 6 0.0000 0.0000 0.0000 0.0000 0.0000 21.2969
#
#
#
# Elastic Compliance Matrix: (Units=1/GPa)
#
#
# Indices 1 2 3 4 5 6 
#
# 1 0.036349 -0.005936 -0.006296 0.000000 0.000000 0.000000
# 2 -0.005936 0.015021 -0.006880 0.000000 0.000000 0.000000
# 3 -0.006296 -0.006880 0.013017 0.000000 0.000000 0.000000
# 4 0.000000 0.000000 0.000000 0.055492 0.000000 0.000000
# 5 0.000000 0.000000 0.000000 0.000000 0.033330 0.000000
# 6 0.000000 0.000000 0.000000 0.000000 0.000000 0.046955
#
#
# Mechanical properties :
#
#
# Convention : Reuss Voigt Hill
#
# Bulk Modulus (GPa) = 38.22235 63.41814 50.82024
# Shear Modulus (GPa) = 20.23400 23.44975 21.84188
#
# Velocity S-wave (km/s) = 3.24433 3.49264 3.37077
# Velocity P-wave (km/s) = 5.82387 7.01817 6.44873
#
# Compressibility (1/GPa) = 0.02616270
#
# Stress axis : x y z
#
# Youngs Moduli (GPa) = 27.51136 66.57282 76.82400
#
# Poissons Ratio (x) = 0.39518 0.48368
# Poissons Ratio (y) = 0.16331 0.52854
# Poissons Ratio (z) = 0.17321 0.45801
#
# Static dielectric constant tensor:
#      x y z
#    x 3.354550 0.000000 0.000000 
#    y 0.000000 3.808500 0.000000 
#    z 0.000000 0.000000 3.678950 
# 
# 
# High freq. dielectric constant tensor:
#      x y z
#    x 1.723430 0.000000 0.000000 
#    y 0.000000 1.754910 0.000000 
#    z 0.000000 0.000000 1.750600 
# 
# From -- ./inp_files/3725.got.cif
#   From: 2010.03.12/outbox.cif.g09.slc.cpg/sg31_2_cif.got.tgz:3725.got - 2010.04.14 01:42:59.
