data_PCOD8170105
_publ_section_title
;
Structure prediction by ZEFSAII (Michael W. Deem and Ramdas Pophale) SiO2 
 PCOD8170105
Probable space group: P M N 21
;
_chemical_formula_sum "Si O2"
_cell_formula_units_Z 32
_cell_length_a 8.778521
_cell_length_b 11.866745
_cell_length_c 15.357828
_cell_angle_alpha 90.000000
_cell_angle_beta 90.000000
_cell_angle_gamma 90.000000
_cell_volume 1599.862879
_symmetry_space_group_name_H-M "P M N 21"
_symmetry_group_IT_number 31
_symmetry_cell_setting 'orthorhombic'
loop_
_space_group_symop_operation_xyz
x,y,z
1/2-x,-y,1/2+z
-x,y,z
1/2+x,-y,1/2+z
loop_
_atom_site_type_symbol
_atom_site_label
_atom_site_fract_x
_atom_site_fract_y
_atom_site_fract_z
Si Si1 0.676971 0.849992 0.433810
Si Si2 0.826107 0.494803 0.522891
Si Si3 0.679339 0.745040 0.095417
Si Si4 0.179585 0.496315 0.842048
Si Si5 0.325359 0.266955 0.094285
Si Si6 0.820542 0.722414 0.274343
Si Si7 0.680285 0.261377 0.287104
Si Si8 0.321509 0.111285 0.445455
O O1 0.500000 0.830204 0.413986
O O2 0.718042 0.791959 0.524585
O O3 0.772809 0.797705 0.355928
O O4 0.718062 0.980698 0.440457
O O5 0.767103 0.379836 0.566674
O O6 0.720804 0.527661 0.441897
O O7 0.812873 0.597098 0.591140
O O8 0.000000 0.480253 0.490556
O O9 0.500000 0.750556 0.109203
O O10 0.759215 0.778305 0.185825
O O11 0.728686 0.836005 0.024547
O O12 0.254197 0.403101 0.780591
O O13 0.247269 0.617769 0.815632
O O14 0.000000 0.488438 0.829406
O O15 0.500000 0.229520 0.077740
O O16 0.266148 0.229095 0.189729
O O17 0.000000 0.715754 0.271740
O O18 0.500000 0.271374 0.287347
O O19 0.735705 0.167146 0.355138
O O20 0.500000 0.134012 0.460447
#
# Coordination Sequence:
#
# PCOD8170105 Si02
#       8
#     4   4   4   4   4   4   4   4
#     4  11  24  41  61  87 120 159 208 259 304 358
#     4  10  20  35  58  90 126 158 191 243 303 365
#     4  11  23  40  64  93 125 159 202 250 302 365
#     4  11  20  35  63  92 121 155 197 245 302 367
#     4  10  20  37  61  87 119 157 198 244 302 362
#     4  12  25  41  62  89 125 163 203 250 306 364
#     4   9  19  37  62  89 117 155 196 242 298 358
#     4  10  22  42  63  87 121 160 205 253 303 357
#
# _framework density 20.001715000000001
#
# number of rings (size 3 to 8) (size 9 to 14) (size 15 to 20)
#    0.000    1.500    2.500    3.000    0.000    4.500 
#    0.000    4.375    0.000    0.000    0.000    0.000 
#    0.000    0.000    0.000    0.000    0.000    0.000 
#
# Total GULP energy -396944.485004 kJ/mol
# GULP energy per Si atom -12404.515156 kJ/mol
# Density = 1.995619 g / cm^3
# Si number density = 20.001715 Si / 1000 Ang^3
#
#
#
# Elastic Constant Matrix: (Units=GPa)
#
#
# Indices 1 2 3 4 5 6 
#
# 1 76.4974 31.6424 29.4759 0.0000 0.0000 0.0000
# 2 31.6424 107.7684 36.5325 0.0000 0.0000 0.0000
# 3 29.4759 36.5325 130.1313 0.0000 0.0000 0.0000
# 4 0.0000 0.0000 0.0000 8.1339 0.0000 0.0000
# 5 0.0000 0.0000 0.0000 0.0000 28.7683 0.0000
# 6 0.0000 0.0000 0.0000 0.0000 0.0000 24.4183
#
#
#
# Elastic Compliance Matrix: (Units=1/GPa)
#
#
# Indices 1 2 3 4 5 6 
#
# 1 0.015571 -0.003731 -0.002479 0.000000 0.000000 0.000000
# 2 -0.003731 0.011149 -0.002285 0.000000 0.000000 0.000000
# 3 -0.002479 -0.002285 0.008888 0.000000 0.000000 0.000000
# 4 0.000000 0.000000 0.000000 0.122943 0.000000 0.000000
# 5 0.000000 0.000000 0.000000 0.000000 0.034760 0.000000
# 6 0.000000 0.000000 0.000000 0.000000 0.000000 0.040953
#
#
# Mechanical properties :
#
#
# Convention : Reuss Voigt Hill
#
# Bulk Modulus (GPa) = 53.71527 56.63321 55.17424
# Shear Modulus (GPa) = 19.42040 26.71384 23.06712
#
# Velocity S-wave (km/s) = 3.11937 3.65852 3.39965
# Velocity P-wave (km/s) = 6.31566 6.79868 6.56161
#
# Compressibility (1/GPa) = 0.01861668
#
# Stress axis : x y z
#
# Youngs Moduli (GPa) = 64.22116 89.69182 112.51634
#
# Poissons Ratio (x) = 0.33468 0.27898
# Poissons Ratio (y) = 0.23964 0.25708
# Poissons Ratio (z) = 0.15923 0.20493
#
# Static dielectric constant tensor:
#      x y z
#    x 3.475270 0.000000 0.000000 
#    y 0.000000 3.695600 0.000000 
#    z 0.000000 0.000000 3.763130 
# 
# 
# High freq. dielectric constant tensor:
#      x y z
#    x 1.767600 0.000000 0.000000 
#    y 0.000000 1.780170 0.000000 
#    z 0.000000 0.000000 1.792410 
# 
# From -- ./inp_files/5037.got.cif
#   From: 2010.03.12/outbox.cif.g09.slc.cpg/sg31_3_cif.got.tgz:5037.got - 2010.04.14 01:42:59.
