data_PCOD8170224
_publ_section_title
;
Structure prediction by ZEFSAII (Michael W. Deem and Ramdas Pophale) SiO2 
 PCOD8170224
Probable space group: P M N 21
;
_chemical_formula_sum "Si O2"
_cell_formula_units_Z 24
_cell_length_a 8.723738
_cell_length_b 14.949896
_cell_length_c 9.239047
_cell_angle_alpha 90.000000
_cell_angle_beta 90.000000
_cell_angle_gamma 90.000000
_cell_volume 1204.947047
_symmetry_space_group_name_H-M "P M N 21"
_symmetry_group_IT_number 31
_symmetry_cell_setting 'orthorhombic'
loop_
_space_group_symop_operation_xyz
x,y,z
1/2-x,-y,1/2+z
-x,y,z
1/2+x,-y,1/2+z
loop_
_atom_site_type_symbol
_atom_site_label
_atom_site_fract_x
_atom_site_fract_y
_atom_site_fract_z
Si Si1 0.679811 0.260644 0.139010
Si Si2 0.321773 0.725582 0.946416
Si Si3 0.177333 0.577670 0.141229
Si Si4 0.172648 0.942344 0.668165
Si Si5 0.822611 0.407321 0.948602
Si Si6 0.827222 0.906413 0.997048
O O1 0.500000 0.279158 0.124296
O O2 0.728645 0.291721 0.299184
O O3 0.720094 0.156536 0.115059
O O4 0.769992 0.313221 0.015222
O O5 0.500000 0.720327 0.909056
O O6 0.283507 0.821716 0.016139
O O7 0.280006 0.651487 0.063564
O O8 0.224538 0.569374 0.307787
O O9 0.000000 0.605288 0.129743
O O10 0.208674 0.482359 0.068445
O O11 0.187852 0.948550 0.839470
O O12 0.000000 0.963755 0.617048
O O13 0.287273 0.015886 0.608349
O O14 0.000000 0.401382 0.904897
O O15 0.000000 0.873246 0.026151
#
# Coordination Sequence:
#
# PCOD8170224 Si02
#       6
#     4   4   4   4   4   4
#     4  10  21  39  61  85 118 155 192 237 289 344
#     4  11  22  38  61  86 115 151 194 242 289 342
#     4  11  24  41  61  86 118 154 191 235 288 343
#     4   9  20  37  56  82 114 150 191 234 283 339
#     4  11  24  40  61  89 118 151 193 238 285 340
#     4  10  21  37  58  84 115 151 191 236 288 344
#
# _framework density 19.917887
#
# number of rings (size 3 to 8) (size 9 to 14) (size 15 to 20)
#    0.000    1.667    0.000    5.500    0.000   10.667 
#    0.000    3.333    0.000    0.000    0.000    0.000 
#    0.000    0.000    0.000    0.000    0.000    0.000 
#
# Total GULP energy -297741.300551 kJ/mol
# GULP energy per Si atom -12405.887523 kJ/mol
# Density = 1.987255 g / cm^3
# Si number density = 19.917887 Si / 1000 Ang^3
#
#
#
# Elastic Constant Matrix: (Units=GPa)
#
#
# Indices 1 2 3 4 5 6 
#
# 1 71.7932 24.6108 9.2066 0.0000 0.0000 0.0000
# 2 24.6108 48.2386 -0.1894 0.0000 0.0000 0.0000
# 3 9.2066 -0.1894 25.4625 0.0000 0.0000 0.0000
# 4 0.0000 0.0000 0.0000 37.4780 0.0000 0.0000
# 5 0.0000 0.0000 0.0000 0.0000 36.8022 0.0000
# 6 0.0000 0.0000 0.0000 0.0000 0.0000 30.6023
#
#
#
# Elastic Compliance Matrix: (Units=1/GPa)
#
#
# Indices 1 2 3 4 5 6 
#
# 1 0.017909 -0.009163 -0.006544 0.000000 0.000000 0.000000
# 2 -0.009163 0.025419 0.003502 0.000000 0.000000 0.000000
# 3 -0.006544 0.003502 0.041665 0.000000 0.000000 0.000000
# 4 0.000000 0.000000 0.000000 0.026682 0.000000 0.000000
# 5 0.000000 0.000000 0.000000 0.000000 0.027172 0.000000
# 6 0.000000 0.000000 0.000000 0.000000 0.000000 0.032677
#
#
# Mechanical properties :
#
#
# Convention : Reuss Voigt Hill
#
# Bulk Modulus (GPa) = 16.50578 23.63891 20.07234
# Shear Modulus (GPa) = 23.13440 28.43426 25.78433
#
# Velocity S-wave (km/s) = 3.41176 3.78242 3.60186
# Velocity P-wave (km/s) = 4.88109 5.56503 5.23424
#
# Compressibility (1/GPa) = 0.06058484
#
# Stress axis : x y z
#
# Youngs Moduli (GPa) = 55.83781 39.34109 24.00068
#
# Poissons Ratio (x) = 0.36047 0.15705
# Poissons Ratio (y) = 0.51162 -0.08405
# Poissons Ratio (z) = 0.36538 -0.13778
#
# Static dielectric constant tensor:
#      x y z
#    x 3.708480 0.000000 0.000000 
#    y 0.000000 3.640850 0.000000 
#    z 0.000000 0.000000 3.501820 
# 
# 
# High freq. dielectric constant tensor:
#      x y z
#    x 1.787710 0.000000 0.000000 
#    y 0.000000 1.784020 0.000000 
#    z 0.000000 0.000000 1.774070 
# 
# From -- ./inp_files/1671.got.cif
#   From: 2010.03.12/outbox.cif.g09.slc.cpg/sg31_1_cif.got.tgz:1671.got - 2010.04.14 01:42:59.
