data_PCOD8170505
_publ_section_title
;
Structure prediction by ZEFSAII (Michael W. Deem and Ramdas Pophale) SiO2 
 PCOD8170505
Probable space group: P B A 2
;
_chemical_formula_sum "Si O2"
_cell_formula_units_Z 32
_cell_length_a 9.125595
_cell_length_b 10.182148
_cell_length_c 16.495827
_cell_angle_alpha 90.000000
_cell_angle_beta 90.000000
_cell_angle_gamma 90.000000
_cell_volume 1532.761874
_symmetry_space_group_name_H-M "P B A 2"
_symmetry_group_IT_number 32
_symmetry_cell_setting 'orthorhombic'
loop_
_space_group_symop_operation_xyz
x,y,z
-x,-y,z
1/2-x,1/2+y,z
1/2+x,1/2-y,z
loop_
_atom_site_type_symbol
_atom_site_label
_atom_site_fract_x
_atom_site_fract_y
_atom_site_fract_z
Si Si1 0.702852 0.079812 0.729590
Si Si2 0.012723 0.645793 0.961285
Si Si3 0.329696 0.988238 0.551437
Si Si4 0.479238 0.655393 0.351245
Si Si5 0.264320 0.747829 0.067662
Si Si6 0.096362 0.687587 0.788101
Si Si7 0.230235 0.741174 0.453061
Si Si8 0.522045 0.645285 0.175787
O O1 0.743989 0.043233 0.637633
O O2 0.828623 0.179112 0.758288
O O3 0.547935 0.156385 0.735295
O O4 0.700055 0.943101 0.781816
O O5 0.052238 0.725938 0.880646
O O6 0.000000 0.500000 0.929186
O O7 0.139953 0.654451 0.029114
O O8 0.852122 0.680276 0.996144
O O9 0.299229 0.873344 0.488279
O O10 0.500000 0.000000 0.566595
O O11 0.266660 0.126678 0.520032
O O12 0.500000 0.500000 0.357035
O O13 0.313277 0.693374 0.371999
O O14 0.568273 0.727279 0.422378
O O15 0.518772 0.719592 0.262619
O O16 0.384539 0.671551 0.118421
O O17 0.176047 0.842807 0.128579
O O18 0.500000 0.500000 0.205855
#
# Coordination Sequence:
#
# PCOD8170505 Si02
#       8
#     4   4   4   4   4   4   4   4
#     4  11  24  44  65  94 128 170 208 265 316 384
#     4  11  21  38  64  90 126 165 207 267 312 379
#     4  12  24  42  67  94 130 166 212 268 319 383
#     4  11  23  40  63  93 130 168 214 264 319 380
#     4  10  22  38  62  93 120 165 214 255 321 372
#     4  11  23  43  65  94 131 166 214 259 321 378
#     4  12  24  41  65  97 126 170 213 263 321 379
#     4  10  21  40  61  89 127 164 206 262 313 380
#
# _framework density 20.877347
#
# number of rings (size 3 to 8) (size 9 to 14) (size 15 to 20)
#    0.000    1.000    5.000    3.000    0.000    0.500 
#    0.000    0.000    2.750    0.000    0.000    0.000 
#    0.000    0.000    0.000    0.000    0.000    0.000 
#
# Total GULP energy -396646.137567 kJ/mol
# GULP energy per Si atom -12395.191799 kJ/mol
# Density = 2.082983 g / cm^3
# Si number density = 20.877347 Si / 1000 Ang^3
#
#
#
# Elastic Constant Matrix: (Units=GPa)
#
#
# Indices 1 2 3 4 5 6 
#
# 1 85.7992 20.6440 34.5277 0.0000 0.0000 0.0000
# 2 20.6440 80.1372 31.3019 0.0000 0.0000 0.0000
# 3 34.5277 31.3019 129.0697 0.0000 0.0000 0.0000
# 4 0.0000 0.0000 0.0000 18.7839 0.0000 0.0000
# 5 0.0000 0.0000 0.0000 0.0000 25.8280 0.0000
# 6 0.0000 0.0000 0.0000 0.0000 0.0000 26.9327
#
#
#
# Elastic Compliance Matrix: (Units=1/GPa)
#
#
# Indices 1 2 3 4 5 6 
#
# 1 0.013425 -0.002271 -0.003041 0.000000 0.000000 0.000000
# 2 -0.002271 0.014168 -0.002829 0.000000 0.000000 0.000000
# 3 -0.003041 -0.002829 0.009247 0.000000 0.000000 0.000000
# 4 0.000000 0.000000 0.000000 0.053237 0.000000 0.000000
# 5 0.000000 0.000000 0.000000 0.000000 0.038718 0.000000
# 6 0.000000 0.000000 0.000000 0.000000 0.000000 0.037130
#
#
# Mechanical properties :
#
#
# Convention : Reuss Voigt Hill
#
# Bulk Modulus (GPa) = 48.63674 51.99480 50.31577
# Shear Modulus (GPa) = 26.44677 28.21106 27.32892
#
# Velocity S-wave (km/s) = 3.56303 3.67996 3.62197
# Velocity P-wave (km/s) = 6.34617 6.55859 6.45325
#
# Compressibility (1/GPa) = 0.02056059
#
# Stress axis : x y z
#
# Youngs Moduli (GPa) = 74.48721 70.57937 108.14101
#
# Poissons Ratio (x) = 0.16027 0.32882
# Poissons Ratio (y) = 0.16914 0.30590
# Poissons Ratio (z) = 0.22649 0.19965
#
# Static dielectric constant tensor:
#      x y z
#    x 3.906740 0.000000 0.000000 
#    y 0.000000 3.772090 0.000000 
#    z 0.000000 0.000000 3.881030 
# 
# 
# High freq. dielectric constant tensor:
#      x y z
#    x 1.817300 0.000000 0.000000 
#    y 0.000000 1.808360 0.000000 
#    z 0.000000 0.000000 1.834250 
# 
# From -- ./inp_files/4148.got.cif
#   From: 2010.03.12/outbox.cif.g09.slc.cpg/sg32_3_cif.got.tgz:4148.got - 2010.04.14 01:46:39.
