data_PCOD8170182
_publ_section_title
;
Structure prediction by ZEFSAII (Michael W. Deem and Ramdas Pophale) SiO2 
 PCOD8170182
Probable space group: P M N 21
;
_chemical_formula_sum "Si O2"
_cell_formula_units_Z 24
_cell_length_a 8.719424
_cell_length_b 13.744260
_cell_length_c 10.086659
_cell_angle_alpha 90.000000
_cell_angle_beta 90.000000
_cell_angle_gamma 90.000000
_cell_volume 1208.805696
_symmetry_space_group_name_H-M "P M N 21"
_symmetry_group_IT_number 31
_symmetry_cell_setting 'orthorhombic'
loop_
_space_group_symop_operation_xyz
x,y,z
1/2-x,-y,1/2+z
-x,y,z
1/2+x,-y,1/2+z
loop_
_atom_site_type_symbol
_atom_site_label
_atom_site_fract_x
_atom_site_fract_y
_atom_site_fract_z
Si Si1 0.180983 0.421736 0.643980
Si Si2 0.681649 0.217916 0.727015
Si Si3 0.681448 0.916546 0.009519
Si Si4 0.180548 0.572097 0.866015
Si Si5 0.318967 0.136892 0.001965
Si Si6 0.680879 0.211199 0.284899
O O1 0.248738 0.317192 0.674965
O O2 0.238367 0.498768 0.752784
O O3 0.237179 0.458643 0.501360
O O4 0.000000 0.414287 0.642399
O O5 0.500000 0.227332 0.721843
O O6 0.733141 0.130666 0.633284
O O7 0.744414 0.195421 0.874644
O O8 0.500000 0.910286 0.031664
O O9 0.725852 0.863895 0.873812
O O10 0.743088 0.026819 0.001989
O O11 0.229274 0.680318 0.824121
O O12 0.000000 0.564806 0.887318
O O13 0.500000 0.132712 0.991271
O O14 0.267264 0.193653 0.133638
O O15 0.500000 0.193578 0.304377
#
# Coordination Sequence:
#
# PCOD8170182 Si02
#       6
#     4   4   4   4   4   4
#     4  11  24  41  63  92 121 152 194 246 296 348
#     4  11  22  39  62  87 119 161 199 239 294 358
#     4  11  21  37  59  88 121 154 197 250 295 344
#     4  10  23  41  63  89 118 155 199 241 295 355
#     4   9  21  37  59  88 118 156 203 244 289 346
#     4  10  20  39  62  84 115 158 198 238 291 357
#
# _framework density 19.854306999999999
#
# number of rings (size 3 to 8) (size 9 to 14) (size 15 to 20)
#    0.000    1.667    1.667    2.500    2.333    1.333 
#    0.000    5.000    0.000    0.000    0.000    0.000 
#    0.000    0.000    0.000    0.000    0.000    0.000 
#
# Total GULP energy -297699.851412 kJ/mol
# GULP energy per Si atom -12404.160475 kJ/mol
# Density = 1.980912 g / cm^3
# Si number density = 19.854307 Si / 1000 Ang^3
#
#
#
# Elastic Constant Matrix: (Units=GPa)
#
#
# Indices 1 2 3 4 5 6 
#
# 1 -20.2899 38.3928 33.1226 0.0000 0.0000 0.0000
# 2 38.3928 85.2032 56.4240 0.0000 0.0000 0.0000
# 3 33.1226 56.4240 179.9473 0.0000 0.0000 0.0000
# 4 0.0000 0.0000 0.0000 42.5935 0.0000 0.0000
# 5 0.0000 0.0000 0.0000 0.0000 29.5426 0.0000
# 6 0.0000 0.0000 0.0000 0.0000 0.0000 17.3891
#
#
#
# Elastic Compliance Matrix: (Units=1/GPa)
#
#
# Indices 1 2 3 4 5 6 
#
# 1 -0.026312 0.010916 0.001421 0.000000 0.000000 0.000000
# 2 0.010916 0.010284 -0.005234 0.000000 0.000000 0.000000
# 3 0.001421 -0.005234 0.006937 0.000000 0.000000 0.000000
# 4 0.000000 0.000000 0.000000 0.023478 0.000000 0.000000
# 5 0.000000 0.000000 0.000000 0.000000 0.033849 0.000000
# 6 0.000000 0.000000 0.000000 0.000000 0.000000 0.057507
#
#
# Mechanical properties :
#
#
# Convention : Reuss Voigt Hill
#
# Bulk Modulus (GPa) = 195.56757 55.63770 125.60263
# Shear Modulus (GPa) = 53.62315 25.69978 39.66147
#
# Velocity S-wave (km/s) = 5.20259 3.60171 4.47433
# Velocity P-wave (km/s) = 11.61053 6.73648 9.49170
#
# Compressibility (1/GPa) = 0.00511332
#
# Stress axis : x y z
#
# Youngs Moduli (GPa) = -38.00539 97.23756 144.15817
#
# Poissons Ratio (x) = -1.06140 -0.20479
# Poissons Ratio (y) = 0.41485 0.75450
# Poissons Ratio (z) = 0.05399 0.50893
#
# Static dielectric constant tensor:
#      x y z
#    x 3.442970 0.000000 0.000000 
#    y 0.000000 3.792750 0.000000 
#    z 0.000000 0.000000 4.006840 
# 
# 
# High freq. dielectric constant tensor:
#      x y z
#    x 1.758670 0.000000 0.000000 
#    y 0.000000 1.784070 0.000000 
#    z 0.000000 0.000000 1.794590 
# 
# From -- ./inp_files/1709.got.cif
#   From: 2010.03.12/outbox.cif.g09.slc.cpg/sg31_1_cif.got.tgz:1709.got - 2010.04.14 01:42:59.
