data_PCOD8170588
_publ_section_title
;
Structure prediction by ZEFSAII (Michael W. Deem and Ramdas Pophale) SiO2 
 PCOD8170588
Probable space group: P B A 2
;
_chemical_formula_sum "Si O2"
_cell_formula_units_Z 26
_cell_length_a 14.966262
_cell_length_b 11.466268
_cell_length_c 6.796381
_cell_angle_alpha 90.000000
_cell_angle_beta 90.000000
_cell_angle_gamma 90.000000
_cell_volume 1166.307717
_symmetry_space_group_name_H-M "P B A 2"
_symmetry_group_IT_number 32
_symmetry_cell_setting 'orthorhombic'
loop_
_space_group_symop_operation_xyz
x,y,z
-x,-y,z
1/2-x,1/2+y,z
1/2+x,1/2-y,z
loop_
_atom_site_type_symbol
_atom_site_label
_atom_site_fract_x
_atom_site_fract_y
_atom_site_fract_z
Si Si1 0.363057 0.990383 0.924610
Si Si2 0.297913 0.492873 0.205238
Si Si3 0.376007 0.367620 0.857026
Si Si4 0.414347 0.695682 0.372099
Si Si5 0.496139 0.812858 0.012124
Si Si6 0.500000 0.500000 0.615548
Si Si7 0.216991 0.375082 0.584253
O O1 0.329861 0.985677 0.697114
O O2 0.397741 0.856529 0.949011
O O3 0.285679 0.026245 0.072669
O O4 0.439016 0.078265 0.986619
O O5 0.349978 0.612825 0.243934
O O6 0.270757 0.429367 0.404370
O O7 0.355910 0.399862 0.082580
O O8 0.410755 0.482235 0.744345
O O9 0.288912 0.318149 0.739632
O O10 0.461110 0.281321 0.864470
O O11 0.481735 0.769717 0.235038
O O12 0.483114 0.615640 0.490419
O O13 0.354749 0.779813 0.510772
#
# Coordination Sequence:
#
# PCOD8170588 Si02
#       7
#     4   4   4   4   4   2   4
#     4  10  25  47  67 101 144 182 235 285 355 419
#     4  11  24  46  69 102 140 185 233 290 347 435
#     4  11  25  42  71  98 142 185 236 285 366 403
#     4  12  25  43  77 101 144 183 242 286 367 413
#     4  11  24  45  69 103 139 187 228 299 350 418
#     4  12  24  44  64 108 140 182 236 306 340 430
#     4  11  25  46  69 105 135 192 231 287 351 434
#
# _framework density 22.292573999999998
#
# number of rings (size 3 to 8) (size 9 to 14) (size 15 to 20)
#    0.000    0.923    3.077    2.769    4.308    0.000 
#    5.538    0.000    0.000    0.000    0.000    0.000 
#    0.000    0.000    0.000    0.000    0.000    0.000 
#
# Total GULP energy -322179.179008 kJ/mol
# GULP energy per Si atom -12391.506885 kJ/mol
# Density = 2.224184 g / cm^3
# Si number density = 22.292574 Si / 1000 Ang^3
#
#
#
# Elastic Constant Matrix: (Units=GPa)
#
#
# Indices 1 2 3 4 5 6 
#
# 1 106.7525 45.7992 60.1986 0.0000 0.0000 0.0000
# 2 45.7992 91.9501 61.2734 0.0000 0.0000 0.0000
# 3 60.1986 61.2734 159.9642 0.0000 0.0000 0.0000
# 4 0.0000 0.0000 0.0000 24.0526 0.0000 0.0000
# 5 0.0000 0.0000 0.0000 0.0000 42.4356 0.0000
# 6 0.0000 0.0000 0.0000 0.0000 0.0000 39.8664
#
#
#
# Elastic Compliance Matrix: (Units=1/GPa)
#
#
# Indices 1 2 3 4 5 6 
#
# 1 0.013064 -0.004338 -0.003255 0.000000 0.000000 0.000000
# 2 -0.004338 0.016043 -0.004513 0.000000 0.000000 0.000000
# 3 -0.003255 -0.004513 0.009205 0.000000 0.000000 0.000000
# 4 0.000000 0.000000 0.000000 0.041576 0.000000 0.000000
# 5 0.000000 0.000000 0.000000 0.000000 0.023565 0.000000
# 6 0.000000 0.000000 0.000000 0.000000 0.000000 0.025084
#
#
# Mechanical properties :
#
#
# Convention : Reuss Voigt Hill
#
# Bulk Modulus (GPa) = 70.91667 77.02326 73.96997
# Shear Modulus (GPa) = 31.75649 34.03063 32.89356
#
# Velocity S-wave (km/s) = 3.77839 3.91134 3.84544
# Velocity P-wave (km/s) = 7.13553 7.41783 7.27805
#
# Compressibility (1/GPa) = 0.01410106
#
# Stress axis : x y z
#
# Youngs Moduli (GPa) = 76.54663 62.33056 108.63935
#
# Poissons Ratio (x) = 0.27040 0.35357
# Poissons Ratio (y) = 0.33208 0.49027
# Poissons Ratio (z) = 0.24913 0.28128
#
# Static dielectric constant tensor:
#      x y z
#    x 4.433730 0.000000 0.000000 
#    y 0.000000 4.258460 0.000000 
#    z 0.000000 0.000000 4.137170 
# 
# 
# High freq. dielectric constant tensor:
#      x y z
#    x 1.898930 0.000000 0.000000 
#    y 0.000000 1.866300 0.000000 
#    z 0.000000 0.000000 1.888600 
# 
# From -- ./inp_files/1431.got.cif
#   From: 2010.03.12/outbox.cif.g09.slc.cpg/sg32_1_cif.got.tgz:1431.got - 2010.04.14 01:46:39.
