data_PCOD8170191
_publ_section_title
;
Structure prediction by ZEFSAII (Michael W. Deem and Ramdas Pophale) SiO2 
 PCOD8170191
Probable space group: P M N 21
;
_chemical_formula_sum "Si O2"
_cell_formula_units_Z 20
_cell_length_a 9.654711
_cell_length_b 11.435490
_cell_length_c 8.859153
_cell_angle_alpha 90.000000
_cell_angle_beta 90.000000
_cell_angle_gamma 90.000000
_cell_volume 978.106757
_symmetry_space_group_name_H-M "P M N 21"
_symmetry_group_IT_number 31
_symmetry_cell_setting 'orthorhombic'
loop_
_space_group_symop_operation_xyz
x,y,z
1/2-x,-y,1/2+z
-x,y,z
1/2+x,-y,1/2+z
loop_
_atom_site_type_symbol
_atom_site_label
_atom_site_fract_x
_atom_site_fract_y
_atom_site_fract_z
Si Si1 0.000000 0.034800 0.866000
Si Si2 0.291691 0.310709 0.063005
Si Si3 0.709012 0.124129 0.809908
Si Si4 0.500000 0.676854 0.699074
Si Si5 0.000000 0.058854 0.228930
Si Si6 0.500000 0.272298 0.637552
Si Si7 0.500000 0.237822 0.303415
Si Si8 0.500000 0.456505 0.886524
O O1 0.000000 0.900959 0.818738
O O2 0.128672 0.102058 0.790104
O O3 0.000000 0.043435 0.047393
O O4 0.132142 0.342434 0.090514
O O5 0.362470 0.282975 0.221580
O O6 0.315850 0.193639 0.965218
O O7 0.363214 0.421491 0.981127
O O8 0.639260 0.198411 0.675289
O O9 0.634235 0.998043 0.808792
O O10 0.500000 0.805582 0.770155
O O11 0.500000 0.593111 0.845764
O O12 0.500000 0.302407 0.463079
O O13 0.500000 0.393470 0.725143
#
# Coordination Sequence:
#
# PCOD8170191 Si02
#       8
#     2   4   4   2   2   2   2   2
#     4  12  21  32  61  95 130 169 212 258 326 393
#     4  10  22  42  67  91 127 172 213 272 324 380
#     4  10  20  40  57  90 133 164 209 260 328 384
#     4  12  22  42  66  98 125 168 223 271 317 384
#     4  11  21  38  62  99 130 169 210 263 325 398
#     4   9  20  41  61  86 123 169 212 264 317 391
#     4  11  21  35  62  94 125 168 214 247 335 399
#     4   9  23  42  66  88 123 173 213 269 332 363
#
# _framework density 20.447666999999999
#
# number of rings (size 3 to 8) (size 9 to 14) (size 15 to 20)
#    0.000    1.600    4.000    3.000    0.000    1.600 
#    0.000    2.000    0.000    0.000    0.000    0.000 
#    0.000    0.000    0.000    0.000    0.000    0.000 
#
# Total GULP energy -247979.731228 kJ/mol
# GULP energy per Si atom -12398.986561 kJ/mol
# Density = 2.040113 g / cm^3
# Si number density = 20.447667 Si / 1000 Ang^3
#
#
#
# Elastic Constant Matrix: (Units=GPa)
#
#
# Indices 1 2 3 4 5 6 
#
# 1 182.1801 48.9145 61.6252 0.0000 0.0000 0.0000
# 2 48.9145 126.8630 51.6218 0.0000 0.0000 0.0000
# 3 61.6252 51.6218 129.7336 0.0000 0.0000 0.0000
# 4 0.0000 0.0000 0.0000 30.6989 0.0000 0.0000
# 5 0.0000 0.0000 0.0000 0.0000 24.0331 0.0000
# 6 0.0000 0.0000 0.0000 0.0000 0.0000 14.4839
#
#
#
# Elastic Compliance Matrix: (Units=1/GPa)
#
#
# Indices 1 2 3 4 5 6 
#
# 1 0.006788 -0.001557 -0.002605 0.000000 0.000000 0.000000
# 2 -0.001557 0.009763 -0.003145 0.000000 0.000000 0.000000
# 3 -0.002605 -0.003145 0.010197 0.000000 0.000000 0.000000
# 4 0.000000 0.000000 0.000000 0.032574 0.000000 0.000000
# 5 0.000000 0.000000 0.000000 0.000000 0.041609 0.000000
# 6 0.000000 0.000000 0.000000 0.000000 0.000000 0.069042
#
#
# Mechanical properties :
#
#
# Convention : Reuss Voigt Hill
#
# Bulk Modulus (GPa) = 82.41579 84.78887 83.60233
# Shear Modulus (GPa) = 26.50655 32.28419 29.39537
#
# Velocity S-wave (km/s) = 3.60434 3.97781 3.79567
# Velocity P-wave (km/s) = 7.59703 7.91540 7.75785
#
# Compressibility (1/GPa) = 0.01213360
#
# Stress axis : x y z
#
# Youngs Moduli (GPa) = 147.31077 102.43084 98.07012
#
# Poissons Ratio (x) = 0.15953 0.25546
# Poissons Ratio (y) = 0.22943 0.30841
# Poissons Ratio (z) = 0.38372 0.32213
#
# Static dielectric constant tensor:
#      x y z
#    x 4.030010 0.000000 0.000000 
#    y 0.000000 3.662360 0.000000 
#    z 0.000000 0.000000 3.600670 
# 
# 
# High freq. dielectric constant tensor:
#      x y z
#    x 1.808670 0.000000 0.000000 
#    y 0.000000 1.790440 0.000000 
#    z 0.000000 0.000000 1.787850 
# 
# From -- ./inp_files/1624.got.cif
#   From: 2010.03.12/outbox.cif.g09.slc.cpg/sg31_1_cif.got.tgz:1624.got - 2010.04.14 01:42:59.
