data_PCOD8170475
_publ_section_title
;
Structure prediction by ZEFSAII (Michael W. Deem and Ramdas Pophale) SiO2 
 PCOD8170475
Probable space group: P B A 2
;
_chemical_formula_sum "Si O2"
_cell_formula_units_Z 26
_cell_length_a 17.312921
_cell_length_b 8.745276
_cell_length_c 8.308020
_cell_angle_alpha 90.000000
_cell_angle_beta 90.000000
_cell_angle_gamma 90.000000
_cell_volume 1257.886340
_symmetry_space_group_name_H-M "P B A 2"
_symmetry_group_IT_number 32
_symmetry_cell_setting 'orthorhombic'
loop_
_space_group_symop_operation_xyz
x,y,z
-x,-y,z
1/2-x,1/2+y,z
1/2+x,1/2-y,z
loop_
_atom_site_type_symbol
_atom_site_label
_atom_site_fract_x
_atom_site_fract_y
_atom_site_fract_z
Si Si1 0.249565 0.881963 0.942660
Si Si2 0.613820 0.456163 0.820514
Si Si3 0.849419 0.377008 0.089968
Si Si4 0.500000 0.000000 0.637983
Si Si5 0.211247 0.232623 0.605153
Si Si6 0.157182 0.527410 0.454834
Si Si7 0.521397 0.739965 0.875582
O O1 0.264799 0.823201 0.764466
O O2 0.188675 0.022444 0.932678
O O3 0.215582 0.751780 0.059242
O O4 0.327602 0.960182 0.008840
O O5 0.638600 0.376951 0.651304
O O6 0.579047 0.623940 0.781939
O O7 0.553968 0.357086 0.929473
O O8 0.853942 0.408957 0.277324
O O9 0.933045 0.322262 0.021983
O O10 0.573841 0.963626 0.532710
O O11 0.484876 0.855954 0.750137
O O12 0.187266 0.351978 0.465028
O O13 0.283705 0.134668 0.549174
#
# Coordination Sequence:
#
# PCOD8170475 Si02
#       7
#     4   4   4   2   4   4   4
#     4  11  20  40  69  96 124 175 234 271 322 419
#     4  10  20  39  67  98 122 167 234 278 325 395
#     4  11  24  41  62  98 137 173 218 289 350 398
#     4  12  24  42  64  98 126 180 236 274 342 414
#     4  12  21  42  69  97 128 177 232 281 329 418
#     4  12  26  41  63 100 139 172 218 293 354 400
#     4  10  23  40  66  93 130 174 228 279 332 422
#
# _framework density 20.669595999999999
#
# number of rings (size 3 to 8) (size 9 to 14) (size 15 to 20)
#    0.000    0.923    4.615    3.692    0.000    0.615 
#    0.000    0.000    0.000    5.538    0.000    0.000 
#    0.000    0.000    0.000    0.000    0.000    0.000 
#
# Total GULP energy -322259.925956 kJ/mol
# GULP energy per Si atom -12394.612537 kJ/mol
# Density = 2.062255 g / cm^3
# Si number density = 20.669596 Si / 1000 Ang^3
#
#
#
# Elastic Constant Matrix: (Units=GPa)
#
#
# Indices 1 2 3 4 5 6 
#
# 1 79.5080 32.1815 41.8560 0.0000 0.0000 0.0000
# 2 32.1815 99.0760 59.0262 0.0000 0.0000 0.0000
# 3 41.8560 59.0262 120.3617 0.0000 0.0000 0.0000
# 4 0.0000 0.0000 0.0000 36.0457 0.0000 0.0000
# 5 0.0000 0.0000 0.0000 0.0000 20.5940 0.0000
# 6 0.0000 0.0000 0.0000 0.0000 0.0000 44.7364
#
#
#
# Elastic Compliance Matrix: (Units=1/GPa)
#
#
# Indices 1 2 3 4 5 6 
#
# 1 0.015869 -0.002637 -0.004225 0.000000 0.000000 0.000000
# 2 -0.002637 0.014698 -0.006291 0.000000 0.000000 0.000000
# 3 -0.004225 -0.006291 0.012863 0.000000 0.000000 0.000000
# 4 0.000000 0.000000 0.000000 0.027743 0.000000 0.000000
# 5 0.000000 0.000000 0.000000 0.000000 0.048558 0.000000
# 6 0.000000 0.000000 0.000000 0.000000 0.000000 0.022353
#
#
# Mechanical properties :
#
#
# Convention : Reuss Voigt Hill
#
# Bulk Modulus (GPa) = 58.40091 62.78588 60.59339
# Shear Modulus (GPa) = 28.71961 31.33401 30.02681
#
# Velocity S-wave (km/s) = 3.73159 3.89774 3.81557
# Velocity P-wave (km/s) = 6.84706 7.12028 6.98501
#
# Compressibility (1/GPa) = 0.01712302
#
# Stress axis : x y z
#
# Youngs Moduli (GPa) = 63.01555 68.03779 77.74474
#
# Poissons Ratio (x) = 0.17944 0.32848
# Poissons Ratio (y) = 0.16619 0.48907
# Poissons Ratio (z) = 0.26625 0.42801
#
# Static dielectric constant tensor:
#      x y z
#    x 4.098370 0.000000 0.000000 
#    y 0.000000 4.204360 0.000000 
#    z 0.000000 0.000000 3.382620 
# 
# 
# High freq. dielectric constant tensor:
#      x y z
#    x 1.825870 0.000000 0.000000 
#    y 0.000000 1.837750 0.000000 
#    z 0.000000 0.000000 1.764730 
# 
# From -- ./inp_files/2462.got.cif
#   From: 2010.03.12/outbox.cif.g09.slc.cpg/sg32_2_cif.got.tgz:2462.got - 2010.04.14 01:46:39.
