data_PCOD8170820
_publ_section_title
;
Structure prediction by ZEFSAII (Michael W. Deem and Ramdas Pophale) SiO2 
 PCOD8170820
Probable space group: P N A 21
;
_chemical_formula_sum "Si O2"
_cell_formula_units_Z 32
_cell_length_a 9.402331
_cell_length_b 23.575887
_cell_length_c 7.743587
_cell_angle_alpha 90.000000
_cell_angle_beta 90.000000
_cell_angle_gamma 90.000000
_cell_volume 1716.507713
_symmetry_space_group_name_H-M "P N A 21"
_symmetry_group_IT_number 33
_symmetry_cell_setting 'orthorhombic'
loop_
_space_group_symop_operation_xyz
x,y,z
-x,-y,1/2+z
1/2-x,1/2+y,1/2+z
1/2+x,1/2-y,z
loop_
_atom_site_type_symbol
_atom_site_label
_atom_site_fract_x
_atom_site_fract_y
_atom_site_fract_z
Si Si1 0.670460 0.117777 0.266840
Si Si2 0.627534 0.916355 0.877658
Si Si3 0.627533 0.916355 0.264815
Si Si4 0.838043 0.009035 0.272624
Si Si5 0.661957 0.509035 0.369848
Si Si6 0.329540 0.882223 0.375632
Si Si7 0.364973 0.797014 0.071236
Si Si8 0.311928 0.185801 0.571236
O O1 0.514668 0.088921 0.264674
O O2 0.785792 0.071168 0.329273
O O3 0.683434 0.169874 0.398963
O O4 0.703457 0.138579 0.071236
O O5 0.736352 0.960378 0.786615
O O6 0.579145 0.936022 0.071236
O O7 0.703844 0.854363 0.900100
O O8 0.485332 0.911079 0.377798
O O9 0.703844 0.854363 0.242372
O O10 0.736353 0.960378 0.355857
O O11 0.820750 0.001006 0.071236
O O12 0.000000 0.000000 0.321236
O O13 0.714208 0.571168 0.313199
O O14 0.316566 0.830126 0.243509
O O15 0.532202 0.786796 0.071236
O O16 0.303213 0.734389 0.071236
#
# Coordination Sequence:
#
# PCOD8170820 Si02
#       8
#     4   4   4   4   4   4   4   4
#     4  10  20  35  56  81 108 145 183 223 271 329
#     4   8  17  36  55  77 101 143 190 216 265 327
#     4   8  17  36  55  77 101 143 190 216 265 327
#     4  10  21  32  50  81 112 142 178 225 277 325
#     4  10  21  32  50  81 112 142 178 225 277 325
#     4  10  20  35  56  81 108 145 183 223 271 329
#     4  10  20  38  56  82 108 144 189 224 273 318
#     4   8  18  34  60  76 100 148 187 222 269 320
#
# _framework density 18.642500999999999
#
# number of rings (size 3 to 8) (size 9 to 14) (size 15 to 20)
#    0.750    2.000    1.250    0.750    1.750    3.000 
#    0.000    5.000    0.000    0.000    0.000    0.000 
#    0.000    0.000    0.000    0.000    0.000    0.000 
#
# Total GULP energy -396478.073436 kJ/mol
# GULP energy per Si atom -12389.939795 kJ/mol
# Density = 1.860007 g / cm^3
# Si number density = 18.642501 Si / 1000 Ang^3
#
#
#
# Elastic Constant Matrix: (Units=GPa)
#
#
# Indices 1 2 3 4 5 6 
#
# 1 44.7372 17.7727 1.6372 0.0000 0.0000 0.0000
# 2 17.7727 55.4353 18.8209 0.0000 0.0000 0.0000
# 3 1.6372 18.8209 52.8606 0.0000 0.0000 0.0000
# 4 0.0000 0.0000 0.0000 13.4158 0.0000 0.0000
# 5 0.0000 0.0000 0.0000 0.0000 22.8623 0.0000
# 6 0.0000 0.0000 0.0000 0.0000 0.0000 40.5619
#
#
#
# Elastic Compliance Matrix: (Units=1/GPa)
#
#
# Indices 1 2 3 4 5 6 
#
# 1 0.025891 -0.009132 0.002450 0.000000 0.000000 0.000000
# 2 -0.009132 0.023741 -0.008170 0.000000 0.000000 0.000000
# 3 0.002450 -0.008170 0.021751 0.000000 0.000000 0.000000
# 4 0.000000 0.000000 0.000000 0.074539 0.000000 0.000000
# 5 0.000000 0.000000 0.000000 0.000000 0.043740 0.000000
# 6 0.000000 0.000000 0.000000 0.000000 0.000000 0.024654
#
#
# Mechanical properties :
#
#
# Convention : Reuss Voigt Hill
#
# Bulk Modulus (GPa) = 23.99400 25.49942 24.74671
# Shear Modulus (GPa) = 19.38634 23.02147 21.20391
#
# Velocity S-wave (km/s) = 3.22825 3.51792 3.37619
# Velocity P-wave (km/s) = 5.17629 5.49625 5.33867
#
# Compressibility (1/GPa) = 0.04167708
#
# Stress axis : x y z
#
# Youngs Moduli (GPa) = 38.62321 42.12164 45.97552
#
# Poissons Ratio (x) = 0.38468 -0.11263
# Poissons Ratio (y) = 0.35273 0.37562
# Poissons Ratio (z) = -0.09462 0.34413
#
# Static dielectric constant tensor:
#      x y z
#    x 2.943540 0.000000 0.000000 
#    y 0.000000 3.343060 0.000000 
#    z 0.000000 0.000000 3.274960 
# 
# 
# High freq. dielectric constant tensor:
#      x y z
#    x 1.717270 0.000000 0.000000 
#    y 0.000000 1.713920 0.000000 
#    z 0.000000 0.000000 1.704320 
# 
# From -- ./inp_files/3563.got.cif
#   From: 2010.03.12/outbox.cif.g09.slc.cpg/sg33_2_cif.got.tgz:3563.got - 2010.04.14 01:49:19.
