data_PCOD8170647
_publ_section_title
;
Structure prediction by ZEFSAII (Michael W. Deem and Ramdas Pophale) SiO2 
 PCOD8170647
Probable space group: P N A 21
;
_chemical_formula_sum "Si O2"
_cell_formula_units_Z 32
_cell_length_a 9.174371
_cell_length_b 18.980933
_cell_length_c 8.103339
_cell_angle_alpha 90.000000
_cell_angle_beta 90.000000
_cell_angle_gamma 90.000000
_cell_volume 1411.100229
_symmetry_space_group_name_H-M "P N A 21"
_symmetry_group_IT_number 33
_symmetry_cell_setting 'orthorhombic'
loop_
_space_group_symop_operation_xyz
x,y,z
-x,-y,1/2+z
1/2-x,1/2+y,1/2+z
1/2+x,1/2-y,z
loop_
_atom_site_type_symbol
_atom_site_label
_atom_site_fract_x
_atom_site_fract_y
_atom_site_fract_z
Si Si1 0.582333 0.713920 0.664180
Si Si2 0.133859 0.474171 0.777065
Si Si3 0.183580 0.536419 0.415916
Si Si4 0.201903 0.097778 0.405135
Si Si5 0.896071 0.282017 0.528088
Si Si6 0.796845 0.662979 0.132479
Si Si7 0.631977 0.587209 0.857718
Si Si8 0.785753 0.827973 0.557972
O O1 0.564476 0.749160 0.847330
O O2 0.635311 0.633136 0.689904
O O3 0.682876 0.760468 0.549592
O O4 0.441755 0.708620 0.548458
O O5 0.154503 0.509488 0.599600
O O6 0.219696 0.521289 0.912252
O O7 0.200824 0.394500 0.780971
O O8 0.962551 0.470703 0.811196
O O9 0.314585 0.492727 0.326152
O O10 0.241778 0.617298 0.414083
O O11 0.283871 0.152000 0.526216
O O12 0.224723 0.129684 0.226349
O O13 0.029125 0.089348 0.443012
O O14 0.822409 0.224628 0.650544
O O15 0.044088 0.304417 0.613055
O O16 0.758528 0.620120 0.968638
#
# Coordination Sequence:
#
# PCOD8170647 Si02
#       8
#     4   4   4   4   4   4   4   4
#     4   9  16  30  53  80 108 147 193 236 283 341
#     4  10  21  38  57  83 118 156 194 239 293 352
#     4  10  21  38  57  83 119 155 194 241 291 350
#     4   9  17  32  56  82 109 146 197 247 288 340
#     4  10  17  31  56  83 112 151 198 242 289 348
#     4  10  19  32  53  83 115 148 193 246 289 341
#     4   9  17  32  55  82 109 145 198 249 286 339
#     4   9  18  31  51  80 112 144 187 240 283 333
#
# _framework density 22.677339
#
# number of rings (size 3 to 8) (size 9 to 14) (size 15 to 20)
#    0.000    2.500    0.000    5.250    0.000    2.000 
#    0.000   13.750    0.000    0.000    0.000    0.000 
#    0.000    0.000    0.000    0.000    0.000    0.000 
#
# Total GULP energy -396451.586105 kJ/mol
# GULP energy per Si atom -12389.112066 kJ/mol
# Density = 2.262572 g / cm^3
# Si number density = 22.677339 Si / 1000 Ang^3
#
#
#
# Elastic Constant Matrix: (Units=GPa)
#
#
# Indices 1 2 3 4 5 6 
#
# 1 165.7054 100.0904 13.4374 0.0000 0.0000 0.0000
# 2 100.0904 161.1192 33.7543 0.0000 0.0000 0.0000
# 3 13.4374 33.7543 13.7213 0.0000 0.0000 0.0000
# 4 0.0000 0.0000 0.0000 23.4993 0.0000 0.0000
# 5 0.0000 0.0000 0.0000 0.0000 10.2511 0.0000
# 6 0.0000 0.0000 0.0000 0.0000 0.0000 32.9017
#
#
#
# Elastic Compliance Matrix: (Units=1/GPa)
#
#
# Indices 1 2 3 4 5 6 
#
# 1 0.010527 -0.009037 0.011922 0.000000 0.000000 0.000000
# 2 -0.009037 0.020565 -0.041740 0.000000 0.000000 0.000000
# 3 0.011922 -0.041740 0.163883 0.000000 0.000000 0.000000
# 4 0.000000 0.000000 0.000000 0.042555 0.000000 0.000000
# 5 0.000000 0.000000 0.000000 0.000000 0.097550 0.000000
# 6 0.000000 0.000000 0.000000 0.000000 0.000000 0.030394
#
#
# Mechanical properties :
#
#
# Convention : Reuss Voigt Hill
#
# Bulk Modulus (GPa) = 8.52762 70.56780 39.54771
# Shear Modulus (GPa) = 10.36762 26.21467 18.29114
#
# Velocity S-wave (km/s) = 2.14050 3.40367 2.84312
# Velocity P-wave (km/s) = 3.14286 6.82879 5.31554
#
# Compressibility (1/GPa) = 0.11726600
#
# Stress axis : x y z
#
# Youngs Moduli (GPa) = 94.99738 48.62635 6.10190
#
# Poissons Ratio (x) = 0.43944 -0.07275
# Poissons Ratio (y) = 0.85849 0.25469
# Poissons Ratio (z) = -1.13258 2.02965
#
# Static dielectric constant tensor:
#      x y z
#    x 4.203990 0.000000 0.000000 
#    y 0.000000 4.932980 0.000000 
#    z 0.000000 0.000000 3.474420 
# 
# 
# High freq. dielectric constant tensor:
#      x y z
#    x 1.900470 0.000000 0.000000 
#    y 0.000000 1.918200 0.000000 
#    z 0.000000 0.000000 1.835810 
# 
# From -- ./inp_files/3445.got.cif
#   From: 2010.03.12/outbox.cif.g09.slc.cpg/sg33_2_cif.got.tgz:3445.got - 2010.04.14 01:49:19.
