data_PCOD8170812
_publ_section_title
;
Structure prediction by ZEFSAII (Michael W. Deem and Ramdas Pophale) SiO2 
 PCOD8170812
Probable space group: P N A 21
;
_chemical_formula_sum "Si O2"
_cell_formula_units_Z 32
_cell_length_a 7.814953
_cell_length_b 23.599489
_cell_length_c 8.615228
_cell_angle_alpha 90.000000
_cell_angle_beta 90.000000
_cell_angle_gamma 90.000000
_cell_volume 1588.897001
_symmetry_space_group_name_H-M "P N A 21"
_symmetry_group_IT_number 33
_symmetry_cell_setting 'orthorhombic'
loop_
_space_group_symop_operation_xyz
x,y,z
-x,-y,1/2+z
1/2-x,1/2+y,1/2+z
1/2+x,1/2-y,z
loop_
_atom_site_type_symbol
_atom_site_label
_atom_site_fract_x
_atom_site_fract_y
_atom_site_fract_z
Si Si1 0.697381 0.105391 0.137810
Si Si2 0.531870 0.434322 0.279392
Si Si3 0.170642 0.971203 0.063994
Si Si4 0.909484 0.820205 0.919170
Si Si5 0.496713 0.965836 0.860216
Si Si6 0.632046 0.087295 0.799283
Si Si7 0.904742 0.365349 0.562582
Si Si8 0.703379 0.197942 0.386377
O O1 0.540909 0.066338 0.197541
O O2 0.699850 0.165617 0.223241
O O3 0.863911 0.069228 0.175483
O O4 0.689026 0.118616 0.955182
O O5 0.492908 0.457321 0.455244
O O6 0.651777 0.476043 0.181847
O O7 0.612181 0.371252 0.294787
O O8 0.219125 0.914641 0.165940
O O9 0.325036 0.984014 0.948104
O O10 0.831809 0.763217 0.844861
O O11 0.108981 0.811748 0.966232
O O12 0.781866 0.835213 0.064188
O O13 0.603834 0.021249 0.830116
O O14 0.610313 0.923469 0.964417
O O15 0.461063 0.118634 0.737434
O O16 0.054264 0.324612 0.497585
#
# Coordination Sequence:
#
# PCOD8170812 Si02
#       8
#     4   4   4   4   4   4   4   4
#     4   9  19  34  54  81 119 156 196 245 300 348
#     4  10  21  35  58  88 118 160 199 241 299 362
#     4  10  20  34  53  86 124 157 193 240 292 361
#     4  11  20  37  63  86 106 154 210 247 293 351
#     4   9  19  34  53  85 118 160 193 230 289 361
#     4  11  19  33  56  83 124 157 189 244 298 363
#     4  10  21  36  60  87 115 155 197 242 298 345
#     4  10  21  39  61  82 110 151 209 261 287 349
#
# _framework density 20.139758
#
# number of rings (size 3 to 8) (size 9 to 14) (size 15 to 20)
#    0.000    2.000    1.250    5.250    0.000    3.000 
#    0.000    1.250    5.500    1.500    0.000    0.000 
#    0.000    0.000    0.000    0.000    0.000    0.000 
#
# Total GULP energy -396518.482190 kJ/mol
# GULP energy per Si atom -12391.202568 kJ/mol
# Density = 2.009392 g / cm^3
# Si number density = 20.139758 Si / 1000 Ang^3
#
#
#
# Elastic Constant Matrix: (Units=GPa)
#
#
# Indices 1 2 3 4 5 6 
#
# 1 100.0990 38.6243 30.1351 0.0000 0.0000 0.0000
# 2 38.6243 109.5796 29.0192 0.0000 0.0000 0.0000
# 3 30.1351 29.0192 109.3500 0.0000 0.0000 0.0000
# 4 0.0000 0.0000 0.0000 8.2378 0.0000 0.0000
# 5 0.0000 0.0000 0.0000 0.0000 17.4324 0.0000
# 6 0.0000 0.0000 0.0000 0.0000 0.0000 32.2935
#
#
#
# Elastic Compliance Matrix: (Units=1/GPa)
#
#
# Indices 1 2 3 4 5 6 
#
# 1 0.012108 -0.003640 -0.002371 0.000000 0.000000 0.000000
# 2 -0.003640 0.010910 -0.001892 0.000000 0.000000 0.000000
# 3 -0.002371 -0.001892 0.010300 0.000000 0.000000 0.000000
# 4 0.000000 0.000000 0.000000 0.121392 0.000000 0.000000
# 5 0.000000 0.000000 0.000000 0.000000 0.057365 0.000000
# 6 0.000000 0.000000 0.000000 0.000000 0.000000 0.030966
#
#
# Mechanical properties :
#
#
# Convention : Reuss Voigt Hill
#
# Bulk Modulus (GPa) = 57.10162 57.17618 57.13890
# Shear Modulus (GPa) = 18.89039 26.34272 22.61656
#
# Velocity S-wave (km/s) = 3.06594 3.62055 3.35473
# Velocity P-wave (km/s) = 6.39903 6.77710 6.59078
#
# Compressibility (1/GPa) = 0.01751264
#
# Stress axis : x y z
#
# Youngs Moduli (GPa) = 82.58704 91.65985 97.08309
#
# Poissons Ratio (x) = 0.33365 0.23017
# Poissons Ratio (y) = 0.30062 0.18369
# Poissons Ratio (z) = 0.19580 0.17343
#
# Static dielectric constant tensor:
#      x y z
#    x 3.820010 0.000000 0.000000 
#    y 0.000000 3.671600 0.000000 
#    z 0.000000 0.000000 3.570130 
# 
# 
# High freq. dielectric constant tensor:
#      x y z
#    x 1.795370 0.000000 0.000000 
#    y 0.000000 1.778860 0.000000 
#    z 0.000000 0.000000 1.757990 
# 
# From -- ./inp_files/3574.got.cif
#   From: 2010.03.12/outbox.cif.g09.slc.cpg/sg33_2_cif.got.tgz:3574.got - 2010.04.14 01:49:19.
