data_PCOD8170904
_publ_section_title
;
Structure prediction by ZEFSAII (Michael W. Deem and Ramdas Pophale) SiO2 
 PCOD8170904
Probable space group: P N A 21
;
_chemical_formula_sum "Si O2"
_cell_formula_units_Z 32
_cell_length_a 9.660996
_cell_length_b 7.856896
_cell_length_c 20.156050
_cell_angle_alpha 90.000000
_cell_angle_beta 90.000000
_cell_angle_gamma 90.000000
_cell_volume 1529.953861
_symmetry_space_group_name_H-M "P N A 21"
_symmetry_group_IT_number 33
_symmetry_cell_setting 'orthorhombic'
loop_
_space_group_symop_operation_xyz
x,y,z
-x,-y,1/2+z
1/2-x,1/2+y,1/2+z
1/2+x,1/2-y,z
loop_
_atom_site_type_symbol
_atom_site_label
_atom_site_fract_x
_atom_site_fract_y
_atom_site_fract_z
Si Si1 0.132917 0.788812 0.794680
Si Si2 0.946837 0.408343 0.885421
Si Si3 0.745254 0.613447 0.444757
Si Si4 0.531432 0.880990 0.665072
Si Si5 0.875815 0.796614 0.879773
Si Si6 0.665722 0.425350 0.704029
Si Si7 0.937821 0.304780 0.734703
Si Si8 0.750247 0.177396 0.099290
O O1 0.251239 0.673155 0.827384
O O2 0.046234 0.695324 0.738242
O O3 0.023585 0.851902 0.850022
O O4 0.215531 0.943271 0.760950
O O5 0.841140 0.265720 0.911215
O O6 0.884771 0.597352 0.902267
O O7 0.965030 0.382864 0.806885
O O8 0.098751 0.391208 0.917072
O O9 0.663890 0.432640 0.437107
O O10 0.756043 0.651844 0.521806
O O11 0.401446 0.795213 0.628682
O O12 0.663898 0.847267 0.618427
O O13 0.505137 0.079916 0.676213
O O14 0.776959 0.274344 0.715354
O O15 0.510516 0.375542 0.723501
O O16 0.673085 0.513268 0.632171
#
# Coordination Sequence:
#
# PCOD8170904 Si02
#       8
#     4   4   4   4   4   4   4   4
#     4  11  20  41  65  98 124 166 214 278 347 399
#     4  12  25  42  70 103 133 179 224 286 343 407
#     4  12  27  44  66  95 139 185 230 272 331 409
#     4  10  20  39  69  84 128 161 214 275 336 390
#     4  12  23  43  66 101 137 176 218 277 347 405
#     4  10  22  37  63  89 131 159 214 275 332 399
#     4  11  20  38  61 100 123 156 211 282 342 386
#     4  10  23  44  58  92 123 178 223 263 324 409
#
# _framework density 20.915662000000001
#
# number of rings (size 3 to 8) (size 9 to 14) (size 15 to 20)
#    0.000    1.000    3.750    3.750    1.750    3.000 
#    6.750    0.000    0.000    0.000    0.000    0.000 
#    0.000    0.000    0.000    0.000    0.000    0.000 
#
# Total GULP energy -396572.815895 kJ/mol
# GULP energy per Si atom -12392.900497 kJ/mol
# Density = 2.086806 g / cm^3
# Si number density = 20.915662 Si / 1000 Ang^3
#
#
#
# Elastic Constant Matrix: (Units=GPa)
#
#
# Indices 1 2 3 4 5 6 
#
# 1 93.0103 23.7464 39.3539 0.0000 0.0000 0.0000
# 2 23.7464 81.8458 26.8621 0.0000 0.0000 0.0000
# 3 39.3539 26.8621 75.4942 0.0000 0.0000 0.0000
# 4 0.0000 0.0000 0.0000 19.9721 0.0000 0.0000
# 5 0.0000 0.0000 0.0000 0.0000 10.8139 0.0000
# 6 0.0000 0.0000 0.0000 0.0000 0.0000 38.9298
#
#
#
# Elastic Compliance Matrix: (Units=1/GPa)
#
#
# Indices 1 2 3 4 5 6 
#
# 1 0.014048 -0.001894 -0.006649 0.000000 0.000000 0.000000
# 2 -0.001894 0.014089 -0.004026 0.000000 0.000000 0.000000
# 3 -0.006649 -0.004026 0.018145 0.000000 0.000000 0.000000
# 4 0.000000 0.000000 0.000000 0.050070 0.000000 0.000000
# 5 0.000000 0.000000 0.000000 0.000000 0.092474 0.000000
# 6 0.000000 0.000000 0.000000 0.000000 0.000000 0.025687
#
#
# Mechanical properties :
#
#
# Convention : Reuss Voigt Hill
#
# Bulk Modulus (GPa) = 47.29449 47.80832 47.55141
# Shear Modulus (GPa) = 20.26760 24.63567 22.45163
#
# Velocity S-wave (km/s) = 3.11628 3.43572 3.27989
# Velocity P-wave (km/s) = 5.96736 6.21660 6.09325
#
# Compressibility (1/GPa) = 0.02114411
#
# Stress axis : x y z
#
# Youngs Moduli (GPa) = 71.18240 70.97824 55.11221
#
# Poissons Ratio (x) = 0.13440 0.36647
# Poissons Ratio (y) = 0.13479 0.22188
# Poissons Ratio (z) = 0.47332 0.28575
#
# Static dielectric constant tensor:
#      x y z
#    x 3.999350 0.000000 0.000000 
#    y 0.000000 4.315330 0.000000 
#    z 0.000000 0.000000 3.652290 
# 
# 
# High freq. dielectric constant tensor:
#      x y z
#    x 1.843160 0.000000 0.000000 
#    y 0.000000 1.810990 0.000000 
#    z 0.000000 0.000000 1.801370 
# 
# From -- ./inp_files/8960.got.cif
#   From: 2010.03.12/outbox.cif.g09.slc.cpg/sg33_5_cif.got.tgz:8960.got - 2010.04.14 01:49:19.
