data_PCOD8170722
_publ_section_title
;
Structure prediction by ZEFSAII (Michael W. Deem and Ramdas Pophale) SiO2 
 PCOD8170722
Probable space group: P N A 21
;
_chemical_formula_sum "Si O2"
_cell_formula_units_Z 28
_cell_length_a 16.518377
_cell_length_b 8.282269
_cell_length_c 11.034790
_cell_angle_alpha 90.000000
_cell_angle_beta 90.000000
_cell_angle_gamma 90.000000
_cell_volume 1509.665667
_symmetry_space_group_name_H-M "P N A 21"
_symmetry_group_IT_number 33
_symmetry_cell_setting 'orthorhombic'
loop_
_space_group_symop_operation_xyz
x,y,z
-x,-y,1/2+z
1/2-x,1/2+y,1/2+z
1/2+x,1/2-y,z
loop_
_atom_site_type_symbol
_atom_site_label
_atom_site_fract_x
_atom_site_fract_y
_atom_site_fract_z
Si Si1 0.388020 0.927308 0.314000
Si Si2 0.570470 0.766140 0.669386
Si Si3 0.847846 0.068672 0.364578
Si Si4 0.029164 0.160949 0.961957
Si Si5 0.353015 0.377995 0.952177
Si Si6 0.216193 0.627231 0.987986
Si Si7 0.747074 0.793172 0.251648
O O1 0.453259 0.799562 0.362404
O O2 0.316603 0.842359 0.237561
O O3 0.429207 0.052390 0.221358
O O4 0.352704 0.009559 0.435829
O O5 0.581747 0.641416 0.779412
O O6 0.485484 0.734963 0.597597
O O7 0.644949 0.731917 0.575152
O O8 0.789030 0.204509 0.417415
O O9 0.896251 0.965318 0.466727
O O10 0.787315 0.958832 0.290692
O O11 0.945746 0.073520 0.919648
O O12 0.303627 0.543728 0.970359
O O13 0.318311 0.264945 0.847959
O O14 0.200476 0.670512 0.127366
#
# Coordination Sequence:
#
# PCOD8170722 Si02
#       7
#     4   4   4   4   4   4   4
#     4   9  20  36  57  84 114 156 187 237 299 338
#     4   9  19  38  58  77 121 148 190 239 291 342
#     4  10  20  37  61  81 116 155 189 246 301 331
#     4   9  20  37  56  83 115 155 193 234 291 352
#     4   9  20  37  56  82 115 151 191 236 289 346
#     4  10  20  36  57  85 112 151 196 239 291 348
#     4  10  19  35  57  84 115 144 200 243 282 347
#
# _framework density 18.547152000000001
#
# number of rings (size 3 to 8) (size 9 to 14) (size 15 to 20)
#    0.857    1.714    1.429    0.000    2.000    2.286 
#    0.000   11.429    0.000    0.000    0.000    0.000 
#    0.000    0.000    0.000    0.000    0.000    0.000 
#
# Total GULP energy -346949.307113 kJ/mol
# GULP energy per Si atom -12391.046683 kJ/mol
# Density = 1.850494 g / cm^3
# Si number density = 18.547152 Si / 1000 Ang^3
#
#
#
# Elastic Constant Matrix: (Units=GPa)
#
#
# Indices 1 2 3 4 5 6 
#
# 1 48.2484 27.7456 29.4785 0.0000 0.0000 0.0000
# 2 27.7456 103.4033 42.9610 0.0000 0.0000 0.0000
# 3 29.4785 42.9610 101.1417 0.0000 0.0000 0.0000
# 4 0.0000 0.0000 0.0000 22.4429 0.0000 0.0000
# 5 0.0000 0.0000 0.0000 0.0000 25.6618 0.0000
# 6 0.0000 0.0000 0.0000 0.0000 0.0000 25.2653
#
#
#
# Elastic Compliance Matrix: (Units=1/GPa)
#
#
# Indices 1 2 3 4 5 6 
#
# 1 0.027075 -0.004840 -0.005835 0.000000 0.000000 0.000000
# 2 -0.004840 0.012609 -0.003945 0.000000 0.000000 0.000000
# 3 -0.005835 -0.003945 0.013263 0.000000 0.000000 0.000000
# 4 0.000000 0.000000 0.000000 0.044557 0.000000 0.000000
# 5 0.000000 0.000000 0.000000 0.000000 0.038968 0.000000
# 6 0.000000 0.000000 0.000000 0.000000 0.000000 0.039580
#
#
# Mechanical properties :
#
#
# Convention : Reuss Voigt Hill
#
# Bulk Modulus (GPa) = 42.18355 50.35150 46.26753
# Shear Modulus (GPa) = 23.45265 24.84789 24.15027
#
# Velocity S-wave (km/s) = 3.55982 3.66418 3.61238
# Velocity P-wave (km/s) = 6.29998 6.71628 6.51146
#
# Compressibility (1/GPa) = 0.02370592
#
# Stress axis : x y z
#
# Youngs Moduli (GPa) = 36.93484 79.31054 75.39527
#
# Poissons Ratio (x) = 0.38390 0.43994
# Poissons Ratio (y) = 0.17878 0.29742
# Poissons Ratio (z) = 0.21552 0.31287
#
# Static dielectric constant tensor:
#      x y z
#    x 3.180630 0.000000 0.000000 
#    y 0.000000 3.445440 0.000000 
#    z 0.000000 0.000000 3.365210 
# 
# 
# High freq. dielectric constant tensor:
#      x y z
#    x 1.699750 0.000000 0.000000 
#    y 0.000000 1.724930 0.000000 
#    z 0.000000 0.000000 1.715700 
# 
# From -- ./inp_files/6991.got.cif
#   From: 2010.03.12/outbox.cif.g09.slc.cpg/sg33_4_cif.got.tgz:6991.got - 2010.04.14 01:49:19.
