data_PCOD8170493
_publ_section_title
;
Structure prediction by ZEFSAII (Michael W. Deem and Ramdas Pophale) SiO2 
 PCOD8170493
Probable space group: P B A 2
;
_chemical_formula_sum "Si O2"
_cell_formula_units_Z 32
_cell_length_a 4.955484
_cell_length_b 17.506124
_cell_length_c 14.977190
_cell_angle_alpha 90.000000
_cell_angle_beta 90.000000
_cell_angle_gamma 90.000000
_cell_volume 1299.290963
_symmetry_space_group_name_H-M "P B A 2"
_symmetry_group_IT_number 32
_symmetry_cell_setting 'orthorhombic'
loop_
_space_group_symop_operation_xyz
x,y,z
-x,-y,z
1/2-x,1/2+y,z
1/2+x,1/2-y,z
loop_
_atom_site_type_symbol
_atom_site_label
_atom_site_fract_x
_atom_site_fract_y
_atom_site_fract_z
Si Si1 0.213027 0.298786 0.485380
Si Si2 0.441544 0.412567 0.619158
Si Si3 0.542577 0.589491 0.972585
Si Si4 0.246496 0.446753 0.798260
Si Si5 0.840955 0.300510 0.693973
Si Si6 0.149416 0.701097 0.903314
Si Si7 0.759847 0.699696 0.276504
Si Si8 0.747232 0.555020 0.156058
O O1 0.411965 0.228391 0.511400
O O2 0.290274 0.376622 0.534779
O O3 0.232744 0.317161 0.381234
O O4 0.500000 0.500000 0.594862
O O5 0.233253 0.400180 0.704699
O O6 0.732088 0.374294 0.640814
O O7 0.500000 0.500000 0.963551
O O8 0.687648 0.604665 0.066422
O O9 0.723648 0.611063 0.883686
O O10 0.251064 0.630507 0.964661
O O11 0.500000 0.500000 0.781866
O O12 0.000000 0.500000 0.818459
O O13 0.140369 0.270806 0.668499
O O14 0.824410 0.322106 0.799163
O O15 0.851744 0.729005 0.929024
O O16 0.481871 0.738561 0.246958
O O17 0.803128 0.617278 0.231787
O O18 0.500000 0.500000 0.182647
O O19 0.000000 0.500000 0.140871
#
# Coordination Sequence:
#
# PCOD8170493 Si02
#       8
#     4   4   4   4   4   4   4   4
#     4  10  23  44  68  92 125 168 206 253 322 389
#     4  11  23  39  61  93 123 162 212 263 308 364
#     4  10  22  42  62  88 126 173 210 254 316 383
#     4  10  22  37  54  81 119 161 204 248 297 357
#     4  10  21  38  56  78 113 158 201 251 305 357
#     4  10  22  37  56  84 114 154 210 263 304 349
#     4  10  22  44  72  98 128 171 216 260 326 402
#     4  11  24  41  66 100 134 169 212 268 333 385
#
# _framework density 24.628819
#
# number of rings (size 3 to 8) (size 9 to 14) (size 15 to 20)
#    0.000    1.750    1.250    1.875    0.000    9.500 
#    0.000    0.625    0.000    0.000    0.000    0.000 
#    0.000    0.000    0.000    0.000    0.000    0.000 
#
# Total GULP energy -396873.779024 kJ/mol
# GULP energy per Si atom -12402.305594 kJ/mol
# Density = 2.457276 g / cm^3
# Si number density = 24.628819 Si / 1000 Ang^3
#
#
#
# Elastic Constant Matrix: (Units=GPa)
#
#
# Indices 1 2 3 4 5 6 
#
# 1 85.2610 8.2910 22.3502 0.0000 0.0000 0.0000
# 2 8.2910 124.9325 41.9297 0.0000 0.0000 0.0000
# 3 22.3502 41.9297 91.4212 0.0000 0.0000 0.0000
# 4 0.0000 0.0000 0.0000 22.8506 0.0000 0.0000
# 5 0.0000 0.0000 0.0000 0.0000 27.5845 0.0000
# 6 0.0000 0.0000 0.0000 0.0000 0.0000 21.0107
#
#
#
# Elastic Compliance Matrix: (Units=1/GPa)
#
#
# Indices 1 2 3 4 5 6 
#
# 1 0.012538 0.000232 -0.003172 0.000000 0.000000 0.000000
# 2 0.000232 0.009465 -0.004398 0.000000 0.000000 0.000000
# 3 -0.003172 -0.004398 0.013731 0.000000 0.000000 0.000000
# 4 0.000000 0.000000 0.000000 0.043762 0.000000 0.000000
# 5 0.000000 0.000000 0.000000 0.000000 0.036252 0.000000
# 6 0.000000 0.000000 0.000000 0.000000 0.000000 0.047595
#
#
# Mechanical properties :
#
#
# Convention : Reuss Voigt Hill
#
# Bulk Modulus (GPa) = 47.48557 49.63960 48.56259
# Shear Modulus (GPa) = 27.02167 29.55874 28.29021
#
# Velocity S-wave (km/s) = 3.31593 3.46810 3.39287
# Velocity P-wave (km/s) = 5.82948 6.01962 5.92531
#
# Compressibility (1/GPa) = 0.02105903
#
# Stress axis : x y z
#
# Youngs Moduli (GPa) = 79.76062 105.65357 72.82879
#
# Poissons Ratio (x) = -0.02456 0.23099
# Poissons Ratio (y) = -0.01854 0.32029
# Poissons Ratio (z) = 0.25298 0.46465
#
# Static dielectric constant tensor:
#      x y z
#    x 4.803790 0.000000 0.000000 
#    y 0.000000 4.600740 0.000000 
#    z 0.000000 0.000000 4.983450 
# 
# 
# High freq. dielectric constant tensor:
#      x y z
#    x 1.998780 0.000000 0.000000 
#    y 0.000000 1.997550 0.000000 
#    z 0.000000 0.000000 1.966770 
# 
# From -- ./inp_files/4113.got.cif
#   From: 2010.03.12/outbox.cif.g09.slc.cpg/sg32_3_cif.got.tgz:4113.got - 2010.04.14 01:46:39.
