data_PCOD8170380
_publ_section_title
;
Structure prediction by ZEFSAII (Michael W. Deem and Ramdas Pophale) SiO2 
 PCOD8170380
Probable space group: P M N 21
;
_chemical_formula_sum "Si O2"
_cell_formula_units_Z 32
_cell_length_a 8.480196
_cell_length_b 15.243995
_cell_length_c 11.979024
_cell_angle_alpha 90.000000
_cell_angle_beta 90.000000
_cell_angle_gamma 90.000000
_cell_volume 1548.553174
_symmetry_space_group_name_H-M "P M N 21"
_symmetry_group_IT_number 31
_symmetry_cell_setting 'orthorhombic'
loop_
_space_group_symop_operation_xyz
x,y,z
1/2-x,-y,1/2+z
-x,y,z
1/2+x,-y,1/2+z
loop_
_atom_site_type_symbol
_atom_site_label
_atom_site_fract_x
_atom_site_fract_y
_atom_site_fract_z
Si Si1 0.321345 0.150421 0.811980
Si Si2 0.317188 0.906026 0.536127
Si Si3 0.316399 0.588040 0.091635
Si Si4 0.178655 0.650421 0.311980
Si Si5 0.816399 0.088040 0.591635
Si Si6 0.682812 0.593974 0.536127
Si Si7 0.812452 0.250000 0.192372
Si Si8 0.187267 0.250000 0.444063
O O1 0.500000 0.128684 0.848721
O O2 0.303363 0.250000 0.770884
O O3 0.274657 0.089457 0.708673
O O4 0.204297 0.135509 0.914512
O O5 0.500000 0.928217 0.555976
O O6 0.252886 0.837221 0.628383
O O7 0.214018 0.993724 0.538348
O O8 0.500000 0.603193 0.114015
O O9 0.225343 0.589457 0.208673
O O10 0.285982 0.493724 0.038348
O O11 0.251976 0.663162 0.007874
O O12 0.295702 0.635510 0.414512
O O13 0.000000 0.628684 0.348720
O O14 0.751976 0.163162 0.507874
O O15 0.000000 0.103193 0.614015
O O16 0.500000 0.571783 0.555975
O O17 0.747113 0.662779 0.628384
O O18 0.743599 0.250000 0.318035
O O19 0.000000 0.249999 0.190389
O O20 0.000000 0.250000 0.436454
#
# Coordination Sequence:
#
# PCOD8170380 Si02
#       8
#     4   4   4   4   4   4   4   4
#     4  11  23  41  65  90 123 164 213 267 314 365
#     4  11  23  40  64  93 126 164 208 257 314 376
#     4  11  23  40  64  93 126 164 208 257 314 376
#     4  11  23  41  65  90 123 164 213 267 314 365
#     4  11  23  40  64  93 126 164 208 257 314 376
#     4  11  23  40  64  93 126 164 208 257 314 376
#     4   9  20  39  61  86 122 165 203 246 307 374
#     4   9  20  39  61  86 122 165 203 246 307 374
#
# _framework density 20.664451
#
# number of rings (size 3 to 8) (size 9 to 14) (size 15 to 20)
#    0.000    1.500    2.500    2.250    3.500    1.000 
#    0.000    0.000    0.000    6.000    0.000    0.000 
#    0.000    0.000    0.000    0.000    0.000    0.000 
#
# Total GULP energy -396965.651026 kJ/mol
# GULP energy per Si atom -12405.176595 kJ/mol
# Density = 2.061742 g / cm^3
# Si number density = 20.664451 Si / 1000 Ang^3
#
#
#
# Elastic Constant Matrix: (Units=GPa)
#
#
# Indices 1 2 3 4 5 6 
#
# 1 40.8236 24.2653 17.8631 0.0000 0.0000 0.0000
# 2 24.2653 135.3615 48.8409 0.0000 0.0000 0.0000
# 3 17.8631 48.8409 145.3649 0.0000 0.0000 0.0000
# 4 0.0000 0.0000 0.0000 29.4072 0.0000 0.0000
# 5 0.0000 0.0000 0.0000 0.0000 25.6088 0.0000
# 6 0.0000 0.0000 0.0000 0.0000 0.0000 30.4974
#
#
#
# Elastic Compliance Matrix: (Units=1/GPa)
#
#
# Indices 1 2 3 4 5 6 
#
# 1 0.027914 -0.004286 -0.001990 0.000000 0.000000 0.000000
# 2 -0.004286 0.009065 -0.002519 0.000000 0.000000 0.000000
# 3 -0.001990 -0.002519 0.007970 0.000000 0.000000 0.000000
# 4 0.000000 0.000000 0.000000 0.034005 0.000000 0.000000
# 5 0.000000 0.000000 0.000000 0.000000 0.039049 0.000000
# 6 0.000000 0.000000 0.000000 0.000000 0.000000 0.032790
#
#
# Mechanical properties :
#
#
# Convention : Reuss Voigt Hill
#
# Bulk Modulus (GPa) = 36.55128 55.94318 46.24723
# Shear Modulus (GPa) = 28.16861 32.47474 30.32167
#
# Velocity S-wave (km/s) = 3.69608 3.96855 3.83474
# Velocity P-wave (km/s) = 5.99509 6.93759 6.48349
#
# Compressibility (1/GPa) = 0.02735883
#
# Stress axis : x y z
#
# Youngs Moduli (GPa) = 35.82442 110.31654 125.46794
#
# Poissons Ratio (x) = 0.47280 0.24970
# Poissons Ratio (y) = 0.15354 0.31606
# Poissons Ratio (z) = 0.07130 0.27789
#
# Static dielectric constant tensor:
#      x y z
#    x 3.400330 0.000000 0.000000 
#    y 0.000000 3.723900 0.000000 
#    z 0.000000 0.000000 3.779880 
# 
# 
# High freq. dielectric constant tensor:
#      x y z
#    x 1.787520 0.000000 0.000000 
#    y 0.000000 1.815830 0.000000 
#    z 0.000000 0.000000 1.816160 
# 
# From -- ./inp_files/3695.got.cif
#   From: 2010.03.12/outbox.cif.g09.slc.cpg/sg31_2_cif.got.tgz:3695.got - 2010.04.14 01:42:59.
