data_PCOD8170074
_publ_section_title
;
Structure prediction by ZEFSAII (Michael W. Deem and Ramdas Pophale) SiO2 
 PCOD8170074
Probable space group: P M N 21
;
_chemical_formula_sum "Si O2"
_cell_formula_units_Z 32
_cell_length_a 9.307621
_cell_length_b 11.861329
_cell_length_c 14.192589
_cell_angle_alpha 90.000000
_cell_angle_beta 90.000000
_cell_angle_gamma 90.000000
_cell_volume 1566.872539
_symmetry_space_group_name_H-M "P M N 21"
_symmetry_group_IT_number 31
_symmetry_cell_setting 'orthorhombic'
loop_
_space_group_symop_operation_xyz
x,y,z
1/2-x,-y,1/2+z
-x,y,z
1/2+x,-y,1/2+z
loop_
_atom_site_type_symbol
_atom_site_label
_atom_site_fract_x
_atom_site_fract_y
_atom_site_fract_z
Si Si1 0.665242 0.098972 0.165600
Si Si2 0.340222 0.796049 0.398978
Si Si3 0.665426 0.190682 0.360847
Si Si4 0.835937 0.553168 0.080594
Si Si5 0.170883 0.411604 0.391481
Si Si6 0.165910 0.634034 0.281633
Si Si7 0.168521 0.987523 0.010543
Si Si8 0.158629 0.301092 0.094308
O O1 0.500000 0.085435 0.137509
O O2 0.687952 0.096478 0.278668
O O3 0.751742 0.999682 0.111503
O O4 0.718397 0.222281 0.135149
O O5 0.500000 0.816509 0.358292
O O6 0.243045 0.747641 0.315796
O O7 0.277780 0.912404 0.441547
O O8 0.341593 0.702756 0.481093
O O9 0.500000 0.230865 0.361112
O O10 0.765652 0.298748 0.343379
O O11 0.703518 0.131450 0.460854
O O12 0.807544 0.633394 0.169667
O O13 0.808261 0.428807 0.122428
O O14 0.000000 0.565564 0.043847
O O15 0.726827 0.583630 0.998254
O O16 0.224092 0.520532 0.332828
O O17 0.000000 0.401770 0.391563
O O18 0.000000 0.645952 0.307077
O O19 0.000000 0.002591 0.029978
O O20 0.000000 0.264281 0.132090
#
# Coordination Sequence:
#
# PCOD8170074 Si02
#       8
#     4   4   4   4   4   4   4   4
#     4  10  20  34  58  90 115 144 191 243 285 330
#     4   9  17  32  56  79 102 140 186 229 275 329
#     4  10  22  41  61  82 116 157 191 230 287 348
#     4  10  20  36  55  78 114 157 190 223 281 348
#     4  11  23  38  58  87 119 150 189 240 284 332
#     4  10  21  35  54  82 117 150 183 230 284 336
#     4   9  20  40  61  81 110 150 191 234 286 341
#     4   9  17  32  55  79 109 150 189 229 278 334
#
# _framework density 20.422848999999999
#
# number of rings (size 3 to 8) (size 9 to 14) (size 15 to 20)
#    0.000    2.250    1.250    2.250    0.000    6.000 
#    2.250    0.000    0.000    0.000    0.000    0.000 
#    0.000    0.000    0.000    0.000    0.000    0.000 
#
# Total GULP energy -396729.835916 kJ/mol
# GULP energy per Si atom -12397.807372 kJ/mol
# Density = 2.037637 g / cm^3
# Si number density = 20.422849 Si / 1000 Ang^3
#
#
#
# Elastic Constant Matrix: (Units=GPa)
#
#
# Indices 1 2 3 4 5 6 
#
# 1 71.7708 16.5148 30.3629 0.0000 0.0000 0.0000
# 2 16.5148 31.5831 2.3219 0.0000 0.0000 0.0000
# 3 30.3629 2.3219 67.1146 0.0000 0.0000 0.0000
# 4 0.0000 0.0000 0.0000 26.7809 0.0000 0.0000
# 5 0.0000 0.0000 0.0000 0.0000 33.5192 0.0000
# 6 0.0000 0.0000 0.0000 0.0000 0.0000 26.2515
#
#
#
# Elastic Compliance Matrix: (Units=1/GPa)
#
#
# Indices 1 2 3 4 5 6 
#
# 1 0.019824 -0.009732 -0.008632 0.000000 0.000000 0.000000
# 2 -0.009732 0.036520 0.003139 0.000000 0.000000 0.000000
# 3 -0.008632 0.003139 0.018696 0.000000 0.000000 0.000000
# 4 0.000000 0.000000 0.000000 0.037340 0.000000 0.000000
# 5 0.000000 0.000000 0.000000 0.000000 0.029834 0.000000
# 6 0.000000 0.000000 0.000000 0.000000 0.000000 0.038093
#
#
# Mechanical properties :
#
#
# Convention : Reuss Voigt Hill
#
# Bulk Modulus (GPa) = 22.42536 29.87419 26.14978
# Shear Modulus (GPa) = 22.16109 25.39490 23.77800
#
# Velocity S-wave (km/s) = 3.29768 3.53009 3.41586
# Velocity P-wave (km/s) = 5.05014 5.59240 5.32818
#
# Compressibility (1/GPa) = 0.04459238
#
# Stress axis : x y z
#
# Youngs Moduli (GPa) = 50.44311 27.38202 53.48618
#
# Poissons Ratio (x) = 0.26647 0.46169
# Poissons Ratio (y) = 0.49089 -0.16790
# Poissons Ratio (z) = 0.43542 -0.08596
#
# Static dielectric constant tensor:
#      x y z
#    x 3.563620 0.000000 0.000000 
#    y 0.000000 3.509950 0.000000 
#    z 0.000000 0.000000 3.706600 
# 
# 
# High freq. dielectric constant tensor:
#      x y z
#    x 1.786330 0.000000 0.000000 
#    y 0.000000 1.785040 0.000000 
#    z 0.000000 0.000000 1.796970 
# 
# From -- ./inp_files/5001.got.cif
#   From: 2010.03.12/outbox.cif.g09.slc.cpg/sg31_3_cif.got.tgz:5001.got - 2010.04.14 01:42:59.
