data_PCOD8170465
_publ_section_title
;
Structure prediction by ZEFSAII (Michael W. Deem and Ramdas Pophale) SiO2 
 PCOD8170465
Probable space group: P B A 2
;
_chemical_formula_sum "Si O2"
_cell_formula_units_Z 30
_cell_length_a 11.654875
_cell_length_b 15.134208
_cell_length_c 8.414774
_cell_angle_alpha 90.000000
_cell_angle_beta 90.000000
_cell_angle_gamma 90.000000
_cell_volume 1484.259287
_symmetry_space_group_name_H-M "P B A 2"
_symmetry_group_IT_number 32
_symmetry_cell_setting 'orthorhombic'
loop_
_space_group_symop_operation_xyz
x,y,z
-x,-y,z
1/2-x,1/2+y,z
1/2+x,1/2-y,z
loop_
_atom_site_type_symbol
_atom_site_label
_atom_site_fract_x
_atom_site_fract_y
_atom_site_fract_z
Si Si1 0.576211 0.923459 0.579880
Si Si2 0.238783 0.334040 0.931029
Si Si3 0.317762 0.617395 0.439433
Si Si4 0.400764 0.775680 0.653727
Si Si5 0.192540 0.147516 0.073291
Si Si6 0.513533 0.640029 0.862178
Si Si7 0.873817 0.480911 0.939082
Si Si8 0.500000 0.500000 0.603277
O O1 0.685299 0.903543 0.471590
O O2 0.489644 0.841573 0.573670
O O3 0.619560 0.953695 0.753896
O O4 0.500000 0.000000 0.500472
O O5 0.207406 0.320705 0.743763
O O6 0.374004 0.340318 0.963257
O O7 0.190244 0.428578 0.980900
O O8 0.196280 0.252596 0.039793
O O9 0.352478 0.706928 0.527557
O O10 0.337627 0.632501 0.255139
O O11 0.395948 0.535376 0.495347
O O12 0.473291 0.732796 0.794137
O O13 0.311887 0.100109 0.028088
O O14 0.089726 0.101822 0.971366
O O15 0.547416 0.576319 0.717175
O O16 0.000000 0.500000 0.007333
#
# Coordination Sequence:
#
# PCOD8170465 Si02
#       8
#     4   4   4   4   4   4   4   2
#     4  11  21  41  70  97 127 170 226 281 324 394
#     4  11  21  39  70  93 125 172 222 281 328 386
#     4  11  25  43  60  98 141 169 215 268 353 416
#     4  10  20  39  63  94 126 167 214 274 319 391
#     4  11  26  41  61  99 140 172 218 276 344 419
#     4  10  20  37  66  91 121 166 224 266 317 379
#     4  11  22  42  70  97 127 172 233 281 323 392
#     4  10  22  40  68  88 122 172 218 282 318 388
#
# _framework density 20.212102999999999
#
# number of rings (size 3 to 8) (size 9 to 14) (size 15 to 20)
#    0.000    1.333    2.667    5.600    1.867    3.200 
#    2.400    0.000    0.000    0.000    0.000    0.000 
#    0.000    0.000    0.000    0.000    0.000    0.000 
#
# Total GULP energy -371907.366375 kJ/mol
# GULP energy per Si atom -12396.912213 kJ/mol
# Density = 2.016610 g / cm^3
# Si number density = 20.212103 Si / 1000 Ang^3
#
#
#
# Elastic Constant Matrix: (Units=GPa)
#
#
# Indices 1 2 3 4 5 6 
#
# 1 139.2271 44.6909 37.1835 0.0000 0.0000 0.0000
# 2 44.6909 105.7945 29.0715 0.0000 0.0000 0.0000
# 3 37.1835 29.0715 79.7091 0.0000 0.0000 0.0000
# 4 0.0000 0.0000 0.0000 10.4843 0.0000 0.0000
# 5 0.0000 0.0000 0.0000 0.0000 10.6594 0.0000
# 6 0.0000 0.0000 0.0000 0.0000 0.0000 33.4593
#
#
#
# Elastic Compliance Matrix: (Units=1/GPa)
#
#
# Indices 1 2 3 4 5 6 
#
# 1 0.008952 -0.002928 -0.003108 0.000000 0.000000 0.000000
# 2 -0.002928 0.011463 -0.002815 0.000000 0.000000 0.000000
# 3 -0.003108 -0.002815 0.015022 0.000000 0.000000 0.000000
# 4 0.000000 0.000000 0.000000 0.095381 0.000000 0.000000
# 5 0.000000 0.000000 0.000000 0.000000 0.093814 0.000000
# 6 0.000000 0.000000 0.000000 0.000000 0.000000 0.029887
#
#
# Mechanical properties :
#
#
# Convention : Reuss Voigt Hill
#
# Bulk Modulus (GPa) = 56.38464 60.73583 58.56023
# Shear Modulus (GPa) = 17.97703 25.17293 21.57498
#
# Velocity S-wave (km/s) = 2.98555 3.53291 3.27070
# Velocity P-wave (km/s) = 6.31203 6.83786 6.58020
#
# Compressibility (1/GPa) = 0.01773533
#
# Stress axis : x y z
#
# Youngs Moduli (GPa) = 111.70149 87.24093 66.56756
#
# Poissons Ratio (x) = 0.25541 0.20692
# Poissons Ratio (y) = 0.32702 0.18738
# Poissons Ratio (z) = 0.34722 0.24557
#
# Static dielectric constant tensor:
#      x y z
#    x 3.958420 0.000000 0.000000 
#    y 0.000000 3.885270 0.000000 
#    z 0.000000 0.000000 3.355580 
# 
# 
# High freq. dielectric constant tensor:
#      x y z
#    x 1.805710 0.000000 0.000000 
#    y 0.000000 1.804730 0.000000 
#    z 0.000000 0.000000 1.754910 
# 
# From -- ./inp_files/2828.got.cif
#   From: 2010.03.12/outbox.cif.g09.slc.cpg/sg32_2_cif.got.tgz:2828.got - 2010.04.14 01:46:39.
