data_PCOD8170347
_publ_section_title
;
Structure prediction by ZEFSAII (Michael W. Deem and Ramdas Pophale) SiO2 
 PCOD8170347
Probable space group: P M N 21
;
_chemical_formula_sum "Si O2"
_cell_formula_units_Z 32
_cell_length_a 9.147803
_cell_length_b 11.874203
_cell_length_c 14.415737
_cell_angle_alpha 90.000000
_cell_angle_beta 90.000000
_cell_angle_gamma 90.000000
_cell_volume 1565.878724
_symmetry_space_group_name_H-M "P M N 21"
_symmetry_group_IT_number 31
_symmetry_cell_setting 'orthorhombic'
loop_
_space_group_symop_operation_xyz
x,y,z
1/2-x,-y,1/2+z
-x,y,z
1/2+x,-y,1/2+z
loop_
_atom_site_type_symbol
_atom_site_label
_atom_site_fract_x
_atom_site_fract_y
_atom_site_fract_z
Si Si1 0.667522 0.094170 0.212760
Si Si2 0.166220 0.785419 0.423741
Si Si3 0.828751 0.178566 0.380190
Si Si4 0.828995 0.546059 0.121879
Si Si5 0.328395 0.407921 0.411023
Si Si6 0.327586 0.627383 0.293848
Si Si7 0.328611 0.998240 0.026602
Si Si8 0.660855 0.329804 0.113714
O O1 0.500000 0.067724 0.240401
O O2 0.768250 0.090058 0.303857
O O3 0.727691 0.006700 0.133537
O O4 0.684851 0.217762 0.171165
O O5 0.267712 0.740271 0.341536
O O6 0.235351 0.902842 0.460840
O O7 0.171906 0.693390 0.504906
O O8 0.000000 0.800525 0.387578
O O9 0.751449 0.298436 0.370819
O O10 0.000000 0.194334 0.364860
O O11 0.795188 0.123187 0.481352
O O12 0.742058 0.626589 0.191647
O O13 0.784354 0.417710 0.143597
O O14 0.000000 0.560304 0.138430
O O15 0.781800 0.576236 0.017525
O O16 0.500000 0.387002 0.401694
O O17 0.280201 0.516169 0.351389
O O18 0.500000 0.637676 0.285938
O O19 0.500000 0.025692 0.032422
O O20 0.500000 0.380631 0.136901
#
# Coordination Sequence:
#
# PCOD8170347 Si02
#       8
#     4   4   4   4   4   4   4   4
#     4   9  18  36  60  83 111 151 190 229 286 344
#     4   9  17  34  59  80 104 141 183 227 280 337
#     4  11  22  37  59  87 116 148 192 240 278 328
#     4  11  22  36  54  80 114 153 189 226 279 339
#     4  10  23  41  57  79 118 158 187 226 284 342
#     4  11  22  37  56  83 116 148 186 233 283 337
#     4   8  18  38  60  82 112 148 186 233 286 335
#     4   9  17  31  55  82 107 141 185 232 278 330
#
# _framework density 20.435808999999999
#
# number of rings (size 3 to 8) (size 9 to 14) (size 15 to 20)
#    0.000    2.250    1.250    3.375    0.000    5.500 
#    2.250    4.375    0.000    0.000    0.000    0.000 
#    0.000    0.000    0.000    0.000    0.000    0.000 
#
# Total GULP energy -396745.713571 kJ/mol
# GULP energy per Si atom -12398.303549 kJ/mol
# Density = 2.038930 g / cm^3
# Si number density = 20.435809 Si / 1000 Ang^3
#
#
#
# Elastic Constant Matrix: (Units=GPa)
#
#
# Indices 1 2 3 4 5 6 
#
# 1 54.3079 9.6565 27.8257 0.0000 0.0000 0.0000
# 2 9.6565 32.6627 -3.2505 0.0000 0.0000 0.0000
# 3 27.8257 -3.2505 86.6473 0.0000 0.0000 0.0000
# 4 0.0000 0.0000 0.0000 23.7842 0.0000 0.0000
# 5 0.0000 0.0000 0.0000 0.0000 31.7858 0.0000
# 6 0.0000 0.0000 0.0000 0.0000 0.0000 20.4466
#
#
#
# Elastic Compliance Matrix: (Units=1/GPa)
#
#
# Indices 1 2 3 4 5 6 
#
# 1 0.023893 -0.007857 -0.007968 0.000000 0.000000 0.000000
# 2 -0.007857 0.033314 0.003773 0.000000 0.000000 0.000000
# 3 -0.007968 0.003773 0.014241 0.000000 0.000000 0.000000
# 4 0.000000 0.000000 0.000000 0.042045 0.000000 0.000000
# 5 0.000000 0.000000 0.000000 0.000000 0.031461 0.000000
# 6 0.000000 0.000000 0.000000 0.000000 0.000000 0.048908
#
#
# Mechanical properties :
#
#
# Convention : Reuss Voigt Hill
#
# Bulk Modulus (GPa) = 21.12139 26.89793 24.00966
# Shear Modulus (GPa) = 21.39071 24.49574 22.94322
#
# Velocity S-wave (km/s) = 3.23883 3.46593 3.35430
# Velocity P-wave (km/s) = 4.93402 5.40441 5.17456
#
# Compressibility (1/GPa) = 0.04734537
#
# Stress axis : x y z
#
# Youngs Moduli (GPa) = 41.85347 30.01724 70.21841
#
# Poissons Ratio (x) = 0.23584 0.55947
# Poissons Ratio (y) = 0.32883 -0.26492
# Poissons Ratio (z) = 0.33347 -0.11325
#
# Static dielectric constant tensor:
#      x y z
#    x 3.489230 0.000000 0.000000 
#    y 0.000000 3.459090 0.000000 
#    z 0.000000 0.000000 3.938670 
# 
# 
# High freq. dielectric constant tensor:
#      x y z
#    x 1.779040 0.000000 0.000000 
#    y 0.000000 1.782380 0.000000 
#    z 0.000000 0.000000 1.808140 
# 
# From -- ./inp_files/5093.got.cif
#   From: 2010.03.12/outbox.cif.g09.slc.cpg/sg31_3_cif.got.tgz:5093.got - 2010.04.14 01:42:59.
