data_PCOD8170899
_publ_section_title
;
Structure prediction by ZEFSAII (Michael W. Deem and Ramdas Pophale) SiO2 
 PCOD8170899
Probable space group: P N A 21
;
_chemical_formula_sum "Si O2"
_cell_formula_units_Z 32
_cell_length_a 14.181709
_cell_length_b 11.705032
_cell_length_c 9.124756
_cell_angle_alpha 90.000000
_cell_angle_beta 90.000000
_cell_angle_gamma 90.000000
_cell_volume 1514.685385
_symmetry_space_group_name_H-M "P N A 21"
_symmetry_group_IT_number 33
_symmetry_cell_setting 'orthorhombic'
loop_
_space_group_symop_operation_xyz
x,y,z
-x,-y,1/2+z
1/2-x,1/2+y,1/2+z
1/2+x,1/2-y,z
loop_
_atom_site_type_symbol
_atom_site_label
_atom_site_fract_x
_atom_site_fract_y
_atom_site_fract_z
Si Si1 0.561595 0.329990 0.541980
Si Si2 0.403208 0.073298 0.348116
Si Si3 0.379536 0.325609 0.353585
Si Si4 0.601704 0.587467 0.531143
Si Si5 0.466776 0.736894 0.372291
Si Si6 0.199361 0.366428 0.515660
Si Si7 0.452791 0.047806 0.028137
Si Si8 0.780041 0.643210 0.344686
O O1 0.471365 0.357494 0.444610
O O2 0.614855 0.451905 0.551269
O O3 0.527282 0.281475 0.698320
O O4 0.628843 0.235843 0.464768
O O5 0.354265 0.193400 0.373131
O O6 0.470988 0.047860 0.485070
O O7 0.319564 0.983963 0.344719
O O8 0.466369 0.076876 0.199469
O O9 0.399096 0.354590 0.187308
O O10 0.286400 0.389506 0.408291
O O11 0.502309 0.621762 0.452925
O O12 0.684982 0.646176 0.437514
O O13 0.534732 0.841655 0.423306
O O14 0.358097 0.768930 0.412454
O O15 0.149500 0.489999 0.511372
O O16 0.239365 0.327846 0.674758
#
# Coordination Sequence:
#
# PCOD8170899 Si02
#       8
#     4   4   4   4   4   4   4   4
#     4  11  24  45  65  93 135 180 211 266 331 401
#     4  10  20  39  65  94 122 164 211 278 313 384
#     4  12  24  39  63  99 131 166 222 262 328 391
#     4  12  24  43  62  97 135 175 215 268 330 392
#     4  10  22  44  68  95 130 173 221 270 330 385
#     4  10  22  42  64  96 127 171 220 269 325 390
#     4  10  20  40  67  92 124 159 219 269 324 371
#     4   9  22  42  66  92 128 172 223 264 329 386
#
# _framework density 21.126498999999999
#
# number of rings (size 3 to 8) (size 9 to 14) (size 15 to 20)
#    0.000    1.500    2.500    3.000    0.000    3.000 
#    9.000    1.250    0.000    0.000    0.000    0.000 
#    0.000    0.000    0.000    0.000    0.000    0.000 
#
# Total GULP energy -396744.720064 kJ/mol
# GULP energy per Si atom -12398.272502 kJ/mol
# Density = 2.107841 g / cm^3
# Si number density = 21.126499 Si / 1000 Ang^3
#
#
#
# Elastic Constant Matrix: (Units=GPa)
#
#
# Indices 1 2 3 4 5 6 
#
# 1 81.2283 14.5902 28.8413 0.0000 0.0000 0.0000
# 2 14.5902 71.7516 9.4627 0.0000 0.0000 0.0000
# 3 28.8413 9.4627 63.0373 0.0000 0.0000 0.0000
# 4 0.0000 0.0000 0.0000 32.5823 0.0000 0.0000
# 5 0.0000 0.0000 0.0000 0.0000 21.3922 0.0000
# 6 0.0000 0.0000 0.0000 0.0000 0.0000 24.1942
#
#
#
# Elastic Compliance Matrix: (Units=1/GPa)
#
#
# Indices 1 2 3 4 5 6 
#
# 1 0.015030 -0.002193 -0.006547 0.000000 0.000000 0.000000
# 2 -0.002193 0.014538 -0.001179 0.000000 0.000000 0.000000
# 3 -0.006547 -0.001179 0.019036 0.000000 0.000000 0.000000
# 4 0.000000 0.000000 0.000000 0.030691 0.000000 0.000000
# 5 0.000000 0.000000 0.000000 0.000000 0.046746 0.000000
# 6 0.000000 0.000000 0.000000 0.000000 0.000000 0.041332
#
#
# Mechanical properties :
#
#
# Convention : Reuss Voigt Hill
#
# Bulk Modulus (GPa) = 34.76351 35.75617 35.25984
# Shear Modulus (GPa) = 25.40643 26.50862 25.95752
#
# Velocity S-wave (km/s) = 3.47159 3.54610 3.50904
# Velocity P-wave (km/s) = 5.70613 5.80758 5.75708
#
# Compressibility (1/GPa) = 0.02876579
#
# Stress axis : x y z
#
# Youngs Moduli (GPa) = 66.53567 68.78362 52.53152
#
# Poissons Ratio (x) = 0.15082 0.34394
# Poissons Ratio (y) = 0.14589 0.06194
# Poissons Ratio (z) = 0.43563 0.08111
#
# Static dielectric constant tensor:
#      x y z
#    x 3.658790 0.000000 0.000000 
#    y 0.000000 3.932280 0.000000 
#    z 0.000000 0.000000 3.839420 
# 
# 
# High freq. dielectric constant tensor:
#      x y z
#    x 1.816270 0.000000 0.000000 
#    y 0.000000 1.836030 0.000000 
#    z 0.000000 0.000000 1.827710 
# 
# From -- ./inp_files/4410.got.cif
#   From: 2010.03.12/outbox.cif.g09.slc.cpg/sg33_3_cif.got.tgz:4410.got - 2010.04.14 01:49:19.
