data_PCOD8170273
_publ_section_title
;
Structure prediction by ZEFSAII (Michael W. Deem and Ramdas Pophale) SiO2 
 PCOD8170273
Probable space group: P M N 21
;
_chemical_formula_sum "Si O2"
_cell_formula_units_Z 24
_cell_length_a 8.549815
_cell_length_b 9.323922
_cell_length_c 15.075842
_cell_angle_alpha 90.000000
_cell_angle_beta 90.000000
_cell_angle_gamma 90.000000
_cell_volume 1201.813081
_symmetry_space_group_name_H-M "P M N 21"
_symmetry_group_IT_number 31
_symmetry_cell_setting 'orthorhombic'
loop_
_space_group_symop_operation_xyz
x,y,z
1/2-x,-y,1/2+z
-x,y,z
1/2+x,-y,1/2+z
loop_
_atom_site_type_symbol
_atom_site_label
_atom_site_fract_x
_atom_site_fract_y
_atom_site_fract_z
Si Si1 0.679441 0.149914 0.224280
Si Si2 0.681551 0.156797 0.728031
Si Si3 0.319420 0.655723 0.871965
Si Si4 0.181051 0.661648 0.060218
Si Si5 0.680879 0.648734 0.373777
Si Si6 0.178905 0.334193 0.075113
O O1 0.500000 0.101412 0.227116
O O2 0.716628 0.242331 0.310691
O O3 0.707661 0.241548 0.135856
O O4 0.788602 0.011198 0.222162
O O5 0.500000 0.187542 0.745510
O O6 0.735632 0.229473 0.636220
O O7 0.780226 0.221749 0.808602
O O8 0.500000 0.683947 0.851133
O O9 0.281472 0.490803 0.849415
O O10 0.283541 0.693843 0.973727
O O11 0.210983 0.501133 0.095071
O O12 0.000000 0.681752 0.034159
O O13 0.500000 0.604465 0.367090
O O14 0.718919 0.701454 0.473144
O O15 0.000000 0.294846 0.097899
#
# Coordination Sequence:
#
# PCOD8170273 Si02
#       6
#     4   4   4   4   4   4
#     4  12  25  39  57  83 118 157 196 239 288 343
#     4  11  23  39  60  86 119 156 193 236 288 345
#     4  11  22  38  62  88 115 150 195 242 286 339
#     4   9  20  39  62  87 115 148 188 238 293 343
#     4  10  21  39  63  89 118 151 190 237 288 342
#     4   9  19  38  62  87 115 148 188 236 289 342
#
# _framework density 19.969826999999999
#
# number of rings (size 3 to 8) (size 9 to 14) (size 15 to 20)
#    0.000    1.667    0.000    6.000    0.000    7.333 
#    0.000    1.667    0.000    0.000    0.000    0.000 
#    0.000    0.000    0.000    0.000    0.000    0.000 
#
# Total GULP energy -297758.664792 kJ/mol
# GULP energy per Si atom -12406.611033 kJ/mol
# Density = 1.992438 g / cm^3
# Si number density = 19.969827 Si / 1000 Ang^3
#
#
#
# Elastic Constant Matrix: (Units=GPa)
#
#
# Indices 1 2 3 4 5 6 
#
# 1 64.2908 9.8736 27.0170 0.0000 0.0000 0.0000
# 2 9.8736 92.8932 60.6961 0.0000 0.0000 0.0000
# 3 27.0170 60.6961 107.7248 0.0000 0.0000 0.0000
# 4 0.0000 0.0000 0.0000 -1.4348 0.0000 0.0000
# 5 0.0000 0.0000 0.0000 0.0000 32.6587 0.0000
# 6 0.0000 0.0000 0.0000 0.0000 0.0000 31.9396
#
#
#
# Elastic Compliance Matrix: (Units=1/GPa)
#
#
# Indices 1 2 3 4 5 6 
#
# 1 0.017535 0.001598 -0.005298 0.000000 0.000000 0.000000
# 2 0.001598 0.017183 -0.010082 0.000000 0.000000 0.000000
# 3 -0.005298 -0.010082 0.016292 0.000000 0.000000 0.000000
# 4 0.000000 0.000000 0.000000 -0.696965 0.000000 0.000000
# 5 0.000000 0.000000 0.000000 0.000000 0.030620 0.000000
# 6 0.000000 0.000000 0.000000 0.000000 0.000000 0.031309
#
#
# Mechanical properties :
#
#
# Convention : Reuss Voigt Hill
#
# Bulk Modulus (GPa) = 42.65161 51.12024 46.88593
# Shear Modulus (GPa) = -9.11335 23.78751 7.33708
#
# Velocity S-wave (km/s) = -2.13857 3.45508 1.91887
# Velocity P-wave (km/s) = 3.91234 6.44756 5.33280
#
# Compressibility (1/GPa) = 0.02344578
#
# Stress axis : x y z
#
# Youngs Moduli (GPa) = 57.02760 58.19739 61.37844
#
# Poissons Ratio (x) = -0.09300 0.32519
# Poissons Ratio (y) = -0.09113 0.61883
# Poissons Ratio (z) = 0.30214 0.58676
#
# Static dielectric constant tensor:
#      x y z
#    x 3.514640 0.000000 0.000000 
#    y 0.000000 3.481930 0.000000 
#    z 0.000000 0.000000 3.685260 
# 
# 
# High freq. dielectric constant tensor:
#      x y z
#    x 1.780470 0.000000 0.000000 
#    y 0.000000 1.773230 0.000000 
#    z 0.000000 0.000000 1.790600 
# 
# From -- ./inp_files/4755.got.cif
#   From: 2010.03.12/outbox.cif.g09.slc.cpg/sg31_3_cif.got.tgz:4755.got - 2010.04.14 01:42:59.
