data_PCOD8170292
_publ_section_title
;
Structure prediction by ZEFSAII (Michael W. Deem and Ramdas Pophale) SiO2 
 PCOD8170292
Probable space group: P M N 21
;
_chemical_formula_sum "Si O2"
_cell_formula_units_Z 32
_cell_length_a 14.462620
_cell_length_b 8.305930
_cell_length_c 12.843366
_cell_angle_alpha 90.000000
_cell_angle_beta 90.000000
_cell_angle_gamma 90.000000
_cell_volume 1542.815882
_symmetry_space_group_name_H-M "P M N 21"
_symmetry_group_IT_number 31
_symmetry_cell_setting 'orthorhombic'
loop_
_space_group_symop_operation_xyz
x,y,z
1/2-x,-y,1/2+z
-x,y,z
1/2+x,-y,1/2+z
loop_
_atom_site_type_symbol
_atom_site_label
_atom_site_fract_x
_atom_site_fract_y
_atom_site_fract_z
Si Si1 0.841237 0.953570 0.842320
Si Si2 0.896365 0.093885 0.631333
Si Si3 0.099430 0.185276 0.004238
Si Si4 0.226051 0.625589 0.809753
Si Si5 0.390633 0.538364 0.146023
Si Si6 0.851644 0.950129 0.411472
Si Si7 0.600528 0.824747 0.734446
Si Si8 0.214797 0.624531 0.466323
O O1 0.852227 0.760257 0.836692
O O2 0.833294 0.022703 0.724282
O O3 0.748609 0.974655 0.907707
O O4 0.913022 0.048535 0.914591
O O5 0.872409 0.279706 0.608553
O O6 0.000000 0.078668 0.675242
O O7 0.890948 0.994243 0.524912
O O8 0.111811 0.103247 0.117965
O O9 0.000000 0.278054 0.000894
O O10 0.182593 0.309546 0.988570
O O11 0.168865 0.486900 0.750599
O O12 0.313272 0.704840 0.750092
O O13 0.273566 0.543875 0.908504
O O14 0.500000 0.503910 0.161090
O O15 0.346677 0.409893 0.067377
O O16 0.844324 0.756201 0.400876
O O17 0.907251 0.026556 0.315607
O O18 0.500000 0.735077 0.744185
#
# Coordination Sequence:
#
# PCOD8170292 Si02
#       8
#     4   4   4   4   4   4   4   4
#     4  10  22  37  62  89 121 160 211 255 312 374
#     4  11  23  41  65  93 124 165 216 266 311 375
#     4  10  21  41  65  89 126 174 219 260 312 384
#     4  11  23  41  61  96 130 165 204 266 324 384
#     4  11  23  39  62  93 130 167 209 264 328 377
#     4  10  22  37  62  89 121 160 211 255 312 374
#     4  10  21  41  65  89 126 174 219 260 312 384
#     4  11  23  41  61  96 130 165 204 266 324 384
#
# _framework density 20.741295000000001
#
# number of rings (size 3 to 8) (size 9 to 14) (size 15 to 20)
#    0.000    1.500    1.250    4.500    5.250    6.000 
#    2.250    0.000    0.000    3.000    0.000    0.000 
#    0.000    0.000    0.000    0.000    0.000    0.000 
#
# Total GULP energy -396422.900850 kJ/mol
# GULP energy per Si atom -12388.215652 kJ/mol
# Density = 2.069409 g / cm^3
# Si number density = 20.741295 Si / 1000 Ang^3
#
#
#
# Elastic Constant Matrix: (Units=GPa)
#
#
# Indices 1 2 3 4 5 6 
#
# 1 99.7201 32.7447 21.5205 0.0000 0.0000 0.0000
# 2 32.7447 98.5053 34.6927 0.0000 0.0000 0.0000
# 3 21.5205 34.6927 116.9822 0.0000 0.0000 0.0000
# 4 0.0000 0.0000 0.0000 32.6804 0.0000 0.0000
# 5 0.0000 0.0000 0.0000 0.0000 23.7678 0.0000
# 6 0.0000 0.0000 0.0000 0.0000 0.0000 24.7989
#
#
#
# Elastic Compliance Matrix: (Units=1/GPa)
#
#
# Indices 1 2 3 4 5 6 
#
# 1 0.011379 -0.003400 -0.001085 0.000000 0.000000 0.000000
# 2 -0.003400 0.012352 -0.003038 0.000000 0.000000 0.000000
# 3 -0.001085 -0.003038 0.009649 0.000000 0.000000 0.000000
# 4 0.000000 0.000000 0.000000 0.030599 0.000000 0.000000
# 5 0.000000 0.000000 0.000000 0.000000 0.042074 0.000000
# 6 0.000000 0.000000 0.000000 0.000000 0.000000 0.040324
#
#
# Mechanical properties :
#
#
# Convention : Reuss Voigt Hill
#
# Bulk Modulus (GPa) = 54.54428 54.79148 54.66788
# Shear Modulus (GPa) = 29.84473 31.33273 30.58873
#
# Velocity S-wave (km/s) = 3.79740 3.89092 3.84445
# Velocity P-wave (km/s) = 6.75141 6.83078 6.79121
#
# Compressibility (1/GPa) = 0.01833373
#
# Stress axis : x y z
#
# Youngs Moduli (GPa) = 87.88303 80.95922 103.64068
#
# Poissons Ratio (x) = 0.27529 0.11243
# Poissons Ratio (y) = 0.29884 0.31482
# Poissons Ratio (z) = 0.09534 0.24592
#
# Static dielectric constant tensor:
#      x y z
#    x 3.941250 0.000000 0.000000 
#    y 0.000000 3.734410 0.000000 
#    z 0.000000 0.000000 3.936120 
# 
# 
# High freq. dielectric constant tensor:
#      x y z
#    x 1.821310 0.000000 0.000000 
#    y 0.000000 1.793990 0.000000 
#    z 0.000000 0.000000 1.819560 
# 
# From -- ./inp_files/4280.got.cif
#   From: 2010.03.12/outbox.cif.g09.slc.cpg/sg31_3_cif.got.tgz:4280.got - 2010.04.14 01:42:59.
