data_PCOD8170683
_publ_section_title
;
Structure prediction by ZEFSAII (Michael W. Deem and Ramdas Pophale) SiO2 
 PCOD8170683
Probable space group: P N A 21
;
_chemical_formula_sum "Si O2"
_cell_formula_units_Z 32
_cell_length_a 14.063689
_cell_length_b 9.114183
_cell_length_c 12.690228
_cell_angle_alpha 90.000000
_cell_angle_beta 90.000000
_cell_angle_gamma 90.000000
_cell_volume 1626.621182
_symmetry_space_group_name_H-M "P N A 21"
_symmetry_group_IT_number 33
_symmetry_cell_setting 'orthorhombic'
loop_
_space_group_symop_operation_xyz
x,y,z
-x,-y,1/2+z
1/2-x,1/2+y,1/2+z
1/2+x,1/2-y,z
loop_
_atom_site_type_symbol
_atom_site_label
_atom_site_fract_x
_atom_site_fract_y
_atom_site_fract_z
Si Si1 0.914802 0.781154 0.044620
Si Si2 0.259119 0.211108 0.675649
Si Si3 0.359281 0.943950 0.745965
Si Si4 0.445530 0.371380 0.714864
Si Si5 0.850705 0.871025 0.826347
Si Si6 0.334099 0.958607 0.297863
Si Si7 0.523384 0.863164 0.390175
Si Si8 0.541702 0.962756 0.606482
O O1 0.802592 0.774115 0.070301
O O2 0.961662 0.620869 0.049049
O O3 0.967415 0.882073 0.132511
O O4 0.918465 0.850509 0.928307
O O5 0.361932 0.283276 0.655704
O O6 0.205810 0.297675 0.769563
O O7 0.270293 0.039110 0.703839
O O8 0.323226 0.782787 0.773814
O O9 0.441817 0.935040 0.660526
O O10 0.397707 0.023822 0.849800
O O11 0.412258 0.534550 0.743719
O O12 0.474075 0.286576 0.822765
O O13 0.750201 0.948955 0.851785
O O14 0.418947 0.936641 0.380749
O O15 0.372835 0.041028 0.191779
O O16 0.549962 0.839894 0.513753
#
# Coordination Sequence:
#
# PCOD8170683 Si02
#       8
#     4   4   4   4   4   4   4   4
#     4  11  20  39  65  89 117 169 208 246 315 377
#     4   9  18  38  61  79 117 163 200 247 306 366
#     4  10  20  37  57  89 120 153 205 256 293 371
#     4  10  21  41  62  86 129 159 203 263 304 372
#     4  11  24  38  60  96 126 152 209 267 309 364
#     4   9  20  38  57  89 121 157 205 263 300 373
#     4  10  18  38  64  83 114 170 205 239 314 375
#     4  10  19  37  66  85 120 167 209 245 311 378
#
# _framework density 19.672681000000001
#
# number of rings (size 3 to 8) (size 9 to 14) (size 15 to 20)
#    0.000    2.000    6.250    0.000    1.750    1.000 
#    6.750    1.250    2.750    0.000    0.000    0.000 
#    0.000    0.000    0.000    0.000    0.000    0.000 
#
# Total GULP energy -396658.309105 kJ/mol
# GULP energy per Si atom -12395.572160 kJ/mol
# Density = 1.962790 g / cm^3
# Si number density = 19.672681 Si / 1000 Ang^3
#
#
#
# Elastic Constant Matrix: (Units=GPa)
#
#
# Indices 1 2 3 4 5 6 
#
# 1 63.3914 9.5008 12.4343 0.0000 0.0000 0.0000
# 2 9.5008 91.5365 12.6400 0.0000 0.0000 0.0000
# 3 12.4343 12.6400 78.1714 0.0000 0.0000 0.0000
# 4 0.0000 0.0000 0.0000 25.6906 0.0000 0.0000
# 5 0.0000 0.0000 0.0000 0.0000 20.3179 0.0000
# 6 0.0000 0.0000 0.0000 0.0000 0.0000 22.1110
#
#
#
# Elastic Compliance Matrix: (Units=1/GPa)
#
#
# Indices 1 2 3 4 5 6 
#
# 1 0.016451 -0.001377 -0.002394 0.000000 0.000000 0.000000
# 2 -0.001377 0.011289 -0.001606 0.000000 0.000000 0.000000
# 3 -0.002394 -0.001606 0.013433 0.000000 0.000000 0.000000
# 4 0.000000 0.000000 0.000000 0.038925 0.000000 0.000000
# 5 0.000000 0.000000 0.000000 0.000000 0.049218 0.000000
# 6 0.000000 0.000000 0.000000 0.000000 0.000000 0.045226
#
#
# Mechanical properties :
#
#
# Convention : Reuss Voigt Hill
#
# Bulk Modulus (GPa) = 32.87483 33.58328 33.22905
# Shear Modulus (GPa) = 25.58374 26.85882 26.22128
#
# Velocity S-wave (km/s) = 3.61012 3.69899 3.65482
# Velocity P-wave (km/s) = 5.84161 5.94570 5.89389
#
# Compressibility (1/GPa) = 0.03041841
#
# Stress axis : x y z
#
# Youngs Moduli (GPa) = 60.78662 88.57911 74.44364
#
# Poissons Ratio (x) = 0.12196 0.17823
# Poissons Ratio (y) = 0.08370 0.11959
# Poissons Ratio (z) = 0.14553 0.14230
#
# Static dielectric constant tensor:
#      x y z
#    x 3.640520 0.000000 0.000000 
#    y 0.000000 3.484520 0.000000 
#    z 0.000000 0.000000 3.437850 
# 
# 
# High freq. dielectric constant tensor:
#      x y z
#    x 1.766360 0.000000 0.000000 
#    y 0.000000 1.749630 0.000000 
#    z 0.000000 0.000000 1.753440 
# 
# From -- ./inp_files/8155.got.cif
#   From: 2010.03.12/outbox.cif.g09.slc.cpg/sg33_5_cif.got.tgz:8155.got - 2010.04.14 01:49:19.
