data_PCOD8170520
_publ_section_title
;
Structure prediction by ZEFSAII (Michael W. Deem and Ramdas Pophale) SiO2 
 PCOD8170520
Probable space group: P B A 2
;
_chemical_formula_sum "Si O2"
_cell_formula_units_Z 28
_cell_length_a 19.463604
_cell_length_b 10.492645
_cell_length_c 5.427872
_cell_angle_alpha 90.000000
_cell_angle_beta 90.000000
_cell_angle_gamma 90.000000
_cell_volume 1108.505461
_symmetry_space_group_name_H-M "P B A 2"
_symmetry_group_IT_number 32
_symmetry_cell_setting 'orthorhombic'
loop_
_space_group_symop_operation_xyz
x,y,z
-x,-y,z
1/2-x,1/2+y,z
1/2+x,1/2-y,z
loop_
_atom_site_type_symbol
_atom_site_label
_atom_site_fract_x
_atom_site_fract_y
_atom_site_fract_z
Si Si1 0.925363 0.539485 0.351950
Si Si2 0.180829 0.597521 0.077627
Si Si3 0.963066 0.775929 0.119475
Si Si4 0.177355 0.353169 0.735836
Si Si5 0.827354 0.154595 0.761289
Si Si6 0.027838 0.859869 0.600547
Si Si7 0.669448 0.396962 0.045225
O O1 0.936324 0.628842 0.107140
O O2 0.883207 0.623738 0.544829
O O3 0.000000 0.500000 0.459326
O O4 0.878161 0.416055 0.286408
O O5 0.181069 0.462822 0.939175
O O6 0.161540 0.712035 0.900054
O O7 0.257843 0.622161 0.190759
O O8 0.008513 0.774526 0.366585
O O9 0.901152 0.874148 0.192646
O O10 0.003006 0.807016 0.867460
O O11 0.254464 0.349415 0.615769
O O12 0.162949 0.211647 0.835020
O O13 0.889795 0.139422 0.574312
O O14 0.832581 0.039564 0.951628
O O15 0.000000 0.000000 0.565941
#
# Coordination Sequence:
#
# PCOD8170520 Si02
#       7
#     4   4   4   4   4   4   4
#     4  12  27  45  73 108 149 199 257 318 388 468
#     4  10  23  46  73 104 146 195 260 309 383 456
#     4  12  26  47  73 109 154 200 252 316 390 455
#     4  10  23  48  72 107 145 204 250 313 387 459
#     4  10  23  46  74 104 152 191 259 316 376 462
#     4  12  26  45  71 111 149 200 251 316 388 454
#     4  10  21  48  74 104 146 200 250 317 382 463
#
# _framework density 25.259233999999999
#
# number of rings (size 3 to 8) (size 9 to 14) (size 15 to 20)
#    0.000    1.143    2.857    2.143    2.000    1.714 
#    7.714    0.000    0.000    0.000    0.000    0.000 
#    0.000    0.000    0.000    0.000    0.000    0.000 
#
# Total GULP energy -346913.858176 kJ/mol
# GULP energy per Si atom -12389.780649 kJ/mol
# Density = 2.520174 g / cm^3
# Si number density = 25.259234 Si / 1000 Ang^3
#
#
#
# Elastic Constant Matrix: (Units=GPa)
#
#
# Indices 1 2 3 4 5 6 
#
# 1 210.1975 25.5189 47.1290 0.0000 0.0000 0.0000
# 2 25.5189 89.1333 13.6507 0.0000 0.0000 0.0000
# 3 47.1290 13.6507 81.6231 0.0000 0.0000 0.0000
# 4 0.0000 0.0000 0.0000 7.5666 0.0000 0.0000
# 5 0.0000 0.0000 0.0000 0.0000 24.0121 0.0000
# 6 0.0000 0.0000 0.0000 0.0000 0.0000 26.1287
#
#
#
# Elastic Compliance Matrix: (Units=1/GPa)
#
#
# Indices 1 2 3 4 5 6 
#
# 1 0.005574 -0.001132 -0.003029 0.000000 0.000000 0.000000
# 2 -0.001132 0.011744 -0.001310 0.000000 0.000000 0.000000
# 3 -0.003029 -0.001310 0.014220 0.000000 0.000000 0.000000
# 4 0.000000 0.000000 0.000000 0.132159 0.000000 0.000000
# 5 0.000000 0.000000 0.000000 0.000000 0.041646 0.000000
# 6 0.000000 0.000000 0.000000 0.000000 0.000000 0.038272
#
#
# Mechanical properties :
#
#
# Convention : Reuss Voigt Hill
#
# Bulk Modulus (GPa) = 48.55673 61.50569 55.03121
# Shear Modulus (GPa) = 19.12612 31.18517 25.15564
#
# Velocity S-wave (km/s) = 2.75470 3.51751 3.15921
# Velocity P-wave (km/s) = 5.42060 6.39529 5.92801
#
# Compressibility (1/GPa) = 0.02059447
#
# Stress axis : x y z
#
# Youngs Moduli (GPa) = 179.40376 85.15040 70.32539
#
# Poissons Ratio (x) = 0.09638 0.21302
# Poissons Ratio (y) = 0.20307 0.09216
# Poissons Ratio (z) = 0.54344 0.11159
#
# Static dielectric constant tensor:
#      x y z
#    x 5.747300 0.000000 0.000000 
#    y 0.000000 4.764480 0.000000 
#    z 0.000000 0.000000 3.897130 
# 
# 
# High freq. dielectric constant tensor:
#      x y z
#    x 2.048420 0.000000 0.000000 
#    y 0.000000 2.030280 0.000000 
#    z 0.000000 0.000000 1.954810 
# 
# From -- ./inp_files/1561.got.cif
#   From: 2010.03.12/outbox.cif.g09.slc.cpg/sg32_1_cif.got.tgz:1561.got - 2010.04.14 01:46:39.
