data_PCOD8170038
_publ_section_title
;
Structure prediction by ZEFSAII (Michael W. Deem and Ramdas Pophale) SiO2 
 PCOD8170038
Probable space group: P M N 21
;
_chemical_formula_sum "Si O2"
_cell_formula_units_Z 32
_cell_length_a 21.336346
_cell_length_b 9.961040
_cell_length_c 8.711055
_cell_angle_alpha 90.000000
_cell_angle_beta 90.000000
_cell_angle_gamma 90.000000
_cell_volume 1851.379648
_symmetry_space_group_name_H-M "P M N 21"
_symmetry_group_IT_number 31
_symmetry_cell_setting 'orthorhombic'
loop_
_space_group_symop_operation_xyz
x,y,z
1/2-x,-y,1/2+z
-x,y,z
1/2+x,-y,1/2+z
loop_
_atom_site_type_symbol
_atom_site_label
_atom_site_fract_x
_atom_site_fract_y
_atom_site_fract_z
Si Si1 0.070845 0.185356 0.864750
Si Si2 0.793857 0.265514 0.431035
Si Si3 0.348300 0.008942 0.919590
Si Si4 0.073007 0.908630 0.703619
Si Si5 0.858655 0.171122 0.156224
Si Si6 0.743717 0.234439 0.966623
Si Si7 0.328580 0.317001 0.257537
Si Si8 0.329691 0.619053 0.238242
O O1 0.111860 0.283416 0.761532
O O2 0.000000 0.224300 0.828663
O O3 0.084523 0.031176 0.820491
O O4 0.083300 0.208901 0.046972
O O5 0.838385 0.288353 0.278781
O O6 0.729347 0.660924 0.343189
O O7 0.720756 0.274979 0.388380
O O8 0.809936 0.374442 0.560011
O O9 0.375738 0.962818 0.753772
O O10 0.302069 0.131049 0.882345
O O11 0.308183 0.885494 0.993400
O O12 0.404007 0.050023 0.033771
O O13 0.111853 0.781578 0.766338
O O14 0.000000 0.869373 0.693873
O O15 0.799252 0.147689 0.044347
O O16 0.704315 0.314706 0.092328
O O17 0.351002 0.469481 0.283487
#
# Coordination Sequence:
#
# PCOD8170038 Si02
#       8
#     4   4   4   4   4   4   4   4
#     4  10  20  34  53  76 101 137 183 220 258 309
#     4   9  19  32  53  80 109 133 174 212 273 322
#     4   9  18  31  52  80 103 133 171 221 262 314
#     4  10  21  37  54  76 105 140 183 221 257 313
#     4   8  18  29  47  76 105 127 166 219 263 311
#     4   9  19  29  50  77 107 131 169 211 267 316
#     4  10  21  35  51  78 111 140 172 213 272 317
#     4  11  20  33  54  79 109 141 172 221 262 324
#
# _framework density 17.284407000000002
#
# number of rings (size 3 to 8) (size 9 to 14) (size 15 to 20)
#    0.750    1.750    1.250    0.750    5.250    1.000 
#    0.000    0.625    0.000    0.000    0.000    0.000 
#    0.000    0.000    0.000    0.000    0.000    0.000 
#
# Total GULP energy -396554.543647 kJ/mol
# GULP energy per Si atom -12392.329489 kJ/mol
# Density = 1.724507 g / cm^3
# Si number density = 17.284407 Si / 1000 Ang^3
#
#
#
# Elastic Constant Matrix: (Units=GPa)
#
#
# Indices 1 2 3 4 5 6 
#
# 1 108.8616 55.6721 40.2869 0.0000 0.0000 0.0000
# 2 55.6721 97.6267 23.5045 0.0000 0.0000 0.0000
# 3 40.2869 23.5045 85.2303 0.0000 0.0000 0.0000
# 4 0.0000 0.0000 0.0000 18.3288 0.0000 0.0000
# 5 0.0000 0.0000 0.0000 0.0000 18.1102 0.0000
# 6 0.0000 0.0000 0.0000 0.0000 0.0000 16.6045
#
#
#
# Elastic Compliance Matrix: (Units=1/GPa)
#
#
# Indices 1 2 3 4 5 6 
#
# 1 0.014699 -0.007187 -0.004966 0.000000 0.000000 0.000000
# 2 -0.007187 0.014485 -0.000598 0.000000 0.000000 0.000000
# 3 -0.004966 -0.000598 0.014245 0.000000 0.000000 0.000000
# 4 0.000000 0.000000 0.000000 0.054559 0.000000 0.000000
# 5 0.000000 0.000000 0.000000 0.000000 0.055217 0.000000
# 6 0.000000 0.000000 0.000000 0.000000 0.000000 0.060225
#
#
# Mechanical properties :
#
#
# Convention : Reuss Voigt Hill
#
# Bulk Modulus (GPa) = 55.77673 58.96060 57.36866
# Shear Modulus (GPa) = 20.41589 22.09238 21.25413
#
# Velocity S-wave (km/s) = 3.44055 3.57903 3.51047
# Velocity P-wave (km/s) = 6.93709 7.15998 7.04942
#
# Compressibility (1/GPa) = 0.01792862
#
# Stress axis : x y z
#
# Youngs Moduli (GPa) = 68.03182 69.03613 70.19943
#
# Poissons Ratio (x) = 0.49613 0.34862
# Poissons Ratio (y) = 0.48891 0.04196
# Poissons Ratio (z) = 0.33785 0.04126
#
# Static dielectric constant tensor:
#      x y z
#    x 3.065380 0.000000 0.000000 
#    y 0.000000 3.031600 0.000000 
#    z 0.000000 0.000000 3.193640 
# 
# 
# High freq. dielectric constant tensor:
#      x y z
#    x 1.650320 0.000000 0.000000 
#    y 0.000000 1.650640 0.000000 
#    z 0.000000 0.000000 1.668280 
# 
# From -- ./inp_files/3093.got.cif
#   From: 2010.03.12/outbox.cif.g09.slc.cpg/sg31_2_cif.got.tgz:3093.got - 2010.04.14 01:42:59.
