data_PCOD8170078
_publ_section_title
;
Structure prediction by ZEFSAII (Michael W. Deem and Ramdas Pophale) SiO2 
 PCOD8170078
Probable space group: P M N 21
;
_chemical_formula_sum "Si O2"
_cell_formula_units_Z 24
_cell_length_a 9.098569
_cell_length_b 15.080204
_cell_length_c 9.437008
_cell_angle_alpha 90.000000
_cell_angle_beta 90.000000
_cell_angle_gamma 90.000000
_cell_volume 1294.835604
_symmetry_space_group_name_H-M "P M N 21"
_symmetry_group_IT_number 31
_symmetry_cell_setting 'orthorhombic'
loop_
_space_group_symop_operation_xyz
x,y,z
1/2-x,-y,1/2+z
-x,y,z
1/2+x,-y,1/2+z
loop_
_atom_site_type_symbol
_atom_site_label
_atom_site_fract_x
_atom_site_fract_y
_atom_site_fract_z
Si Si1 0.828713 0.921573 0.487880
Si Si2 0.672123 0.732035 0.171303
Si Si3 0.170192 0.722715 0.463247
Si Si4 0.170825 0.066613 0.702598
Si Si5 0.673900 0.410708 0.494951
Si Si6 0.171424 0.563412 0.668026
O O1 0.790762 0.819687 0.525916
O O2 0.754351 0.950678 0.345217
O O3 0.000000 0.935863 0.468976
O O4 0.766331 0.989608 0.602825
O O5 0.500000 0.709601 0.170312
O O6 0.734188 0.701514 0.324146
O O7 0.704080 0.835475 0.141764
O O8 0.752405 0.680775 0.044527
O O9 0.207893 0.654938 0.588432
O O10 0.000000 0.717095 0.417597
O O11 0.000000 0.055049 0.732612
O O12 0.500000 0.402918 0.511714
O O13 0.732243 0.487886 0.596093
O O14 0.718293 0.428263 0.332011
O O15 0.000000 0.538635 0.654330
#
# Coordination Sequence:
#
# PCOD8170078 Si02
#       6
#     4   4   4   4   4   4
#     4   9  18  33  53  77 105 139 177 214 256 307
#     4  10  20  35  54  77 107 140 174 214 259 306
#     4   9  18  35  57  78 104 138 174 214 259 307
#     4   9  19  34  52  77 108 140 174 214 259 305
#     4  11  23  37  55  79 104 134 173 213 257 310
#     4  10  22  38  55  78 106 135 170 213 260 309
#
# _framework density 18.535170000000001
#
# number of rings (size 3 to 8) (size 9 to 14) (size 15 to 20)
#    0.000    2.333    0.000    2.000    0.000    7.333 
#    0.000    1.667    0.000    0.000    0.000    0.000 
#    0.000    0.000    0.000    0.000    0.000    0.000 
#
# Total GULP energy -297617.551504 kJ/mol
# GULP energy per Si atom -12400.731313 kJ/mol
# Density = 1.849298 g / cm^3
# Si number density = 18.535170 Si / 1000 Ang^3
#
#
#
# Elastic Constant Matrix: (Units=GPa)
#
#
# Indices 1 2 3 4 5 6 
#
# 1 50.5716 26.1508 33.9705 0.0000 0.0000 0.0000
# 2 26.1508 82.5833 42.5916 0.0000 0.0000 0.0000
# 3 33.9705 42.5916 84.0834 0.0000 0.0000 0.0000
# 4 0.0000 0.0000 0.0000 42.6528 0.0000 0.0000
# 5 0.0000 0.0000 0.0000 0.0000 32.5126 0.0000
# 6 0.0000 0.0000 0.0000 0.0000 0.0000 25.9929
#
#
#
# Elastic Compliance Matrix: (Units=1/GPa)
#
#
# Indices 1 2 3 4 5 6 
#
# 1 0.028140 -0.004125 -0.009279 0.000000 0.000000 0.000000
# 2 -0.004125 0.016996 -0.006942 0.000000 0.000000 0.000000
# 3 -0.009279 -0.006942 0.019159 0.000000 0.000000 0.000000
# 4 0.000000 0.000000 0.000000 0.023445 0.000000 0.000000
# 5 0.000000 0.000000 0.000000 0.000000 0.030757 0.000000
# 6 0.000000 0.000000 0.000000 0.000000 0.000000 0.038472
#
#
# Mechanical properties :
#
#
# Convention : Reuss Voigt Hill
#
# Bulk Modulus (GPa) = 42.37168 46.96266 44.66717
# Shear Modulus (GPa) = 24.32738 27.86671 26.09704
#
# Velocity S-wave (km/s) = 3.62677 3.88164 3.75637
# Velocity P-wave (km/s) = 6.35985 6.74400 6.55474
#
# Compressibility (1/GPa) = 0.02360067
#
# Stress axis : x y z
#
# Youngs Moduli (GPa) = 35.53623 58.83832 52.19606
#
# Poissons Ratio (x) = 0.24271 0.48435
# Poissons Ratio (y) = 0.14659 0.36237
# Poissons Ratio (z) = 0.32975 0.40848
#
# Static dielectric constant tensor:
#      x y z
#    x 3.406720 0.000000 0.000000 
#    y 0.000000 3.676920 0.000000 
#    z 0.000000 0.000000 3.461010 
# 
# 
# High freq. dielectric constant tensor:
#      x y z
#    x 1.719340 0.000000 0.000000 
#    y 0.000000 1.733080 0.000000 
#    z 0.000000 0.000000 1.715540 
# 
# From -- ./inp_files/1662.got.cif
#   From: 2010.03.12/outbox.cif.g09.slc.cpg/sg31_1_cif.got.tgz:1662.got - 2010.04.14 01:42:59.
