data_PCOD8170509
_publ_section_title
;
Structure prediction by ZEFSAII (Michael W. Deem and Ramdas Pophale) SiO2 
 PCOD8170509
Probable space group: P B A 2
;
_chemical_formula_sum "Si O2"
_cell_formula_units_Z 30
_cell_length_a 12.577218
_cell_length_b 12.612672
_cell_length_c 8.976476
_cell_angle_alpha 90.000000
_cell_angle_beta 90.000000
_cell_angle_gamma 90.000000
_cell_volume 1423.959261
_symmetry_space_group_name_H-M "P B A 2"
_symmetry_group_IT_number 32
_symmetry_cell_setting 'orthorhombic'
loop_
_space_group_symop_operation_xyz
x,y,z
-x,-y,z
1/2-x,1/2+y,z
1/2+x,1/2-y,z
loop_
_atom_site_type_symbol
_atom_site_label
_atom_site_fract_x
_atom_site_fract_y
_atom_site_fract_z
Si Si1 0.535854 0.696900 0.820040
Si Si2 0.000000 0.500000 0.487695
Si Si3 0.348244 0.096055 0.732229
Si Si4 0.941398 0.845017 0.140277
Si Si5 0.164971 0.932125 0.180431
Si Si6 0.646784 0.161363 0.344757
Si Si7 0.753471 0.101182 0.865474
Si Si8 0.160373 0.229712 0.654311
O O1 0.590278 0.813525 0.825113
O O2 0.627092 0.607657 0.794458
O O3 0.459919 0.688447 0.676061
O O4 0.465034 0.677051 0.966850
O O5 0.085727 0.551787 0.595324
O O6 0.047578 0.414266 0.375433
O O7 0.240486 0.133406 0.656130
O O8 0.311619 0.006998 0.848306
O O9 0.886540 0.743994 0.216500
O O10 0.054450 0.871992 0.217538
O O11 0.859383 0.943455 0.154553
O O12 0.249240 0.910055 0.310518
O O13 0.224974 0.879873 0.039240
O O14 0.676821 0.218629 0.496068
O O15 0.680600 0.191020 0.792417
#
# Coordination Sequence:
#
# PCOD8170509 Si02
#       8
#     4   2   4   4   4   4   4   4
#     4  10  21  42  67  98 129 169 221 278 333 387
#     4  12  26  44  60  96 132 172 216 280 322 400
#     4  11  22  40  66  93 128 166 221 276 329 389
#     4  10  24  44  67  99 134 176 225 277 333 400
#     4  10  24  44  66  98 135 176 227 276 332 404
#     4  12  26  40  66  92 139 179 219 271 333 402
#     4  10  21  40  68  95 128 168 220 280 327 386
#     4  11  23  38  65  96 127 176 218 267 332 391
#
# _framework density 21.068017000000001
#
# number of rings (size 3 to 8) (size 9 to 14) (size 15 to 20)
#    0.000    1.333    2.667    1.600    3.733    4.800 
#    0.000    0.000    0.000    0.000    0.000    0.000 
#    0.000    0.000    0.000    0.000    0.000    0.000 
#
# Total GULP energy -371888.907710 kJ/mol
# GULP energy per Si atom -12396.296924 kJ/mol
# Density = 2.102007 g / cm^3
# Si number density = 21.068017 Si / 1000 Ang^3
#
#
#
# Elastic Constant Matrix: (Units=GPa)
#
#
# Indices 1 2 3 4 5 6 
#
# 1 114.3668 37.7449 31.8492 0.0000 0.0000 0.0000
# 2 37.7449 82.1089 14.8184 0.0000 0.0000 0.0000
# 3 31.8492 14.8184 59.3200 0.0000 0.0000 0.0000
# 4 0.0000 0.0000 0.0000 38.4555 0.0000 0.0000
# 5 0.0000 0.0000 0.0000 0.0000 88.7705 0.0000
# 6 0.0000 0.0000 0.0000 0.0000 0.0000 48.8432
#
#
#
# Elastic Compliance Matrix: (Units=1/GPa)
#
#
# Indices 1 2 3 4 5 6 
#
# 1 0.011635 -0.004420 -0.005143 0.000000 0.000000 0.000000
# 2 -0.004420 0.014433 -0.001232 0.000000 0.000000 0.000000
# 3 -0.005143 -0.001232 0.019927 0.000000 0.000000 0.000000
# 4 0.000000 0.000000 0.000000 0.026004 0.000000 0.000000
# 5 0.000000 0.000000 0.000000 0.000000 0.011265 0.000000
# 6 0.000000 0.000000 0.000000 0.000000 0.000000 0.020474
#
#
# Mechanical properties :
#
#
# Convention : Reuss Voigt Hill
#
# Bulk Modulus (GPa) = 40.97604 47.18009 44.07807
# Shear Modulus (GPa) = 37.46372 46.63939 42.05156
#
# Velocity S-wave (km/s) = 4.22148 4.71016 4.47250
# Velocity P-wave (km/s) = 6.57669 7.21274 6.90204
#
# Compressibility (1/GPa) = 0.02440451
#
# Stress axis : x y z
#
# Youngs Moduli (GPa) = 85.94928 69.28408 50.18422
#
# Poissons Ratio (x) = 0.30626 0.25807
# Poissons Ratio (y) = 0.37993 0.06184
# Poissons Ratio (z) = 0.44200 0.08537
#
# Static dielectric constant tensor:
#      x y z
#    x 4.098850 0.000000 0.000000 
#    y 0.000000 3.602570 0.000000 
#    z 0.000000 0.000000 3.637210 
# 
# 
# High freq. dielectric constant tensor:
#      x y z
#    x 1.846480 0.000000 0.000000 
#    y 0.000000 1.827420 0.000000 
#    z 0.000000 0.000000 1.811260 
# 
# From -- ./inp_files/2820.got.cif
#   From: 2010.03.12/outbox.cif.g09.slc.cpg/sg32_2_cif.got.tgz:2820.got - 2010.04.14 01:46:39.
