data_PCOD8170225
_publ_section_title
;
Structure prediction by ZEFSAII (Michael W. Deem and Ramdas Pophale) SiO2 
 PCOD8170225
Probable space group: P M N 21
;
_chemical_formula_sum "Si O2"
_cell_formula_units_Z 32
_cell_length_a 8.606946
_cell_length_b 16.005503
_cell_length_c 11.126911
_cell_angle_alpha 90.000000
_cell_angle_beta 90.000000
_cell_angle_gamma 90.000000
_cell_volume 1532.826569
_symmetry_space_group_name_H-M "P M N 21"
_symmetry_group_IT_number 31
_symmetry_cell_setting 'orthorhombic'
loop_
_space_group_symop_operation_xyz
x,y,z
1/2-x,-y,1/2+z
-x,y,z
1/2+x,-y,1/2+z
loop_
_atom_site_type_symbol
_atom_site_label
_atom_site_fract_x
_atom_site_fract_y
_atom_site_fract_z
Si Si1 0.679164 0.349001 0.717590
Si Si2 0.677828 0.651766 0.582282
Si Si3 0.182209 0.034041 0.841124
Si Si4 0.677740 0.777462 0.391171
Si Si5 0.817020 0.474565 0.885697
Si Si6 0.177370 0.232787 0.537347
Si Si7 0.818026 0.355051 0.344139
Si Si8 0.818113 0.942464 0.082831
O O1 0.500000 0.356252 0.680090
O O2 0.701725 0.277487 0.817028
O O3 0.738086 0.439362 0.763503
O O4 0.782425 0.318477 0.606360
O O5 0.500000 0.628124 0.603010
O O6 0.692537 0.745411 0.528096
O O7 0.750343 0.581428 0.495102
O O8 0.758361 0.650677 0.711923
O O9 0.226507 0.127135 0.880825
O O10 0.251984 0.015777 0.707030
O O11 0.000000 0.019224 0.828881
O O12 0.247814 0.979249 0.954821
O O13 0.500000 0.763811 0.344515
O O14 0.772266 0.570069 0.910992
O O15 0.000000 0.462445 0.873769
O O16 0.208924 0.262772 0.401069
O O17 0.283007 0.156294 0.580748
O O18 0.000000 0.205452 0.559526
O O19 0.000000 0.376485 0.347170
O O20 0.000000 0.958851 0.087451
#
# Coordination Sequence:
#
# PCOD8170225 Si02
#       8
#     4   4   4   4   4   4   4   4
#     4  11  21  35  59  86 114 149 197 246 289 352
#     4   8  17  35  56  80 110 146 192 243 296 359
#     4  10  22  40  64  94 128 165 209 266 321 381
#     4   9  17  35  62  85 110 149 194 239 299 359
#     4  10  21  37  58  84 115 154 195 243 305 360
#     4  11  23  39  60  87 122 162 203 252 309 366
#     4  10  22  38  57  84 117 154 202 251 300 364
#     4  11  24  41  64  96 130 167 216 264 319 389
#
# _framework density 20.876467000000002
#
# number of rings (size 3 to 8) (size 9 to 14) (size 15 to 20)
#    0.000    2.000    1.250    3.000    1.750    3.000 
#    0.000    5.000    0.000    1.500    0.000    0.000 
#    0.000    0.000    0.000    0.000    0.000    0.000 
#
# Total GULP energy -396523.543688 kJ/mol
# GULP energy per Si atom -12391.360740 kJ/mol
# Density = 2.082895 g / cm^3
# Si number density = 20.876467 Si / 1000 Ang^3
#
#
#
# Elastic Constant Matrix: (Units=GPa)
#
#
# Indices 1 2 3 4 5 6 
#
# 1 48.4135 12.0399 20.9069 0.0000 0.0000 0.0000
# 2 12.0399 69.6799 36.1960 0.0000 0.0000 0.0000
# 3 20.9069 36.1960 137.5025 0.0000 0.0000 0.0000
# 4 0.0000 0.0000 0.0000 27.1581 0.0000 0.0000
# 5 0.0000 0.0000 0.0000 0.0000 24.0639 0.0000
# 6 0.0000 0.0000 0.0000 0.0000 0.0000 25.4244
#
#
#
# Elastic Compliance Matrix: (Units=1/GPa)
#
#
# Indices 1 2 3 4 5 6 
#
# 1 0.022460 -0.002441 -0.002772 0.000000 0.000000 0.000000
# 2 -0.002441 0.016890 -0.004075 0.000000 0.000000 0.000000
# 3 -0.002772 -0.004075 0.008767 0.000000 0.000000 0.000000
# 4 0.000000 0.000000 0.000000 0.036821 0.000000 0.000000
# 5 0.000000 0.000000 0.000000 0.000000 0.041556 0.000000
# 6 0.000000 0.000000 0.000000 0.000000 0.000000 0.039332
#
#
# Mechanical properties :
#
#
# Convention : Reuss Voigt Hill
#
# Bulk Modulus (GPa) = 33.85213 43.76460 38.80837
# Shear Modulus (GPa) = 25.74019 27.75949 26.74984
#
# Velocity S-wave (km/s) = 3.51519 3.65046 3.58346
# Velocity P-wave (km/s) = 5.72067 6.22712 5.97926
#
# Compressibility (1/GPa) = 0.02954024
#
# Stress axis : x y z
#
# Youngs Moduli (GPa) = 44.52440 59.20715 114.06620
#
# Poissons Ratio (x) = 0.14450 0.31624
# Poissons Ratio (y) = 0.10867 0.46482
# Poissons Ratio (z) = 0.12344 0.24127
#
# Static dielectric constant tensor:
#      x y z
#    x 3.455730 0.000000 0.000000 
#    y 0.000000 3.668680 0.000000 
#    z 0.000000 0.000000 4.271080 
# 
# 
# High freq. dielectric constant tensor:
#      x y z
#    x 1.792620 0.000000 0.000000 
#    y 0.000000 1.807190 0.000000 
#    z 0.000000 0.000000 1.828910 
# 
# From -- ./inp_files/3746.got.cif
#   From: 2010.03.12/outbox.cif.g09.slc.cpg/sg31_2_cif.got.tgz:3746.got - 2010.04.14 01:42:59.
