data_PCOD8170883
_publ_section_title
;
Structure prediction by ZEFSAII (Michael W. Deem and Ramdas Pophale) SiO2 
 PCOD8170883
Probable space group: P N A 21
;
_chemical_formula_sum "Si O2"
_cell_formula_units_Z 24
_cell_length_a 8.493501
_cell_length_b 18.796866
_cell_length_c 7.639624
_cell_angle_alpha 90.000000
_cell_angle_beta 90.000000
_cell_angle_gamma 90.000000
_cell_volume 1219.675140
_symmetry_space_group_name_H-M "P N A 21"
_symmetry_group_IT_number 33
_symmetry_cell_setting 'orthorhombic'
loop_
_space_group_symop_operation_xyz
x,y,z
-x,-y,1/2+z
1/2-x,1/2+y,1/2+z
1/2+x,1/2-y,z
loop_
_atom_site_type_symbol
_atom_site_label
_atom_site_fract_x
_atom_site_fract_y
_atom_site_fract_z
Si Si1 0.939671 0.587403 0.056050
Si Si2 0.568169 0.326182 0.217284
Si Si3 0.061560 0.669836 0.736022
Si Si4 0.393336 0.448255 0.069044
Si Si5 0.604673 0.574442 0.947233
Si Si6 0.058500 0.436124 0.944948
O O1 0.998264 0.594071 0.256716
O O2 0.751990 0.601511 0.059840
O O3 0.026409 0.645355 0.934850
O O4 0.970029 0.509218 0.981105
O O5 0.754330 0.329253 0.202383
O O6 0.510234 0.246444 0.200616
O O7 0.493264 0.374166 0.059668
O O8 0.511537 0.359143 0.403794
O O9 0.978517 0.618592 0.598070
O O10 0.324922 0.456929 0.265530
O O11 0.508849 0.514236 0.046144
O O12 0.247568 0.449265 0.935254
#
# Coordination Sequence:
#
# PCOD8170883 Si02
#       6
#     4   4   4   4   4   4
#     4  12  23  39  66  96 127 171 216 266 319 384
#     4  10  24  40  70  88 135 178 197 282 322 380
#     4  12  22  46  64  94 135 166 221 258 334 380
#     4  10  20  38  62  97 127 166 213 260 320 377
#     4  10  20  38  62  97 127 166 213 260 320 377
#     4  12  23  39  66  96 127 171 216 266 319 384
#
# _framework density 19.677371999999998
#
# number of rings (size 3 to 8) (size 9 to 14) (size 15 to 20)
#    1.000    0.000    3.333    5.000    0.000    0.000 
#    0.000   10.000    0.000    0.000    0.000    0.000 
#    0.000    0.000    0.000    0.000    0.000    0.000 
#
# Total GULP energy -297513.627700 kJ/mol
# GULP energy per Si atom -12396.401154 kJ/mol
# Density = 1.963259 g / cm^3
# Si number density = 19.677372 Si / 1000 Ang^3
#
#
#
# Elastic Constant Matrix: (Units=GPa)
#
#
# Indices 1 2 3 4 5 6 
#
# 1 101.3065 27.7199 8.2303 0.0000 0.0000 0.0000
# 2 27.7199 75.0100 -23.2209 0.0000 0.0000 0.0000
# 3 8.2303 -23.2209 57.6885 0.0000 0.0000 0.0000
# 4 0.0000 0.0000 0.0000 33.8926 0.0000 0.0000
# 5 0.0000 0.0000 0.0000 0.0000 28.3651 0.0000
# 6 0.0000 0.0000 0.0000 0.0000 0.0000 41.1289
#
#
#
# Elastic Compliance Matrix: (Units=1/GPa)
#
#
# Indices 1 2 3 4 5 6 
#
# 1 0.011701 -0.005530 -0.003895 0.000000 0.000000 0.000000
# 2 -0.005530 0.017843 0.007971 0.000000 0.000000 0.000000
# 3 -0.003895 0.007971 0.021099 0.000000 0.000000 0.000000
# 4 0.000000 0.000000 0.000000 0.029505 0.000000 0.000000
# 5 0.000000 0.000000 0.000000 0.000000 0.035255 0.000000
# 6 0.000000 0.000000 0.000000 0.000000 0.000000 0.024314
#
#
# Mechanical properties :
#
#
# Convention : Reuss Voigt Hill
#
# Bulk Modulus (GPa) = 20.94938 28.82927 24.88933
# Shear Modulus (GPa) = 31.53887 35.42902 33.48395
#
# Velocity S-wave (km/s) = 4.00784 4.24783 4.12958
# Velocity P-wave (km/s) = 5.66450 6.22427 5.95097
#
# Compressibility (1/GPa) = 0.04773411
#
# Stress axis : x y z
#
# Youngs Moduli (GPa) = 85.46597 56.04543 47.39628
#
# Poissons Ratio (x) = 0.30992 0.18462
# Poissons Ratio (y) = 0.47261 -0.37780
# Poissons Ratio (z) = 0.33290 -0.44674
#
# Static dielectric constant tensor:
#      x y z
#    x 8.740740 0.000000 0.000000 
#    y 0.000000 3.503910 0.000000 
#    z 0.000000 0.000000 3.552430 
# 
# 
# High freq. dielectric constant tensor:
#      x y z
#    x 1.782020 0.000000 0.000000 
#    y 0.000000 1.758150 0.000000 
#    z 0.000000 0.000000 1.755790 
# 
# From -- ./inp_files/3279.got.cif
#   From: 2010.03.12/outbox.cif.g09.slc.cpg/sg33_2_cif.got.tgz:3279.got - 2010.04.14 01:49:19.
