data_PCOD8170584
_publ_section_title
;
Structure prediction by ZEFSAII (Michael W. Deem and Ramdas Pophale) SiO2 
 PCOD8170584
Probable space group: P B A 2
;
_chemical_formula_sum "Si O2"
_cell_formula_units_Z 26
_cell_length_a 8.359106
_cell_length_b 11.414237
_cell_length_c 10.792802
_cell_angle_alpha 90.000000
_cell_angle_beta 90.000000
_cell_angle_gamma 90.000000
_cell_volume 1029.771642
_symmetry_space_group_name_H-M "P B A 2"
_symmetry_group_IT_number 32
_symmetry_cell_setting 'orthorhombic'
loop_
_space_group_symop_operation_xyz
x,y,z
-x,-y,z
1/2-x,1/2+y,z
1/2+x,1/2-y,z
loop_
_atom_site_type_symbol
_atom_site_label
_atom_site_fract_x
_atom_site_fract_y
_atom_site_fract_z
Si Si1 0.238625 0.331900 0.918110
Si Si2 0.742499 0.333184 0.138321
Si Si3 0.500000 0.000000 0.817978
Si Si4 0.259882 0.156266 0.696264
Si Si5 0.789913 0.666048 0.360997
Si Si6 0.013437 0.802500 0.527839
Si Si7 0.000000 0.500000 0.208773
Si Si8 0.500000 0.500000 0.001684
O O1 0.069151 0.398098 0.904755
O O2 0.224925 0.223758 0.824162
O O3 0.251467 0.282662 0.055759
O O4 0.387188 0.423846 0.908553
O O5 0.722478 0.283970 0.277333
O O6 0.599875 0.416869 0.093648
O O7 0.912380 0.401133 0.126869
O O8 0.355183 0.038908 0.728744
O O9 0.363151 0.245979 0.620189
O O10 0.105255 0.118374 0.613428
O O11 0.616917 0.630919 0.421204
O O12 0.914206 0.696562 0.468483
O O13 0.855464 0.553298 0.289772
#
# Coordination Sequence:
#
# PCOD8170584 Si02
#       8
#     4   4   2   4   4   4   2   2
#     4  12  27  49  75 112 153 193 258 325 381 472
#     4  12  27  49  75 112 153 193 258 325 381 472
#     4  12  26  48  82 110 154 211 253 308 412 452
#     4  11  24  49  75 113 152 201 255 320 376 466
#     4  11  24  49  75 113 152 201 255 320 376 466
#     4  10  24  49  75 106 160 196 252 326 372 442
#     4  12  26  48  82 110 154 211 253 308 412 452
#     4  12  28  42  76 112 152 202 248 312 410 452
#
# _framework density 25.248317
#
# number of rings (size 3 to 8) (size 9 to 14) (size 15 to 20)
#    0.000    0.615    3.077    3.692    4.308    4.923 
#    0.000    1.538    0.000    0.000    0.000    0.000 
#    0.000    0.000    0.000    0.000    0.000    0.000 
#
# Total GULP energy -322364.875628 kJ/mol
# GULP energy per Si atom -12398.649063 kJ/mol
# Density = 2.519085 g / cm^3
# Si number density = 25.248317 Si / 1000 Ang^3
#
#
#
# Elastic Constant Matrix: (Units=GPa)
#
#
# Indices 1 2 3 4 5 6 
#
# 1 165.1236 46.4284 55.6982 0.0000 0.0000 0.0000
# 2 46.4284 87.0605 24.3628 0.0000 0.0000 0.0000
# 3 55.6982 24.3628 93.3389 0.0000 0.0000 0.0000
# 4 0.0000 0.0000 0.0000 10.1649 0.0000 0.0000
# 5 0.0000 0.0000 0.0000 0.0000 30.0004 0.0000
# 6 0.0000 0.0000 0.0000 0.0000 0.0000 54.9897
#
#
#
# Elastic Compliance Matrix: (Units=1/GPa)
#
#
# Indices 1 2 3 4 5 6 
#
# 1 0.008383 -0.003313 -0.004138 0.000000 0.000000 0.000000
# 2 -0.003313 0.013700 -0.001599 0.000000 0.000000 0.000000
# 3 -0.004138 -0.001599 0.013600 0.000000 0.000000 0.000000
# 4 0.000000 0.000000 0.000000 0.098378 0.000000 0.000000
# 5 0.000000 0.000000 0.000000 0.000000 0.033333 0.000000
# 6 0.000000 0.000000 0.000000 0.000000 0.000000 0.018185
#
#
# Mechanical properties :
#
#
# Convention : Reuss Voigt Hill
#
# Bulk Modulus (GPa) = 56.86886 66.50018 61.68452
# Shear Modulus (GPa) = 23.86164 33.63324 28.74744
#
# Velocity S-wave (km/s) = 3.07755 3.65375 3.37796
# Velocity P-wave (km/s) = 5.93305 6.64797 6.30066
#
# Compressibility (1/GPa) = 0.01758432
#
# Stress axis : x y z
#
# Youngs Moduli (GPa) = 119.28479 72.99035 73.52798
#
# Poissons Ratio (x) = 0.24180 0.30425
# Poissons Ratio (y) = 0.39516 0.11758
# Poissons Ratio (z) = 0.49359 0.11672
#
# Static dielectric constant tensor:
#      x y z
#    x 5.110190 0.000000 0.000000 
#    y 0.000000 4.315690 0.000000 
#    z 0.000000 0.000000 4.863200 
# 
# 
# High freq. dielectric constant tensor:
#      x y z
#    x 2.027380 0.000000 0.000000 
#    y 0.000000 1.990570 0.000000 
#    z 0.000000 0.000000 2.015720 
# 
# From -- ./inp_files/3707.got.cif
#   From: 2010.03.12/outbox.cif.g09.slc.cpg/sg32_2_cif.got.tgz:3707.got - 2010.04.14 01:46:39.
