data_PCOD8170877
_publ_section_title
;
Structure prediction by ZEFSAII (Michael W. Deem and Ramdas Pophale) SiO2 
 PCOD8170877
Probable space group: P N A 21
;
_chemical_formula_sum "Si O2"
_cell_formula_units_Z 24
_cell_length_a 9.661820
_cell_length_b 13.935930
_cell_length_c 8.467081
_cell_angle_alpha 90.000000
_cell_angle_beta 90.000000
_cell_angle_gamma 90.000000
_cell_volume 1140.062375
_symmetry_space_group_name_H-M "P N A 21"
_symmetry_group_IT_number 33
_symmetry_cell_setting 'orthorhombic'
loop_
_space_group_symop_operation_xyz
x,y,z
-x,-y,1/2+z
1/2-x,1/2+y,1/2+z
1/2+x,1/2-y,z
loop_
_atom_site_type_symbol
_atom_site_label
_atom_site_fract_x
_atom_site_fract_y
_atom_site_fract_z
Si Si1 0.526270 0.750000 0.471730
Si Si2 0.068680 0.047909 0.039095
Si Si3 0.931320 0.547909 0.539095
Si Si4 0.220636 0.250000 0.756691
Si Si5 0.681435 0.454762 0.686717
Si Si6 0.818565 0.545238 0.186717
O O1 0.489870 0.654941 0.571756
O O2 0.489870 0.845059 0.571756
O O3 0.685956 0.750000 0.416187
O O4 0.438997 0.750000 0.310181
O O5 0.125988 0.033296 0.863675
O O6 0.192422 0.028323 0.161735
O O7 0.942505 0.974367 0.064771
O O8 0.807578 0.528323 0.661735
O O9 0.874012 0.533295 0.363675
O O10 0.057495 0.474367 0.564771
O O11 0.242522 0.152767 0.656326
O O12 0.242522 0.347233 0.656326
#
# Coordination Sequence:
#
# PCOD8170877 Si02
#       6
#     4   4   4   4   4   4
#     4  10  20  38  61  84 115 162 199 226 287 372
#     4  11  22  39  61  88 118 155 199 245 291 348
#     4  11  22  39  61  88 118 155 199 245 291 348
#     4  10  20  38  61  84 115 162 199 226 287 372
#     4  11  22  39  61  88 118 155 199 245 291 348
#     4  11  22  39  61  88 118 155 199 245 291 348
#
# _framework density 21.051480000000002
#
# number of rings (size 3 to 8) (size 9 to 14) (size 15 to 20)
#    0.000    1.333    0.000   10.000    0.000    0.000 
#    0.000   10.000    0.000    0.000    0.000    0.000 
#    0.000    0.000    0.000    0.000    0.000    0.000 
#
# Total GULP energy -297581.346738 kJ/mol
# GULP energy per Si atom -12399.222781 kJ/mol
# Density = 2.100357 g / cm^3
# Si number density = 21.051480 Si / 1000 Ang^3
#
#
#
# Elastic Constant Matrix: (Units=GPa)
#
#
# Indices 1 2 3 4 5 6 
#
# 1 125.4097 69.2856 33.2065 0.0000 0.0000 0.0000
# 2 69.2856 170.7706 72.8247 0.0000 0.0000 0.0000
# 3 33.2065 72.8247 56.5717 0.0000 0.0000 0.0000
# 4 0.0000 0.0000 0.0000 32.9775 0.0000 0.0000
# 5 0.0000 0.0000 0.0000 0.0000 48.6907 0.0000
# 6 0.0000 0.0000 0.0000 0.0000 0.0000 24.3262
#
#
#
# Elastic Compliance Matrix: (Units=1/GPa)
#
#
# Indices 1 2 3 4 5 6 
#
# 1 0.010333 -0.003560 -0.001482 0.000000 0.000000 0.000000
# 2 -0.003560 0.014210 -0.016202 0.000000 0.000000 0.000000
# 3 -0.001482 -0.016202 0.039404 0.000000 0.000000 0.000000
# 4 0.000000 0.000000 0.000000 0.030324 0.000000 0.000000
# 5 0.000000 0.000000 0.000000 0.000000 0.020538 0.000000
# 6 0.000000 0.000000 0.000000 0.000000 0.000000 0.041108
#
#
# Mechanical properties :
#
#
# Convention : Reuss Voigt Hill
#
# Bulk Modulus (GPa) = 46.60430 78.15397 62.37914
# Shear Modulus (GPa) = 24.32391 33.02789 28.67590
#
# Velocity S-wave (km/s) = 3.40288 3.96524 3.69478
# Velocity P-wave (km/s) = 6.13398 7.62692 6.92083
#
# Compressibility (1/GPa) = 0.02145725
#
# Stress axis : x y z
#
# Youngs Moduli (GPa) = 96.77392 70.37382 25.37811
#
# Poissons Ratio (x) = 0.25056 0.03761
# Poissons Ratio (y) = 0.34456 0.41119
# Poissons Ratio (z) = 0.14343 1.14023
#
# Static dielectric constant tensor:
#      x y z
#    x 4.043030 0.000000 0.000000 
#    y 0.000000 4.299540 0.000000 
#    z 0.000000 0.000000 3.390880 
# 
# 
# High freq. dielectric constant tensor:
#      x y z
#    x 1.851700 0.000000 0.000000 
#    y 0.000000 1.835930 0.000000 
#    z 0.000000 0.000000 1.777620 
# 
# From -- ./inp_files/3143.got.cif
#   From: 2010.03.12/outbox.cif.g09.slc.cpg/sg33_2_cif.got.tgz:3143.got - 2010.04.14 01:49:19.
