data_PCOD8170368
_publ_section_title
;
Structure prediction by ZEFSAII (Michael W. Deem and Ramdas Pophale) SiO2 
 PCOD8170368
Probable space group: P M N 21
;
_chemical_formula_sum "Si O2"
_cell_formula_units_Z 32
_cell_length_a 8.777473
_cell_length_b 12.258285
_cell_length_c 14.602474
_cell_angle_alpha 90.000000
_cell_angle_beta 90.000000
_cell_angle_gamma 90.000000
_cell_volume 1571.178972
_symmetry_space_group_name_H-M "P M N 21"
_symmetry_group_IT_number 31
_symmetry_cell_setting 'orthorhombic'
loop_
_space_group_symop_operation_xyz
x,y,z
1/2-x,-y,1/2+z
-x,y,z
1/2+x,-y,1/2+z
loop_
_atom_site_type_symbol
_atom_site_label
_atom_site_fract_x
_atom_site_fract_y
_atom_site_fract_z
Si Si1 0.318171 0.497362 0.775210
Si Si2 0.179757 0.899212 0.385458
Si Si3 0.680497 0.890693 0.996730
Si Si4 0.679044 0.668654 0.403388
Si Si5 0.820753 0.391276 0.097892
Si Si6 0.831005 0.288622 0.369520
Si Si7 0.823486 0.047945 0.695243
Si Si8 0.329287 0.827712 0.682058
O O1 0.500000 0.492514 0.780263
O O2 0.249708 0.384858 0.812378
O O3 0.262053 0.515677 0.669165
O O4 0.251872 0.598454 0.836718
O O5 0.256320 0.788542 0.421434
O O6 0.219807 0.913714 0.278737
O O7 0.000000 0.887246 0.394977
O O8 0.244240 0.999799 0.446559
O O9 0.500000 0.891469 0.980346
O O10 0.751153 0.779383 0.951593
O O11 0.720365 0.884198 0.104065
O O12 0.500000 0.677996 0.389778
O O13 0.720989 0.590683 0.491139
O O14 0.757390 0.272892 0.126051
O O15 0.000000 0.383612 0.113256
O O16 0.838873 0.201848 0.288169
O O17 0.000000 0.321645 0.401449
O O18 0.000000 0.062731 0.721344
O O19 0.790544 0.923759 0.668227
O O20 0.500000 0.860571 0.648077
#
# Coordination Sequence:
#
# PCOD8170368 Si02
#       8
#     4   4   4   4   4   4   4   4
#     4   9  18  36  61  83 105 144 195 232 272 338
#     4  11  22  39  60  81 112 154 194 225 268 340
#     4   9  18  33  55  82 111 145 182 226 276 331
#     4  11  22  38  57  83 119 148 180 236 294 327
#     4   8  17  34  59  85 109 144 189 236 281 328
#     4   8  14  30  56  78  98 133 182 228 265 318
#     4  11  21  32  50  82 119 147 177 226 285 329
#     4   9  15  30  56  78 101 141 189 225 265 327
#
# _framework density 20.366871
#
# number of rings (size 3 to 8) (size 9 to 14) (size 15 to 20)
#    0.000    2.500    1.250    3.375    0.000    0.000 
#    2.250    6.250    0.000    0.000    0.000    0.000 
#    0.000    0.000    0.000    0.000    0.000    0.000 
#
# Total GULP energy -396499.628251 kJ/mol
# GULP energy per Si atom -12390.613383 kJ/mol
# Density = 2.032052 g / cm^3
# Si number density = 20.366871 Si / 1000 Ang^3
#
#
#
# Elastic Constant Matrix: (Units=GPa)
#
#
# Indices 1 2 3 4 5 6 
#
# 1 37.1878 9.7032 19.1132 0.0000 0.0000 0.0000
# 2 9.7032 40.6240 7.8066 0.0000 0.0000 0.0000
# 3 19.1132 7.8066 89.6310 0.0000 0.0000 0.0000
# 4 0.0000 0.0000 0.0000 26.1887 0.0000 0.0000
# 5 0.0000 0.0000 0.0000 0.0000 22.1891 0.0000
# 6 0.0000 0.0000 0.0000 0.0000 0.0000 22.8653
#
#
#
# Elastic Compliance Matrix: (Units=1/GPa)
#
#
# Indices 1 2 3 4 5 6 
#
# 1 0.031752 -0.006390 -0.006214 0.000000 0.000000 0.000000
# 2 -0.006390 0.026321 -0.000930 0.000000 0.000000 0.000000
# 3 -0.006214 -0.000930 0.012563 0.000000 0.000000 0.000000
# 4 0.000000 0.000000 0.000000 0.038184 0.000000 0.000000
# 5 0.000000 0.000000 0.000000 0.000000 0.045067 0.000000
# 6 0.000000 0.000000 0.000000 0.000000 0.000000 0.043734
#
#
# Mechanical properties :
#
#
# Convention : Reuss Voigt Hill
#
# Bulk Modulus (GPa) = 22.95284 26.74320 24.84802
# Shear Modulus (GPa) = 20.90193 22.96994 21.93594
#
# Velocity S-wave (km/s) = 3.20702 3.36193 3.28539
# Velocity P-wave (km/s) = 5.00075 5.31313 5.15930
#
# Compressibility (1/GPa) = 0.04356759
#
# Stress axis : x y z
#
# Youngs Moduli (GPa) = 31.49428 37.99259 79.59876
#
# Poissons Ratio (x) = 0.24277 0.49465
# Poissons Ratio (y) = 0.20124 0.07402
# Poissons Ratio (z) = 0.19572 0.03533
#
# Static dielectric constant tensor:
#      x y z
#    x 3.227120 0.000000 0.000000 
#    y 0.000000 3.673710 0.000000 
#    z 0.000000 0.000000 3.922450 
# 
# 
# High freq. dielectric constant tensor:
#      x y z
#    x 1.750760 0.000000 0.000000 
#    y 0.000000 1.784700 0.000000 
#    z 0.000000 0.000000 1.804530 
# 
# From -- ./inp_files/5114.got.cif
#   From: 2010.03.12/outbox.cif.g09.slc.cpg/sg31_3_cif.got.tgz:5114.got - 2010.04.14 01:42:59.
