data_PCOD8170210
_publ_section_title
;
Structure prediction by ZEFSAII (Michael W. Deem and Ramdas Pophale) SiO2 
 PCOD8170210
Probable space group: P M N 21
;
_chemical_formula_sum "Si O2"
_cell_formula_units_Z 32
_cell_length_a 9.826817
_cell_length_b 15.821604
_cell_length_c 10.787117
_cell_angle_alpha 90.000000
_cell_angle_beta 90.000000
_cell_angle_gamma 90.000000
_cell_volume 1677.137880
_symmetry_space_group_name_H-M "P M N 21"
_symmetry_group_IT_number 31
_symmetry_cell_setting 'orthorhombic'
loop_
_space_group_symop_operation_xyz
x,y,z
1/2-x,-y,1/2+z
-x,y,z
1/2+x,-y,1/2+z
loop_
_atom_site_type_symbol
_atom_site_label
_atom_site_fract_x
_atom_site_fract_y
_atom_site_fract_z
Si Si1 0.152471 0.224974 0.087380
Si Si2 0.851185 0.660880 0.446303
Si Si3 0.655133 0.638746 0.783662
Si Si4 0.659901 0.965540 0.548936
Si Si5 0.840519 0.943867 0.307199
Si Si6 0.849942 0.761075 0.218423
Si Si7 0.656266 0.478370 0.128226
Si Si8 0.657795 0.664775 0.059840
O O1 0.170580 0.270352 0.219271
O O2 0.000000 0.234894 0.036834
O O3 0.244554 0.270811 0.989279
O O4 0.191782 0.127694 0.099748
O O5 0.850527 0.673934 0.298713
O O6 0.816891 0.565564 0.492468
O O7 0.000000 0.685355 0.499773
O O8 0.500000 0.605511 0.779577
O O9 0.748374 0.566425 0.726849
O O10 0.706629 0.654141 0.920674
O O11 0.500000 0.978644 0.515295
O O12 0.749844 0.981837 0.422461
O O13 0.701181 0.022307 0.668960
O O14 0.813159 0.843132 0.301112
O O15 0.000000 0.964695 0.333683
O O16 0.000000 0.774860 0.159259
O O17 0.739544 0.744859 0.112549
O O18 0.500000 0.466138 0.168229
O O19 0.692648 0.576674 0.126901
O O20 0.500000 0.687613 0.070649
#
# Coordination Sequence:
#
# PCOD8170210 Si02
#       8
#     4   4   4   4   4   4   4   4
#     4   9  17  32  55  80 103 134 177 222 270 323
#     4   9  17  32  55  77 102 138 176 217 266 320
#     4   9  19  35  53  75 106 141 179 225 277 333
#     4  10  21  37  59  87 118 151 192 243 290 346
#     4  10  22  40  60  87 121 153 195 242 290 351
#     4  10  21  36  56  80 109 147 184 223 275 333
#     4   9  19  34  52  77 105 137 180 227 272 324
#     4  10  22  36  52  77 110 143 181 229 278 332
#
# _framework density 19.080124000000001
#
# number of rings (size 3 to 8) (size 9 to 14) (size 15 to 20)
#    0.000    2.500    1.250    0.000    1.750    3.500 
#    0.000    1.250    0.000    0.000    0.000    0.000 
#    0.000    0.000    0.000    0.000    0.000    0.000 
#
# Total GULP energy -396465.965275 kJ/mol
# GULP energy per Si atom -12389.561415 kJ/mol
# Density = 1.903670 g / cm^3
# Si number density = 19.080124 Si / 1000 Ang^3
#
#
#
# Elastic Constant Matrix: (Units=GPa)
#
#
# Indices 1 2 3 4 5 6 
#
# 1 71.7799 28.1206 51.6702 0.0000 0.0000 0.0000
# 2 28.1206 40.0077 19.0910 0.0000 0.0000 0.0000
# 3 51.6702 19.0910 102.6962 0.0000 0.0000 0.0000
# 4 0.0000 0.0000 0.0000 24.8483 0.0000 0.0000
# 5 0.0000 0.0000 0.0000 0.0000 35.4360 0.0000
# 6 0.0000 0.0000 0.0000 0.0000 0.0000 26.2081
#
#
#
# Elastic Compliance Matrix: (Units=1/GPa)
#
#
# Indices 1 2 3 4 5 6 
#
# 1 0.027488 -0.013959 -0.011235 0.000000 0.000000 0.000000
# 2 -0.013959 0.034517 0.000607 0.000000 0.000000 0.000000
# 3 -0.011235 0.000607 0.015277 0.000000 0.000000 0.000000
# 4 0.000000 0.000000 0.000000 0.040244 0.000000 0.000000
# 5 0.000000 0.000000 0.000000 0.000000 0.028220 0.000000
# 6 0.000000 0.000000 0.000000 0.000000 0.000000 0.038156
#
#
# Mechanical properties :
#
#
# Convention : Reuss Voigt Hill
#
# Bulk Modulus (GPa) = 35.57806 45.80529 40.69168
# Shear Modulus (GPa) = 20.62305 25.00528 22.81416
#
# Velocity S-wave (km/s) = 3.29122 3.62407 3.46165
# Velocity P-wave (km/s) = 5.75586 6.44754 6.11149
#
# Compressibility (1/GPa) = 0.02810721
#
# Stress axis : x y z
#
# Youngs Moduli (GPa) = 36.37995 28.97086 65.45604
#
# Poissons Ratio (x) = 0.40442 0.73540
# Poissons Ratio (y) = 0.50784 -0.03971
# Poissons Ratio (z) = 0.40873 -0.01758
#
# Static dielectric constant tensor:
#      x y z
#    x 3.585790 0.000000 0.000000 
#    y 0.000000 3.545580 0.000000 
#    z 0.000000 0.000000 3.427430 
# 
# 
# High freq. dielectric constant tensor:
#      x y z
#    x 1.742330 0.000000 0.000000 
#    y 0.000000 1.736590 0.000000 
#    z 0.000000 0.000000 1.731750 
# 
# From -- ./inp_files/3730.got.cif
#   From: 2010.03.12/outbox.cif.g09.slc.cpg/sg31_2_cif.got.tgz:3730.got - 2010.04.14 01:42:59.
