data_PCOD8170053
_publ_section_title
;
Structure prediction by ZEFSAII (Michael W. Deem and Ramdas Pophale) SiO2 
 PCOD8170053
Probable space group: P M N 21
;
_chemical_formula_sum "Si O2"
_cell_formula_units_Z 32
_cell_length_a 9.144865
_cell_length_b 11.259162
_cell_length_c 16.341081
_cell_angle_alpha 90.000000
_cell_angle_beta 90.000000
_cell_angle_gamma 90.000000
_cell_volume 1682.535163
_symmetry_space_group_name_H-M "P M N 21"
_symmetry_group_IT_number 31
_symmetry_cell_setting 'orthorhombic'
loop_
_space_group_symop_operation_xyz
x,y,z
1/2-x,-y,1/2+z
-x,y,z
1/2+x,-y,1/2+z
loop_
_atom_site_type_symbol
_atom_site_label
_atom_site_fract_x
_atom_site_fract_y
_atom_site_fract_z
Si Si1 0.327612 0.536246 0.555530
Si Si2 0.667473 0.065164 0.907300
Si Si3 0.837940 0.771993 0.553162
Si Si4 0.332414 0.830695 0.256320
Si Si5 0.668380 0.813296 0.858195
Si Si6 0.660925 0.082986 0.215601
Si Si7 0.174195 0.429014 0.715773
Si Si8 0.827350 0.569766 0.880472
O O1 0.500000 0.520564 0.568074
O O2 0.286400 0.673733 0.553373
O O3 0.246424 0.478803 0.633182
O O4 0.276114 0.486693 0.466863
O O5 0.500000 0.081929 0.881023
O O6 0.762504 0.133066 0.841340
O O7 0.700646 0.924429 0.918547
O O8 0.708042 0.125231 0.991792
O O9 0.843597 0.836087 0.638226
O O10 0.000000 0.718767 0.533123
O O11 0.500000 0.803323 0.274811
O O12 0.268475 0.707253 0.221280
O O13 0.308754 0.943016 0.194903
O O14 0.500000 0.773795 0.858530
O O15 0.710353 0.863143 0.769565
O O16 0.765058 0.701769 0.881811
O O17 0.500000 0.089606 0.259209
O O18 0.226201 0.497479 0.799212
O O19 0.000000 0.440534 0.705388
O O20 0.000000 0.577418 0.877203
#
# Coordination Sequence:
#
# PCOD8170053 Si02
#       8
#     4   4   4   4   4   4   4   4
#     4  11  24  39  56  82 112 142 183 231 273 320
#     4   9  19  34  53  79 108 135 170 222 273 316
#     4  10  20  35  54  76 104 138 174 215 268 324
#     4   9  18  34  56  79 104 140 182 217 260 322
#     4  10  20  34  54  80 107 137 177 221 266 317
#     4   9  18  33  54  78 105 138 175 217 266 322
#     4  10  21  38  59  81 109 148 188 224 267 323
#     4  10  22  39  56  77 111 150 183 221 271 324
#
# _framework density 19.018920000000001
#
# number of rings (size 3 to 8) (size 9 to 14) (size 15 to 20)
#    0.000    2.250    0.000    2.250    0.000    8.500 
#    0.000    2.500    0.000    0.000    0.000    0.000 
#    0.000    0.000    0.000    0.000    0.000    0.000 
#
# Total GULP energy -396540.901419 kJ/mol
# GULP energy per Si atom -12391.903169 kJ/mol
# Density = 1.897563 g / cm^3
# Si number density = 19.018920 Si / 1000 Ang^3
#
#
#
# Elastic Constant Matrix: (Units=GPa)
#
#
# Indices 1 2 3 4 5 6 
#
# 1 21.8650 31.7303 22.4336 0.0000 0.0000 0.0000
# 2 31.7303 141.3557 54.1603 0.0000 0.0000 0.0000
# 3 22.4336 54.1603 90.4723 0.0000 0.0000 0.0000
# 4 0.0000 0.0000 0.0000 40.3810 0.0000 0.0000
# 5 0.0000 0.0000 0.0000 0.0000 26.2439 0.0000
# 6 0.0000 0.0000 0.0000 0.0000 0.0000 19.5281
#
#
#
# Elastic Compliance Matrix: (Units=1/GPa)
#
#
# Indices 1 2 3 4 5 6 
#
# 1 0.075598 -0.012700 -0.011142 0.000000 0.000000 0.000000
# 2 -0.012700 0.011314 -0.003624 0.000000 0.000000 0.000000
# 3 -0.011142 -0.003624 0.015985 0.000000 0.000000 0.000000
# 4 0.000000 0.000000 0.000000 0.024764 0.000000 0.000000
# 5 0.000000 0.000000 0.000000 0.000000 0.038104 0.000000
# 6 0.000000 0.000000 0.000000 0.000000 0.000000 0.051208
#
#
# Mechanical properties :
#
#
# Convention : Reuss Voigt Hill
#
# Bulk Modulus (GPa) = 20.84895 52.26017 36.55456
# Shear Modulus (GPa) = 17.36750 26.92184 22.14467
#
# Velocity S-wave (km/s) = 3.02515 3.76643 3.41596
# Velocity P-wave (km/s) = 4.81540 6.81560 5.90086
#
# Compressibility (1/GPa) = 0.04796405
#
# Stress axis : x y z
#
# Youngs Moduli (GPa) = 13.22787 88.38921 62.55788
#
# Poissons Ratio (x) = 1.12258 0.69704
# Poissons Ratio (y) = 0.16800 0.22668
# Poissons Ratio (z) = 0.14739 0.32028
#
# Static dielectric constant tensor:
#      x y z
#    x 3.619230 0.000000 0.000000 
#    y 0.000000 3.758730 0.000000 
#    z 0.000000 0.000000 3.507090 
# 
# 
# High freq. dielectric constant tensor:
#      x y z
#    x 1.733720 0.000000 0.000000 
#    y 0.000000 1.757150 0.000000 
#    z 0.000000 0.000000 1.731260 
# 
# From -- ./inp_files/4933.got.cif
#   From: 2010.03.12/outbox.cif.g09.slc.cpg/sg31_3_cif.got.tgz:4933.got - 2010.04.14 01:42:59.
