data_PCOD8170183
_publ_section_title
;
Structure prediction by ZEFSAII (Michael W. Deem and Ramdas Pophale) SiO2 
 PCOD8170183
Probable space group: P M N 21
;
_chemical_formula_sum "Si O2"
_cell_formula_units_Z 24
_cell_length_a 18.537219
_cell_length_b 7.401748
_cell_length_c 9.168707
_cell_angle_alpha 90.000000
_cell_angle_beta 90.000000
_cell_angle_gamma 90.000000
_cell_volume 1258.018333
_symmetry_space_group_name_H-M "P M N 21"
_symmetry_group_IT_number 31
_symmetry_cell_setting 'orthorhombic'
loop_
_space_group_symop_operation_xyz
x,y,z
1/2-x,-y,1/2+z
-x,y,z
1/2+x,-y,1/2+z
loop_
_atom_site_type_symbol
_atom_site_label
_atom_site_fract_x
_atom_site_fract_y
_atom_site_fract_z
Si Si1 0.582820 0.838640 0.526670
Si Si2 0.822478 0.022440 0.264935
Si Si3 0.685130 0.959478 0.104209
Si Si4 0.916471 0.840953 0.807399
Si Si5 0.729220 0.345370 0.714405
Si Si6 0.168151 0.500203 0.927529
O O1 0.500000 0.782904 0.537676
O O2 0.610587 0.873239 0.691742
O O3 0.622202 0.682653 0.436144
O O4 0.595652 0.025943 0.442697
O O5 0.752912 0.078330 0.165052
O O6 0.813862 0.075047 0.432177
O O7 0.829561 0.803619 0.266713
O O8 0.613627 0.060556 0.161375
O O9 0.696643 0.755785 0.163820
O O10 0.876741 0.655063 0.845552
O O11 0.000000 0.799600 0.778276
O O12 0.755714 0.475820 0.843408
O O13 0.688753 0.456591 0.592014
#
# Coordination Sequence:
#
# PCOD8170183 Si02
#       6
#     4   4   4   4   4   4
#     4  11  23  42  64  89 128 170 207 251 311 376
#     4  10  20  39  62  91 122 159 209 257 305 362
#     4  10  20  39  62  91 122 159 209 257 305 362
#     4  11  23  42  64  89 128 170 207 251 311 376
#     4  10  24  34  64  96 116 162 204 258 308 362
#     4  12  23  40  62  98 123 160 208 260 311 366
#
# _framework density 19.077622999999999
#
# number of rings (size 3 to 8) (size 9 to 14) (size 15 to 20)
#    1.000    0.333    3.333    3.500    7.000    0.667 
#    0.000    0.000    0.000    2.000    0.000    0.000 
#    0.000    0.000    0.000    0.000    0.000    0.000 
#
# Total GULP energy -297413.559896 kJ/mol
# GULP energy per Si atom -12392.231662 kJ/mol
# Density = 1.903420 g / cm^3
# Si number density = 19.077623 Si / 1000 Ang^3
#
#
#
# Elastic Constant Matrix: (Units=GPa)
#
#
# Indices 1 2 3 4 5 6 
#
# 1 64.4738 11.4936 9.5732 0.0000 0.0000 0.0000
# 2 11.4936 54.8820 -8.5625 0.0000 0.0000 0.0000
# 3 9.5732 -8.5625 77.8114 0.0000 0.0000 0.0000
# 4 0.0000 0.0000 0.0000 23.5301 0.0000 0.0000
# 5 0.0000 0.0000 0.0000 0.0000 28.3434 0.0000
# 6 0.0000 0.0000 0.0000 0.0000 0.0000 22.7064
#
#
#
# Elastic Compliance Matrix: (Units=1/GPa)
#
#
# Indices 1 2 3 4 5 6 
#
# 1 0.016562 -0.003853 -0.002462 0.000000 0.000000 0.000000
# 2 -0.003853 0.019435 0.002613 0.000000 0.000000 0.000000
# 3 -0.002462 0.002613 0.013442 0.000000 0.000000 0.000000
# 4 0.000000 0.000000 0.000000 0.042499 0.000000 0.000000
# 5 0.000000 0.000000 0.000000 0.000000 0.035282 0.000000
# 6 0.000000 0.000000 0.000000 0.000000 0.000000 0.044041
#
#
# Mechanical properties :
#
#
# Convention : Reuss Voigt Hill
#
# Bulk Modulus (GPa) = 23.78876 24.68619 24.23747
# Shear Modulus (GPa) = 25.95030 27.22684 26.58857
#
# Velocity S-wave (km/s) = 3.69216 3.78188 3.73729
# Velocity P-wave (km/s) = 5.53828 5.66022 5.59958
#
# Compressibility (1/GPa) = 0.04203665
#
# Stress axis : x y z
#
# Youngs Moduli (GPa) = 60.37739 51.45256 74.39399
#
# Poissons Ratio (x) = 0.19823 0.18313
# Poissons Ratio (y) = 0.23261 -0.19437
# Poissons Ratio (z) = 0.14863 -0.13443
#
# Static dielectric constant tensor:
#      x y z
#    x 3.340510 0.000000 0.000000 
#    y 0.000000 3.490830 0.000000 
#    z 0.000000 0.000000 3.321470 
# 
# 
# High freq. dielectric constant tensor:
#      x y z
#    x 1.719160 0.000000 0.000000 
#    y 0.000000 1.746340 0.000000 
#    z 0.000000 0.000000 1.741440 
# 
# From -- ./inp_files/2781.got.cif
#   From: 2010.03.12/outbox.cif.g09.slc.cpg/sg31_2_cif.got.tgz:2781.got - 2010.04.14 01:42:59.
