data_PCOD8170618
_publ_section_title
;
Structure prediction by ZEFSAII (Michael W. Deem and Ramdas Pophale) SiO2 
 PCOD8170618
Probable space group: P B A 2
;
_chemical_formula_sum "Si O2"
_cell_formula_units_Z 16
_cell_length_a 9.171063
_cell_length_b 8.657367
_cell_length_c 7.485439
_cell_angle_alpha 90.000000
_cell_angle_beta 90.000000
_cell_angle_gamma 90.000000
_cell_volume 594.323333
_symmetry_space_group_name_H-M "P B A 2"
_symmetry_group_IT_number 32
_symmetry_cell_setting 'orthorhombic'
loop_
_space_group_symop_operation_xyz
x,y,z
-x,-y,z
1/2-x,1/2+y,z
1/2+x,1/2-y,z
loop_
_atom_site_type_symbol
_atom_site_label
_atom_site_fract_x
_atom_site_fract_y
_atom_site_fract_z
Si Si1 0.957854 0.710153 0.287340
Si Si2 0.340324 0.441272 0.777832
Si Si3 0.279994 0.064895 0.417224
Si Si4 0.112075 0.623536 0.927050
O O1 0.868148 0.865877 0.329858
O O2 0.846049 0.565378 0.283660
O O3 0.089364 0.693343 0.433033
O O4 0.043438 0.709393 0.098312
O O5 0.500000 0.500000 0.752008
O O6 0.244129 0.486532 0.606517
O O7 0.262912 0.524867 0.949725
O O8 0.342119 0.257142 0.789692
O O9 0.000000 0.500000 0.842279
#
# Coordination Sequence:
#
# PCOD8170618 Si02
#       4
#     4   4   4   4
#     4  11  28  51  86 126 174 219 293 354 433 517
#     4  12  30  51  84 122 175 232 282 359 438 521
#     4  11  27  53  82 127 167 229 281 361 425 524
#     4  12  28  54  84 126 171 223 287 361 436 529
#
# _framework density 26.921372999999999
#
# number of rings (size 3 to 8) (size 9 to 14) (size 15 to 20)
#    0.000    0.500    2.500    3.000   17.500    0.000 
#    0.000    0.000    0.000    0.000    0.000    0.000 
#    0.000    0.000    0.000    0.000    0.000    0.000 
#
# Total GULP energy -198278.897305 kJ/mol
# GULP energy per Si atom -12392.431082 kJ/mol
# Density = 2.686010 g / cm^3
# Si number density = 26.921373 Si / 1000 Ang^3
#
#
#
# Elastic Constant Matrix: (Units=GPa)
#
#
# Indices 1 2 3 4 5 6 
#
# 1 161.8930 65.1342 75.6980 0.0000 0.0000 0.0000
# 2 65.1342 140.0304 57.6855 0.0000 0.0000 0.0000
# 3 75.6980 57.6855 114.3555 0.0000 0.0000 0.0000
# 4 0.0000 0.0000 0.0000 10.6805 0.0000 0.0000
# 5 0.0000 0.0000 0.0000 0.0000 57.5889 0.0000
# 6 0.0000 0.0000 0.0000 0.0000 0.0000 70.7222
#
#
#
# Elastic Compliance Matrix: (Units=1/GPa)
#
#
# Indices 1 2 3 4 5 6 
#
# 1 0.009502 -0.002308 -0.005126 0.000000 0.000000 0.000000
# 2 -0.002308 0.009575 -0.003302 0.000000 0.000000 0.000000
# 3 -0.005126 -0.003302 0.013803 0.000000 0.000000 0.000000
# 4 0.000000 0.000000 0.000000 0.093629 0.000000 0.000000
# 5 0.000000 0.000000 0.000000 0.000000 0.017364 0.000000
# 6 0.000000 0.000000 0.000000 0.000000 0.000000 0.014140
#
#
# Mechanical properties :
#
#
# Convention : Reuss Voigt Hill
#
# Bulk Modulus (GPa) = 87.65294 90.36823 89.01058
# Shear Modulus (GPa) = 27.27931 42.31573 34.79752
#
# Velocity S-wave (km/s) = 3.18668 3.96893 3.59912
# Velocity P-wave (km/s) = 6.79481 7.39213 7.09975
#
# Compressibility (1/GPa) = 0.01140863
#
# Stress axis : x y z
#
# Youngs Moduli (GPa) = 105.23759 104.43458 72.44643
#
# Poissons Ratio (x) = 0.24108 0.37133
# Poissons Ratio (y) = 0.24293 0.23923
# Poissons Ratio (z) = 0.53941 0.34486
#
# Static dielectric constant tensor:
#      x y z
#    x 5.319110 0.000000 0.000000 
#    y 0.000000 5.486280 0.000000 
#    z 0.000000 0.000000 4.646620 
# 
# 
# High freq. dielectric constant tensor:
#      x y z
#    x 2.106400 0.000000 0.000000 
#    y 0.000000 2.089370 0.000000 
#    z 0.000000 0.000000 2.068190 
# 
# From -- ./inp_files/2111.got.cif
#   From: 2010.03.12/outbox.cif.g09.slc.cpg/sg32_2_cif.got.tgz:2111.got - 2010.04.14 01:46:39.
