data_PCOD8170206
_publ_section_title
;
Structure prediction by ZEFSAII (Michael W. Deem and Ramdas Pophale) SiO2 
 PCOD8170206
Probable space group: P M N 21
;
_chemical_formula_sum "Si O2"
_cell_formula_units_Z 32
_cell_length_a 9.104002
_cell_length_b 20.261063
_cell_length_c 9.825730
_cell_angle_alpha 90.000000
_cell_angle_beta 90.000000
_cell_angle_gamma 90.000000
_cell_volume 1812.422302
_symmetry_space_group_name_H-M "P M N 21"
_symmetry_group_IT_number 31
_symmetry_cell_setting 'orthorhombic'
loop_
_space_group_symop_operation_xyz
x,y,z
1/2-x,-y,1/2+z
-x,y,z
1/2+x,-y,1/2+z
loop_
_atom_site_type_symbol
_atom_site_label
_atom_site_fract_x
_atom_site_fract_y
_atom_site_fract_z
Si Si1 0.171472 0.454566 0.165270
Si Si2 0.329559 0.818962 0.188706
Si Si3 0.674442 0.691704 0.683603
Si Si4 0.172066 0.940808 0.851620
Si Si5 0.328726 0.557855 0.353357
Si Si6 0.172151 0.953329 0.165537
Si Si7 0.170159 0.193215 0.376466
Si Si8 0.174647 0.295478 0.882592
O O1 0.231937 0.382542 0.212599
O O2 0.249171 0.511489 0.247587
O O3 0.000000 0.459535 0.194619
O O4 0.206231 0.465097 0.006453
O O5 0.500000 0.834290 0.219319
O O6 0.238075 0.884630 0.218003
O O7 0.263886 0.762174 0.285932
O O8 0.307497 0.793637 0.035585
O O9 0.500000 0.688623 0.679395
O O10 0.729652 0.741834 0.799290
O O11 0.731424 0.716793 0.536397
O O12 0.233993 0.867961 0.825669
O O13 0.000000 0.941052 0.820761
O O14 0.252121 0.988294 0.746866
O O15 0.205744 0.963505 0.005792
O O16 0.500000 0.553705 0.322999
O O17 0.271371 0.632806 0.331169
O O18 0.000000 0.953561 0.195738
O O19 0.000000 0.178819 0.341583
O O20 0.000000 0.294602 0.878630
#
# Coordination Sequence:
#
# PCOD8170206 Si02
#       8
#     4   4   4   4   4   4   4   4
#     4   9  18  32  49  71  99 130 165 204 245 290
#     4   9  17  30  49  72  96 123 158 199 241 287
#     4   8  15  29  48  69  94 124 159 199 241 287
#     4  10  21  36  53  74 101 132 164 199 241 288
#     4   9  18  32  49  71  99 130 165 204 245 290
#     4  10  21  36  53  74 101 132 164 199 241 288
#     4   9  17  30  49  72  96 123 158 199 241 287
#     4   8  15  29  48  69  94 124 159 199 241 287
#
# _framework density 17.655927999999999
#
# number of rings (size 3 to 8) (size 9 to 14) (size 15 to 20)
#    0.000    3.000    0.000    2.250    0.000    4.000 
#    0.000    6.250    0.000    4.500    0.000    0.000 
#    0.000    0.000    0.000    0.000    0.000    0.000 
#
# Total GULP energy -396727.278973 kJ/mol
# GULP energy per Si atom -12397.727468 kJ/mol
# Density = 1.761574 g / cm^3
# Si number density = 17.655928 Si / 1000 Ang^3
#
#
#
# Elastic Constant Matrix: (Units=GPa)
#
#
# Indices 1 2 3 4 5 6 
#
# 1 38.7807 8.8866 9.3297 0.0000 0.0000 0.0000
# 2 8.8866 35.1340 2.9655 0.0000 0.0000 0.0000
# 3 9.3297 2.9655 25.9548 0.0000 0.0000 0.0000
# 4 0.0000 0.0000 0.0000 43.5062 0.0000 0.0000
# 5 0.0000 0.0000 0.0000 0.0000 27.3009 0.0000
# 6 0.0000 0.0000 0.0000 0.0000 0.0000 29.4078
#
#
#
# Elastic Compliance Matrix: (Units=1/GPa)
#
#
# Indices 1 2 3 4 5 6 
#
# 1 0.029701 -0.006676 -0.009913 0.000000 0.000000 0.000000
# 2 -0.006676 0.030240 -0.001056 0.000000 0.000000 0.000000
# 3 -0.009913 -0.001056 0.042213 0.000000 0.000000 0.000000
# 4 0.000000 0.000000 0.000000 0.022985 0.000000 0.000000
# 5 0.000000 0.000000 0.000000 0.000000 0.036629 0.000000
# 6 0.000000 0.000000 0.000000 0.000000 0.000000 0.034005
#
#
# Mechanical properties :
#
#
# Convention : Reuss Voigt Hill
#
# Bulk Modulus (GPa) = 14.95569 15.80368 15.37969
# Shear Modulus (GPa) = 19.73560 25.28881 22.51221
#
# Velocity S-wave (km/s) = 3.34696 3.78870 3.57466
# Velocity P-wave (km/s) = 4.83996 5.30182 5.07615
#
# Compressibility (1/GPa) = 0.06686417
#
# Stress axis : x y z
#
# Youngs Moduli (GPa) = 33.66927 33.06872 23.68962
#
# Poissons Ratio (x) = 0.22075 0.23485
# Poissons Ratio (y) = 0.22476 0.02501
# Poissons Ratio (z) = 0.33378 0.03491
#
# Static dielectric constant tensor:
#      x y z
#    x 2.975910 0.000000 0.000000 
#    y 0.000000 2.845570 0.000000 
#    z 0.000000 0.000000 3.394250 
# 
# 
# High freq. dielectric constant tensor:
#      x y z
#    x 1.655620 0.000000 0.000000 
#    y 0.000000 1.691140 0.000000 
#    z 0.000000 0.000000 1.683900 
# 
# From -- ./inp_files/1872.got.cif
#   From: 2010.03.12/outbox.cif.g09.slc.cpg/sg31_1_cif.got.tgz:1872.got - 2010.04.14 01:42:59.
