data_PCOD8170579
_publ_section_title
;
Structure prediction by ZEFSAII (Michael W. Deem and Ramdas Pophale) SiO2 
 PCOD8170579
Probable space group: P B A 2
;
_chemical_formula_sum "Si O2"
_cell_formula_units_Z 26
_cell_length_a 20.200497
_cell_length_b 8.570447
_cell_length_c 6.475785
_cell_angle_alpha 90.000000
_cell_angle_beta 90.000000
_cell_angle_gamma 90.000000
_cell_volume 1121.135101
_symmetry_space_group_name_H-M "P B A 2"
_symmetry_group_IT_number 32
_symmetry_cell_setting 'orthorhombic'
loop_
_space_group_symop_operation_xyz
x,y,z
-x,-y,z
1/2-x,1/2+y,z
1/2+x,1/2-y,z
loop_
_atom_site_type_symbol
_atom_site_label
_atom_site_fract_x
_atom_site_fract_y
_atom_site_fract_z
Si Si1 0.410349 0.332749 0.516370
Si Si2 0.283436 0.765660 0.433715
Si Si3 0.836524 0.930180 0.775280
Si Si4 0.532066 0.246138 0.737879
Si Si5 0.902336 0.514936 0.427862
Si Si6 0.500000 0.000000 0.065167
Si Si7 0.172977 0.960179 0.219656
O O1 0.350065 0.427124 0.621870
O O2 0.480373 0.366262 0.628629
O O3 0.402406 0.399829 0.278858
O O4 0.396865 0.150028 0.540341
O O5 0.282903 0.689874 0.668510
O O6 0.328376 0.919923 0.421569
O O7 0.215612 0.821268 0.329233
O O8 0.317336 0.634808 0.296642
O O9 0.904349 0.837854 0.821328
O O10 0.811281 0.020623 0.978171
O O11 0.550035 0.125568 0.558079
O O12 0.499011 0.156549 0.928843
O O13 0.933268 0.496977 0.200374
#
# Coordination Sequence:
#
# PCOD8170579 Si02
#       7
#     4   4   4   4   4   2   4
#     4  11  22  41  62  96 134 175 221 283 336 415
#     4  10  24  46  66  95 132 169 228 294 332 424
#     4  10  25  43  66  94 135 180 223 285 355 407
#     4  11  22  42  60  97 138 175 227 279 347 413
#     4  11  22  41  67  96 135 174 222 283 340 411
#     4  12  20  36  66  96 126 174 228 262 342 416
#     4  11  24  45  67  99 128 182 234 278 362 409
#
# _framework density 23.190781000000001
#
# number of rings (size 3 to 8) (size 9 to 14) (size 15 to 20)
#    0.000    1.231    3.077    2.308    2.154    2.462 
#    5.538    0.000    0.000    0.000    0.000    0.000 
#    0.000    0.000    0.000    0.000    0.000    0.000 
#
# Total GULP energy -322103.349289 kJ/mol
# GULP energy per Si atom -12388.590357 kJ/mol
# Density = 2.313800 g / cm^3
# Si number density = 23.190781 Si / 1000 Ang^3
#
#
#
# Elastic Constant Matrix: (Units=GPa)
#
#
# Indices 1 2 3 4 5 6 
#
# 1 65.3419 27.7897 44.0881 0.0000 0.0000 0.0000
# 2 27.7897 105.1139 33.7591 0.0000 0.0000 0.0000
# 3 44.0881 33.7591 134.4526 0.0000 0.0000 0.0000
# 4 0.0000 0.0000 0.0000 36.4843 0.0000 0.0000
# 5 0.0000 0.0000 0.0000 0.0000 25.7464 0.0000
# 6 0.0000 0.0000 0.0000 0.0000 0.0000 33.7703
#
#
#
# Elastic Compliance Matrix: (Units=1/GPa)
#
#
# Indices 1 2 3 4 5 6 
#
# 1 0.020837 -0.003605 -0.005927 0.000000 0.000000 0.000000
# 2 -0.003605 0.010972 -0.001573 0.000000 0.000000 0.000000
# 3 -0.005927 -0.001573 0.009776 0.000000 0.000000 0.000000
# 4 0.000000 0.000000 0.000000 0.027409 0.000000 0.000000
# 5 0.000000 0.000000 0.000000 0.000000 0.038840 0.000000
# 6 0.000000 0.000000 0.000000 0.000000 0.000000 0.029612
#
#
# Mechanical properties :
#
#
# Convention : Reuss Voigt Hill
#
# Bulk Modulus (GPa) = 51.61498 57.35359 54.48429
# Shear Modulus (GPa) = 30.09981 32.48496 31.29239
#
# Velocity S-wave (km/s) = 3.60658 3.74675 3.67733
# Velocity P-wave (km/s) = 6.29668 6.59563 6.44789
#
# Compressibility (1/GPa) = 0.01937422
#
# Stress axis : x y z
#
# Youngs Moduli (GPa) = 47.99229 91.14371 102.29056
#
# Poissons Ratio (x) = 0.32858 0.60631
# Poissons Ratio (y) = 0.17302 0.16087
# Poissons Ratio (z) = 0.28447 0.14334
#
# Static dielectric constant tensor:
#      x y z
#    x 4.186860 0.000000 0.000000 
#    y 0.000000 4.370870 0.000000 
#    z 0.000000 0.000000 4.331740 
# 
# 
# High freq. dielectric constant tensor:
#      x y z
#    x 1.901170 0.000000 0.000000 
#    y 0.000000 1.939280 0.000000 
#    z 0.000000 0.000000 1.911290 
# 
# From -- ./inp_files/1656.got.cif
#   From: 2010.03.12/outbox.cif.g09.slc.cpg/sg32_1_cif.got.tgz:1656.got - 2010.04.14 01:46:39.
