data_PCOD8170919
_publ_section_title
;
Structure prediction by ZEFSAII (Michael W. Deem and Ramdas Pophale) SiO2 
 PCOD8170919
Probable space group: P N A 21
;
_chemical_formula_sum "Si O2"
_cell_formula_units_Z 24
_cell_length_a 14.455915
_cell_length_b 6.028513
_cell_length_c 12.505259
_cell_angle_alpha 90.000000
_cell_angle_beta 90.000000
_cell_angle_gamma 90.000000
_cell_volume 1089.804203
_symmetry_space_group_name_H-M "P N A 21"
_symmetry_group_IT_number 33
_symmetry_cell_setting 'orthorhombic'
loop_
_space_group_symop_operation_xyz
x,y,z
-x,-y,1/2+z
1/2-x,1/2+y,1/2+z
1/2+x,1/2-y,z
loop_
_atom_site_type_symbol
_atom_site_label
_atom_site_fract_x
_atom_site_fract_y
_atom_site_fract_z
Si Si1 0.064037 0.395685 0.149040
Si Si2 0.613852 0.426434 0.342336
Si Si3 0.289037 0.189603 0.721288
Si Si4 0.937369 0.896138 0.440952
Si Si5 0.209217 0.809145 0.867165
Si Si6 0.112230 0.425457 0.746298
O O1 0.080468 0.249064 0.254103
O O2 0.149813 0.566880 0.130075
O O3 0.970182 0.536382 0.162865
O O4 0.054088 0.247190 0.045941
O O5 0.640917 0.655922 0.286833
O O6 0.532570 0.469135 0.426634
O O7 0.703410 0.335301 0.408934
O O8 0.200599 0.329688 0.679187
O O9 0.250250 0.002791 0.797125
O O10 0.919520 0.744306 0.337919
O O11 0.853547 0.073430 0.458465
O O12 0.140673 0.659269 0.796920
#
# Coordination Sequence:
#
# PCOD8170919 Si02
#       6
#     4   4   4   4   4   4
#     4  11  22  39  68  98 127 174 224 269 336 403
#     4  10  20  41  66  91 134 166 217 283 333 385
#     4   9  20  40  65  88 132 175 207 279 334 384
#     4  11  22  39  68  98 127 174 224 269 336 403
#     4   9  20  40  65  88 132 175 207 279 334 384
#     4  10  20  41  66  91 134 166 217 283 333 385
#
# _framework density 22.022307000000001
#
# number of rings (size 3 to 8) (size 9 to 14) (size 15 to 20)
#    0.000    2.000    3.333    0.000    0.000    1.333 
#    0.000   18.333    7.333    0.000    0.000    0.000 
#    0.000    0.000    0.000    0.000    0.000    0.000 
#
# Total GULP energy -297456.485406 kJ/mol
# GULP energy per Si atom -12394.020225 kJ/mol
# Density = 2.197218 g / cm^3
# Si number density = 22.022307 Si / 1000 Ang^3
#
#
#
# Elastic Constant Matrix: (Units=GPa)
#
#
# Indices 1 2 3 4 5 6 
#
# 1 190.1698 64.5014 66.2583 0.0000 0.0000 0.0000
# 2 64.5014 100.0315 28.1847 0.0000 0.0000 0.0000
# 3 66.2583 28.1847 73.8035 0.0000 0.0000 0.0000
# 4 0.0000 0.0000 0.0000 37.5238 0.0000 0.0000
# 5 0.0000 0.0000 0.0000 0.0000 9.8195 0.0000
# 6 0.0000 0.0000 0.0000 0.0000 0.0000 54.4029
#
#
#
# Elastic Compliance Matrix: (Units=1/GPa)
#
#
# Indices 1 2 3 4 5 6 
#
# 1 0.008813 -0.003870 -0.006434 0.000000 0.000000 0.000000
# 2 -0.003870 0.012901 -0.001453 0.000000 0.000000 0.000000
# 3 -0.006434 -0.001453 0.019880 0.000000 0.000000 0.000000
# 4 0.000000 0.000000 0.000000 0.026650 0.000000 0.000000
# 5 0.000000 0.000000 0.000000 0.000000 0.101838 0.000000
# 6 0.000000 0.000000 0.000000 0.000000 0.000000 0.018381
#
#
# Mechanical properties :
#
#
# Convention : Reuss Voigt Hill
#
# Bulk Modulus (GPa) = 55.30462 75.76594 65.53528
# Shear Modulus (GPa) = 22.93537 34.01994 28.47765
#
# Velocity S-wave (km/s) = 3.23067 3.93465 3.59991
# Velocity P-wave (km/s) = 6.25170 7.42434 6.86311
#
# Compressibility (1/GPa) = 0.01808167
#
# Stress axis : x y z
#
# Youngs Moduli (GPa) = 113.47329 77.51094 50.30065
#
# Poissons Ratio (x) = 0.29994 0.32363
# Poissons Ratio (y) = 0.43911 0.07308
# Poissons Ratio (z) = 0.73008 0.11261
#
# Static dielectric constant tensor:
#      x y z
#    x 5.025450 0.000000 0.000000 
#    y 0.000000 4.514080 0.000000 
#    z 0.000000 0.000000 3.817590 
# 
# 
# High freq. dielectric constant tensor:
#      x y z
#    x 1.898260 0.000000 0.000000 
#    y 0.000000 1.894190 0.000000 
#    z 0.000000 0.000000 1.804930 
# 
# From -- ./inp_files/1270.got.cif
#   From: 2010.03.12/outbox.cif.g09.slc.cpg/sg33_1_cif.got.tgz:1270.got - 2010.04.14 01:49:19.
