data_PCOD8170630
_publ_section_title
;
Structure prediction by ZEFSAII (Michael W. Deem and Ramdas Pophale) SiO2 
 PCOD8170630
Probable space group: P B A 2
;
_chemical_formula_sum "Si O2"
_cell_formula_units_Z 24
_cell_length_a 8.510732
_cell_length_b 11.909640
_cell_length_c 9.939679
_cell_angle_alpha 90.000000
_cell_angle_beta 90.000000
_cell_angle_gamma 90.000000
_cell_volume 1007.483421
_symmetry_space_group_name_H-M "P B A 2"
_symmetry_group_IT_number 32
_symmetry_cell_setting 'orthorhombic'
loop_
_space_group_symop_operation_xyz
x,y,z
-x,-y,z
1/2-x,1/2+y,z
1/2+x,1/2-y,z
loop_
_atom_site_type_symbol
_atom_site_label
_atom_site_fract_x
_atom_site_fract_y
_atom_site_fract_z
Si Si1 0.000000 0.000000 0.373821
Si Si2 0.051284 0.125908 0.832832
Si Si3 0.510222 0.130997 0.442482
Si Si4 0.826502 0.822421 0.547977
Si Si5 0.164903 0.718009 0.971360
Si Si6 0.000000 0.500000 0.036788
Si Si7 0.736001 0.120699 0.204318
O O1 0.861400 0.051852 0.287901
O O2 0.053870 0.102343 0.465133
O O3 0.160097 0.134651 0.700247
O O4 0.161384 0.169671 0.952220
O O5 0.891393 0.199395 0.849259
O O6 0.000000 0.000000 0.857575
O O7 0.337006 0.178128 0.468018
O O8 0.619393 0.192173 0.552568
O O9 0.589398 0.163990 0.298370
O O10 0.500000 0.000000 0.470578
O O11 0.038422 0.616164 0.960246
O O12 0.178889 0.782137 0.116161
O O13 0.159832 0.477402 0.116385
#
# Coordination Sequence:
#
# PCOD8170630 Si02
#       7
#     2   4   4   4   4   2   4
#     4  12  26  46  82 116 152 206 248 330 402 466
#     4  12  28  54  78 112 157 215 269 319 390 474
#     4  12  27  49  77 117 154 203 259 324 400 471
#     4  12  27  50  77 112 159 202 267 322 389 467
#     4  12  29  50  78 113 157 211 263 328 391 475
#     4  12  26  50  68 116 152 196 264 314 400 464
#     4  12  27  46  79 116 161 199 256 327 406 479
#
# _framework density 23.821732000000001
#
# number of rings (size 3 to 8) (size 9 to 14) (size 15 to 20)
#    0.000    0.000    5.000    3.000   10.500    1.333 
#    3.000    0.000    0.000    0.000    0.000    0.000 
#    0.000    0.000    0.000    0.000    0.000    0.000 
#
# Total GULP energy -297352.058708 kJ/mol
# GULP energy per Si atom -12389.669113 kJ/mol
# Density = 2.376751 g / cm^3
# Si number density = 23.821732 Si / 1000 Ang^3
#
#
#
# Elastic Constant Matrix: (Units=GPa)
#
#
# Indices 1 2 3 4 5 6 
#
# 1 130.1990 59.3444 35.4098 0.0000 0.0000 0.0000
# 2 59.3444 168.3071 46.8230 0.0000 0.0000 0.0000
# 3 35.4098 46.8230 76.6663 0.0000 0.0000 0.0000
# 4 0.0000 0.0000 0.0000 27.4197 0.0000 0.0000
# 5 0.0000 0.0000 0.0000 0.0000 36.3312 0.0000
# 6 0.0000 0.0000 0.0000 0.0000 0.0000 45.1329
#
#
#
# Elastic Compliance Matrix: (Units=1/GPa)
#
#
# Indices 1 2 3 4 5 6 
#
# 1 0.009647 -0.002604 -0.002865 0.000000 0.000000 0.000000
# 2 -0.002604 0.007861 -0.003598 0.000000 0.000000 0.000000
# 3 -0.002865 -0.003598 0.016564 0.000000 0.000000 0.000000
# 4 0.000000 0.000000 0.000000 0.036470 0.000000 0.000000
# 5 0.000000 0.000000 0.000000 0.000000 0.027525 0.000000
# 6 0.000000 0.000000 0.000000 0.000000 0.000000 0.022157
#
#
# Mechanical properties :
#
#
# Convention : Reuss Voigt Hill
#
# Bulk Modulus (GPa) = 62.74664 73.14743 67.94703
# Shear Modulus (GPa) = 34.80190 37.34977 36.07583
#
# Velocity S-wave (km/s) = 3.82636 3.96395 3.89576
# Velocity P-wave (km/s) = 6.77633 7.19190 6.98720
#
# Compressibility (1/GPa) = 0.01593711
#
# Stress axis : x y z
#
# Youngs Moduli (GPa) = 103.66128 127.21380 60.37110
#
# Poissons Ratio (x) = 0.33131 0.17296
# Poissons Ratio (y) = 0.26997 0.21721
# Poissons Ratio (z) = 0.29699 0.45771
#
# Static dielectric constant tensor:
#      x y z
#    x 4.653220 0.000000 0.000000 
#    y 0.000000 4.428180 0.000000 
#    z 0.000000 0.000000 4.147940 
# 
# 
# High freq. dielectric constant tensor:
#      x y z
#    x 1.964570 0.000000 0.000000 
#    y 0.000000 1.965510 0.000000 
#    z 0.000000 0.000000 1.925730 
# 
# From -- ./inp_files/3678.got.cif
#   From: 2010.03.12/outbox.cif.g09.slc.cpg/sg32_2_cif.got.tgz:3678.got - 2010.04.14 01:46:39.
