data_PCOD8170997
_publ_section_title
;
Structure prediction by ZEFSAII (Michael W. Deem and Ramdas Pophale) SiO2 
 PCOD8170997
Probable space group: P N A 21
;
_chemical_formula_sum "Si O2"
_cell_formula_units_Z 28
_cell_length_a 21.826148
_cell_length_b 8.149712
_cell_length_c 6.852886
_cell_angle_alpha 90.000000
_cell_angle_beta 90.000000
_cell_angle_gamma 90.000000
_cell_volume 1218.969571
_symmetry_space_group_name_H-M "P N A 21"
_symmetry_group_IT_number 33
_symmetry_cell_setting 'orthorhombic'
loop_
_space_group_symop_operation_xyz
x,y,z
-x,-y,1/2+z
1/2-x,1/2+y,1/2+z
1/2+x,1/2-y,z
loop_
_atom_site_type_symbol
_atom_site_label
_atom_site_fract_x
_atom_site_fract_y
_atom_site_fract_z
Si Si1 0.891453 0.784097 0.856710
Si Si2 0.038464 0.413261 0.642845
Si Si3 0.345879 0.110327 0.274219
Si Si4 0.276549 0.930942 0.967980
Si Si5 0.312935 0.186895 0.675598
Si Si6 0.611670 0.639532 0.507328
Si Si7 0.978914 0.728423 0.538473
O O1 0.830861 0.674619 0.869757
O O2 0.918827 0.813330 0.638170
O O3 0.875105 0.950238 0.968726
O O4 0.949995 0.693021 0.950153
O O5 0.095609 0.528843 0.678921
O O6 0.030241 0.277133 0.807518
O O7 0.982105 0.537261 0.609416
O O8 0.347191 0.082086 0.507219
O O9 0.348130 0.299436 0.193911
O O10 0.288930 0.015997 0.176689
O O11 0.220118 0.815537 0.026593
O O12 0.265738 0.074743 0.803731
O O13 0.365159 0.262423 0.813974
O O14 0.540457 0.665140 0.562702
#
# Coordination Sequence:
#
# PCOD8170997 Si02
#       7
#     4   4   4   4   4   4   4
#     4  11  24  43  62  99 136 170 234 283 339 427
#     4  10  21  38  66  88 122 176 224 268 343 408
#     4   9  22  43  65  95 130 177 224 282 340 415
#     4  10  25  43  69  99 130 182 236 280 354 414
#     4  11  24  45  72  95 139 180 229 295 341 418
#     4  10  26  41  62 102 135 175 233 276 355 413
#     4  11  22  39  66  90 132 176 216 282 344 415
#
# _framework density 22.970220999999999
#
# number of rings (size 3 to 8) (size 9 to 14) (size 15 to 20)
#    0.000    1.714    1.429    1.714    8.000    2.286 
#    2.571    0.000    0.000    0.000    0.000    0.000 
#    0.000    0.000    0.000    0.000    0.000    0.000 
#
# Total GULP energy -346870.940183 kJ/mol
# GULP energy per Si atom -12388.247864 kJ/mol
# Density = 2.291794 g / cm^3
# Si number density = 22.970221 Si / 1000 Ang^3
#
#
#
# Elastic Constant Matrix: (Units=GPa)
#
#
# Indices 1 2 3 4 5 6 
#
# 1 49.7349 6.2907 16.6341 0.0000 0.0000 0.0000
# 2 6.2907 77.5514 7.1489 0.0000 0.0000 0.0000
# 3 16.6341 7.1489 98.5074 0.0000 0.0000 0.0000
# 4 0.0000 0.0000 0.0000 31.7111 0.0000 0.0000
# 5 0.0000 0.0000 0.0000 0.0000 32.2672 0.0000
# 6 0.0000 0.0000 0.0000 0.0000 0.0000 18.9946
#
#
#
# Elastic Compliance Matrix: (Units=1/GPa)
#
#
# Indices 1 2 3 4 5 6 
#
# 1 0.021464 -0.001416 -0.003522 0.000000 0.000000 0.000000
# 2 -0.001416 0.013075 -0.000710 0.000000 0.000000 0.000000
# 3 -0.003522 -0.000710 0.010798 0.000000 0.000000 0.000000
# 4 0.000000 0.000000 0.000000 0.031535 0.000000 0.000000
# 5 0.000000 0.000000 0.000000 0.000000 0.030991 0.000000
# 6 0.000000 0.000000 0.000000 0.000000 0.000000 0.052647
#
#
# Mechanical properties :
#
#
# Convention : Reuss Voigt Hill
#
# Bulk Modulus (GPa) = 29.37648 31.77124 30.57386
# Shear Modulus (GPa) = 27.29985 29.64256 28.47121
#
# Velocity S-wave (km/s) = 3.45119 3.59622 3.52445
# Velocity P-wave (km/s) = 5.35702 5.57721 5.46822
#
# Compressibility (1/GPa) = 0.03404083
#
# Stress axis : x y z
#
# Youngs Moduli (GPa) = 46.59062 76.48184 92.61245
#
# Poissons Ratio (x) = 0.10833 0.32614
# Poissons Ratio (y) = 0.06599 0.06573
# Poissons Ratio (z) = 0.16407 0.05428
#
# Static dielectric constant tensor:
#      x y z
#    x 3.892450 0.000000 0.000000 
#    y 0.000000 4.211870 0.000000 
#    z 0.000000 0.000000 4.338850 
# 
# 
# High freq. dielectric constant tensor:
#      x y z
#    x 1.886300 0.000000 0.000000 
#    y 0.000000 1.900340 0.000000 
#    z 0.000000 0.000000 1.919920 
# 
# From -- ./inp_files/2238.got.cif
#   From: 2010.03.12/outbox.cif.g09.slc.cpg/sg33_2_cif.got.tgz:2238.got - 2010.04.14 01:49:19.
