data_PCOD8170637
_publ_section_title
;
Structure prediction by ZEFSAII (Michael W. Deem and Ramdas Pophale) SiO2 
 PCOD8170637
Probable space group: P B A 2
;
_chemical_formula_sum "Si O2"
_cell_formula_units_Z 16
_cell_length_a 9.000000
_cell_length_b 9.000000
_cell_length_c 9.000000
_cell_angle_alpha 90.000000
_cell_angle_beta 90.000000
_cell_angle_gamma 90.000000
_cell_volume 729.000000
_symmetry_space_group_name_H-M "P B A 2"
_symmetry_group_IT_number 32
_symmetry_cell_setting 'orthorhombic'
loop_
_space_group_symop_operation_xyz
x,y,z
-x,-y,z
1/2-x,1/2+y,z
1/2+x,1/2-y,z
loop_
_atom_site_type_symbol
_atom_site_label
_atom_site_fract_x
_atom_site_fract_y
_atom_site_fract_z
Si Si1 0.591680 0.314837 0.069790
Si Si2 0.278252 0.415691 0.207713
Si Si3 0.847376 0.577970 0.537784
Si Si4 0.372819 0.615739 0.715294
O O1 0.428151 0.342789 0.136269
O O2 0.710459 0.411695 0.164927
O O3 0.639429 0.148441 0.113581
O O4 0.611446 0.346665 0.892158
O O5 0.254382 0.399362 0.387690
O O6 0.776126 0.471157 0.664972
O O7 0.883041 0.735424 0.616331
O O8 0.000000 0.500000 0.486068
O O9 0.500000 0.500000 0.669315
#
# Coordination Sequence:
#
# PCOD8170637 Si02
#       4
#     4   4   4   4
#     4  11  26  48  75 107 151 198 248 311 365 452
#     4  11  26  47  72 108 149 195 248 302 373 441
#     4  12  29  46  78 112 152 201 247 314 384 449
#     4  12  26  50  76 110 154 195 254 312 377 452
#
# _framework density 21.947873999999999
#
# number of rings (size 3 to 8) (size 9 to 14) (size 15 to 20)
#    0.000    0.500    2.500    4.500   17.500    0.000 
#    0.000    0.000    0.000    0.000    0.000    0.000 
#    0.000    0.000    0.000    0.000    0.000    0.000 
#
# Total GULP energy -198236.190069 kJ/mol
# GULP energy per Si atom -12389.761879 kJ/mol
# Density = 2.189792 g / cm^3
# Si number density = 21.947874 Si / 1000 Ang^3
#
#
#
# Elastic Constant Matrix: (Units=GPa)
#
#
# Indices 1 2 3 4 5 6 
#
# 1 106.4925 33.6248 58.9568 0.0000 0.0000 0.0000
# 2 33.6248 111.0650 49.1329 0.0000 0.0000 0.0000
# 3 58.9568 49.1329 227.2801 0.0000 0.0000 0.0000
# 4 0.0000 0.0000 0.0000 48.9435 0.0000 0.0000
# 5 0.0000 0.0000 0.0000 0.0000 50.3862 0.0000
# 6 0.0000 0.0000 0.0000 0.0000 0.0000 52.3874
#
#
#
# Elastic Compliance Matrix: (Units=1/GPa)
#
#
# Indices 1 2 3 4 5 6 
#
# 1 0.011513 -0.002393 -0.002469 0.000000 0.000000 0.000000
# 2 -0.002393 0.010453 -0.001639 0.000000 0.000000 0.000000
# 3 -0.002469 -0.001639 0.005395 0.000000 0.000000 0.000000
# 4 0.000000 0.000000 0.000000 0.020432 0.000000 0.000000
# 5 0.000000 0.000000 0.000000 0.000000 0.019847 0.000000
# 6 0.000000 0.000000 0.000000 0.000000 0.000000 0.019089
#
#
# Mechanical properties :
#
#
# Convention : Reuss Voigt Hill
#
# Bulk Modulus (GPa) = 69.64618 80.91853 75.28236
# Shear Modulus (GPa) = 47.83926 50.55163 49.19544
#
# Velocity S-wave (km/s) = 4.67377 4.80443 4.73955
# Velocity P-wave (km/s) = 7.80557 8.22954 8.02036
#
# Compressibility (1/GPa) = 0.01435829
#
# Stress axis : x y z
#
# Youngs Moduli (GPa) = 86.85867 95.66324 185.36868
#
# Poissons Ratio (x) = 0.22895 0.45770
# Poissons Ratio (y) = 0.20787 0.30381
# Poissons Ratio (z) = 0.21446 0.15679
#
# Static dielectric constant tensor:
#      x y z
#    x 4.181870 0.000000 0.000000 
#    y 0.000000 4.414490 0.000000 
#    z 0.000000 0.000000 4.486950 
# 
# 
# High freq. dielectric constant tensor:
#      x y z
#    x 1.879640 0.000000 0.000000 
#    y 0.000000 1.893350 0.000000 
#    z 0.000000 0.000000 1.908090 
# 
# From -- ./inp_files/2091.got.cif
#   From: 2010.03.12/outbox.ucp.g09.slc.cvg/sg32_2_cif.got.tgz:2091.got - 2010.05.04 21:09:23.
