data_PCOD8170446
_publ_section_title
;
Structure prediction by ZEFSAII (Michael W. Deem and Ramdas Pophale) SiO2 
 PCOD8170446
Probable space group: P B A 2
;
_chemical_formula_sum "Si O2"
_cell_formula_units_Z 30
_cell_length_a 13.054841
_cell_length_b 18.880075
_cell_length_c 6.578275
_cell_angle_alpha 90.000000
_cell_angle_beta 90.000000
_cell_angle_gamma 90.000000
_cell_volume 1621.389390
_symmetry_space_group_name_H-M "P B A 2"
_symmetry_group_IT_number 32
_symmetry_cell_setting 'orthorhombic'
loop_
_space_group_symop_operation_xyz
x,y,z
-x,-y,z
1/2-x,1/2+y,z
1/2+x,1/2-y,z
loop_
_atom_site_type_symbol
_atom_site_label
_atom_site_fract_x
_atom_site_fract_y
_atom_site_fract_z
Si Si1 0.221285 0.149247 0.558930
Si Si2 0.396357 0.749117 0.842896
Si Si3 0.684836 0.504976 0.519906
Si Si4 0.913313 0.253039 0.598664
Si Si5 0.000000 0.000000 0.795866
Si Si6 0.271049 0.361713 0.768435
Si Si7 0.609493 0.588562 0.128363
Si Si8 0.946945 0.799682 0.269559
O O1 0.152396 0.176129 0.751132
O O2 0.251865 0.066516 0.529211
O O3 0.331542 0.185766 0.566587
O O4 0.155713 0.168330 0.362357
O O5 0.514806 0.764748 0.792968
O O6 0.331786 0.816194 0.766268
O O7 0.399839 0.742302 0.082747
O O8 0.587334 0.474607 0.642286
O O9 0.745425 0.564953 0.646600
O O10 0.654072 0.531576 0.291434
O O11 0.858106 0.177838 0.636543
O O12 0.993551 0.255028 0.412988
O O13 0.956936 0.059923 0.941120
O O14 0.298160 0.372375 0.008421
O O15 0.532088 0.640509 0.237753
#
# Coordination Sequence:
#
# PCOD8170446 Si02
#       8
#     4   4   4   4   2   4   4   4
#     4  10  23  36  58  85 117 151 190 238 295 361
#     4  10  22  39  60  83 114 154 201 243 289 345
#     4  11  21  36  55  84 122 150 187 237 301 358
#     4  10  21  39  56  83 110 151 197 242 290 340
#     4  10  20  30  50  84 116 148 178 226 286 360
#     4  10  22  37  58  84 114 153 197 240 290 353
#     4  11  20  32  57  83 119 150 186 233 299 353
#     4  11  20  33  58  87 114 149 189 240 292 348
#
# _framework density 18.502651
#
# number of rings (size 3 to 8) (size 9 to 14) (size 15 to 20)
#    0.000    1.600    2.667    2.800    5.600    2.133 
#    0.000    0.667    0.000    0.000    0.000    0.000 
#    0.000    0.000    0.000    0.000    0.000    0.000 
#
# Total GULP energy -371667.235131 kJ/mol
# GULP energy per Si atom -12388.907838 kJ/mol
# Density = 1.846054 g / cm^3
# Si number density = 18.502651 Si / 1000 Ang^3
#
#
#
# Elastic Constant Matrix: (Units=GPa)
#
#
# Indices 1 2 3 4 5 6 
#
# 1 61.1167 50.6600 10.7579 0.0000 0.0000 0.0000
# 2 50.6600 108.6468 39.8404 0.0000 0.0000 0.0000
# 3 10.7579 39.8404 94.7795 0.0000 0.0000 0.0000
# 4 0.0000 0.0000 0.0000 19.8864 0.0000 0.0000
# 5 0.0000 0.0000 0.0000 0.0000 -5.0062 0.0000
# 6 0.0000 0.0000 0.0000 0.0000 0.0000 17.5274
#
#
#
# Elastic Compliance Matrix: (Units=1/GPa)
#
#
# Indices 1 2 3 4 5 6 
#
# 1 0.027224 -0.013668 0.002655 0.000000 0.000000 0.000000
# 2 -0.013668 0.017743 -0.005907 0.000000 0.000000 0.000000
# 3 0.002655 -0.005907 0.012732 0.000000 0.000000 0.000000
# 4 0.000000 0.000000 0.000000 0.050286 0.000000 0.000000
# 5 0.000000 0.000000 0.000000 0.000000 -0.199752 0.000000
# 6 0.000000 0.000000 0.000000 0.000000 0.000000 0.057053
#
#
# Mechanical properties :
#
#
# Convention : Reuss Voigt Hill
#
# Bulk Modulus (GPa) = 41.91015 51.89551 46.90283
# Shear Modulus (GPa) = 706.32561 17.36717 361.84639
#
# Velocity S-wave (km/s) = 19.55944 3.06703 13.99961
# Velocity P-wave (km/s) = 23.08237 6.37579 16.93290
#
# Compressibility (1/GPa) = 0.02386057
#
# Stress axis : x y z
#
# Youngs Moduli (GPa) = 36.73232 56.35965 78.53960
#
# Poissons Ratio (x) = 0.77030 -0.20853
# Poissons Ratio (y) = 0.50205 0.46393
# Poissons Ratio (z) = -0.09753 0.33292
#
# Static dielectric constant tensor:
#      x y z
#    x 5.746040 0.000000 0.000000 
#    y 0.000000 3.347470 0.000000 
#    z 0.000000 0.000000 4.041160 
# 
# 
# High freq. dielectric constant tensor:
#      x y z
#    x 1.700150 0.000000 0.000000 
#    y 0.000000 1.706500 0.000000 
#    z 0.000000 0.000000 1.732840 
# 
# From -- ./inp_files/1016.got.cif
#   From: 2010.03.12/outbox.cif.g09.slc.cpg/sg32_1_cif.got.tgz:1016.got - 2010.04.14 01:46:39.
