data_PCOD8170263
_publ_section_title
;
Structure prediction by ZEFSAII (Michael W. Deem and Ramdas Pophale) SiO2 
 PCOD8170263
Probable space group: P M N 21
;
_chemical_formula_sum "Si O2"
_cell_formula_units_Z 32
_cell_length_a 9.003318
_cell_length_b 11.986117
_cell_length_c 15.119217
_cell_angle_alpha 90.000000
_cell_angle_beta 90.000000
_cell_angle_gamma 90.000000
_cell_volume 1631.587625
_symmetry_space_group_name_H-M "P M N 21"
_symmetry_group_IT_number 31
_symmetry_cell_setting 'orthorhombic'
loop_
_space_group_symop_operation_xyz
x,y,z
1/2-x,-y,1/2+z
-x,y,z
1/2+x,-y,1/2+z
loop_
_atom_site_type_symbol
_atom_site_label
_atom_site_fract_x
_atom_site_fract_y
_atom_site_fract_z
Si Si1 0.825959 0.018231 0.472460
Si Si2 0.824136 0.463592 0.463260
Si Si3 0.326650 0.009622 0.769805
Si Si4 0.333340 0.247078 0.509485
Si Si5 0.833195 0.746508 0.213418
Si Si6 0.675673 0.143250 0.129808
Si Si7 0.674120 0.545009 0.292005
Si Si8 0.824321 0.604583 0.628864
O O1 0.740365 0.128063 0.499542
O O2 0.000000 0.041484 0.481015
O O3 0.781134 0.986424 0.372757
O O4 0.776615 0.919964 0.539622
O O5 0.757597 0.339741 0.456307
O O6 0.772334 0.530179 0.378145
O O7 0.761241 0.531093 0.547861
O O8 0.000000 0.453361 0.465877
O O9 0.500000 0.985838 0.757955
O O10 0.280159 0.127218 0.727938
O O11 0.240989 0.913118 0.717720
O O12 0.500000 0.242306 0.471060
O O13 0.334068 0.282346 0.610895
O O14 0.711754 0.668301 0.258331
O O15 0.000000 0.729235 0.252920
O O16 0.500000 0.143684 0.140669
O O17 0.738788 0.269467 0.124338
O O18 0.500000 0.536797 0.313245
O O19 0.724333 0.452685 0.220462
O O20 0.000000 0.607255 0.620639
#
# Coordination Sequence:
#
# PCOD8170263 Si02
#       8
#     4   4   4   4   4   4   4   4
#     4  10  22  38  61  88 118 155 201 246 296 361
#     4  11  23  41  64  89 120 160 202 245 300 360
#     4  10  22  40  60  88 120 155 198 247 298 354
#     4  11  22  39  63  88 120 156 200 253 302 354
#     4  10  21  39  63  87 117 157 201 250 303 355
#     4  10  21  39  61  85 115 157 199 240 295 356
#     4  11  23  40  61  91 124 156 201 251 298 355
#     4   9  21  40  61  84 118 158 196 242 296 353
#
# _framework density 19.612798000000002
#
# number of rings (size 3 to 8) (size 9 to 14) (size 15 to 20)
#    0.000    1.750    2.500    1.125    3.500    1.500 
#    0.000    1.875    0.000    0.000    0.000    0.000 
#    0.000    0.000    0.000    0.000    0.000    0.000 
#
# Total GULP energy -396891.685958 kJ/mol
# GULP energy per Si atom -12402.865186 kJ/mol
# Density = 1.956816 g / cm^3
# Si number density = 19.612798 Si / 1000 Ang^3
#
#
#
# Elastic Constant Matrix: (Units=GPa)
#
#
# Indices 1 2 3 4 5 6 
#
# 1 42.4486 29.3861 21.5469 0.0000 0.0000 0.0000
# 2 29.3861 115.5211 20.5881 0.0000 0.0000 0.0000
# 3 21.5469 20.5881 86.8497 0.0000 0.0000 0.0000
# 4 0.0000 0.0000 0.0000 29.7766 0.0000 0.0000
# 5 0.0000 0.0000 0.0000 0.0000 29.0633 0.0000
# 6 0.0000 0.0000 0.0000 0.0000 0.0000 28.1998
#
#
#
# Elastic Compliance Matrix: (Units=1/GPa)
#
#
# Indices 1 2 3 4 5 6 
#
# 1 0.031471 -0.006906 -0.006171 0.000000 0.000000 0.000000
# 2 -0.006906 0.010554 -0.000789 0.000000 0.000000 0.000000
# 3 -0.006171 -0.000789 0.013232 0.000000 0.000000 0.000000
# 4 0.000000 0.000000 0.000000 0.033583 0.000000 0.000000
# 5 0.000000 0.000000 0.000000 0.000000 0.034408 0.000000
# 6 0.000000 0.000000 0.000000 0.000000 0.000000 0.035461
#
#
# Mechanical properties :
#
#
# Convention : Reuss Voigt Hill
#
# Bulk Modulus (GPa) = 36.32862 43.09575 39.71218
# Shear Modulus (GPa) = 25.56051 28.96115 27.26083
#
# Velocity S-wave (km/s) = 3.61398 3.84688 3.73225
# Velocity P-wave (km/s) = 5.99813 6.46160 6.23418
#
# Compressibility (1/GPa) = 0.02752651
#
# Stress axis : x y z
#
# Youngs Moduli (GPa) = 31.77546 94.75407 75.57451
#
# Poissons Ratio (x) = 0.65435 0.46635
# Poissons Ratio (y) = 0.21943 0.05959
# Poissons Ratio (z) = 0.19608 0.07471
#
# Static dielectric constant tensor:
#      x y z
#    x 3.437070 0.000000 0.000000 
#    y 0.000000 3.699430 0.000000 
#    z 0.000000 0.000000 3.753350 
# 
# 
# High freq. dielectric constant tensor:
#      x y z
#    x 1.749550 0.000000 0.000000 
#    y 0.000000 1.774950 0.000000 
#    z 0.000000 0.000000 1.771030 
# 
# From -- ./inp_files/4974.got.cif
#   From: 2010.03.12/outbox.cif.g09.slc.cpg/sg31_3_cif.got.tgz:4974.got - 2010.04.14 01:42:59.
