data_PCOD8170402
_publ_section_title
;
Structure prediction by ZEFSAII (Michael W. Deem and Ramdas Pophale) SiO2 
 PCOD8170402
Probable space group: P B A 2
;
_chemical_formula_sum "Si O2"
_cell_formula_units_Z 28
_cell_length_a 8.555819
_cell_length_b 19.563507
_cell_length_c 9.358753
_cell_angle_alpha 90.000000
_cell_angle_beta 90.000000
_cell_angle_gamma 90.000000
_cell_volume 1566.485156
_symmetry_space_group_name_H-M "P B A 2"
_symmetry_group_IT_number 32
_symmetry_cell_setting 'orthorhombic'
loop_
_space_group_symop_operation_xyz
x,y,z
-x,-y,z
1/2-x,1/2+y,z
1/2+x,1/2-y,z
loop_
_atom_site_type_symbol
_atom_site_label
_atom_site_fract_x
_atom_site_fract_y
_atom_site_fract_z
Si Si1 0.884702 0.389549 0.239300
Si Si2 0.324173 0.481710 0.263100
Si Si3 0.492472 0.270046 0.851859
Si Si4 0.814063 0.620790 0.066001
Si Si5 0.793648 0.655668 0.753209
Si Si6 0.253110 0.722058 0.058690
Si Si7 0.086855 0.431501 0.490518
O O1 0.763502 0.449946 0.217497
O O2 0.792444 0.319794 0.200984
O O3 0.021830 0.404376 0.127705
O O4 0.960703 0.387351 0.398232
O O5 0.500000 0.500000 0.305641
O O6 0.320977 0.427328 0.132738
O O7 0.239077 0.449010 0.399059
O O8 0.390574 0.322192 0.754691
O O9 0.603542 0.224870 0.750948
O O10 0.595335 0.308609 0.974937
O O11 0.383656 0.218153 0.941193
O O12 0.781790 0.699767 0.106902
O O13 0.819892 0.611384 0.895777
O O14 0.844959 0.611355 0.620264
O O15 0.000000 0.500000 0.545245
#
# Coordination Sequence:
#
# PCOD8170402 Si02
#       7
#     4   4   4   4   4   4   4
#     4  10  19  36  57  80 111 149 181 232 280 344
#     4  10  22  37  56  79 113 145 193 242 278 323
#     4   8  18  31  55  83 113 140 171 244 282 317
#     4   9  19  34  57  84 109 145 180 234 283 334
#     4  10  18  37  57  80 115 146 186 227 289 341
#     4  10  16  33  56  85 113 135 184 227 294 325
#     4   9  21  40  55  76 116 160 188 221 290 341
#
# _framework density 17.874410999999998
#
# number of rings (size 3 to 8) (size 9 to 14) (size 15 to 20)
#    0.000    2.857    2.857    1.286    4.000    1.143 
#    5.143    6.429    0.000    0.000    0.000    0.000 
#    0.000    0.000    0.000    0.000    0.000    0.000 
#
# Total GULP energy -346945.741582 kJ/mol
# GULP energy per Si atom -12390.919342 kJ/mol
# Density = 1.783373 g / cm^3
# Si number density = 17.874411 Si / 1000 Ang^3
#
#
#
# Elastic Constant Matrix: (Units=GPa)
#
#
# Indices 1 2 3 4 5 6 
#
# 1 120.8901 49.4554 47.3893 0.0000 0.0000 0.0000
# 2 49.4554 92.1936 65.0348 0.0000 0.0000 0.0000
# 3 47.3893 65.0348 108.1821 0.0000 0.0000 0.0000
# 4 0.0000 0.0000 0.0000 34.3925 0.0000 0.0000
# 5 0.0000 0.0000 0.0000 0.0000 20.9032 0.0000
# 6 0.0000 0.0000 0.0000 0.0000 0.0000 28.9414
#
#
#
# Elastic Compliance Matrix: (Units=1/GPa)
#
#
# Indices 1 2 3 4 5 6 
#
# 1 0.010887 -0.004299 -0.002185 0.000000 0.000000 0.000000
# 2 -0.004299 0.020531 -0.010459 0.000000 0.000000 0.000000
# 3 -0.002185 -0.010459 0.016488 0.000000 0.000000 0.000000
# 4 0.000000 0.000000 0.000000 0.029076 0.000000 0.000000
# 5 0.000000 0.000000 0.000000 0.000000 0.047840 0.000000
# 6 0.000000 0.000000 0.000000 0.000000 0.000000 0.034553
#
#
# Mechanical properties :
#
#
# Convention : Reuss Voigt Hill
#
# Bulk Modulus (GPa) = 71.32402 71.66941 71.49672
# Shear Modulus (GPa) = 25.26092 27.47316 26.36704
#
# Velocity S-wave (km/s) = 3.76339 3.92473 3.84491
# Velocity P-wave (km/s) = 7.67292 7.79238 7.73288
#
# Compressibility (1/GPa) = 0.01402052
#
# Stress axis : x y z
#
# Youngs Moduli (GPa) = 91.85186 48.70683 60.64882
#
# Poissons Ratio (x) = 0.20939 0.13250
# Poissons Ratio (y) = 0.39488 0.63434
# Poissons Ratio (z) = 0.20067 0.50944
#
# Static dielectric constant tensor:
#      x y z
#    x 3.641240 0.000000 0.000000 
#    y 0.000000 3.252510 0.000000 
#    z 0.000000 0.000000 3.097980 
# 
# 
# High freq. dielectric constant tensor:
#      x y z
#    x 1.707720 0.000000 0.000000 
#    y 0.000000 1.677740 0.000000 
#    z 0.000000 0.000000 1.667040 
# 
# From -- ./inp_files/2528.got.cif
#   From: 2010.03.12/outbox.cif.g09.slc.cpg/sg32_2_cif.got.tgz:2528.got - 2010.04.14 01:46:39.
