data_PCOD8170462
_publ_section_title
;
Structure prediction by ZEFSAII (Michael W. Deem and Ramdas Pophale) SiO2 
 PCOD8170462
Probable space group: P B A 2
;
_chemical_formula_sum "Si O2"
_cell_formula_units_Z 32
_cell_length_a 8.718885
_cell_length_b 14.677843
_cell_length_c 12.015604
_cell_angle_alpha 90.000000
_cell_angle_beta 90.000000
_cell_angle_gamma 90.000000
_cell_volume 1537.690015
_symmetry_space_group_name_H-M "P B A 2"
_symmetry_group_IT_number 32
_symmetry_cell_setting 'orthorhombic'
loop_
_space_group_symop_operation_xyz
x,y,z
-x,-y,z
1/2-x,1/2+y,z
1/2+x,1/2-y,z
loop_
_atom_site_type_symbol
_atom_site_label
_atom_site_fract_x
_atom_site_fract_y
_atom_site_fract_z
Si Si1 0.170340 0.971917 0.177870
Si Si2 0.167993 0.626345 0.791009
Si Si3 0.829660 0.028083 0.916346
Si Si4 0.324102 0.816793 0.786915
Si Si5 0.175898 0.316793 0.307302
Si Si6 0.667993 0.873655 0.303208
Si Si7 0.626961 0.205264 0.547108
Si Si8 0.692475 0.871179 0.547108
O O1 0.208047 0.875983 0.234767
O O2 0.290450 0.048798 0.215470
O O3 0.184807 0.958644 0.047108
O O4 0.000000 0.000000 0.214253
O O5 0.209550 0.548797 0.878746
O O6 0.286704 0.709978 0.803435
O O7 0.177567 0.577540 0.666634
O O8 0.999411 0.663147 0.821277
O O9 0.791953 0.124017 0.859450
O O10 0.000000 0.000000 0.879964
O O11 0.301649 0.842327 0.656555
O O12 0.213296 0.209978 0.290782
O O13 0.198352 0.342327 0.437662
O O14 0.000589 0.336854 0.272940
O O15 0.677567 0.922461 0.427583
O O16 0.443931 0.202812 0.547108
O O17 0.651870 0.313855 0.547108
#
# Coordination Sequence:
#
# PCOD8170462 Si02
#       8
#     4   4   4   4   4   4   4   4
#     4  11  25  42  57  78 110 149 196 241 278 325
#     4  10  20  37  61  87 116 148 183 226 279 335
#     4  11  25  42  57  78 110 149 196 241 278 325
#     4  10  20  37  61  87 116 148 183 226 279 335
#     4  10  20  37  61  87 116 148 183 226 279 335
#     4  10  20  37  61  87 116 148 183 226 279 335
#     4   8  16  31  54  85 116 144 176 219 272 333
#     4   8  16  31  54  85 116 144 176 219 272 333
#
# _framework density 20.810435999999999
#
# number of rings (size 3 to 8) (size 9 to 14) (size 15 to 20)
#    0.000    2.250    0.000    2.250    0.000    6.000 
#    0.000    5.000    0.000    0.000    0.000    0.000 
#    0.000    0.000    0.000    0.000    0.000    0.000 
#
# Total GULP energy -396549.131421 kJ/mol
# GULP energy per Si atom -12392.160357 kJ/mol
# Density = 2.076307 g / cm^3
# Si number density = 20.810436 Si / 1000 Ang^3
#
#
#
# Elastic Constant Matrix: (Units=GPa)
#
#
# Indices 1 2 3 4 5 6 
#
# 1 61.1074 2.2744 23.0449 0.0000 0.0000 0.0000
# 2 2.2744 64.0995 23.1232 0.0000 0.0000 0.0000
# 3 23.0449 23.1232 67.5682 0.0000 0.0000 0.0000
# 4 0.0000 0.0000 0.0000 27.6250 0.0000 0.0000
# 5 0.0000 0.0000 0.0000 0.0000 30.9159 0.0000
# 6 0.0000 0.0000 0.0000 0.0000 0.0000 34.5546
#
#
#
# Elastic Compliance Matrix: (Units=1/GPa)
#
#
# Indices 1 2 3 4 5 6 
#
# 1 0.018980 0.001896 -0.007122 0.000000 0.000000 0.000000
# 2 0.001896 0.017987 -0.006802 0.000000 0.000000 0.000000
# 3 -0.007122 -0.006802 0.019557 0.000000 0.000000 0.000000
# 4 0.000000 0.000000 0.000000 0.036199 0.000000 0.000000
# 5 0.000000 0.000000 0.000000 0.000000 0.032346 0.000000
# 6 0.000000 0.000000 0.000000 0.000000 0.000000 0.028940
#
#
# Mechanical properties :
#
#
# Convention : Reuss Voigt Hill
#
# Bulk Modulus (GPa) = 30.80049 32.18445 31.49247
# Shear Modulus (GPa) = 26.47069 28.24126 27.35598
#
# Velocity S-wave (km/s) = 3.57037 3.68784 3.62958
# Velocity P-wave (km/s) = 5.64175 5.79937 5.72110
#
# Compressibility (1/GPa) = 0.03246701
#
# Stress axis : x y z
#
# Youngs Moduli (GPa) = 52.68712 55.59472 51.13311
#
# Poissons Ratio (x) = -0.10540 0.36418
# Poissons Ratio (y) = -0.09988 0.34782
# Poissons Ratio (z) = 0.37524 0.37817
#
# Static dielectric constant tensor:
#      x y z
#    x 3.850980 0.000000 0.000000 
#    y 0.000000 3.417310 0.000000 
#    z 0.000000 0.000000 3.916210 
# 
# 
# High freq. dielectric constant tensor:
#      x y z
#    x 1.822430 0.000000 0.000000 
#    y 0.000000 1.788210 0.000000 
#    z 0.000000 0.000000 1.817530 
# 
# From -- ./inp_files/3761.got.cif
#   From: 2010.03.12/outbox.cif.g09.slc.cpg/sg32_2_cif.got.tgz:3761.got - 2010.04.14 01:46:39.
