data_PCOD8170085
_publ_section_title
;
Structure prediction by ZEFSAII (Michael W. Deem and Ramdas Pophale) SiO2 
 PCOD8170085
Probable space group: P M N 21
;
_chemical_formula_sum "Si O2"
_cell_formula_units_Z 32
_cell_length_a 8.683652
_cell_length_b 11.209596
_cell_length_c 16.487505
_cell_angle_alpha 90.000000
_cell_angle_beta 90.000000
_cell_angle_gamma 90.000000
_cell_volume 1604.897541
_symmetry_space_group_name_H-M "P M N 21"
_symmetry_group_IT_number 31
_symmetry_cell_setting 'orthorhombic'
loop_
_space_group_symop_operation_xyz
x,y,z
1/2-x,-y,1/2+z
-x,y,z
1/2+x,-y,1/2+z
loop_
_atom_site_type_symbol
_atom_site_label
_atom_site_fract_x
_atom_site_fract_y
_atom_site_fract_z
Si Si1 0.180564 0.569865 0.358330
Si Si2 0.325127 0.072081 0.340125
Si Si3 0.324369 0.071221 0.032874
Si Si4 0.674310 0.228029 0.185716
Si Si5 0.325506 0.818451 0.990700
Si Si6 0.674653 0.819395 0.381407
Si Si7 0.819491 0.569056 0.013324
Si Si8 0.178829 0.475363 0.185916
O O1 0.211903 0.710534 0.363818
O O2 0.249889 0.500456 0.435886
O O3 0.249634 0.527394 0.270637
O O4 0.000000 0.545288 0.361256
O O5 0.500000 0.088861 0.372532
O O6 0.294061 0.146222 0.261244
O O7 0.203362 0.123905 0.403184
O O8 0.297155 0.931066 0.320356
O O9 0.500000 0.090072 0.002400
O O10 0.288183 0.143335 0.112222
O O11 0.204647 0.123332 0.968889
O O12 0.297208 0.929926 0.051800
O O13 0.500000 0.278446 0.183566
O O14 0.793663 0.335153 0.186000
O O15 0.500000 0.769972 0.995433
O O16 0.211494 0.709760 0.007698
O O17 0.500000 0.771171 0.377003
O O18 0.000000 0.544209 0.010324
O O19 0.750419 0.527026 0.101092
O O20 0.000000 0.505575 0.185917
#
# Coordination Sequence:
#
# PCOD8170085 Si02
#       8
#     4   4   4   4   4   4   4   4
#     4  11  23  40  60  83 114 151 190 233 282 334
#     4   9  19  35  55  80 110 143 180 225 275 329
#     4   9  19  35  55  80 110 143 180 225 275 329
#     4  10  20  35  56  80 106 139 181 228 275 324
#     4  10  20  35  56  82 111 144 183 225 274 330
#     4  10  20  35  56  82 111 144 183 225 274 330
#     4  11  23  40  60  83 114 151 190 233 282 334
#     4  10  24  41  56  80 114 149 187 232 281 338
#
# _framework density 19.938967000000002
#
# number of rings (size 3 to 8) (size 9 to 14) (size 15 to 20)
#    0.000    2.000    0.000    3.000    0.000    9.000 
#    0.000    1.250    0.000    0.000    0.000    0.000 
#    0.000    0.000    0.000    0.000    0.000    0.000 
#
# Total GULP energy -396625.127983 kJ/mol
# GULP energy per Si atom -12394.535249 kJ/mol
# Density = 1.989358 g / cm^3
# Si number density = 19.938967 Si / 1000 Ang^3
#
#
#
# Elastic Constant Matrix: (Units=GPa)
#
#
# Indices 1 2 3 4 5 6 
#
# 1 38.9200 21.3126 22.8937 0.0000 0.0000 0.0000
# 2 21.3126 140.5076 59.7581 0.0000 0.0000 0.0000
# 3 22.8937 59.7581 116.8914 0.0000 0.0000 0.0000
# 4 0.0000 0.0000 0.0000 13.4064 0.0000 0.0000
# 5 0.0000 0.0000 0.0000 0.0000 23.7206 0.0000
# 6 0.0000 0.0000 0.0000 0.0000 0.0000 35.7697
#
#
#
# Elastic Compliance Matrix: (Units=1/GPa)
#
#
# Indices 1 2 3 4 5 6 
#
# 1 0.029765 -0.002601 -0.004500 0.000000 0.000000 0.000000
# 2 -0.002601 0.009322 -0.004256 0.000000 0.000000 0.000000
# 3 -0.004500 -0.004256 0.011612 0.000000 0.000000 0.000000
# 4 0.000000 0.000000 0.000000 0.074591 0.000000 0.000000
# 5 0.000000 0.000000 0.000000 0.000000 0.042157 0.000000
# 6 0.000000 0.000000 0.000000 0.000000 0.000000 0.027957
#
#
# Mechanical properties :
#
#
# Convention : Reuss Voigt Hill
#
# Bulk Modulus (GPa) = 35.73371 56.02753 45.88062
# Shear Modulus (GPa) = 21.98319 27.40298 24.69309
#
# Velocity S-wave (km/s) = 3.32403 3.71124 3.52296
# Velocity P-wave (km/s) = 5.71775 6.82091 6.29355
#
# Compressibility (1/GPa) = 0.02798478
#
# Stress axis : x y z
#
# Youngs Moduli (GPa) = 33.59652 107.27647 86.11705
#
# Poissons Ratio (x) = 0.27903 0.38752
# Poissons Ratio (y) = 0.08739 0.36652
# Poissons Ratio (z) = 0.15118 0.45658
#
# Static dielectric constant tensor:
#      x y z
#    x 3.558480 0.000000 0.000000 
#    y 0.000000 3.740280 0.000000 
#    z 0.000000 0.000000 3.746660 
# 
# 
# High freq. dielectric constant tensor:
#      x y z
#    x 1.770760 0.000000 0.000000 
#    y 0.000000 1.791770 0.000000 
#    z 0.000000 0.000000 1.774680 
# 
# From -- ./inp_files/4934.got.cif
#   From: 2010.03.12/outbox.cif.g09.slc.cpg/sg31_3_cif.got.tgz:4934.got - 2010.04.14 01:42:59.
