data_PCOD8170616
_publ_section_title
;
Structure prediction by ZEFSAII (Michael W. Deem and Ramdas Pophale) SiO2 
 PCOD8170616
Probable space group: P B A 2
;
_chemical_formula_sum "Si O2"
_cell_formula_units_Z 18
_cell_length_a 9.548980
_cell_length_b 9.548969
_cell_length_c 8.427001
_cell_angle_alpha 90.000000
_cell_angle_beta 90.000000
_cell_angle_gamma 90.000000
_cell_volume 768.398507
_symmetry_space_group_name_H-M "P B A 2"
_symmetry_group_IT_number 32
_symmetry_cell_setting 'orthorhombic'
loop_
_space_group_symop_operation_xyz
x,y,z
-x,-y,z
1/2-x,1/2+y,z
1/2+x,1/2-y,z
loop_
_atom_site_type_symbol
_atom_site_label
_atom_site_fract_x
_atom_site_fract_y
_atom_site_fract_z
Si Si1 0.019993 0.192065 0.248870
Si Si2 0.192065 0.980007 0.076042
Si Si3 0.896750 0.816000 0.598768
Si Si4 0.816001 0.103250 0.726144
Si Si5 0.500000 0.000000 0.162456
O O1 0.098392 0.154466 0.410989
O O2 0.867193 0.118156 0.221320
O O3 0.000446 0.358322 0.263519
O O4 0.118156 0.132807 0.103592
O O5 0.358322 0.999554 0.061393
O O6 0.154465 0.901608 0.913924
O O7 0.825242 0.674758 0.662456
O O8 0.055993 0.809182 0.655701
O O9 0.809182 0.944008 0.669211
#
# Coordination Sequence:
#
# PCOD8170616 Si02
#       5
#     4   4   4   4   2
#     4  11  26  48  75 106 154 193 247 311 372 446
#     4  11  26  48  75 106 154 193 247 311 372 446
#     4  11  27  48  74 109 155 197 246 312 385 446
#     4  11  27  48  74 109 155 197 246 312 385 446
#     4  12  28  40  82 112 132 196 258 296 364 440
#
# _framework density 23.425343000000002
#
# number of rings (size 3 to 8) (size 9 to 14) (size 15 to 20)
#    0.000    0.889    0.000    6.667   18.667    0.889 
#    0.000    0.000    0.000    0.000    0.000    0.000 
#    0.000    0.000    0.000    0.000    0.000    0.000 
#
# Total GULP energy -223055.762848 kJ/mol
# GULP energy per Si atom -12391.986825 kJ/mol
# Density = 2.337203 g / cm^3
# Si number density = 23.425343 Si / 1000 Ang^3
#
#
#
# Elastic Constant Matrix: (Units=GPa)
#
#
# Indices 1 2 3 4 5 6 
#
# 1 128.5251 33.8204 28.0820 0.0000 0.0000 0.0000
# 2 33.8204 128.5244 28.0817 0.0000 0.0000 0.0000
# 3 28.0820 28.0817 123.2147 0.0000 0.0000 0.0000
# 4 0.0000 0.0000 0.0000 26.0464 0.0000 0.0000
# 5 0.0000 0.0000 0.0000 0.0000 26.0464 0.0000
# 6 0.0000 0.0000 0.0000 0.0000 0.0000 41.0958
#
#
#
# Elastic Compliance Matrix: (Units=1/GPa)
#
#
# Indices 1 2 3 4 5 6 
#
# 1 0.008623 -0.001936 -0.001524 0.000000 0.000000 0.000000
# 2 -0.001936 0.008623 -0.001524 0.000000 0.000000 0.000000
# 3 -0.001524 -0.001524 0.008811 0.000000 0.000000 0.000000
# 4 0.000000 0.000000 0.000000 0.038393 0.000000 0.000000
# 5 0.000000 0.000000 0.000000 0.000000 0.038393 0.000000
# 6 0.000000 0.000000 0.000000 0.000000 0.000000 0.024333
#
#
# Mechanical properties :
#
#
# Convention : Reuss Voigt Hill
#
# Bulk Modulus (GPa) = 62.15655 62.24805 62.20230
# Shear Modulus (GPa) = 35.08594 37.98973 36.53784
#
# Velocity S-wave (km/s) = 3.87431 4.03145 3.95366
# Velocity P-wave (km/s) = 6.82680 6.94987 6.88861
#
# Compressibility (1/GPa) = 0.01608841
#
# Stress axis : x y z
#
# Youngs Moduli (GPa) = 115.96827 115.96781 113.49971
#
# Poissons Ratio (x) = 0.22453 0.17298
# Poissons Ratio (y) = 0.22453 0.17298
# Poissons Ratio (z) = 0.17674 0.17674
#
# Static dielectric constant tensor:
#      x y z
#    x 4.292110 0.000000 0.000000 
#    y 0.000000 4.292100 0.000000 
#    z 0.000000 0.000000 4.050180 
# 
# 
# High freq. dielectric constant tensor:
#      x y z
#    x 1.933490 0.000000 0.000000 
#    y 0.000000 1.933490 0.000000 
#    z 0.000000 0.000000 1.916640 
# 
# From -- ./inp_files/2680.got.cif
#   From: 2010.03.12/outbox.cif.g09.slc.cpg/sg32_2_cif.got.tgz:2680.got - 2010.04.14 01:46:39.
