data_PCOD8170174
_publ_section_title
;
Structure prediction by ZEFSAII (Michael W. Deem and Ramdas Pophale) SiO2 
 PCOD8170174
Probable space group: P M N 21
;
_chemical_formula_sum "Si O2"
_cell_formula_units_Z 32
_cell_length_a 8.745043
_cell_length_b 15.148655
_cell_length_c 11.947743
_cell_angle_alpha 90.000000
_cell_angle_beta 90.000000
_cell_angle_gamma 90.000000
_cell_volume 1582.784893
_symmetry_space_group_name_H-M "P M N 21"
_symmetry_group_IT_number 31
_symmetry_cell_setting 'orthorhombic'
loop_
_space_group_symop_operation_xyz
x,y,z
1/2-x,-y,1/2+z
-x,y,z
1/2+x,-y,1/2+z
loop_
_atom_site_type_symbol
_atom_site_label
_atom_site_fract_x
_atom_site_fract_y
_atom_site_fract_z
Si Si1 0.320131 0.082989 0.467200
Si Si2 0.671759 0.844481 0.756406
Si Si3 0.819434 0.599376 0.517343
Si Si4 0.179959 0.751926 0.109868
Si Si5 0.318258 0.888998 0.512079
Si Si6 0.172940 0.356214 0.247219
Si Si7 0.821704 0.581033 0.962967
Si Si8 0.318702 0.734367 0.352441
O O1 0.500000 0.081369 0.478376
O O2 0.278639 0.101916 0.339482
O O3 0.257415 0.158647 0.550842
O O4 0.249991 0.987220 0.496034
O O5 0.500000 0.883204 0.762716
O O6 0.739333 0.854938 0.632034
O O7 0.672142 0.743046 0.792295
O O8 0.748265 0.644749 0.625929
O O9 0.772409 0.497212 0.519861
O O10 0.755621 0.647503 0.407006
O O11 0.000000 0.608383 0.520495
O O12 0.270540 0.739884 0.224199
O O13 0.000000 0.757378 0.134891
O O14 0.217855 0.670352 0.028802
O O15 0.500000 0.890672 0.506658
O O16 0.257946 0.821947 0.416799
O O17 0.271195 0.413517 0.333632
O O18 0.000000 0.393706 0.240302
O O19 0.000000 0.558746 0.967695
O O20 0.500000 0.725229 0.361997
#
# Coordination Sequence:
#
# PCOD8170174 Si02
#       8
#     4   4   4   4   4   4   4   4
#     4  10  21  39  62  89 124 161 204 253 305 362
#     4  10  20  38  63  88 120 159 204 253 307 361
#     4  12  26  43  65  93 124 162 208 255 309 370
#     4  10  23  41  61  89 125 163 203 252 307 365
#     4   9  20  39  61  88 123 163 200 251 312 364
#     4  11  22  41  67  92 123 161 206 259 310 365
#     4  11  24  43  65  91 125 163 206 256 311 369
#     4  11  23  42  64  88 124 166 207 253 309 368
#
# _framework density 20.21753
#
# number of rings (size 3 to 8) (size 9 to 14) (size 15 to 20)
#    0.000    1.500    2.500    2.250    3.500    2.000 
#    0.000    1.250    0.000    0.000    0.000    0.000 
#    0.000    0.000    0.000    0.000    0.000    0.000 
#
# Total GULP energy -396903.004376 kJ/mol
# GULP energy per Si atom -12403.218887 kJ/mol
# Density = 2.017151 g / cm^3
# Si number density = 20.217530 Si / 1000 Ang^3
#
#
#
# Elastic Constant Matrix: (Units=GPa)
#
#
# Indices 1 2 3 4 5 6 
#
# 1 50.7278 23.3817 28.5941 0.0000 0.0000 0.0000
# 2 23.3817 98.3544 22.1133 0.0000 0.0000 0.0000
# 3 28.5941 22.1133 110.8708 0.0000 0.0000 0.0000
# 4 0.0000 0.0000 0.0000 30.2589 0.0000 0.0000
# 5 0.0000 0.0000 0.0000 0.0000 39.0163 0.0000
# 6 0.0000 0.0000 0.0000 0.0000 0.0000 20.3452
#
#
#
# Elastic Compliance Matrix: (Units=1/GPa)
#
#
# Indices 1 2 3 4 5 6 
#
# 1 0.024983 -0.004701 -0.005506 0.000000 0.000000 0.000000
# 2 -0.004701 0.011529 -0.001087 0.000000 0.000000 0.000000
# 3 -0.005506 -0.001087 0.010656 0.000000 0.000000 0.000000
# 4 0.000000 0.000000 0.000000 0.033048 0.000000 0.000000
# 5 0.000000 0.000000 0.000000 0.000000 0.025630 0.000000
# 6 0.000000 0.000000 0.000000 0.000000 0.000000 0.049152
#
#
# Mechanical properties :
#
#
# Convention : Reuss Voigt Hill
#
# Bulk Modulus (GPa) = 40.68202 45.34790 43.01496
# Shear Modulus (GPa) = 26.91339 30.31500 28.61420
#
# Velocity S-wave (km/s) = 3.65251 3.87646 3.76615
# Velocity P-wave (km/s) = 6.16065 6.52032 6.34304
#
# Compressibility (1/GPa) = 0.02458089
#
# Stress axis : x y z
#
# Youngs Moduli (GPa) = 40.02644 86.73497 93.84162
#
# Poissons Ratio (x) = 0.40778 0.51666
# Poissons Ratio (y) = 0.18818 0.10201
# Poissons Ratio (z) = 0.22037 0.09428
#
# Static dielectric constant tensor:
#      x y z
#    x 3.505190 0.000000 0.000000 
#    y 0.000000 3.909350 0.000000 
#    z 0.000000 0.000000 3.634860 
# 
# 
# High freq. dielectric constant tensor:
#      x y z
#    x 1.774960 0.000000 0.000000 
#    y 0.000000 1.798510 0.000000 
#    z 0.000000 0.000000 1.798040 
# 
# From -- ./inp_files/3552.got.cif
#   From: 2010.03.12/outbox.cif.g09.slc.cpg/sg31_2_cif.got.tgz:3552.got - 2010.04.14 01:42:59.
