data_PCOD8170401
_publ_section_title
;
Structure prediction by ZEFSAII (Michael W. Deem and Ramdas Pophale) SiO2 
 PCOD8170401
Probable space group: P B A 2
;
_chemical_formula_sum "Si O2"
_cell_formula_units_Z 22
_cell_length_a 17.000498
_cell_length_b 13.456248
_cell_length_c 5.090638
_cell_angle_alpha 90.000000
_cell_angle_beta 90.000000
_cell_angle_gamma 90.000000
_cell_volume 1164.549199
_symmetry_space_group_name_H-M "P B A 2"
_symmetry_group_IT_number 32
_symmetry_cell_setting 'orthorhombic'
loop_
_space_group_symop_operation_xyz
x,y,z
-x,-y,z
1/2-x,1/2+y,z
1/2+x,1/2-y,z
loop_
_atom_site_type_symbol
_atom_site_label
_atom_site_fract_x
_atom_site_fract_y
_atom_site_fract_z
Si Si1 0.813362 0.631239 0.501720
Si Si2 0.097405 0.326927 0.013384
Si Si3 0.500000 0.000000 0.862166
Si Si4 0.063300 0.748004 0.139418
Si Si5 0.649547 0.712915 0.628354
Si Si6 0.619440 0.915141 0.473624
O O1 0.866426 0.683021 0.724283
O O2 0.722552 0.640476 0.577769
O O3 0.830909 0.515196 0.458037
O O4 0.834223 0.686913 0.229877
O O5 0.060594 0.438027 0.043171
O O6 0.028612 0.245992 0.060385
O O7 0.544653 0.922869 0.668655
O O8 0.081257 0.808053 0.409493
O O9 0.087166 0.629929 0.192049
O O10 0.115136 0.802305 0.917988
O O11 0.676097 0.828690 0.594469
#
# Coordination Sequence:
#
# PCOD8170401 Si02
#       6
#     4   4   2   4   4   4
#     4  11  22  31  50  78 106 133 174 203 262 314
#     4  11  19  31  50  78 101 135 162 213 254 321
#     4  10  16  32  50  84 104 128 170 216 272 320
#     4  10  18  35  50  71 106 135 167 207 264 297
#     4  10  21  34  46  75 108 140 163 210 257 316
#     4   9  20  31  53  73 108 134 165 210 263 309
#
# _framework density 18.89143
#
# number of rings (size 3 to 8) (size 9 to 14) (size 15 to 20)
#    1.091    0.727    1.818    5.455    2.545    0.727 
#    0.000    0.000    0.000    0.000    0.000    7.636 
#    0.000    0.000    0.000    0.000    0.000    0.000 
#
# Total GULP energy -272577.253147 kJ/mol
# GULP energy per Si atom -12389.875143 kJ/mol
# Density = 1.884843 g / cm^3
# Si number density = 18.891430 Si / 1000 Ang^3
#
#
#
# Elastic Constant Matrix: (Units=GPa)
#
#
# Indices 1 2 3 4 5 6 
#
# 1 11.2007 -4.0652 1.8197 0.0000 0.0000 0.0000
# 2 -4.0652 15.7968 0.7834 0.0000 0.0000 0.0000
# 3 1.8197 0.7834 107.9679 0.0000 0.0000 0.0000
# 4 0.0000 0.0000 0.0000 14.3013 0.0000 0.0000
# 5 0.0000 0.0000 0.0000 0.0000 37.0038 0.0000
# 6 0.0000 0.0000 0.0000 0.0000 0.0000 27.7902
#
#
#
# Elastic Compliance Matrix: (Units=1/GPa)
#
#
# Indices 1 2 3 4 5 6 
#
# 1 0.098847 0.025530 -0.001851 0.000000 0.000000 0.000000
# 2 0.025530 0.069920 -0.000938 0.000000 0.000000 0.000000
# 3 -0.001851 -0.000938 0.009300 0.000000 0.000000 0.000000
# 4 0.000000 0.000000 0.000000 0.069924 0.000000 0.000000
# 5 0.000000 0.000000 0.000000 0.000000 0.027024 0.000000
# 6 0.000000 0.000000 0.000000 0.000000 0.000000 0.035984
#
#
# Mechanical properties :
#
#
# Convention : Reuss Voigt Hill
#
# Bulk Modulus (GPa) = 4.47331 14.67126 9.57228
# Shear Modulus (GPa) = 14.70444 24.91424 19.80934
#
# Velocity S-wave (km/s) = 2.79295 3.63548 3.24170
# Velocity P-wave (km/s) = 3.57404 5.04036 4.36916
#
# Compressibility (1/GPa) = 0.22354832
#
# Stress axis : x y z
#
# Youngs Moduli (GPa) = 10.11667 14.30202 107.52672
#
# Poissons Ratio (x) = -0.36512 0.19906
# Poissons Ratio (y) = -0.25827 0.10082
# Poissons Ratio (z) = 0.01873 0.01341
#
# Static dielectric constant tensor:
#      x y z
#    x 3.263950 0.000000 0.000000 
#    y 0.000000 2.936200 0.000000 
#    z 0.000000 0.000000 3.637390 
# 
# 
# High freq. dielectric constant tensor:
#      x y z
#    x 1.713980 0.000000 0.000000 
#    y 0.000000 1.669320 0.000000 
#    z 0.000000 0.000000 1.760440 
# 
# From -- ./inp_files/1242.got.cif
#   From: 2010.03.12/outbox.cif.g09.slc.cpg/sg32_1_cif.got.tgz:1242.got - 2010.04.14 01:46:39.
