data_PCOD8170178
_publ_section_title
;
Structure prediction by ZEFSAII (Michael W. Deem and Ramdas Pophale) SiO2 
 PCOD8170178
Probable space group: P M N 21
;
_chemical_formula_sum "Si O2"
_cell_formula_units_Z 28
_cell_length_a 24.145261
_cell_length_b 8.567216
_cell_length_c 6.917822
_cell_angle_alpha 90.000000
_cell_angle_beta 90.000000
_cell_angle_gamma 90.000000
_cell_volume 1431.004515
_symmetry_space_group_name_H-M "P M N 21"
_symmetry_group_IT_number 31
_symmetry_cell_setting 'orthorhombic'
loop_
_space_group_symop_operation_xyz
x,y,z
1/2-x,-y,1/2+z
-x,y,z
1/2+x,-y,1/2+z
loop_
_atom_site_type_symbol
_atom_site_label
_atom_site_fract_x
_atom_site_fract_y
_atom_site_fract_z
Si Si1 0.858596 0.362773 0.179500
Si Si2 0.160140 0.710919 0.242554
Si Si3 0.301712 0.061306 0.415431
Si Si4 0.437246 0.778336 0.974115
Si Si5 0.741415 0.214013 0.063117
Si Si6 0.061092 0.920805 0.230915
Si Si7 0.905176 0.133737 0.894315
O O1 0.850013 0.545418 0.141451
O O2 0.887796 0.334656 0.391496
O O3 0.798877 0.285788 0.139446
O O4 0.901186 0.288775 0.026661
O O5 0.203790 0.682004 0.418507
O O6 0.100039 0.777947 0.296641
O O7 0.183444 0.844524 0.105580
O O8 0.248161 0.956517 0.465020
O O9 0.345646 0.934666 0.339178
O O10 0.293823 0.192162 0.255409
O O11 0.500000 0.718572 0.923188
O O12 0.425239 0.944437 0.881131
O O13 0.435719 0.805295 0.204086
O O14 0.000000 0.852441 0.256053
O O15 0.065454 0.992696 0.013138
#
# Coordination Sequence:
#
# PCOD8170178 Si02
#       7
#     4   4   4   4   4   4   4
#     4  10  25  37  54  88 124 158 191 237 296 358
#     4  11  23  39  56  87 119 157 194 241 296 349
#     4  10  21  35  60  82 109 150 199 247 291 336
#     4  10  20  38  65  87 116 155 196 241 292 351
#     4  11  22  37  59  82 116 155 196 245 288 346
#     4   9  19  37  61  87 112 148 198 247 289 340
#     4   9  19  37  60  87 115 147 195 244 290 350
#
# _framework density 19.566676000000001
#
# number of rings (size 3 to 8) (size 9 to 14) (size 15 to 20)
#    0.000    2.000    1.429    2.143    4.000    2.286 
#    0.000    0.000    0.000    0.000    0.000    0.000 
#    0.000    0.000    0.000    0.000    0.000    0.000 
#
# Total GULP energy -346897.128260 kJ/mol
# GULP energy per Si atom -12389.183152 kJ/mol
# Density = 1.952214 g / cm^3
# Si number density = 19.566676 Si / 1000 Ang^3
#
#
#
# Elastic Constant Matrix: (Units=GPa)
#
#
# Indices 1 2 3 4 5 6 
#
# 1 94.5296 35.3745 26.8329 0.0000 0.0000 0.0000
# 2 35.3745 87.9984 16.4421 0.0000 0.0000 0.0000
# 3 26.8329 16.4421 71.5633 0.0000 0.0000 0.0000
# 4 0.0000 0.0000 0.0000 17.7082 0.0000 0.0000
# 5 0.0000 0.0000 0.0000 0.0000 25.3275 0.0000
# 6 0.0000 0.0000 0.0000 0.0000 0.0000 10.2095
#
#
#
# Elastic Compliance Matrix: (Units=1/GPa)
#
#
# Indices 1 2 3 4 5 6 
#
# 1 0.013452 -0.004665 -0.003972 0.000000 0.000000 0.000000
# 2 -0.004665 0.013492 -0.001350 0.000000 0.000000 0.000000
# 3 -0.003972 -0.001350 0.015773 0.000000 0.000000 0.000000
# 4 0.000000 0.000000 0.000000 0.056471 0.000000 0.000000
# 5 0.000000 0.000000 0.000000 0.000000 0.039483 0.000000
# 6 0.000000 0.000000 0.000000 0.000000 0.000000 0.097948
#
#
# Mechanical properties :
#
#
# Convention : Reuss Voigt Hill
#
# Bulk Modulus (GPa) = 43.97317 45.71004 44.84160
# Shear Modulus (GPa) = 18.92685 22.34517 20.63601
#
# Velocity S-wave (km/s) = 3.11352 3.38302 3.25106
# Velocity P-wave (km/s) = 5.95379 6.21865 6.08766
#
# Compressibility (1/GPa) = 0.02274114
#
# Stress axis : x y z
#
# Youngs Moduli (GPa) = 74.33813 74.12005 63.39860
#
# Poissons Ratio (x) = 0.34580 0.25182
# Poissons Ratio (y) = 0.34682 0.08562
# Poissons Ratio (z) = 0.29527 0.10010
#
# Static dielectric constant tensor:
#      x y z
#    x 3.751230 0.000000 0.000000 
#    y 0.000000 3.334030 0.000000 
#    z 0.000000 0.000000 3.563480 
# 
# 
# High freq. dielectric constant tensor:
#      x y z
#    x 1.769240 0.000000 0.000000 
#    y 0.000000 1.738830 0.000000 
#    z 0.000000 0.000000 1.758640 
# 
# From -- ./inp_files/1243.got.cif
#   From: 2010.03.12/outbox.cif.g09.slc.cpg/sg31_1_cif.got.tgz:1243.got - 2010.04.14 01:42:59.
