data_PCOD8170369
_publ_section_title
;
Structure prediction by ZEFSAII (Michael W. Deem and Ramdas Pophale) SiO2 
 PCOD8170369
Probable space group: P M N 21
;
_chemical_formula_sum "Si O2"
_cell_formula_units_Z 32
_cell_length_a 8.809598
_cell_length_b 12.476184
_cell_length_c 14.488766
_cell_angle_alpha 90.000000
_cell_angle_beta 90.000000
_cell_angle_gamma 90.000000
_cell_volume 1592.462671
_symmetry_space_group_name_H-M "P M N 21"
_symmetry_group_IT_number 31
_symmetry_cell_setting 'orthorhombic'
loop_
_space_group_symop_operation_xyz
x,y,z
1/2-x,-y,1/2+z
-x,y,z
1/2+x,-y,1/2+z
loop_
_atom_site_type_symbol
_atom_site_label
_atom_site_fract_x
_atom_site_fract_y
_atom_site_fract_z
Si Si1 0.170255 0.402081 0.241020
Si Si2 0.321291 0.366258 0.759638
Si Si3 0.177156 0.690794 0.063716
Si Si4 0.672550 0.270532 0.945397
Si Si5 0.832306 0.455974 0.026794
Si Si6 0.179268 0.825415 0.753700
Si Si7 0.322114 0.903269 0.565467
Si Si8 0.319279 0.109117 0.454114
O O1 0.239297 0.512994 0.285454
O O2 0.166881 0.425944 0.133234
O O3 0.273034 0.298860 0.261836
O O4 0.000000 0.376372 0.276649
O O5 0.500000 0.384225 0.743893
O O6 0.248260 0.318820 0.665792
O O7 0.289729 0.275608 0.836596
O O8 0.205209 0.580544 0.009295
O O9 0.000000 0.715163 0.074945
O O10 0.251214 0.787211 0.005601
O O11 0.500000 0.234255 0.964903
O O12 0.697411 0.391767 0.978536
O O13 0.789515 0.196191 0.998795
O O14 0.000000 0.429160 0.985827
O O15 0.247809 0.887071 0.665569
O O16 0.232771 0.888303 0.846652
O O17 0.000000 0.827728 0.742665
O O18 0.500000 0.912298 0.582422
O O19 0.257128 0.006402 0.510560
O O20 0.500000 0.109861 0.456374
#
# Coordination Sequence:
#
# PCOD8170369 Si02
#       8
#     4   4   4   4   4   4   4   4
#     4   9  17  33  54  80 114 151 186 222 275 345
#     4   8  17  31  51  81 117 153 186 227 278 335
#     4   8  15  33  56  80 111 146 186 231 282 340
#     4  11  21  33  53  84 118 150 189 239 285 324
#     4   9  17  30  54  81 110 147 187 225 276 345
#     4  11  22  37  58  87 115 141 183 244 293 330
#     4  11  23  41  60  80 112 157 200 234 278 343
#     4   9  21  38  58  83 111 147 193 240 285 336
#
# _framework density 20.094663000000001
#
# number of rings (size 3 to 8) (size 9 to 14) (size 15 to 20)
#    0.000    2.500    1.250    2.625    1.750    1.000 
#    0.000    4.375    0.000    3.000    0.000    0.000 
#    0.000    0.000    0.000    0.000    0.000    0.000 
#
# Total GULP energy -396535.307975 kJ/mol
# GULP energy per Si atom -12391.728374 kJ/mol
# Density = 2.004893 g / cm^3
# Si number density = 20.094663 Si / 1000 Ang^3
#
#
#
# Elastic Constant Matrix: (Units=GPa)
#
#
# Indices 1 2 3 4 5 6 
#
# 1 42.8615 26.6330 26.0312 0.0000 0.0000 0.0000
# 2 26.6330 119.9190 79.1223 0.0000 0.0000 0.0000
# 3 26.0312 79.1223 122.1895 0.0000 0.0000 0.0000
# 4 0.0000 0.0000 0.0000 25.3485 0.0000 0.0000
# 5 0.0000 0.0000 0.0000 0.0000 15.1753 0.0000
# 6 0.0000 0.0000 0.0000 0.0000 0.0000 15.4780
#
#
#
# Elastic Compliance Matrix: (Units=1/GPa)
#
#
# Indices 1 2 3 4 5 6 
#
# 1 0.027836 -0.003962 -0.003364 0.000000 0.000000 0.000000
# 2 -0.003962 0.015123 -0.008949 0.000000 0.000000 0.000000
# 3 -0.003364 -0.008949 0.014695 0.000000 0.000000 0.000000
# 4 0.000000 0.000000 0.000000 0.039450 0.000000 0.000000
# 5 0.000000 0.000000 0.000000 0.000000 0.065896 0.000000
# 6 0.000000 0.000000 0.000000 0.000000 0.000000 0.064608
#
#
# Mechanical properties :
#
#
# Convention : Reuss Voigt Hill
#
# Bulk Modulus (GPa) = 39.83434 60.94924 50.39179
# Shear Modulus (GPa) = 18.61996 21.41258 20.01627
#
# Velocity S-wave (km/s) = 3.04733 3.26787 3.15953
# Velocity P-wave (km/s) = 5.67873 6.68098 6.20014
#
# Compressibility (1/GPa) = 0.02510397
#
# Stress axis : x y z
#
# Youngs Moduli (GPa) = 35.92409 66.12271 68.04812
#
# Poissons Ratio (x) = 0.26200 0.22895
# Poissons Ratio (y) = 0.14234 0.60895
# Poissons Ratio (z) = 0.12087 0.59172
#
# Static dielectric constant tensor:
#      x y z
#    x 3.335860 0.000000 0.000000 
#    y 0.000000 3.879050 0.000000 
#    z 0.000000 0.000000 3.896030 
# 
# 
# High freq. dielectric constant tensor:
#      x y z
#    x 1.742800 0.000000 0.000000 
#    y 0.000000 1.782620 0.000000 
#    z 0.000000 0.000000 1.792170 
# 
# From -- ./inp_files/4949.got.cif
#   From: 2010.03.12/outbox.cif.g09.slc.cpg/sg31_3_cif.got.tgz:4949.got - 2010.04.14 01:42:59.
