data_PCOD8170474
_publ_section_title
;
Structure prediction by ZEFSAII (Michael W. Deem and Ramdas Pophale) SiO2 
 PCOD8170474
Probable space group: P B A 2
;
_chemical_formula_sum "Si O2"
_cell_formula_units_Z 24
_cell_length_a 9.562214
_cell_length_b 16.597776
_cell_length_c 7.158170
_cell_angle_alpha 90.000000
_cell_angle_beta 90.000000
_cell_angle_gamma 90.000000
_cell_volume 1136.083798
_symmetry_space_group_name_H-M "P B A 2"
_symmetry_group_IT_number 32
_symmetry_cell_setting 'orthorhombic'
loop_
_space_group_symop_operation_xyz
x,y,z
-x,-y,z
1/2-x,1/2+y,z
1/2+x,1/2-y,z
loop_
_atom_site_type_symbol
_atom_site_label
_atom_site_fract_x
_atom_site_fract_y
_atom_site_fract_z
Si Si1 0.283908 0.418224 0.022150
Si Si2 0.487610 0.836072 0.128989
Si Si3 0.471071 0.330435 0.290426
Si Si4 0.715026 0.400060 0.116085
Si Si5 0.609356 0.275182 0.815394
Si Si6 0.833731 0.164758 0.657218
O O1 0.146060 0.394788 0.140963
O O2 0.406848 0.357764 0.089116
O O3 0.323218 0.510173 0.054761
O O4 0.277602 0.405195 0.796410
O O5 0.498765 0.765874 0.287311
O O6 0.620882 0.893285 0.157225
O O7 0.472905 0.794572 0.927020
O O8 0.620812 0.377143 0.298670
O O9 0.351226 0.358900 0.438606
O O10 0.684096 0.336672 0.953605
O O11 0.730652 0.240125 0.681234
O O12 0.497608 0.316588 0.683897
#
# Coordination Sequence:
#
# PCOD8170474 Si02
#       6
#     4   4   4   4   4   4
#     4  11  23  42  61  91 128 160 205 256 315 371
#     4  10  20  40  65  88 120 162 208 253 302 369
#     4  11  23  39  64  91 123 161 213 251 305 368
#     4  11  21  41  63  90 127 165 198 259 318 364
#     4  10  20  39  64  89 116 158 210 251 299 363
#     4  11  23  39  64  90 119 163 210 256 301 365
#
# _framework density 21.125201000000001
#
# number of rings (size 3 to 8) (size 9 to 14) (size 15 to 20)
#    0.000    1.333    5.000    3.000    4.667    0.000 
#    6.000    0.000    0.000    2.000    0.000    0.000 
#    0.000    0.000    0.000    0.000    0.000    0.000 
#
# Total GULP energy -297377.764027 kJ/mol
# GULP energy per Si atom -12390.740168 kJ/mol
# Density = 2.107712 g / cm^3
# Si number density = 21.125201 Si / 1000 Ang^3
#
#
#
# Elastic Constant Matrix: (Units=GPa)
#
#
# Indices 1 2 3 4 5 6 
#
# 1 119.6518 25.5434 23.7675 0.0000 0.0000 0.0000
# 2 25.5434 97.3293 23.5368 0.0000 0.0000 0.0000
# 3 23.7675 23.5368 75.9834 0.0000 0.0000 0.0000
# 4 0.0000 0.0000 0.0000 13.9043 0.0000 0.0000
# 5 0.0000 0.0000 0.0000 0.0000 36.9113 0.0000
# 6 0.0000 0.0000 0.0000 0.0000 0.0000 28.2433
#
#
#
# Elastic Compliance Matrix: (Units=1/GPa)
#
#
# Indices 1 2 3 4 5 6 
#
# 1 0.009213 -0.001860 -0.002305 0.000000 0.000000 0.000000
# 2 -0.001860 0.011482 -0.002975 0.000000 0.000000 0.000000
# 3 -0.002305 -0.002975 0.014803 0.000000 0.000000 0.000000
# 4 0.000000 0.000000 0.000000 0.071920 0.000000 0.000000
# 5 0.000000 0.000000 0.000000 0.000000 0.027092 0.000000
# 6 0.000000 0.000000 0.000000 0.000000 0.000000 0.035407
#
#
# Mechanical properties :
#
#
# Convention : Reuss Voigt Hill
#
# Bulk Modulus (GPa) = 47.13207 48.74000 47.93603
# Shear Modulus (GPa) = 26.14099 30.48621 28.31360
#
# Velocity S-wave (km/s) = 3.52153 3.80296 3.66495
# Velocity P-wave (km/s) = 6.23652 6.51195 6.37572
#
# Compressibility (1/GPa) = 0.02121698
#
# Stress axis : x y z
#
# Youngs Moduli (GPa) = 108.54611 87.09280 67.55200
#
# Poissons Ratio (x) = 0.16202 0.15574
# Poissons Ratio (y) = 0.20193 0.20095
# Poissons Ratio (z) = 0.25025 0.25908
#
# Static dielectric constant tensor:
#      x y z
#    x 4.025460 0.000000 0.000000 
#    y 0.000000 3.562270 0.000000 
#    z 0.000000 0.000000 3.651290 
# 
# 
# High freq. dielectric constant tensor:
#      x y z
#    x 1.850630 0.000000 0.000000 
#    y 0.000000 1.806350 0.000000 
#    z 0.000000 0.000000 1.803010 
# 
# From -- ./inp_files/2403.got.cif
#   From: 2010.03.12/outbox.cif.g09.slc.cpg/sg32_2_cif.got.tgz:2403.got - 2010.04.14 01:46:39.
