data_PCOD8170188
_publ_section_title
;
Structure prediction by ZEFSAII (Michael W. Deem and Ramdas Pophale) SiO2 
 PCOD8170188
Probable space group: P M N 21
;
_chemical_formula_sum "Si O2"
_cell_formula_units_Z 32
_cell_length_a 9.257364
_cell_length_b 11.792835
_cell_length_c 14.943126
_cell_angle_alpha 90.000000
_cell_angle_beta 90.000000
_cell_angle_gamma 90.000000
_cell_volume 1631.349526
_symmetry_space_group_name_H-M "P M N 21"
_symmetry_group_IT_number 31
_symmetry_cell_setting 'orthorhombic'
loop_
_space_group_symop_operation_xyz
x,y,z
1/2-x,-y,1/2+z
-x,y,z
1/2+x,-y,1/2+z
loop_
_atom_site_type_symbol
_atom_site_label
_atom_site_fract_x
_atom_site_fract_y
_atom_site_fract_z
Si Si1 0.665488 0.512165 0.663750
Si Si2 0.667043 0.891025 0.308628
Si Si3 0.671226 0.500542 0.981325
Si Si4 0.168668 0.945578 0.648010
Si Si5 0.671536 0.344870 0.817539
Si Si6 0.337379 0.753153 0.941699
Si Si7 0.668529 0.033964 0.483496
Si Si8 0.840812 0.243720 0.235124
O O1 0.500000 0.493361 0.634444
O O2 0.760905 0.530564 0.576218
O O3 0.719486 0.408146 0.725964
O O4 0.683494 0.622945 0.724360
O O5 0.500000 0.855247 0.310576
O O6 0.761520 0.779286 0.319097
O O7 0.707421 0.953093 0.216161
O O8 0.702390 0.978327 0.387925
O O9 0.500000 0.493498 0.989209
O O10 0.726674 0.414349 0.904602
O O11 0.722117 0.626930 0.956539
O O12 0.214346 0.824443 0.687041
O O13 0.000000 0.941767 0.626867
O O14 0.256482 0.956875 0.557221
O O15 0.500000 0.334569 0.820662
O O16 0.500000 0.765374 0.980243
O O17 0.334063 0.785310 0.838658
O O18 0.233463 0.840125 0.992504
O O19 0.500000 0.041926 0.503153
O O20 0.000000 0.209398 0.197592
#
# Coordination Sequence:
#
# PCOD8170188 Si02
#       8
#     4   4   4   4   4   4   4   4
#     4  10  22  40  61  89 121 156 197 245 294 350
#     4  10  24  43  60  84 122 159 195 246 299 350
#     4  10  22  40  61  89 121 156 197 245 294 350
#     4  11  24  42  62  89 122 157 200 249 299 355
#     4  10  22  41  62  86 120 159 199 240 291 356
#     4  10  20  39  65  88 117 156 199 248 302 355
#     4  11  24  42  62  89 122 157 200 249 299 355
#     4  10  20  39  65  88 117 156 199 248 302 355
#
# _framework density 19.615662
#
# number of rings (size 3 to 8) (size 9 to 14) (size 15 to 20)
#    0.000    1.750    2.500    0.750    3.500    4.000 
#    0.000    0.000    0.000    0.000    0.000    0.000 
#    0.000    0.000    0.000    0.000    0.000    0.000 
#
# Total GULP energy -396879.847250 kJ/mol
# GULP energy per Si atom -12402.495227 kJ/mol
# Density = 1.957102 g / cm^3
# Si number density = 19.615662 Si / 1000 Ang^3
#
#
#
# Elastic Constant Matrix: (Units=GPa)
#
#
# Indices 1 2 3 4 5 6 
#
# 1 60.1815 34.3859 26.6372 0.0000 0.0000 0.0000
# 2 34.3859 78.0428 -3.3169 0.0000 0.0000 0.0000
# 3 26.6372 -3.3169 65.2406 0.0000 0.0000 0.0000
# 4 0.0000 0.0000 0.0000 27.4512 0.0000 0.0000
# 5 0.0000 0.0000 0.0000 0.0000 27.4075 0.0000
# 6 0.0000 0.0000 0.0000 0.0000 0.0000 34.6696
#
#
#
# Elastic Compliance Matrix: (Units=1/GPa)
#
#
# Indices 1 2 3 4 5 6 
#
# 1 0.030393 -0.013949 -0.013118 0.000000 0.000000 0.000000
# 2 -0.013949 0.019243 0.006673 0.000000 0.000000 0.000000
# 3 -0.013118 0.006673 0.021023 0.000000 0.000000 0.000000
# 4 0.000000 0.000000 0.000000 0.036428 0.000000 0.000000
# 5 0.000000 0.000000 0.000000 0.000000 0.036486 0.000000
# 6 0.000000 0.000000 0.000000 0.000000 0.000000 0.028844
#
#
# Mechanical properties :
#
#
# Convention : Reuss Voigt Hill
#
# Bulk Modulus (GPa) = 33.47621 35.43082 34.45351
# Shear Modulus (GPa) = 22.40535 27.62291 25.01413
#
# Velocity S-wave (km/s) = 3.38334 3.75668 3.57489
# Velocity P-wave (km/s) = 5.68909 6.07607 5.88576
#
# Compressibility (1/GPa) = 0.02987196
#
# Stress axis : x y z
#
# Youngs Moduli (GPa) = 32.90285 51.96718 47.56641
#
# Poissons Ratio (x) = 0.72487 0.62399
# Poissons Ratio (y) = 0.45895 -0.31743
# Poissons Ratio (z) = 0.43163 -0.34680
#
# Static dielectric constant tensor:
#      x y z
#    x 3.535640 0.000000 0.000000 
#    y 0.000000 3.549150 0.000000 
#    z 0.000000 0.000000 3.629480 
# 
# 
# High freq. dielectric constant tensor:
#      x y z
#    x 1.757520 0.000000 0.000000 
#    y 0.000000 1.772120 0.000000 
#    z 0.000000 0.000000 1.769840 
# 
# From -- ./inp_files/4940.got.cif
#   From: 2010.03.12/outbox.cif.g09.slc.cpg/sg31_3_cif.got.tgz:4940.got - 2010.04.14 01:42:59.
