data_PCOD8170668
_publ_section_title
;
Structure prediction by ZEFSAII (Michael W. Deem and Ramdas Pophale) SiO2 
 PCOD8170668
Probable space group: P N A 21
;
_chemical_formula_sum "Si O2"
_cell_formula_units_Z 32
_cell_length_a 9.000650
_cell_length_b 14.714464
_cell_length_c 11.831168
_cell_angle_alpha 90.000000
_cell_angle_beta 90.000000
_cell_angle_gamma 90.000000
_cell_volume 1566.916819
_symmetry_space_group_name_H-M "P N A 21"
_symmetry_group_IT_number 33
_symmetry_cell_setting 'orthorhombic'
loop_
_space_group_symop_operation_xyz
x,y,z
-x,-y,1/2+z
1/2-x,1/2+y,1/2+z
1/2+x,1/2-y,z
loop_
_atom_site_type_symbol
_atom_site_label
_atom_site_fract_x
_atom_site_fract_y
_atom_site_fract_z
Si Si1 0.981307 0.606429 0.194440
Si Si2 0.820726 0.439907 0.885648
Si Si3 0.427667 0.859402 0.821392
Si Si4 0.546279 0.297175 0.587190
Si Si5 0.715423 0.151195 0.883154
Si Si6 0.472124 0.919182 0.578305
Si Si7 0.949316 0.839874 0.337455
Si Si8 0.192854 0.737802 0.938424
O O1 0.113213 0.624658 0.285649
O O2 0.023361 0.522564 0.117426
O O3 0.960431 0.689014 0.109359
O O4 0.832162 0.592881 0.271604
O O5 0.875370 0.542137 0.864012
O O6 0.642817 0.427334 0.882587
O O7 0.877883 0.402041 0.006246
O O8 0.457718 0.854940 0.687259
O O9 0.297847 0.787829 0.848060
O O10 0.583844 0.833470 0.878416
O O11 0.533013 0.352583 0.702464
O O12 0.702402 0.318614 0.525582
O O13 0.404348 0.314606 0.505531
O O14 0.638310 0.249337 0.871743
O O15 0.891097 0.160379 0.894766
O O16 0.667239 0.098964 0.996494
#
# Coordination Sequence:
#
# PCOD8170668 Si02
#       8
#     4   4   4   4   4   4   4   4
#     4   9  18  36  60  87 114 152 200 243 299 354
#     4  10  21  38  60  86 120 156 198 249 300 359
#     4  10  23  40  57  85 115 155 203 243 294 364
#     4  10  18  34  62  87 111 148 188 253 303 333
#     4  10  21  36  60  90 119 161 204 244 300 357
#     4  10  20  38  60  81 122 164 192 239 293 350
#     4  11  21  37  60  93 122 149 203 254 295 357
#     4  10  20  35  57  83 113 149 198 239 292 366
#
# _framework density 20.422272
#
# number of rings (size 3 to 8) (size 9 to 14) (size 15 to 20)
#    0.000    2.000    0.000    6.000    0.000    3.000 
#    0.000   16.250    0.000    0.000    0.000    0.000 
#    0.000    0.000    0.000    0.000    0.000    0.000 
#
# Total GULP energy -396652.064368 kJ/mol
# GULP energy per Si atom -12395.377011 kJ/mol
# Density = 2.037579 g / cm^3
# Si number density = 20.422272 Si / 1000 Ang^3
#
#
#
# Elastic Constant Matrix: (Units=GPa)
#
#
# Indices 1 2 3 4 5 6 
#
# 1 148.6989 35.0732 54.2896 0.0000 0.0000 0.0000
# 2 35.0732 63.5827 38.2409 0.0000 0.0000 0.0000
# 3 54.2896 38.2409 137.0121 0.0000 0.0000 0.0000
# 4 0.0000 0.0000 0.0000 33.1823 0.0000 0.0000
# 5 0.0000 0.0000 0.0000 0.0000 23.5379 0.0000
# 6 0.0000 0.0000 0.0000 0.0000 0.0000 31.8532
#
#
#
# Elastic Compliance Matrix: (Units=1/GPa)
#
#
# Indices 1 2 3 4 5 6 
#
# 1 0.008355 -0.003146 -0.002433 0.000000 0.000000 0.000000
# 2 -0.003146 0.020085 -0.004359 0.000000 0.000000 0.000000
# 3 -0.002433 -0.004359 0.009479 0.000000 0.000000 0.000000
# 4 0.000000 0.000000 0.000000 0.030137 0.000000 0.000000
# 5 0.000000 0.000000 0.000000 0.000000 0.042485 0.000000
# 6 0.000000 0.000000 0.000000 0.000000 0.000000 0.031394
#
#
# Mechanical properties :
#
#
# Convention : Reuss Voigt Hill
#
# Bulk Modulus (GPa) = 55.42110 67.16679 61.29395
# Shear Modulus (GPa) = 29.79311 32.49402 31.14356
#
# Velocity S-wave (km/s) = 3.82364 3.99320 3.90934
# Velocity P-wave (km/s) = 6.83302 7.36350 7.10321
#
# Compressibility (1/GPa) = 0.01804367
#
# Stress axis : x y z
#
# Youngs Moduli (GPa) = 119.68696 49.78939 105.49380
#
# Poissons Ratio (x) = 0.15662 0.25663
# Poissons Ratio (y) = 0.37650 0.45988
# Poissons Ratio (z) = 0.29115 0.21705
#
# Static dielectric constant tensor:
#      x y z
#    x 3.876510 0.000000 0.000000 
#    y 0.000000 3.365820 0.000000 
#    z 0.000000 0.000000 4.093170 
# 
# 
# High freq. dielectric constant tensor:
#      x y z
#    x 1.802630 0.000000 0.000000 
#    y 0.000000 1.764790 0.000000 
#    z 0.000000 0.000000 1.809980 
# 
# From -- ./inp_files/6039.got.cif
#   From: 2010.03.12/outbox.cif.g09.slc.cpg/sg33_4_cif.got.tgz:6039.got - 2010.04.14 01:49:19.
