data_PCOD8170578
_publ_section_title
;
Structure prediction by ZEFSAII (Michael W. Deem and Ramdas Pophale) SiO2 
 PCOD8170578
Probable space group: P B A 2
;
_chemical_formula_sum "Si O2"
_cell_formula_units_Z 16
_cell_length_a 10.104511
_cell_length_b 8.488094
_cell_length_c 7.862540
_cell_angle_alpha 90.000000
_cell_angle_beta 90.000000
_cell_angle_gamma 90.000000
_cell_volume 674.354639
_symmetry_space_group_name_H-M "P B A 2"
_symmetry_group_IT_number 32
_symmetry_cell_setting 'orthorhombic'
loop_
_space_group_symop_operation_xyz
x,y,z
-x,-y,z
1/2-x,1/2+y,z
1/2+x,1/2-y,z
loop_
_atom_site_type_symbol
_atom_site_label
_atom_site_fract_x
_atom_site_fract_y
_atom_site_fract_z
Si Si1 0.707248 0.093783 0.480260
Si Si2 0.574684 0.338934 0.898980
Si Si3 0.112936 0.119768 0.289003
Si Si4 0.351591 0.179244 0.706288
O O1 0.607220 0.227377 0.411007
O O2 0.833123 0.178074 0.571324
O O3 0.753933 0.981216 0.324362
O O4 0.626646 0.987807 0.613652
O O5 0.500000 0.500000 0.859707
O O6 0.476814 0.203240 0.830058
O O7 0.715155 0.330803 0.810351
O O8 0.601714 0.318032 0.098330
O O9 0.000000 0.000000 0.341623
#
# Coordination Sequence:
#
# PCOD8170578 Si02
#       4
#     4   4   4   4
#     4  10  24  45  75 106 145 196 250 302 376 446
#     4  11  25  47  73 108 153 196 243 315 376 452
#     4  10  25  46  75 102 153 193 248 308 374 445
#     4  11  24  46  75 108 147 194 250 307 379 443
#
# _framework density 23.726388
#
# number of rings (size 3 to 8) (size 9 to 14) (size 15 to 20)
#    0.000    1.500    2.500    0.000   14.000    1.000 
#    4.500    0.000    0.000    0.000    0.000    0.000 
#    0.000    0.000    0.000    0.000    0.000    0.000 
#
# Total GULP energy -198361.421988 kJ/mol
# GULP energy per Si atom -12397.588874 kJ/mol
# Density = 2.367239 g / cm^3
# Si number density = 23.726388 Si / 1000 Ang^3
#
#
#
# Elastic Constant Matrix: (Units=GPa)
#
#
# Indices 1 2 3 4 5 6 
#
# 1 116.8268 45.2121 79.8345 0.0000 0.0000 0.0000
# 2 45.2121 158.2368 93.9789 0.0000 0.0000 0.0000
# 3 79.8345 93.9789 163.4479 0.0000 0.0000 0.0000
# 4 0.0000 0.0000 0.0000 46.3938 0.0000 0.0000
# 5 0.0000 0.0000 0.0000 0.0000 42.0358 0.0000
# 6 0.0000 0.0000 0.0000 0.0000 0.0000 36.8078
#
#
#
# Elastic Compliance Matrix: (Units=1/GPa)
#
#
# Indices 1 2 3 4 5 6 
#
# 1 0.012849 0.000085 -0.006325 0.000000 0.000000 0.000000
# 2 0.000085 0.009597 -0.005560 0.000000 0.000000 0.000000
# 3 -0.006325 -0.005560 0.012404 0.000000 0.000000 0.000000
# 4 0.000000 0.000000 0.000000 0.021555 0.000000 0.000000
# 5 0.000000 0.000000 0.000000 0.000000 0.023789 0.000000
# 6 0.000000 0.000000 0.000000 0.000000 0.000000 0.027168
#
#
# Mechanical properties :
#
#
# Convention : Reuss Voigt Hill
#
# Bulk Modulus (GPa) = 88.87793 97.39584 93.13688
# Shear Modulus (GPa) = 37.11615 39.67988 38.39801
#
# Velocity S-wave (km/s) = 3.95947 4.09393 4.02726
# Velocity P-wave (km/s) = 7.64487 7.96779 7.80800
#
# Compressibility (1/GPa) = 0.01125139
#
# Stress axis : x y z
#
# Youngs Moduli (GPa) = 77.82780 104.19493 80.61712
#
# Poissons Ratio (x) = -0.00888 0.50990
# Poissons Ratio (y) = -0.00663 0.44822
# Poissons Ratio (z) = 0.49225 0.57931
#
# Static dielectric constant tensor:
#      x y z
#    x 4.106290 0.000000 0.000000 
#    y 0.000000 4.514340 0.000000 
#    z 0.000000 0.000000 4.423240 
# 
# 
# High freq. dielectric constant tensor:
#      x y z
#    x 1.936440 0.000000 0.000000 
#    y 0.000000 1.955560 0.000000 
#    z 0.000000 0.000000 1.940070 
# 
# From -- ./inp_files/2104.got.cif
#   From: 2010.03.12/outbox.cif.g09.slc.cpg/sg32_2_cif.got.tgz:2104.got - 2010.04.14 01:46:39.
