data_PCOD8170212
_publ_section_title
;
Structure prediction by ZEFSAII (Michael W. Deem and Ramdas Pophale) SiO2 
 PCOD8170212
Probable space group: P M N 21
;
_chemical_formula_sum "Si O2"
_cell_formula_units_Z 32
_cell_length_a 9.394527
_cell_length_b 14.360616
_cell_length_c 12.219721
_cell_angle_alpha 90.000000
_cell_angle_beta 90.000000
_cell_angle_gamma 90.000000
_cell_volume 1648.577160
_symmetry_space_group_name_H-M "P M N 21"
_symmetry_group_IT_number 31
_symmetry_cell_setting 'orthorhombic'
loop_
_space_group_symop_operation_xyz
x,y,z
1/2-x,-y,1/2+z
-x,y,z
1/2+x,-y,1/2+z
loop_
_atom_site_type_symbol
_atom_site_label
_atom_site_fract_x
_atom_site_fract_y
_atom_site_fract_z
Si Si1 0.333350 0.180901 0.731430
Si Si2 0.336240 0.135489 0.979092
Si Si3 0.165213 0.960577 0.038107
Si Si4 0.834098 0.451595 0.243217
Si Si5 0.837647 0.369577 0.699888
Si Si6 0.333737 0.284197 0.152602
Si Si7 0.655212 0.656920 0.957631
Si Si8 0.664193 0.189354 0.373168
O O1 0.500000 0.208489 0.721315
O O2 0.299487 0.139166 0.851145
O O3 0.290065 0.104785 0.640249
O O4 0.233963 0.270184 0.719235
O O5 0.500000 0.110862 0.998721
O O6 0.300960 0.234627 0.036999
O O7 0.249529 0.056427 0.042428
O O8 0.000000 0.984856 0.047253
O O9 0.201489 0.912907 0.919898
O O10 0.758384 0.550737 0.251918
O O11 0.758477 0.378593 0.160398
O O12 0.810462 0.417901 0.365890
O O13 0.000000 0.461485 0.210098
O O14 0.839495 0.395435 0.572268
O O15 0.000000 0.369103 0.746309
O O16 0.500000 0.310784 0.163877
O O17 0.287337 0.210605 0.248739
O O18 0.500000 0.701615 0.936451
O O19 0.766559 0.739930 0.958593
O O20 0.500000 0.208426 0.386579
#
# Coordination Sequence:
#
# PCOD8170212 Si02
#       8
#     4   4   4   4   4   4   4   4
#     4  10  22  41  59  83 117 152 191 235 287 342
#     4  10  23  39  58  83 117 158 192 230 287 347
#     4  10  21  36  57  84 113 146 188 238 285 334
#     4  10  21  37  58  84 114 152 192 235 288 344
#     4  11  22  37  59  86 114 149 191 238 287 340
#     4   9  19  37  57  81 113 148 190 236 283 336
#     4   9  19  35  54  79 108 141 185 232 280 333
#     4   9  17  32  56  80 104 138 181 234 283 324
#
# _framework density 19.410677
#
# number of rings (size 3 to 8) (size 9 to 14) (size 15 to 20)
#    0.000    2.250    1.250    0.750    1.750    4.000 
#    0.000    5.000    0.000    0.000    0.000    0.000 
#    0.000    0.000    0.000    0.000    0.000    0.000 
#
# Total GULP energy -396680.571973 kJ/mol
# GULP energy per Si atom -12396.267874 kJ/mol
# Density = 1.936650 g / cm^3
# Si number density = 19.410677 Si / 1000 Ang^3
#
#
#
# Elastic Constant Matrix: (Units=GPa)
#
#
# Indices 1 2 3 4 5 6 
#
# 1 79.9029 62.7816 33.4577 0.0000 0.0000 0.0000
# 2 62.7816 111.6728 35.6520 0.0000 0.0000 0.0000
# 3 33.4577 35.6520 69.9741 0.0000 0.0000 0.0000
# 4 0.0000 0.0000 0.0000 20.9624 0.0000 0.0000
# 5 0.0000 0.0000 0.0000 0.0000 27.9372 0.0000
# 6 0.0000 0.0000 0.0000 0.0000 0.0000 39.4911
#
#
#
# Elastic Compliance Matrix: (Units=1/GPa)
#
#
# Indices 1 2 3 4 5 6 
#
# 1 0.024075 -0.011775 -0.005512 0.000000 0.000000 0.000000
# 2 -0.011775 0.016454 -0.002753 0.000000 0.000000 0.000000
# 3 -0.005512 -0.002753 0.018329 0.000000 0.000000 0.000000
# 4 0.000000 0.000000 0.000000 0.047704 0.000000 0.000000
# 5 0.000000 0.000000 0.000000 0.000000 0.035795 0.000000
# 6 0.000000 0.000000 0.000000 0.000000 0.000000 0.025322
#
#
# Mechanical properties :
#
#
# Convention : Reuss Voigt Hill
#
# Bulk Modulus (GPa) = 53.25428 58.37027 55.81227
# Shear Modulus (GPa) = 23.36249 26.32206 24.84227
#
# Velocity S-wave (km/s) = 3.47304 3.68647 3.58135
# Velocity P-wave (km/s) = 6.60135 6.94669 6.77622
#
# Compressibility (1/GPa) = 0.01877783
#
# Stress axis : x y z
#
# Youngs Moduli (GPa) = 41.53642 60.77722 54.55810
#
# Poissons Ratio (x) = 0.71566 0.30072
# Poissons Ratio (y) = 0.48910 0.15019
# Poissons Ratio (z) = 0.22895 0.16731
#
# Static dielectric constant tensor:
#      x y z
#    x 3.596650 0.000000 0.000000 
#    y 0.000000 3.346250 0.000000 
#    z 0.000000 0.000000 3.718350 
# 
# 
# High freq. dielectric constant tensor:
#      x y z
#    x 1.757120 0.000000 0.000000 
#    y 0.000000 1.745420 0.000000 
#    z 0.000000 0.000000 1.757780 
# 
# From -- ./inp_files/3665.got.cif
#   From: 2010.03.12/outbox.cif.g09.slc.cpg/sg31_2_cif.got.tgz:3665.got - 2010.04.14 01:42:59.
