data_PCOD8170597
_publ_section_title
;
Structure prediction by ZEFSAII (Michael W. Deem and Ramdas Pophale) SiO2 
 PCOD8170597
Probable space group: P B A 2
;
_chemical_formula_sum "Si O2"
_cell_formula_units_Z 32
_cell_length_a 16.139121
_cell_length_b 14.797256
_cell_length_c 6.639303
_cell_angle_alpha 90.000000
_cell_angle_beta 90.000000
_cell_angle_gamma 90.000000
_cell_volume 1585.563188
_symmetry_space_group_name_H-M "P B A 2"
_symmetry_group_IT_number 32
_symmetry_cell_setting 'orthorhombic'
loop_
_space_group_symop_operation_xyz
x,y,z
-x,-y,z
1/2-x,1/2+y,z
1/2+x,1/2-y,z
loop_
_atom_site_type_symbol
_atom_site_label
_atom_site_fract_x
_atom_site_fract_y
_atom_site_fract_z
Si Si1 0.828784 0.665371 0.356510
Si Si2 0.582267 0.326935 0.588583
Si Si3 0.217624 0.770541 0.013117
Si Si4 0.028385 0.771339 0.936499
Si Si5 0.049475 0.412260 0.027440
Si Si6 0.558652 0.417971 0.190996
Si Si7 0.302694 0.918390 0.758480
Si Si8 0.204202 0.089626 0.912154
O O1 0.877329 0.744065 0.470790
O O2 0.748857 0.704852 0.238289
O O3 0.889240 0.614447 0.205709
O O4 0.797549 0.591184 0.517429
O O5 0.499597 0.295345 0.708146
O O6 0.558002 0.405266 0.431146
O O7 0.646562 0.369299 0.741772
O O8 0.122885 0.798300 0.977816
O O9 0.272851 0.823929 0.852670
O O10 0.227931 0.663569 0.977027
O O11 0.016135 0.665755 0.978030
O O12 0.971322 0.824812 0.092637
O O13 0.000000 0.500000 0.097703
O O14 0.102549 0.433936 0.826941
O O15 0.500000 0.500000 0.126972
O O16 0.650631 0.438552 0.107958
O O17 0.247327 0.001022 0.829070
#
# Coordination Sequence:
#
# PCOD8170597 Si02
#       8
#     4   4   4   4   4   4   4   4
#     4  11  21  45  66  89 133 177 217 272 335 399
#     4  11  21  43  67  88 132 175 214 271 332 390
#     4  11  23  41  65  92 129 173 216 271 337 402
#     4  11  23  41  65  93 129 172 216 270 334 399
#     4  11  23  42  65  93 130 172 218 274 334 394
#     4  11  23  41  66  94 128 170 218 273 327 395
#     4  11  23  42  65  94 129 170 219 276 331 400
#     4  11  23  41  65  93 129 170 218 271 334 393
#
# _framework density 20.182103000000001
#
# number of rings (size 3 to 8) (size 9 to 14) (size 15 to 20)
#    0.000    1.000    5.000    3.000    0.000    7.500 
#    4.500    0.000    0.000    0.000    0.000    0.000 
#    0.000    0.000    0.000    0.000    0.000    0.000 
#
# Total GULP energy -396920.735511 kJ/mol
# GULP energy per Si atom -12403.772985 kJ/mol
# Density = 2.013617 g / cm^3
# Si number density = 20.182103 Si / 1000 Ang^3
#
#
#
# Elastic Constant Matrix: (Units=GPa)
#
#
# Indices 1 2 3 4 5 6 
#
# 1 103.7906 29.1156 42.7376 0.0000 0.0000 0.0000
# 2 29.1156 107.2877 34.4392 0.0000 0.0000 0.0000
# 3 42.7376 34.4392 133.5057 0.0000 0.0000 0.0000
# 4 0.0000 0.0000 0.0000 32.0313 0.0000 0.0000
# 5 0.0000 0.0000 0.0000 0.0000 28.9691 0.0000
# 6 0.0000 0.0000 0.0000 0.0000 0.0000 38.3467
#
#
#
# Elastic Compliance Matrix: (Units=1/GPa)
#
#
# Indices 1 2 3 4 5 6 
#
# 1 0.011523 -0.002118 -0.003142 0.000000 0.000000 0.000000
# 2 -0.002118 0.010552 -0.002044 0.000000 0.000000 0.000000
# 3 -0.003142 -0.002044 0.009023 0.000000 0.000000 0.000000
# 4 0.000000 0.000000 0.000000 0.031219 0.000000 0.000000
# 5 0.000000 0.000000 0.000000 0.000000 0.034520 0.000000
# 6 0.000000 0.000000 0.000000 0.000000 0.000000 0.026078
#
#
# Mechanical properties :
#
#
# Convention : Reuss Voigt Hill
#
# Bulk Modulus (GPa) = 60.64589 61.90765 61.27677
# Shear Modulus (GPa) = 34.96011 35.75551 35.35781
#
# Velocity S-wave (km/s) = 4.16653 4.21366 4.19016
# Velocity P-wave (km/s) = 7.29802 7.37661 7.33742
#
# Compressibility (1/GPa) = 0.01648916
#
# Stress axis : x y z
#
# Youngs Moduli (GPa) = 86.78355 94.77163 110.82279
#
# Poissons Ratio (x) = 0.20077 0.34823
# Poissons Ratio (y) = 0.18384 0.22650
# Poissons Ratio (z) = 0.27269 0.19369
#
# Static dielectric constant tensor:
#      x y z
#    x 3.628400 0.000000 0.000000 
#    y 0.000000 3.703790 0.000000 
#    z 0.000000 0.000000 3.974560 
# 
# 
# High freq. dielectric constant tensor:
#      x y z
#    x 1.784290 0.000000 0.000000 
#    y 0.000000 1.796090 0.000000 
#    z 0.000000 0.000000 1.793720 
# 
# From -- ./inp_files/1471.got.cif
#   From: 2010.03.12/outbox.cif.g09.slc.cpg/sg32_1_cif.got.tgz:1471.got - 2010.04.14 01:46:39.
