data_PCOD8170234
_publ_section_title
;
Structure prediction by ZEFSAII (Michael W. Deem and Ramdas Pophale) SiO2 
 PCOD8170234
Probable space group: P M N 21
;
_chemical_formula_sum "Si O2"
_cell_formula_units_Z 24
_cell_length_a 14.202545
_cell_length_b 16.503444
_cell_length_c 5.046381
_cell_angle_alpha 90.000000
_cell_angle_beta 90.000000
_cell_angle_gamma 90.000000
_cell_volume 1182.825815
_symmetry_space_group_name_H-M "P M N 21"
_symmetry_group_IT_number 31
_symmetry_cell_setting 'orthorhombic'
loop_
_space_group_symop_operation_xyz
x,y,z
1/2-x,-y,1/2+z
-x,y,z
1/2+x,-y,1/2+z
loop_
_atom_site_type_symbol
_atom_site_label
_atom_site_fract_x
_atom_site_fract_y
_atom_site_fract_z
Si Si1 0.293966 0.959329 0.185820
Si Si2 0.107297 0.431286 0.233573
Si Si3 0.000000 0.980339 0.729557
Si Si4 0.765168 0.689738 0.680792
Si Si5 0.199351 0.792576 0.179031
Si Si6 0.000000 0.871473 0.229818
Si Si7 0.607603 0.463423 0.213576
O O1 0.265945 0.867748 0.254308
O O2 0.247685 0.019459 0.398569
O O3 0.407133 0.965486 0.185218
O O4 0.160715 0.346481 0.203869
O O5 0.151032 0.484437 0.472351
O O6 0.000000 0.408140 0.295825
O O7 0.118572 0.483885 0.973443
O O8 0.000000 0.905263 0.527727
O O9 0.000000 0.946536 0.027541
O O10 0.781065 0.720871 0.384240
O O11 0.839587 0.620509 0.749673
O O12 0.776751 0.763444 0.883982
O O13 0.090303 0.815963 0.187357
O O14 0.500000 0.441653 0.150537
#
# Coordination Sequence:
#
# PCOD8170234 Si02
#       7
#     4   4   2   4   4   2   4
#     4  12  23  45  67  96 126 165 221 255 304 385
#     4  10  21  41  63  86 120 165 213 250 295 365
#     4  12  22  44  74  90 120 172 214 266 306 366
#     4  12  24  40  61  92 129 163 194 256 320 363
#     4  12  26  40  63  94 131 156 202 258 314 378
#     4  12  24  42  68  94 124 166 202 258 332 370
#     4  10  21  37  63  90 116 160 212 253 294 365
#
# _framework density 20.290393000000002
#
# number of rings (size 3 to 8) (size 9 to 14) (size 15 to 20)
#    0.000    0.667    3.333    5.000    2.333    0.000 
#    3.000    0.000    0.000    0.000    0.000    0.000 
#    0.000    0.000    0.000    0.000    0.000    0.000 
#
# Total GULP energy -297793.392151 kJ/mol
# GULP energy per Si atom -12408.058006 kJ/mol
# Density = 2.024421 g / cm^3
# Si number density = 20.290393 Si / 1000 Ang^3
#
#
#
# Elastic Constant Matrix: (Units=GPa)
#
#
# Indices 1 2 3 4 5 6 
#
# 1 136.7728 51.1205 14.2141 0.0000 0.0000 0.0000
# 2 51.1205 88.2611 10.9725 0.0000 0.0000 0.0000
# 3 14.2141 10.9725 90.6025 0.0000 0.0000 0.0000
# 4 0.0000 0.0000 0.0000 42.5892 0.0000 0.0000
# 5 0.0000 0.0000 0.0000 0.0000 34.8442 0.0000
# 6 0.0000 0.0000 0.0000 0.0000 0.0000 43.0992
#
#
#
# Elastic Compliance Matrix: (Units=1/GPa)
#
#
# Indices 1 2 3 4 5 6 
#
# 1 0.009392 -0.005337 -0.000827 0.000000 0.000000 0.000000
# 2 -0.005337 0.014536 -0.000923 0.000000 0.000000 0.000000
# 3 -0.000827 -0.000923 0.011279 0.000000 0.000000 0.000000
# 4 0.000000 0.000000 0.000000 0.023480 0.000000 0.000000
# 5 0.000000 0.000000 0.000000 0.000000 0.028699 0.000000
# 6 0.000000 0.000000 0.000000 0.000000 0.000000 0.023202
#
#
# Mechanical properties :
#
#
# Convention : Reuss Voigt Hill
#
# Bulk Modulus (GPa) = 47.54583 52.02784 49.78683
# Shear Modulus (GPa) = 37.94380 40.06181 39.00280
#
# Velocity S-wave (km/s) = 4.32908 4.44827 4.38908
# Velocity P-wave (km/s) = 6.96215 7.21665 7.09054
#
# Compressibility (1/GPa) = 0.02103234
#
# Stress axis : x y z
#
# Youngs Moduli (GPa) = 106.47191 68.79478 88.66206
#
# Poissons Ratio (x) = 0.36716 0.07334
# Poissons Ratio (y) = 0.56825 0.08184
# Poissons Ratio (z) = 0.08807 0.06350
#
# Static dielectric constant tensor:
#      x y z
#    x 3.926710 0.000000 0.000000 
#    y 0.000000 3.478110 0.000000 
#    z 0.000000 0.000000 3.865860 
# 
# 
# High freq. dielectric constant tensor:
#      x y z
#    x 1.804570 0.000000 0.000000 
#    y 0.000000 1.783900 0.000000 
#    z 0.000000 0.000000 1.813700 
# 
# From -- ./inp_files/636.got.cif
#   From: 2010.03.12/outbox.cif.g09.slc.cpg/sg31_1_cif.got.tgz:636.got - 2010.04.14 01:42:59.
