data_PCOD8170834
_publ_section_title
;
Structure prediction by ZEFSAII (Michael W. Deem and Ramdas Pophale) SiO2 
 PCOD8170834
Probable space group: P N A 21
;
_chemical_formula_sum "Si O2"
_cell_formula_units_Z 32
_cell_length_a 9.222652
_cell_length_b 14.538881
_cell_length_c 11.272830
_cell_angle_alpha 90.000000
_cell_angle_beta 90.000000
_cell_angle_gamma 90.000000
_cell_volume 1511.540406
_symmetry_space_group_name_H-M "P N A 21"
_symmetry_group_IT_number 33
_symmetry_cell_setting 'orthorhombic'
loop_
_space_group_symop_operation_xyz
x,y,z
-x,-y,1/2+z
1/2-x,1/2+y,1/2+z
1/2+x,1/2-y,z
loop_
_atom_site_type_symbol
_atom_site_label
_atom_site_fract_x
_atom_site_fract_y
_atom_site_fract_z
Si Si1 0.294952 0.063103 0.998060
Si Si2 0.449501 0.462609 0.623412
Si Si3 0.533635 0.934591 0.719450
Si Si4 0.998616 0.612514 0.968564
Si Si5 0.771095 0.502604 0.579363
Si Si6 0.961593 0.771866 0.131554
Si Si7 0.737509 0.079890 0.822478
Si Si8 0.708000 0.788684 0.287932
O O1 0.288225 0.138723 0.895210
O O2 0.394844 0.976382 0.964596
O O3 0.367283 0.108920 0.115111
O O4 0.133849 0.027323 0.029433
O O5 0.614417 0.494289 0.638505
O O6 0.444406 0.356209 0.577214
O O7 0.376281 0.462713 0.753679
O O8 0.538277 0.865382 0.831666
O O9 0.368515 0.944826 0.676097
O O10 0.595852 0.035233 0.759291
O O11 0.920676 0.700186 0.027573
O O12 0.145319 0.591873 0.043352
O O13 0.752156 0.559008 0.459759
O O14 0.817518 0.821031 0.184077
O O15 0.046092 0.719793 0.237816
O O16 0.728789 0.189319 0.821532
#
# Coordination Sequence:
#
# PCOD8170834 Si02
#       8
#     4   4   4   4   4   4   4   4
#     4  10  23  38  62  92 128 168 207 261 323 378
#     4  10  22  38  59  93 131 156 209 261 332 363
#     4   9  20  39  64  87 121 169 214 255 314 385
#     4  10  21  38  66  89 125 165 219 257 305 388
#     4  10  20  35  65  89 125 163 214 254 327 368
#     4  11  23  39  66  97 125 162 217 264 315 374
#     4   9  21  40  59  93 126 163 211 271 303 390
#     4  11  24  37  67  94 129 160 217 265 317 370
#
# _framework density 21.170456000000001
#
# number of rings (size 3 to 8) (size 9 to 14) (size 15 to 20)
#    0.000    2.000    0.000    3.750   14.000    0.000 
#    0.000    0.000   16.500    0.000    0.000    0.000 
#    0.000    0.000    0.000    0.000    0.000    0.000 
#
# Total GULP energy -396577.526968 kJ/mol
# GULP energy per Si atom -12393.047718 kJ/mol
# Density = 2.112227 g / cm^3
# Si number density = 21.170456 Si / 1000 Ang^3
#
#
#
# Elastic Constant Matrix: (Units=GPa)
#
#
# Indices 1 2 3 4 5 6 
#
# 1 144.0788 32.1643 47.0323 0.0000 0.0000 0.0000
# 2 32.1643 81.8891 46.4170 0.0000 0.0000 0.0000
# 3 47.0323 46.4170 110.2093 0.0000 0.0000 0.0000
# 4 0.0000 0.0000 0.0000 43.5992 0.0000 0.0000
# 5 0.0000 0.0000 0.0000 0.0000 28.3535 0.0000
# 6 0.0000 0.0000 0.0000 0.0000 0.0000 22.6666
#
#
#
# Elastic Compliance Matrix: (Units=1/GPa)
#
#
# Indices 1 2 3 4 5 6 
#
# 1 0.008226 -0.001630 -0.002824 0.000000 0.000000 0.000000
# 2 -0.001630 0.016364 -0.006196 0.000000 0.000000 0.000000
# 3 -0.002824 -0.006196 0.012889 0.000000 0.000000 0.000000
# 4 0.000000 0.000000 0.000000 0.022936 0.000000 0.000000
# 5 0.000000 0.000000 0.000000 0.000000 0.035269 0.000000
# 6 0.000000 0.000000 0.000000 0.000000 0.000000 0.044118
#
#
# Mechanical properties :
#
#
# Convention : Reuss Voigt Hill
#
# Bulk Modulus (GPa) = 61.81357 65.26716 63.54036
# Shear Modulus (GPa) = 30.03064 32.96142 31.49603
#
# Velocity S-wave (km/s) = 3.77041 3.95011 3.86130
# Velocity P-wave (km/s) = 6.94378 7.19032 7.06812
#
# Compressibility (1/GPa) = 0.01617768
#
# Stress axis : x y z
#
# Youngs Moduli (GPa) = 121.55870 61.10849 77.58834
#
# Poissons Ratio (x) = 0.09964 0.21911
# Poissons Ratio (y) = 0.19820 0.48077
# Poissons Ratio (z) = 0.34328 0.37865
#
# Static dielectric constant tensor:
#      x y z
#    x 4.057820 0.000000 0.000000 
#    y 0.000000 3.582910 0.000000 
#    z 0.000000 0.000000 4.031110 
# 
# 
# High freq. dielectric constant tensor:
#      x y z
#    x 1.842140 0.000000 0.000000 
#    y 0.000000 1.802680 0.000000 
#    z 0.000000 0.000000 1.830430 
# 
# From -- ./inp_files/6028.got.cif
#   From: 2010.03.12/outbox.cif.g09.slc.cpg/sg33_4_cif.got.tgz:6028.got - 2010.04.14 01:49:19.
