data_PCOD8170426
_publ_section_title
;
Structure prediction by ZEFSAII (Michael W. Deem and Ramdas Pophale) SiO2 
 PCOD8170426
Probable space group: P B A 2
;
_chemical_formula_sum "Si O2"
_cell_formula_units_Z 30
_cell_length_a 8.950792
_cell_length_b 15.107663
_cell_length_c 10.745265
_cell_angle_alpha 90.000000
_cell_angle_beta 90.000000
_cell_angle_gamma 90.000000
_cell_volume 1453.034360
_symmetry_space_group_name_H-M "P B A 2"
_symmetry_group_IT_number 32
_symmetry_cell_setting 'orthorhombic'
loop_
_space_group_symop_operation_xyz
x,y,z
-x,-y,z
1/2-x,1/2+y,z
1/2+x,1/2-y,z
loop_
_atom_site_type_symbol
_atom_site_label
_atom_site_fract_x
_atom_site_fract_y
_atom_site_fract_z
Si Si1 0.863676 0.712420 0.779620
Si Si2 0.354236 0.869645 0.043024
Si Si3 0.690294 0.298761 0.203421
Si Si4 0.066227 0.764701 0.372086
Si Si5 0.500000 0.000000 0.576676
Si Si6 0.172414 0.347708 0.514151
Si Si7 0.166174 0.628951 0.764471
Si Si8 0.187931 0.565406 0.027264
O O1 0.804080 0.655119 0.663223
O O2 0.817518 0.813850 0.746939
O O3 0.043019 0.705323 0.790920
O O4 0.803148 0.672623 0.910439
O O5 0.307455 0.801433 0.150296
O O6 0.528115 0.892085 0.057725
O O7 0.276843 0.964764 0.067748
O O8 0.829675 0.306372 0.299030
O O9 0.535205 0.317565 0.273843
O O10 0.693070 0.371105 0.094270
O O11 0.172179 0.833399 0.444430
O O12 0.957758 0.719226 0.471836
O O13 0.611696 0.053732 0.486746
O O14 0.393088 0.067029 0.653948
O O15 0.200012 0.564129 0.878572
#
# Coordination Sequence:
#
# PCOD8170426 Si02
#       8
#     4   4   4   4   2   4   4   4
#     4  10  19  34  65  91 119 156 197 250 322 369
#     4  10  20  36  63  98 117 159 205 252 318 381
#     4  11  20  40  61  87 123 165 206 258 304 366
#     4  10  23  39  61  84 118 167 219 245 301 365
#     4  10  20  36  64  94 122 156 212 258 314 378
#     4  10  20  40  62  87 121 159 210 260 303 369
#     4  10  19  34  61  96 123 152 198 249 312 388
#     4  10  19  35  62  91 127 156 200 250 310 374
#
# _framework density 20.646449
#
# number of rings (size 3 to 8) (size 9 to 14) (size 15 to 20)
#    0.000    1.867    2.667    4.000    0.000    0.000 
#    4.800    0.667    5.867   17.600    0.000    0.000 
#    0.000    0.000    0.000    0.000    0.000    0.000 
#
# Total GULP energy -371712.973830 kJ/mol
# GULP energy per Si atom -12390.432461 kJ/mol
# Density = 2.059946 g / cm^3
# Si number density = 20.646449 Si / 1000 Ang^3
#
#
#
# Elastic Constant Matrix: (Units=GPa)
#
#
# Indices 1 2 3 4 5 6 
#
# 1 93.0534 46.0458 37.5409 0.0000 0.0000 0.0000
# 2 46.0458 131.1955 29.5236 0.0000 0.0000 0.0000
# 3 37.5409 29.5236 76.7948 0.0000 0.0000 0.0000
# 4 0.0000 0.0000 0.0000 20.8431 0.0000 0.0000
# 5 0.0000 0.0000 0.0000 0.0000 30.9319 0.0000
# 6 0.0000 0.0000 0.0000 0.0000 0.0000 29.2609
#
#
#
# Elastic Compliance Matrix: (Units=1/GPa)
#
#
# Indices 1 2 3 4 5 6 
#
# 1 0.015069 -0.003975 -0.005838 0.000000 0.000000 0.000000
# 2 -0.003975 0.009393 -0.001668 0.000000 0.000000 0.000000
# 3 -0.005838 -0.001668 0.016517 0.000000 0.000000 0.000000
# 4 0.000000 0.000000 0.000000 0.047978 0.000000 0.000000
# 5 0.000000 0.000000 0.000000 0.000000 0.032329 0.000000
# 6 0.000000 0.000000 0.000000 0.000000 0.000000 0.034175
#
#
# Mechanical properties :
#
#
# Convention : Reuss Voigt Hill
#
# Bulk Modulus (GPa) = 55.50496 58.58491 57.04494
# Shear Modulus (GPa) = 27.11093 28.73607 27.92350
#
# Velocity S-wave (km/s) = 3.62761 3.73475 3.68157
# Velocity P-wave (km/s) = 6.66993 6.85819 6.76471
#
# Compressibility (1/GPa) = 0.01801641
#
# Stress axis : x y z
#
# Youngs Moduli (GPa) = 66.36263 106.46668 60.54413
#
# Poissons Ratio (x) = 0.42319 0.35347
# Poissons Ratio (y) = 0.26378 0.10098
# Poissons Ratio (z) = 0.38744 0.17757
#
# Static dielectric constant tensor:
#      x y z
#    x 3.692310 0.000000 0.000000 
#    y 0.000000 3.669660 0.000000 
#    z 0.000000 0.000000 3.824760 
# 
# 
# High freq. dielectric constant tensor:
#      x y z
#    x 1.790760 0.000000 0.000000 
#    y 0.000000 1.791460 0.000000 
#    z 0.000000 0.000000 1.814210 
# 
# From -- ./inp_files/3750.got.cif
#   From: 2010.03.12/outbox.cif.g09.slc.cpg/sg32_2_cif.got.tgz:3750.got - 2010.04.14 01:46:39.
