data_PCOD8170459
_publ_section_title
;
Structure prediction by ZEFSAII (Michael W. Deem and Ramdas Pophale) SiO2 
 PCOD8170459
Probable space group: P B A 2
;
_chemical_formula_sum "Si O2"
_cell_formula_units_Z 32
_cell_length_a 8.945728
_cell_length_b 20.116193
_cell_length_c 7.903865
_cell_angle_alpha 90.000000
_cell_angle_beta 90.000000
_cell_angle_gamma 90.000000
_cell_volume 1422.332051
_symmetry_space_group_name_H-M "P B A 2"
_symmetry_group_IT_number 32
_symmetry_cell_setting 'orthorhombic'
loop_
_space_group_symop_operation_xyz
x,y,z
-x,-y,z
1/2-x,1/2+y,z
1/2+x,1/2-y,z
loop_
_atom_site_type_symbol
_atom_site_label
_atom_site_fract_x
_atom_site_fract_y
_atom_site_fract_z
Si Si1 0.188688 0.409336 0.291020
Si Si2 0.108221 0.803276 0.696711
Si Si3 0.122169 0.946392 0.610426
Si Si4 0.894251 0.715962 0.905356
Si Si5 0.903225 0.842393 0.111982
Si Si6 0.119804 0.946623 0.987505
Si Si7 0.134723 0.783805 0.331481
Si Si8 0.912506 0.356106 0.159413
O O1 0.246429 0.440877 0.468619
O O2 0.250614 0.448583 0.127930
O O3 0.230196 0.331200 0.268208
O O4 0.006729 0.406772 0.280101
O O5 0.043691 0.874654 0.634629
O O6 0.244974 0.816155 0.826861
O O7 0.984781 0.753081 0.760371
O O8 0.164290 0.767674 0.526584
O O9 0.000000 0.000000 0.548608
O O10 0.183421 0.964751 0.799626
O O11 0.847413 0.772094 0.038370
O O12 0.992038 0.656524 0.987709
O O13 0.026409 0.876331 0.987547
O O14 0.983115 0.827040 0.292058
O O15 0.752577 0.887949 0.126999
O O16 0.000000 0.000000 0.049493
O O17 0.129288 0.714378 0.239152
#
# Coordination Sequence:
#
# PCOD8170459 Si02
#       8
#     4   4   4   4   4   4   4   4
#     4  10  21  37  58  85 119 157 202 248 307 362
#     4  11  22  35  57  90 123 157 197 256 306 365
#     4  10  21  38  61  89 116 155 215 259 290 355
#     4  11  21  35  56  88 126 158 198 242 316 373
#     4  10  20  37  55  87 119 162 199 249 304 371
#     4  10  20  39  65  84 110 157 213 256 299 362
#     4   9  21  34  55  82 120 159 200 236 302 373
#     4  11  21  35  55  85 124 162 187 249 313 374
#
# _framework density 22.498263999999999
#
# number of rings (size 3 to 8) (size 9 to 14) (size 15 to 20)
#    0.000    1.750    2.500    2.625    7.000    0.000 
#    0.000    0.625    0.000    0.000    0.000   16.625 
#    0.000    0.000    0.000    0.000    0.000    0.000 
#
# Total GULP energy -396471.605616 kJ/mol
# GULP energy per Si atom -12389.737675 kJ/mol
# Density = 2.244706 g / cm^3
# Si number density = 22.498264 Si / 1000 Ang^3
#
#
#
# Elastic Constant Matrix: (Units=GPa)
#
#
# Indices 1 2 3 4 5 6 
#
# 1 103.1174 -11.5977 26.0067 0.0000 0.0000 0.0000
# 2 -11.5977 25.8111 -7.3290 0.0000 0.0000 0.0000
# 3 26.0067 -7.3290 102.4692 0.0000 0.0000 0.0000
# 4 0.0000 0.0000 0.0000 22.9789 0.0000 0.0000
# 5 0.0000 0.0000 0.0000 0.0000 20.5091 0.0000
# 6 0.0000 0.0000 0.0000 0.0000 0.0000 12.5377
#
#
#
# Elastic Compliance Matrix: (Units=1/GPa)
#
#
# Indices 1 2 3 4 5 6 
#
# 1 0.010780 0.004151 -0.002439 0.000000 0.000000 0.000000
# 2 0.004151 0.041145 0.001889 0.000000 0.000000 0.000000
# 3 -0.002439 0.001889 0.010513 0.000000 0.000000 0.000000
# 4 0.000000 0.000000 0.000000 0.043518 0.000000 0.000000
# 5 0.000000 0.000000 0.000000 0.000000 0.048759 0.000000
# 6 0.000000 0.000000 0.000000 0.000000 0.000000 0.079760
#
#
# Mechanical properties :
#
#
# Convention : Reuss Voigt Hill
#
# Bulk Modulus (GPa) = 14.35949 27.28418 20.82183
# Shear Modulus (GPa) = 19.96129 26.15965 23.06047
#
# Velocity S-wave (km/s) = 2.98188 3.41360 3.20502
# Velocity P-wave (km/s) = 4.27222 5.26217 4.79282
#
# Compressibility (1/GPa) = 0.06964037
#
# Stress axis : x y z
#
# Youngs Moduli (GPa) = 92.76710 24.30446 95.11873
#
# Poissons Ratio (x) = -0.10089 0.23199
# Poissons Ratio (y) = -0.38508 -0.17971
# Poissons Ratio (z) = 0.22626 -0.04592
#
# Static dielectric constant tensor:
#      x y z
#    x 4.032080 0.000000 0.000000 
#    y 0.000000 3.849120 0.000000 
#    z 0.000000 0.000000 4.231190 
# 
# 
# High freq. dielectric constant tensor:
#      x y z
#    x 1.870930 0.000000 0.000000 
#    y 0.000000 1.862740 0.000000 
#    z 0.000000 0.000000 1.894220 
# 
# From -- ./inp_files/2615.got.cif
#   From: 2010.03.12/outbox.cif.g09.slc.cpg/sg32_2_cif.got.tgz:2615.got - 2010.04.14 01:46:39.
