data_PCOD8170438
_publ_section_title
;
Structure prediction by ZEFSAII (Michael W. Deem and Ramdas Pophale) SiO2 
 PCOD8170438
Probable space group: P B A 2
;
_chemical_formula_sum "Si O2"
_cell_formula_units_Z 32
_cell_length_a 5.202708
_cell_length_b 15.244671
_cell_length_c 18.649549
_cell_angle_alpha 90.000000
_cell_angle_beta 90.000000
_cell_angle_gamma 90.000000
_cell_volume 1479.162343
_symmetry_space_group_name_H-M "P B A 2"
_symmetry_group_IT_number 32
_symmetry_cell_setting 'orthorhombic'
loop_
_space_group_symop_operation_xyz
x,y,z
-x,-y,z
1/2-x,1/2+y,z
1/2+x,1/2-y,z
loop_
_atom_site_type_symbol
_atom_site_label
_atom_site_fract_x
_atom_site_fract_y
_atom_site_fract_z
Si Si1 0.244947 0.941094 0.682690
Si Si2 0.680921 0.696245 0.967385
Si Si3 0.167778 0.806115 0.803579
Si Si4 0.798553 0.303363 0.311076
Si Si5 0.750173 0.343970 0.475387
Si Si6 0.535875 0.602066 0.103494
Si Si7 0.245638 0.350973 0.537204
Si Si8 0.463262 0.102204 0.176419
O O1 0.213200 0.893924 0.758756
O O2 0.243497 0.865149 0.622315
O O3 0.500000 0.000000 0.682258
O O4 0.000000 0.000000 0.666938
O O5 0.471198 0.772209 0.981832
O O6 0.665746 0.662470 0.885975
O O7 0.610653 0.617042 0.020669
O O8 0.393003 0.736959 0.785666
O O9 0.507012 0.273156 0.296775
O O10 0.813234 0.335784 0.392125
O O11 0.879984 0.382146 0.258608
O O12 0.484901 0.394200 0.493723
O O13 0.712354 0.250915 0.516030
O O14 0.985430 0.398294 0.509511
O O15 0.500000 0.500000 0.118099
O O16 0.261647 0.644339 0.126037
O O17 0.762191 0.644252 0.153604
O O18 0.500000 0.000000 0.162819
#
# Coordination Sequence:
#
# PCOD8170438 Si02
#       8
#     4   4   4   4   4   4   4   4
#     4  12  26  42  62  97 133 161 207 264 309 368
#     4  10  21  38  62  91 125 150 204 259 298 345
#     4  10  23  42  65  93 124 173 208 249 312 383
#     4  12  21  37  60  90 116 148 205 256 301 354
#     4  10  19  37  61  88 108 153 204 252 288 382
#     4  10  21  39  59  84 119 165 203 238 302 373
#     4  10  20  36  61  83 118 152 195 253 302 351
#     4  10  23  39  56  84 123 160 200 245 304 372
#
# _framework density 21.633868
#
# number of rings (size 3 to 8) (size 9 to 14) (size 15 to 20)
#    0.000    1.500    2.500    3.000    3.500    3.500 
#    0.000    3.750    0.000    0.000    0.000    0.000 
#    0.000    0.000    0.000    0.000    0.000    0.000 
#
# Total GULP energy -396614.739015 kJ/mol
# GULP energy per Si atom -12394.210594 kJ/mol
# Density = 2.158463 g / cm^3
# Si number density = 21.633868 Si / 1000 Ang^3
#
#
#
# Elastic Constant Matrix: (Units=GPa)
#
#
# Indices 1 2 3 4 5 6 
#
# 1 157.5708 12.0073 27.7281 0.0000 0.0000 0.0000
# 2 12.0073 22.2751 31.2664 0.0000 0.0000 0.0000
# 3 27.7281 31.2664 120.9002 0.0000 0.0000 0.0000
# 4 0.0000 0.0000 0.0000 25.2890 0.0000 0.0000
# 5 0.0000 0.0000 0.0000 0.0000 36.4284 0.0000
# 6 0.0000 0.0000 0.0000 0.0000 0.0000 20.9620
#
#
#
# Elastic Compliance Matrix: (Units=1/GPa)
#
#
# Indices 1 2 3 4 5 6 
#
# 1 0.006686 -0.002279 -0.000944 0.000000 0.000000 0.000000
# 2 -0.002279 0.071253 -0.017904 0.000000 0.000000 0.000000
# 3 -0.000944 -0.017904 0.013118 0.000000 0.000000 0.000000
# 4 0.000000 0.000000 0.000000 0.039543 0.000000 0.000000
# 5 0.000000 0.000000 0.000000 0.000000 0.027451 0.000000
# 6 0.000000 0.000000 0.000000 0.000000 0.000000 0.047705
#
#
# Mechanical properties :
#
#
# Convention : Reuss Voigt Hill
#
# Bulk Modulus (GPa) = 20.49079 49.19440 34.84260
# Shear Modulus (GPa) = 18.91945 31.85217 25.38581
#
# Velocity S-wave (km/s) = 2.96045 3.84126 3.42925
# Velocity P-wave (km/s) = 4.60194 6.51633 5.64094
#
# Compressibility (1/GPa) = 0.04880241
#
# Stress axis : x y z
#
# Youngs Moduli (GPa) = 149.56288 14.03454 76.23075
#
# Poissons Ratio (x) = 0.03198 0.07197
# Poissons Ratio (y) = 0.34086 1.36485
# Poissons Ratio (z) = 0.14120 0.25128
#
# Static dielectric constant tensor:
#      x y z
#    x 5.204240 0.000000 0.000000 
#    y 0.000000 3.324530 0.000000 
#    z 0.000000 0.000000 3.932180 
# 
# 
# High freq. dielectric constant tensor:
#      x y z
#    x 1.890390 0.000000 0.000000 
#    y 0.000000 1.802630 0.000000 
#    z 0.000000 0.000000 1.856360 
# 
# From -- ./inp_files/4220.got.cif
#   From: 2010.03.12/outbox.cif.g09.slc.cpg/sg32_3_cif.got.tgz:4220.got - 2010.04.14 01:46:39.
