data_PCOD8170779
_publ_section_title
;
Structure prediction by ZEFSAII (Michael W. Deem and Ramdas Pophale) SiO2 
 PCOD8170779
Probable space group: P N A 21
;
_chemical_formula_sum "Si O2"
_cell_formula_units_Z 32
_cell_length_a 8.801129
_cell_length_b 17.354214
_cell_length_c 10.289631
_cell_angle_alpha 90.000000
_cell_angle_beta 90.000000
_cell_angle_gamma 90.000000
_cell_volume 1571.604037
_symmetry_space_group_name_H-M "P N A 21"
_symmetry_group_IT_number 33
_symmetry_cell_setting 'orthorhombic'
loop_
_space_group_symop_operation_xyz
x,y,z
-x,-y,1/2+z
1/2-x,1/2+y,1/2+z
1/2+x,1/2-y,z
loop_
_atom_site_type_symbol
_atom_site_label
_atom_site_fract_x
_atom_site_fract_y
_atom_site_fract_z
Si Si1 0.293896 0.022857 0.194290
Si Si2 0.357022 0.483539 0.426301
Si Si3 0.896406 0.710114 0.940987
Si Si4 0.902031 0.165654 0.558516
Si Si5 0.683776 0.687050 0.582919
Si Si6 0.113410 0.419997 0.250563
Si Si7 0.352836 0.684705 0.704819
Si Si8 0.107192 0.899899 0.332622
O O1 0.475744 0.029546 0.195249
O O2 0.207872 0.100305 0.233337
O O3 0.245032 0.956899 0.296271
O O4 0.245160 0.000915 0.050480
O O5 0.446045 0.402852 0.456238
O O6 0.245342 0.475803 0.303861
O O7 0.472264 0.552217 0.399023
O O8 0.956438 0.635339 0.862885
O O9 0.821490 0.767168 0.835671
O O10 0.777622 0.680190 0.048185
O O11 0.025415 0.753311 0.020187
O O12 0.952401 0.142745 0.703384
O O13 0.811973 0.629352 0.636011
O O14 0.529858 0.681426 0.666792
O O15 0.752132 0.773736 0.591827
O O16 0.658560 0.665874 0.432761
#
# Coordination Sequence:
#
# PCOD8170779 Si02
#       8
#     4   4   4   4   4   4   4   4
#     4  11  22  39  64  90 125 172 214 265 330 388
#     4  10  22  41  60  90 129 166 220 260 323 403
#     4  10  19  39  62  90 118 153 212 258 308 382
#     4  10  22  38  63  89 123 164 206 260 322 389
#     4  11  23  39  64  97 126 168 220 271 334 392
#     4  10  22  38  65  92 122 163 217 275 319 392
#     4  11  20  39  66  91 122 168 218 270 317 392
#     4  11  24  41  60  93 135 170 209 273 339 398
#
# _framework density 20.361362
#
# number of rings (size 3 to 8) (size 9 to 14) (size 15 to 20)
#    0.000    1.500    1.250    6.000    3.500    1.000 
#    0.000    3.750    0.000    0.000    0.000    0.000 
#    0.000    0.000    0.000    0.000    0.000    0.000 
#
# Total GULP energy -396811.095984 kJ/mol
# GULP energy per Si atom -12400.346750 kJ/mol
# Density = 2.031502 g / cm^3
# Si number density = 20.361362 Si / 1000 Ang^3
#
#
#
# Elastic Constant Matrix: (Units=GPa)
#
#
# Indices 1 2 3 4 5 6 
#
# 1 71.6530 12.7627 24.8364 0.0000 0.0000 0.0000
# 2 12.7627 55.2617 17.2130 0.0000 0.0000 0.0000
# 3 24.8364 17.2130 82.1616 0.0000 0.0000 0.0000
# 4 0.0000 0.0000 0.0000 30.0012 0.0000 0.0000
# 5 0.0000 0.0000 0.0000 0.0000 19.7575 0.0000
# 6 0.0000 0.0000 0.0000 0.0000 0.0000 38.5128
#
#
#
# Elastic Compliance Matrix: (Units=1/GPa)
#
#
# Indices 1 2 3 4 5 6 
#
# 1 0.015863 -0.002321 -0.004309 0.000000 0.000000 0.000000
# 2 -0.002321 0.019699 -0.003425 0.000000 0.000000 0.000000
# 3 -0.004309 -0.003425 0.014191 0.000000 0.000000 0.000000
# 4 0.000000 0.000000 0.000000 0.033332 0.000000 0.000000
# 5 0.000000 0.000000 0.000000 0.000000 0.050614 0.000000
# 6 0.000000 0.000000 0.000000 0.000000 0.000000 0.025965
#
#
# Mechanical properties :
#
#
# Convention : Reuss Voigt Hill
#
# Bulk Modulus (GPa) = 33.73580 35.41118 34.57349
# Shear Modulus (GPa) = 26.36352 27.93859 27.15105
#
# Velocity S-wave (km/s) = 3.60221 3.70826 3.65562
# Velocity P-wave (km/s) = 5.82286 5.98030 5.90211
#
# Compressibility (1/GPa) = 0.02964210
#
# Stress axis : x y z
#
# Youngs Moduli (GPa) = 63.03902 50.76472 70.46599
#
# Poissons Ratio (x) = 0.11785 0.30363
# Poissons Ratio (y) = 0.14634 0.24136
# Poissons Ratio (z) = 0.27163 0.17388
#
# Static dielectric constant tensor:
#      x y z
#    x 3.593890 0.000000 0.000000 
#    y 0.000000 3.969680 0.000000 
#    z 0.000000 0.000000 3.599570 
# 
# 
# High freq. dielectric constant tensor:
#      x y z
#    x 1.788910 0.000000 0.000000 
#    y 0.000000 1.800640 0.000000 
#    z 0.000000 0.000000 1.787090 
# 
# From -- ./inp_files/6037.got.cif
#   From: 2010.03.12/outbox.cif.g09.slc.cpg/sg33_4_cif.got.tgz:6037.got - 2010.04.14 01:49:19.
