data_PCOD8170057
_publ_section_title
;
Structure prediction by ZEFSAII (Michael W. Deem and Ramdas Pophale) SiO2 
 PCOD8170057
Probable space group: P M N 21
;
_chemical_formula_sum "Si O2"
_cell_formula_units_Z 32
_cell_length_a 9.297960
_cell_length_b 9.271287
_cell_length_c 19.904175
_cell_angle_alpha 90.000000
_cell_angle_beta 90.000000
_cell_angle_gamma 90.000000
_cell_volume 1715.820610
_symmetry_space_group_name_H-M "P M N 21"
_symmetry_group_IT_number 31
_symmetry_cell_setting 'orthorhombic'
loop_
_space_group_symop_operation_xyz
x,y,z
1/2-x,-y,1/2+z
-x,y,z
1/2+x,-y,1/2+z
loop_
_atom_site_type_symbol
_atom_site_label
_atom_site_fract_x
_atom_site_fract_y
_atom_site_fract_z
Si Si1 0.166177 0.913752 0.263180
Si Si2 0.331423 0.096555 0.365794
Si Si3 0.834168 0.583702 0.244530
Si Si4 0.333233 0.109092 0.520394
Si Si5 0.665951 0.608739 0.017456
Si Si6 0.165261 0.380518 0.365531
Si Si7 0.666864 0.892878 0.634485
Si Si8 0.331272 0.403874 0.135590
O O1 0.208740 0.750213 0.247501
O O2 0.000000 0.926116 0.284442
O O3 0.263196 0.965423 0.324918
O O4 0.200473 0.006822 0.197711
O O5 0.500000 0.104326 0.351593
O O6 0.296222 0.068395 0.443893
O O7 0.261671 0.246545 0.341436
O O8 0.805692 0.515679 0.317690
O O9 0.731987 0.509105 0.191232
O O10 0.000000 0.562804 0.222771
O O11 0.500000 0.142978 0.530779
O O12 0.252317 0.252923 0.543686
O O13 0.285696 0.976376 0.567091
O O14 0.500000 0.650142 0.024100
O O15 0.707725 0.570615 0.940776
O O16 0.703821 0.470247 0.062465
O O17 0.000000 0.329371 0.361790
O O18 0.500000 0.848617 0.631999
O O19 0.760854 0.751354 0.641042
O O20 0.500000 0.387867 0.148018
#
# Coordination Sequence:
#
# PCOD8170057 Si02
#       8
#     4   4   4   4   4   4   4   4
#     4  10  21  36  55  78 103 138 182 220 256 306
#     4  10  20  34  54  81 111 139 169 212 265 313
#     4  10  21  37  57  78 102 138 181 220 258 306
#     4   9  19  36  57  80 105 137 177 216 256 307
#     4   9  19  35  54  78 107 137 170 212 261 311
#     4   9  18  35  57  78 103 137 176 214 254 307
#     4  10  21  37  55  75 103 139 179 218 255 305
#     4  11  23  36  53  80 110 137 170 216 269 317
#
# _framework density 18.649967
#
# number of rings (size 3 to 8) (size 9 to 14) (size 15 to 20)
#    0.000    2.250    0.000    2.250    0.000    8.500 
#    0.000    1.250    0.000    0.000    0.000    0.000 
#    0.000    0.000    0.000    0.000    0.000    0.000 
#
# Total GULP energy -396931.555578 kJ/mol
# GULP energy per Si atom -12404.111112 kJ/mol
# Density = 1.860752 g / cm^3
# Si number density = 18.649967 Si / 1000 Ang^3
#
#
#
# Elastic Constant Matrix: (Units=GPa)
#
#
# Indices 1 2 3 4 5 6 
#
# 1 79.6145 70.2048 51.8844 0.0000 0.0000 0.0000
# 2 70.2048 152.4814 68.9054 0.0000 0.0000 0.0000
# 3 51.8844 68.9054 93.2584 0.0000 0.0000 0.0000
# 4 0.0000 0.0000 0.0000 33.6833 0.0000 0.0000
# 5 0.0000 0.0000 0.0000 0.0000 28.6894 0.0000
# 6 0.0000 0.0000 0.0000 0.0000 0.0000 29.0843
#
#
#
# Elastic Compliance Matrix: (Units=1/GPa)
#
#
# Indices 1 2 3 4 5 6 
#
# 1 0.024540 -0.007700 -0.007964 0.000000 0.000000 0.000000
# 2 -0.007700 0.012261 -0.004776 0.000000 0.000000 0.000000
# 3 -0.007964 -0.004776 0.018682 0.000000 0.000000 0.000000
# 4 0.000000 0.000000 0.000000 0.029688 0.000000 0.000000
# 5 0.000000 0.000000 0.000000 0.000000 0.034856 0.000000
# 6 0.000000 0.000000 0.000000 0.000000 0.000000 0.034383
#
#
# Mechanical properties :
#
#
# Convention : Reuss Voigt Hill
#
# Bulk Modulus (GPa) = 68.46941 78.59373 73.53157
# Shear Modulus (GPa) = 24.98018 27.24871 26.11444
#
# Velocity S-wave (km/s) = 3.66378 3.82653 3.74604
# Velocity P-wave (km/s) = 7.39529 7.85850 7.63041
#
# Compressibility (1/GPa) = 0.01460506
#
# Stress axis : x y z
#
# Youngs Moduli (GPa) = 40.74906 81.55623 53.52695
#
# Poissons Ratio (x) = 0.62798 0.42628
# Poissons Ratio (y) = 0.31377 0.25563
# Poissons Ratio (z) = 0.32452 0.38949
#
# Static dielectric constant tensor:
#      x y z
#    x 3.426120 0.000000 0.000000 
#    y 0.000000 3.393550 0.000000 
#    z 0.000000 0.000000 3.643760 
# 
# 
# High freq. dielectric constant tensor:
#      x y z
#    x 1.722110 0.000000 0.000000 
#    y 0.000000 1.722740 0.000000 
#    z 0.000000 0.000000 1.735260 
# 
# From -- ./inp_files/6260.got.cif
#   From: 2010.03.12/outbox.cif.g09.slc.cpg/sg31_4_cif.got.tgz:6260.got - 2010.04.14 01:42:59.
