data_PCOD8170165
_publ_section_title
;
Structure prediction by ZEFSAII (Michael W. Deem and Ramdas Pophale) SiO2 
 PCOD8170165
Probable space group: P M N 21
;
_chemical_formula_sum "Si O2"
_cell_formula_units_Z 32
_cell_length_a 13.472392
_cell_length_b 7.002637
_cell_length_c 16.707544
_cell_angle_alpha 90.000000
_cell_angle_beta 90.000000
_cell_angle_gamma 90.000000
_cell_volume 1576.227639
_symmetry_space_group_name_H-M "P M N 21"
_symmetry_group_IT_number 31
_symmetry_cell_setting 'orthorhombic'
loop_
_space_group_symop_operation_xyz
x,y,z
1/2-x,-y,1/2+z
-x,y,z
1/2+x,-y,1/2+z
loop_
_atom_site_type_symbol
_atom_site_label
_atom_site_fract_x
_atom_site_fract_y
_atom_site_fract_z
Si Si1 0.108845 0.442699 0.662720
Si Si2 0.272768 0.131032 0.015583
Si Si3 0.307106 0.524062 0.584536
Si Si4 0.111036 0.758527 0.789578
Si Si5 0.886207 0.688122 0.225844
Si Si6 0.778142 0.734721 0.947045
Si Si7 0.616502 0.426980 0.907366
Si Si8 0.706547 0.942736 0.182473
O O1 0.187772 0.516188 0.598407
O O2 0.117192 0.560240 0.743711
O O3 0.127732 0.226243 0.688666
O O4 0.000000 0.462579 0.623208
O O5 0.179136 0.269328 0.041543
O O6 0.315111 0.043857 0.097723
O O7 0.353106 0.252726 0.965429
O O8 0.239849 0.959328 0.958480
O O9 0.367509 0.496059 0.667229
O O10 0.332710 0.350428 0.525341
O O11 0.141663 0.708677 0.878671
O O12 0.000000 0.843538 0.787219
O O13 0.188010 0.909208 0.753162
O O14 0.857907 0.629731 0.315725
O O15 0.818095 0.861202 0.193326
O O16 0.000000 0.754179 0.220057
O O17 0.676495 0.620373 0.927967
O O18 0.500000 0.470220 0.916875
#
# Coordination Sequence:
#
# PCOD8170165 Si02
#       8
#     4   4   4   4   4   4   4   4
#     4  10  20  37  62  91 120 159 205 251 308 367
#     4  11  22  39  62  94 124 166 201 260 319 366
#     4  10  21  39  62  88 122 164 206 257 306 368
#     4  11  24  40  65  93 123 165 211 260 310 376
#     4  10  21  43  68  89 124 171 214 259 310 378
#     4  11  22  41  60  89 130 168 201 257 321 375
#     4  10  24  41  62  94 128 167 213 260 314 378
#     4  11  21  40  64  94 129 160 208 258 315 370
#
# _framework density 20.301635999999998
#
# number of rings (size 3 to 8) (size 9 to 14) (size 15 to 20)
#    0.000    1.500    3.750    2.625    0.000    5.000 
#    0.000    1.875    0.000    0.750    0.000    0.000 
#    0.000    0.000    0.000    0.000    0.000    0.000 
#
# Total GULP energy -396694.622704 kJ/mol
# GULP energy per Si atom -12396.706960 kJ/mol
# Density = 2.025543 g / cm^3
# Si number density = 20.301636 Si / 1000 Ang^3
#
#
#
# Elastic Constant Matrix: (Units=GPa)
#
#
# Indices 1 2 3 4 5 6 
#
# 1 70.8670 37.8534 43.1114 0.0000 0.0000 0.0000
# 2 37.8534 120.1280 44.3057 0.0000 0.0000 0.0000
# 3 43.1114 44.3057 130.6259 0.0000 0.0000 0.0000
# 4 0.0000 0.0000 0.0000 33.5727 0.0000 0.0000
# 5 0.0000 0.0000 0.0000 0.0000 22.4711 0.0000
# 6 0.0000 0.0000 0.0000 0.0000 0.0000 19.9989
#
#
#
# Elastic Compliance Matrix: (Units=1/GPa)
#
#
# Indices 1 2 3 4 5 6 
#
# 1 0.019416 -0.004292 -0.004952 0.000000 0.000000 0.000000
# 2 -0.004292 0.010463 -0.002133 0.000000 0.000000 0.000000
# 3 -0.004952 -0.002133 0.010013 0.000000 0.000000 0.000000
# 4 0.000000 0.000000 0.000000 0.029786 0.000000 0.000000
# 5 0.000000 0.000000 0.000000 0.000000 0.044502 0.000000
# 6 0.000000 0.000000 0.000000 0.000000 0.000000 0.050003
#
#
# Mechanical properties :
#
#
# Convention : Reuss Voigt Hill
#
# Bulk Modulus (GPa) = 58.34485 63.57355 60.95920
# Shear Modulus (GPa) = 25.95387 28.29855 27.12621
#
# Velocity S-wave (km/s) = 3.57937 3.73755 3.65932
# Velocity P-wave (km/s) = 6.77376 7.07165 6.92431
#
# Compressibility (1/GPa) = 0.01713947
#
# Stress axis : x y z
#
# Youngs Moduli (GPa) = 51.50383 95.57201 99.86776
#
# Poissons Ratio (x) = 0.41016 0.49458
# Poissons Ratio (y) = 0.22103 0.21297
# Poissons Ratio (z) = 0.25507 0.20381
#
# Static dielectric constant tensor:
#      x y z
#    x 3.540140 0.000000 0.000000 
#    y 0.000000 3.844890 0.000000 
#    z 0.000000 0.000000 3.899060 
# 
# 
# High freq. dielectric constant tensor:
#      x y z
#    x 1.767420 0.000000 0.000000 
#    y 0.000000 1.798280 0.000000 
#    z 0.000000 0.000000 1.812920 
# 
# From -- ./inp_files/6109.got.cif
#   From: 2010.03.12/outbox.cif.g09.slc.cpg/sg31_4_cif.got.tgz:6109.got - 2010.04.14 01:42:59.
