data_PCOD8170951
_publ_section_title
;
Structure prediction by ZEFSAII (Michael W. Deem and Ramdas Pophale) SiO2 
 PCOD8170951
Probable space group: P N A 21
;
_chemical_formula_sum "Si O2"
_cell_formula_units_Z 32
_cell_length_a 17.386232
_cell_length_b 17.864193
_cell_length_c 5.103932
_cell_angle_alpha 90.000000
_cell_angle_beta 90.000000
_cell_angle_gamma 90.000000
_cell_volume 1585.235364
_symmetry_space_group_name_H-M "P N A 21"
_symmetry_group_IT_number 33
_symmetry_cell_setting 'orthorhombic'
loop_
_space_group_symop_operation_xyz
x,y,z
-x,-y,1/2+z
1/2-x,1/2+y,1/2+z
1/2+x,1/2-y,z
loop_
_atom_site_type_symbol
_atom_site_label
_atom_site_fract_x
_atom_site_fract_y
_atom_site_fract_z
Si Si1 0.401331 0.324111 0.011490
Si Si2 0.094560 0.726131 0.020794
Si Si3 0.222685 0.941102 0.467027
Si Si4 0.390740 0.971613 0.512878
Si Si5 0.017403 0.046051 0.972611
Si Si6 0.663132 0.890543 0.332964
Si Si7 0.311014 0.535143 0.473168
Si Si8 0.466594 0.102000 0.222810
O O1 0.385519 0.276590 0.272022
O O2 0.431758 0.276334 0.765336
O O3 0.320053 0.361975 0.933442
O O4 0.466416 0.385121 0.074309
O O5 0.167593 0.673286 0.106326
O O6 0.028057 0.663624 0.956051
O O7 0.313827 0.930619 0.408414
O O8 0.204663 0.971477 0.757049
O O9 0.190065 0.000354 0.261283
O O10 0.447931 0.906743 0.610609
O O11 0.363963 0.027963 0.738462
O O12 0.435751 0.019090 0.293804
O O13 0.105457 0.071879 0.931009
O O14 0.985006 0.017814 0.694848
O O15 0.747344 0.898889 0.459513
O O16 0.597311 0.861710 0.531234
#
# Coordination Sequence:
#
# PCOD8170951 Si02
#       8
#     4   4   4   4   4   4   4   4
#     4  12  23  42  63  87 128 173 210 255 311 389
#     4  11  25  41  61  86 129 184 207 234 319 399
#     4  11  22  38  63  93 127 150 209 261 322 363
#     4  10  21  34  65 101 118 159 203 280 309 350
#     4  12  22  40  66  97 123 155 215 277 320 351
#     4  10  21  39  64  89 129 159 210 255 314 378
#     4  11  21  39  63  98 119 153 203 275 319 352
#     4  11  19  39  63  93 129 161 211 255 316 378
#
# _framework density 20.186278999999999
#
# number of rings (size 3 to 8) (size 9 to 14) (size 15 to 20)
#    0.000    1.000    6.250    1.500    0.000    0.000 
#    0.000    2.500    0.000    0.000    0.000    0.000 
#    0.000    0.000    0.000    0.000    0.000    0.000 
#
# Total GULP energy -396674.966173 kJ/mol
# GULP energy per Si atom -12396.092693 kJ/mol
# Density = 2.014033 g / cm^3
# Si number density = 20.186279 Si / 1000 Ang^3
#
#
#
# Elastic Constant Matrix: (Units=GPa)
#
#
# Indices 1 2 3 4 5 6 
#
# 1 147.5198 46.1924 25.3860 0.0000 0.0000 0.0000
# 2 46.1924 96.7757 32.2172 0.0000 0.0000 0.0000
# 3 25.3860 32.2172 89.3319 0.0000 0.0000 0.0000
# 4 0.0000 0.0000 0.0000 35.8170 0.0000 0.0000
# 5 0.0000 0.0000 0.0000 0.0000 25.5272 0.0000
# 6 0.0000 0.0000 0.0000 0.0000 0.0000 14.5509
#
#
#
# Elastic Compliance Matrix: (Units=1/GPa)
#
#
# Indices 1 2 3 4 5 6 
#
# 1 0.008052 -0.003502 -0.001025 0.000000 0.000000 0.000000
# 2 -0.003502 0.013266 -0.003789 0.000000 0.000000 0.000000
# 3 -0.001025 -0.003789 0.012852 0.000000 0.000000 0.000000
# 4 0.000000 0.000000 0.000000 0.027920 0.000000 0.000000
# 5 0.000000 0.000000 0.000000 0.000000 0.039174 0.000000
# 6 0.000000 0.000000 0.000000 0.000000 0.000000 0.068724
#
#
# Mechanical properties :
#
#
# Convention : Reuss Voigt Hill
#
# Bulk Modulus (GPa) = 57.02107 60.13540 58.57823
# Shear Modulus (GPa) = 25.97856 30.50112 28.23984
#
# Velocity S-wave (km/s) = 3.59129 3.89135 3.74433
# Velocity P-wave (km/s) = 6.74576 7.07425 6.91196
#
# Compressibility (1/GPa) = 0.01753738
#
# Stress axis : x y z
#
# Youngs Moduli (GPa) = 124.19725 75.37988 77.80832
#
# Poissons Ratio (x) = 0.26397 0.07977
# Poissons Ratio (y) = 0.43493 0.29483
# Poissons Ratio (z) = 0.12732 0.28563
#
# Static dielectric constant tensor:
#      x y z
#    x 3.772600 0.000000 0.000000 
#    y 0.000000 3.567460 0.000000 
#    z 0.000000 0.000000 3.806890 
# 
# 
# High freq. dielectric constant tensor:
#      x y z
#    x 1.777890 0.000000 0.000000 
#    y 0.000000 1.766300 0.000000 
#    z 0.000000 0.000000 1.803910 
# 
# From -- ./inp_files/1892.got.cif
#   From: 2010.03.12/outbox.cif.g09.slc.cpg/sg33_1_cif.got.tgz:1892.got - 2010.04.14 01:49:19.
