data_PCOD8170776
_publ_section_title
;
Structure prediction by ZEFSAII (Michael W. Deem and Ramdas Pophale) SiO2 
 PCOD8170776
Probable space group: P N A 21
;
_chemical_formula_sum "Si O2"
_cell_formula_units_Z 24
_cell_length_a 9.440316
_cell_length_b 7.684722
_cell_length_c 12.951167
_cell_angle_alpha 90.000000
_cell_angle_beta 90.000000
_cell_angle_gamma 90.000000
_cell_volume 939.558004
_symmetry_space_group_name_H-M "P N A 21"
_symmetry_group_IT_number 33
_symmetry_cell_setting 'orthorhombic'
loop_
_space_group_symop_operation_xyz
x,y,z
-x,-y,1/2+z
1/2-x,1/2+y,1/2+z
1/2+x,1/2-y,z
loop_
_atom_site_type_symbol
_atom_site_label
_atom_site_fract_x
_atom_site_fract_y
_atom_site_fract_z
Si Si1 0.592888 0.674626 0.477770
Si Si2 0.889917 0.701114 0.045044
Si Si3 0.954276 0.525907 0.848761
Si Si4 0.225749 0.990348 0.296979
Si Si5 0.675789 0.851961 0.169631
Si Si6 0.809269 0.875871 0.594376
O O1 0.556663 0.851846 0.417696
O O2 0.635501 0.516821 0.402102
O O3 0.723815 0.706638 0.556504
O O4 0.455421 0.603363 0.534764
O O5 0.905663 0.689223 0.920314
O O6 0.807230 0.875259 0.087509
O O7 0.787896 0.544687 0.079841
O O8 0.039247 0.693215 0.101669
O O9 0.858379 0.517064 0.743837
O O10 0.115247 0.551615 0.817017
O O11 0.221031 0.796736 0.250033
O O12 0.157455 0.130767 0.217421
#
# Coordination Sequence:
#
# PCOD8170776 Si02
#       6
#     4   4   4   4   4   4
#     4  10  20  37  67  94 127 169 220 271 330 398
#     4  10  22  38  68  98 130 176 226 279 337 404
#     4  10  19  38  66  96 129 174 223 268 337 402
#     4  10  20  38  67  95 125 174 222 267 343 400
#     4  10  19  40  65  93 131 177 216 278 341 398
#     4  10  20  39  65  96 128 172 219 275 334 396
#
# _framework density 25.543922999999999
#
# number of rings (size 3 to 8) (size 9 to 14) (size 15 to 20)
#    0.000    2.000    5.000    0.000    0.000    0.000 
#    6.000    1.667    7.333    0.000    0.000    0.000 
#    0.000    0.000    0.000    0.000    0.000    0.000 
#
# Total GULP energy -297419.058379 kJ/mol
# GULP energy per Si atom -12392.460766 kJ/mol
# Density = 2.548578 g / cm^3
# Si number density = 25.543923 Si / 1000 Ang^3
#
#
#
# Elastic Constant Matrix: (Units=GPa)
#
#
# Indices 1 2 3 4 5 6 
#
# 1 145.4834 7.0876 83.6365 0.0000 0.0000 0.0000
# 2 7.0876 52.5538 28.3071 0.0000 0.0000 0.0000
# 3 83.6365 28.3071 179.3731 0.0000 0.0000 0.0000
# 4 0.0000 0.0000 0.0000 24.6338 0.0000 0.0000
# 5 0.0000 0.0000 0.0000 0.0000 58.0121 0.0000
# 6 0.0000 0.0000 0.0000 0.0000 0.0000 -37.8921
#
#
#
# Elastic Compliance Matrix: (Units=1/GPa)
#
#
# Indices 1 2 3 4 5 6 
#
# 1 0.009460 0.001202 -0.004601 0.000000 0.000000 0.000000
# 2 0.001202 0.020949 -0.003866 0.000000 0.000000 0.000000
# 3 -0.004601 -0.003866 0.008330 0.000000 0.000000 0.000000
# 4 0.000000 0.000000 0.000000 0.040595 0.000000 0.000000
# 5 0.000000 0.000000 0.000000 0.000000 0.017238 0.000000
# 6 0.000000 0.000000 0.000000 0.000000 0.000000 -0.026391
#
#
# Mechanical properties :
#
#
# Convention : Reuss Voigt Hill
#
# Bulk Modulus (GPa) = 41.30688 68.38586 54.84637
# Shear Modulus (GPa) = 53.89099 26.17603 40.03351
#
# Velocity S-wave (km/s) = 4.59817 3.20464 3.96314
# Velocity P-wave (km/s) = 6.66310 6.36576 6.51613
#
# Compressibility (1/GPa) = 0.02420904
#
# Stress axis : x y z
#
# Youngs Moduli (GPa) = 105.70940 47.73589 120.04399
#
# Poissons Ratio (x) = -0.05739 0.55227
# Poissons Ratio (y) = -0.12709 0.46415
# Poissons Ratio (z) = 0.48633 0.18457
#
# Static dielectric constant tensor:
#      x y z
#    x 4.652390 0.000000 0.000000 
#    y 0.000000 4.531680 0.000000 
#    z 0.000000 0.000000 5.759900 
# 
# 
# High freq. dielectric constant tensor:
#      x y z
#    x 2.018510 0.000000 0.000000 
#    y 0.000000 2.004020 0.000000 
#    z 0.000000 0.000000 2.050020 
# 
# From -- ./inp_files/5811.got.cif
#   From: 2010.03.12/outbox.cif.g09.slc.cpg/sg33_3_cif.got.tgz:5811.got - 2010.04.14 01:49:19.
