data_PCOD8170836
_publ_section_title
;
Structure prediction by ZEFSAII (Michael W. Deem and Ramdas Pophale) SiO2 
 PCOD8170836
Probable space group: P N A 21
;
_chemical_formula_sum "Si O2"
_cell_formula_units_Z 24
_cell_length_a 25.028929
_cell_length_b 9.343176
_cell_length_c 5.084874
_cell_angle_alpha 90.000000
_cell_angle_beta 90.000000
_cell_angle_gamma 90.000000
_cell_volume 1189.096202
_symmetry_space_group_name_H-M "P N A 21"
_symmetry_group_IT_number 33
_symmetry_cell_setting 'orthorhombic'
loop_
_space_group_symop_operation_xyz
x,y,z
-x,-y,1/2+z
1/2-x,1/2+y,1/2+z
1/2+x,1/2-y,z
loop_
_atom_site_type_symbol
_atom_site_label
_atom_site_fract_x
_atom_site_fract_y
_atom_site_fract_z
Si Si1 0.467031 0.969142 0.291940
Si Si2 0.516995 0.326038 0.979744
Si Si3 0.733385 0.954786 0.035734
Si Si4 0.132783 0.655974 0.807229
Si Si5 0.735882 0.786504 0.544148
Si Si6 0.050663 0.867911 0.983604
O O1 0.449501 0.814507 0.403794
O O2 0.496000 0.050566 0.534611
O O3 0.414718 0.055379 0.202271
O O4 0.467373 0.337262 0.779858
O O5 0.556283 0.460835 0.948666
O O6 0.492394 0.308916 0.270944
O O7 0.755489 0.875407 0.292912
O O8 0.669035 0.932669 0.015601
O O9 0.761628 0.871421 0.792303
O O10 0.745478 0.122806 0.034645
O O11 0.170929 0.708196 0.568124
O O12 0.108374 0.797257 0.943771
#
# Coordination Sequence:
#
# PCOD8170836 Si02
#       6
#     4   4   4   4   4   4
#     4  12  22  36  59  89 126 165 203 256 303 383
#     4  10  20  36  54  81 124 156 204 237 303 352
#     4  10  23  43  68  91 127 166 216 274 337 387
#     4  10  24  36  68  87 127 163 217 254 337 375
#     4  10  23  43  68  93 126 166 214 278 333 388
#     4  10  20  36  57  81 116 164 194 253 293 375
#
# _framework density 20.183395999999998
#
# number of rings (size 3 to 8) (size 9 to 14) (size 15 to 20)
#    1.000    0.667    3.333    1.000    4.667    0.000 
#    3.000    0.000    0.000    0.000    0.000    0.000 
#    0.000    0.000    0.000    0.000    0.000    0.000 
#
# Total GULP energy -297415.994305 kJ/mol
# GULP energy per Si atom -12392.333096 kJ/mol
# Density = 2.013746 g / cm^3
# Si number density = 20.183396 Si / 1000 Ang^3
#
#
#
# Elastic Constant Matrix: (Units=GPa)
#
#
# Indices 1 2 3 4 5 6 
#
# 1 64.4215 36.0445 12.4960 0.0000 0.0000 0.0000
# 2 36.0445 159.8626 38.6300 0.0000 0.0000 0.0000
# 3 12.4960 38.6300 118.2647 0.0000 0.0000 0.0000
# 4 0.0000 0.0000 0.0000 37.2891 0.0000 0.0000
# 5 0.0000 0.0000 0.0000 0.0000 9.5607 0.0000
# 6 0.0000 0.0000 0.0000 0.0000 0.0000 44.4643
#
#
#
# Elastic Compliance Matrix: (Units=1/GPa)
#
#
# Indices 1 2 3 4 5 6 
#
# 1 0.017805 -0.003865 -0.000619 0.000000 0.000000 0.000000
# 2 -0.003865 0.007630 -0.002084 0.000000 0.000000 0.000000
# 3 -0.000619 -0.002084 0.009202 0.000000 0.000000 0.000000
# 4 0.000000 0.000000 0.000000 0.026817 0.000000 0.000000
# 5 0.000000 0.000000 0.000000 0.000000 0.104595 0.000000
# 6 0.000000 0.000000 0.000000 0.000000 0.000000 0.022490
#
#
# Mechanical properties :
#
#
# Convention : Reuss Voigt Hill
#
# Bulk Modulus (GPa) = 46.50807 57.43221 51.97014
# Shear Modulus (GPa) = 23.94142 35.28803 29.61473
#
# Velocity S-wave (km/s) = 3.44785 4.18589 3.83467
# Velocity P-wave (km/s) = 6.24043 7.20272 6.73877
#
# Compressibility (1/GPa) = 0.02150165
#
# Stress axis : x y z
#
# Youngs Moduli (GPa) = 56.16285 131.05422 108.67530
#
# Poissons Ratio (x) = 0.50653 0.06725
# Poissons Ratio (y) = 0.21707 0.22648
# Poissons Ratio (z) = 0.03476 0.27312
#
# Static dielectric constant tensor:
#      x y z
#    x 3.162680 0.000000 0.000000 
#    y 0.000000 3.892240 0.000000 
#    z 0.000000 0.000000 3.705980 
# 
# 
# High freq. dielectric constant tensor:
#      x y z
#    x 1.736560 0.000000 0.000000 
#    y 0.000000 1.809430 0.000000 
#    z 0.000000 0.000000 1.798350 
# 
# From -- ./inp_files/2189.got.cif
#   From: 2010.03.12/outbox.cif.g09.slc.cpg/sg33_2_cif.got.tgz:2189.got - 2010.04.14 01:49:19.
