data_PCOD8170853
_publ_section_title
;
Structure prediction by ZEFSAII (Michael W. Deem and Ramdas Pophale) SiO2 
 PCOD8170853
Probable space group: P N A 21
;
_chemical_formula_sum "Si O2"
_cell_formula_units_Z 32
_cell_length_a 8.334343
_cell_length_b 9.060133
_cell_length_c 20.540338
_cell_angle_alpha 90.000000
_cell_angle_beta 90.000000
_cell_angle_gamma 90.000000
_cell_volume 1551.006182
_symmetry_space_group_name_H-M "P N A 21"
_symmetry_group_IT_number 33
_symmetry_cell_setting 'orthorhombic'
loop_
_space_group_symop_operation_xyz
x,y,z
-x,-y,1/2+z
1/2-x,1/2+y,1/2+z
1/2+x,1/2-y,z
loop_
_atom_site_type_symbol
_atom_site_label
_atom_site_fract_x
_atom_site_fract_y
_atom_site_fract_z
Si Si1 0.352906 0.630375 0.427140
Si Si2 0.199441 0.447951 0.688252
Si Si3 0.177730 0.130600 0.304796
Si Si4 0.305447 0.445279 0.549099
Si Si5 0.822110 0.869826 0.049648
Si Si6 0.692816 0.551786 0.804429
Si Si7 0.777577 0.052621 0.927281
Si Si8 0.171397 0.630346 0.187872
O O1 0.276123 0.566758 0.493499
O O2 0.267823 0.552655 0.365831
O O3 0.334422 0.805248 0.423356
O O4 0.539904 0.601456 0.425241
O O5 0.235403 0.574903 0.739795
O O6 0.244290 0.512907 0.617326
O O7 0.306123 0.303427 0.703147
O O8 0.015078 0.403529 0.691822
O O9 0.195864 0.305433 0.310715
O O10 0.990821 0.098342 0.302593
O O11 0.261777 0.052548 0.366384
O O12 0.200466 0.301621 0.531960
O O13 0.489900 0.398960 0.555119
O O14 0.737017 0.911333 0.116947
O O15 0.739153 0.966732 0.993707
O O16 0.730633 0.465618 0.738848
#
# Coordination Sequence:
#
# PCOD8170853 Si02
#       8
#     4   4   4   4   4   4   4   4
#     4  10  23  39  59  85 115 149 190 235 285 341
#     4  11  22  38  60  87 117 154 193 236 285 340
#     4  11  23  40  60  86 116 151 192 238 288 343
#     4  10  20  37  59  86 116 150 190 235 283 340
#     4  10  20  37  59  86 116 150 190 235 283 340
#     4  11  23  40  60  86 116 151 192 238 288 343
#     4  10  23  39  59  85 115 149 190 235 285 341
#     4  11  22  38  60  87 117 154 193 236 285 340
#
# _framework density 20.631768999999998
#
# number of rings (size 3 to 8) (size 9 to 14) (size 15 to 20)
#    0.000    1.500    0.000    6.750    0.000    7.000 
#    0.000    2.500    0.000    0.000    0.000    0.000 
#    0.000    0.000    0.000    0.000    0.000    0.000 
#
# Total GULP energy -396985.777043 kJ/mol
# GULP energy per Si atom -12405.805533 kJ/mol
# Density = 2.058481 g / cm^3
# Si number density = 20.631769 Si / 1000 Ang^3
#
#
#
# Elastic Constant Matrix: (Units=GPa)
#
#
# Indices 1 2 3 4 5 6 
#
# 1 44.0090 -15.7911 8.5123 0.0000 0.0000 0.0000
# 2 -15.7911 72.0812 55.1170 0.0000 0.0000 0.0000
# 3 8.5123 55.1170 131.7061 0.0000 0.0000 0.0000
# 4 0.0000 0.0000 0.0000 41.0669 0.0000 0.0000
# 5 0.0000 0.0000 0.0000 0.0000 21.7342 0.0000
# 6 0.0000 0.0000 0.0000 0.0000 0.0000 27.1522
#
#
#
# Elastic Compliance Matrix: (Units=1/GPa)
#
#
# Indices 1 2 3 4 5 6 
#
# 1 0.027919 0.011024 -0.006418 0.000000 0.000000 0.000000
# 2 0.011024 0.024754 -0.011072 0.000000 0.000000 0.000000
# 3 -0.006418 -0.011072 0.012641 0.000000 0.000000 0.000000
# 4 0.000000 0.000000 0.000000 0.024351 0.000000 0.000000
# 5 0.000000 0.000000 0.000000 0.000000 0.046010 0.000000
# 6 0.000000 0.000000 0.000000 0.000000 0.000000 0.036829
#
#
# Mechanical properties :
#
#
# Convention : Reuss Voigt Hill
#
# Bulk Modulus (GPa) = 19.09017 38.16365 28.62691
# Shear Modulus (GPa) = 24.64300 31.32121 27.98211
#
# Velocity S-wave (km/s) = 3.45979 3.90051 3.68674
# Velocity P-wave (km/s) = 5.02325 6.23081 5.65933
#
# Compressibility (1/GPa) = 0.05238299
#
# Stress axis : x y z
#
# Youngs Moduli (GPa) = 35.81736 40.39704 79.10882
#
# Poissons Ratio (x) = -0.44533 0.50770
# Poissons Ratio (y) = -0.39484 0.87587
# Poissons Ratio (z) = 0.22987 0.44727
#
# Static dielectric constant tensor:
#      x y z
#    x 3.660320 0.000000 0.000000 
#    y 0.000000 3.896270 0.000000 
#    z 0.000000 0.000000 4.103180 
# 
# 
# High freq. dielectric constant tensor:
#      x y z
#    x 1.812320 0.000000 0.000000 
#    y 0.000000 1.803060 0.000000 
#    z 0.000000 0.000000 1.824900 
# 
# From -- ./inp_files/8936.got.cif
#   From: 2010.03.12/outbox.cif.g09.slc.cpg/sg33_5_cif.got.tgz:8936.got - 2010.04.14 01:49:19.
