data_PCOD8170354
_publ_section_title
;
Structure prediction by ZEFSAII (Michael W. Deem and Ramdas Pophale) SiO2 
 PCOD8170354
Probable space group: P M N 21
;
_chemical_formula_sum "Si O2"
_cell_formula_units_Z 32
_cell_length_a 8.588392
_cell_length_b 15.210068
_cell_length_c 12.048847
_cell_angle_alpha 90.000000
_cell_angle_beta 90.000000
_cell_angle_gamma 90.000000
_cell_volume 1573.941201
_symmetry_space_group_name_H-M "P M N 21"
_symmetry_group_IT_number 31
_symmetry_cell_setting 'orthorhombic'
loop_
_space_group_symop_operation_xyz
x,y,z
1/2-x,-y,1/2+z
-x,y,z
1/2+x,-y,1/2+z
loop_
_atom_site_type_symbol
_atom_site_label
_atom_site_fract_x
_atom_site_fract_y
_atom_site_fract_z
Si Si1 0.316533 0.248559 0.712020
Si Si2 0.185270 0.415956 0.326336
Si Si3 0.823081 0.341640 0.100503
Si Si4 0.676194 0.858046 0.592197
Si Si5 0.681355 0.087260 0.311016
Si Si6 0.183894 0.394608 0.865015
Si Si7 0.819200 0.907465 0.369575
Si Si8 0.815895 0.746526 0.957140
O O1 0.500000 0.253841 0.722443
O O2 0.250726 0.338341 0.763550
O O3 0.256527 0.162569 0.778685
O O4 0.263050 0.240367 0.584615
O O5 0.251383 0.394732 0.202977
O O6 0.269194 0.504573 0.360309
O O7 0.230139 0.339177 0.411245
O O8 0.000000 0.427269 0.327332
O O9 0.810941 0.240834 0.135376
O O10 0.000000 0.372798 0.088299
O O11 0.743002 0.359490 0.981547
O O12 0.500000 0.882088 0.555818
O O13 0.726284 0.917574 0.695361
O O14 0.794410 0.867397 0.490888
O O15 0.500000 0.097275 0.286121
O O16 0.737948 0.166900 0.389825
O O17 0.716948 0.995341 0.369437
O O18 0.000000 0.383430 0.861357
O O19 0.000000 0.929357 0.350339
O O20 0.000000 0.732157 0.948278
#
# Coordination Sequence:
#
# PCOD8170354 Si02
#       8
#     4   4   4   4   4   4   4   4
#     4  10  23  43  63  87 124 166 205 254 311 366
#     4  11  23  41  63  92 123 161 206 253 309 370
#     4   9  20  39  63  86 119 160 201 251 310 364
#     4  11  21  41  67  90 123 164 207 261 316 370
#     4  11  24  41  64  95 126 164 211 259 313 375
#     4  11  23  41  63  92 123 161 206 253 309 370
#     4  11  24  41  64  95 126 164 211 259 313 375
#     4  10  23  43  63  87 124 166 205 254 311 366
#
# _framework density 20.331126999999999
#
# number of rings (size 3 to 8) (size 9 to 14) (size 15 to 20)
#    0.000    1.500    2.500    1.875    3.500    1.500 
#    0.000    1.875    0.000    0.000    0.000    0.000 
#    0.000    0.000    0.000    0.000    0.000    0.000 
#
# Total GULP energy -396861.281340 kJ/mol
# GULP energy per Si atom -12401.915042 kJ/mol
# Density = 2.028485 g / cm^3
# Si number density = 20.331127 Si / 1000 Ang^3
#
#
#
# Elastic Constant Matrix: (Units=GPa)
#
#
# Indices 1 2 3 4 5 6 
#
# 1 28.6066 19.4242 24.0119 0.0000 0.0000 0.0000
# 2 19.4242 113.1367 40.3088 0.0000 0.0000 0.0000
# 3 24.0119 40.3088 139.6136 0.0000 0.0000 0.0000
# 4 0.0000 0.0000 0.0000 29.8499 0.0000 0.0000
# 5 0.0000 0.0000 0.0000 0.0000 29.7830 0.0000
# 6 0.0000 0.0000 0.0000 0.0000 0.0000 35.4587
#
#
#
# Elastic Compliance Matrix: (Units=1/GPa)
#
#
# Indices 1 2 3 4 5 6 
#
# 1 0.043593 -0.005365 -0.005948 0.000000 0.000000 0.000000
# 2 -0.005365 0.010513 -0.002112 0.000000 0.000000 0.000000
# 3 -0.005948 -0.002112 0.008796 0.000000 0.000000 0.000000
# 4 0.000000 0.000000 0.000000 0.033501 0.000000 0.000000
# 5 0.000000 0.000000 0.000000 0.000000 0.033576 0.000000
# 6 0.000000 0.000000 0.000000 0.000000 0.000000 0.028202
#
#
# Mechanical properties :
#
#
# Convention : Reuss Voigt Hill
#
# Bulk Modulus (GPa) = 27.73986 49.87184 38.80585
# Shear Modulus (GPa) = 25.37448 32.19246 28.78347
#
# Velocity S-wave (km/s) = 3.53662 3.98352 3.76671
# Velocity P-wave (km/s) = 5.50914 6.76321 6.16813
#
# Compressibility (1/GPa) = 0.03604920
#
# Stress axis : x y z
#
# Youngs Moduli (GPa) = 22.93951 95.12395 113.69332
#
# Poissons Ratio (x) = 0.51034 0.67630
# Poissons Ratio (y) = 0.12307 0.24017
# Poissons Ratio (z) = 0.13646 0.20094
#
# Static dielectric constant tensor:
#      x y z
#    x 3.498910 0.000000 0.000000 
#    y 0.000000 3.646910 0.000000 
#    z 0.000000 0.000000 3.910310 
# 
# 
# High freq. dielectric constant tensor:
#      x y z
#    x 1.781080 0.000000 0.000000 
#    y 0.000000 1.801030 0.000000 
#    z 0.000000 0.000000 1.809060 
# 
# From -- ./inp_files/3635.got.cif
#   From: 2010.03.12/outbox.cif.g09.slc.cpg/sg31_2_cif.got.tgz:3635.got - 2010.04.14 01:42:59.
